#------------------------------------------------------------------------------
#$Date: 2019-10-28 09:23:29 +0200 (Mon, 28 Oct 2019) $
#$Revision: 219800 $
#$URL: file:///home/coder/svn-repositories/cod/cif/2/24/24/2242415.cif $
#------------------------------------------------------------------------------
#
# This file is available in the Crystallography Open Database (COD),
# http://www.crystallography.net/. The original data for this entry
# were provided by IUCr Journals, http://journals.iucr.org/.
#
# The file may be used within the scientific community so long as
# proper attribution is given to the journal article from which the
# data were obtained.
#
data_2242415
loop_
_publ_author_name
'Lampl, Martin'
'Laus, Gerhard'
'Kahlenberg, Volker'
'Wurst, Klaus'
'Huppertz, Hubert'
'Schottenberger, Herwig'
_publ_section_title
;
 Synthesis and crystal structures of 2-bromo-1,3-dimethylimidazolium
 iodides
;
_journal_coeditor_code           HB7718
_journal_issue                   4
_journal_name_full               'Acta Crystallographica Section E'
_journal_page_first              497
_journal_page_last               501
_journal_paper_doi               10.1107/S2056989018003390
_journal_volume                  74
_journal_year                    2018
_chemical_formula_iupac          '2C5 H8 Br N2 +, 2I -, I2'
_chemical_formula_moiety         '2(C5 H8 Br N2 +), 2(I -), I2'
_chemical_formula_sum            'C10 H16 Br2 I4 N4'
_chemical_formula_weight         859.66
_chemical_name_systematic
;
2-Bromo-1,3-dimethylimidazolium iodide hemi(diiodide)
;
_space_group_crystal_system      monoclinic
_space_group_IT_number           14
_space_group_name_Hall           '-P 2yn'
_space_group_name_H-M_alt        'P 1 21/n 1'
_symmetry_space_group_name_Hall  '-P 2yn'
_symmetry_space_group_name_H-M   'P 1 21/n 1'
_atom_sites_solution_hydrogens   geom
_audit_creation_method           'SHELXL-2017/1 (Sheldrick, 2017)'
_cell_angle_alpha                90
_cell_angle_beta                 97.812(5)
_cell_angle_gamma                90
_cell_formula_units_Z            2
_cell_length_a                   6.0861(4)
_cell_length_b                   14.4773(11)
_cell_length_c                   12.0303(7)
_cell_measurement_reflns_used    3142
_cell_measurement_temperature    173(2)
_cell_measurement_theta_max      27.56
_cell_measurement_theta_min      3.276
_cell_volume                     1050.16(12)
_computing_cell_refinement
;
CrysAlis PRO (Oxford Diffraction, 2014).
;
_computing_data_collection
;
CrysAlis PRO (Oxford Diffraction, 2014).
;
_computing_data_reduction
;
CrysAlis PRO (Oxford Diffraction, 2014).
;
_computing_molecular_graphics
;
ORTEP-3 for Windows (Farrugia, 2012)
;
_computing_publication_material
;
Mercury (Macrae <i>et al.</i>,  2008)
;
_computing_structure_refinement
;
SHELXL2017 (Sheldrick, 2015)
;
_computing_structure_solution
;
SIR2002 (Burla <i>et al.</i>,  2003)
;
_diffrn_ambient_temperature      173(2)
_diffrn_measured_fraction_theta_full 0.993
_diffrn_measured_fraction_theta_max 0.993
_diffrn_measurement_device       'four-circle diffractometer'
_diffrn_measurement_device_type  'Gemini-R Ultra'
_diffrn_measurement_method       '\w scans'
_diffrn_radiation_type           MoK\a
_diffrn_radiation_wavelength     0.71073
_diffrn_reflns_av_R_equivalents  0.0302
_diffrn_reflns_limit_h_max       7
_diffrn_reflns_limit_h_min       -6
_diffrn_reflns_limit_k_max       13
_diffrn_reflns_limit_k_min       -17
_diffrn_reflns_limit_l_max       11
_diffrn_reflns_limit_l_min       -14
_diffrn_reflns_number            6287
_diffrn_reflns_theta_full        25.242
_diffrn_reflns_theta_max         25.349
_diffrn_reflns_theta_min         3.293
_diffrn_standards_decay_%        0.0(2)
_diffrn_standards_interval_count 0
_diffrn_standards_number         0
_exptl_absorpt_coefficient_mu    9.736
_exptl_absorpt_correction_T_max  0.446
_exptl_absorpt_correction_T_min  0.065
_exptl_absorpt_correction_type   analytical
_exptl_crystal_colour            red-brown
_exptl_crystal_density_diffrn    2.719
_exptl_crystal_density_method    'not measured'
_exptl_crystal_description       'lath shaped'
_exptl_crystal_F_000             772
_exptl_crystal_size_max          0.360
_exptl_crystal_size_mid          0.100
_exptl_crystal_size_min          0.080
_refine_diff_density_max         0.762
_refine_diff_density_min         -0.974
_refine_ls_extinction_method     none
_refine_ls_goodness_of_fit_ref   1.343
_refine_ls_hydrogen_treatment    constr
_refine_ls_matrix_type           full
_refine_ls_number_parameters     93
_refine_ls_number_reflns         1912
_refine_ls_number_restraints     0
_refine_ls_restrained_S_all      1.343
_refine_ls_R_factor_all          0.0406
_refine_ls_R_factor_gt           0.0357
_refine_ls_shift/su_max          0.000
_refine_ls_shift/su_mean         0.000
_refine_ls_structure_factor_coef Fsqd
_refine_ls_weighting_details
'w=1/[\s^2^(Fo^2^)+(0.0102P)^2^+8.6812P] where P=(Fo^2^+2Fc^2^)/3'
_refine_ls_weighting_scheme      calc
_refine_ls_wR_factor_gt          0.0787
_refine_ls_wR_factor_ref         0.0801
_reflns_number_gt                1746
_reflns_number_total             1912
_reflns_threshold_expression     'I > 2\s(I)'
_cod_data_source_file            hb7718sup1.cif
_cod_data_source_block           3
_cod_depositor_comments
;

2019-10-26
Z value and formula fixed to values more according to usual
chemical conventions.                 miguel
;
_cod_original_formula_sum            'C5 H8 Br I2 N2'
_cod_original_formula_weight         429.83
_cod_original_formula_moiety         'C5 H8 Br N2 +, I -, 0.5(I2)'
_cod_original_formula_iupac          'C5 H8 Br N2 +, I -, 0.5I2'
_cod_original_formula_units_Z            4
_cod_database_code               2242415
_shelx_space_group_comment
;
The symmetry employed for this shelxl refinement is uniquely defined
by the following loop, which should always be used as a source of
symmetry information in preference to the above space-group names.
They are only intended as comments.
;
_shelx_estimated_absorpt_t_min   0.127
_shelx_estimated_absorpt_t_max   0.510
_shelx_hkl_file
;
   0   0  -2 44553.2 1447.99   2
   0   0  -3 260.996 206.646   2
   0   0  -4 148536. 3579.39   2
   0   0  -5 599.904 238.833   2
   0   0  -6 19294.7 1169.44   2
   0   0  -7 1182.07 341.918   2
   0   0  -8 10247.0 859.131   2
   0   0  -9 986.676 308.565   2
   0   0 -10 1394.82 360.742   2
   0   0 -11 612.882 283.651   2
   0   0 -12 3082.75 513.033   2
   0   0 -13 238.976 217.606   2
   0   0 -14 9032.79 851.175   2
   0  -1  -2 56746.4 1751.52   2
   0  -1   2 63438.1 1069.31   3
   0   1  -3 50959.1 1135.80   3
   0  -1   3 48951.0 832.069   3
   0   1  -4 35810.1 707.399   3
   0  -1   4 29690.0 554.352   3
   0  -1  -4 35241.6 1541.93   2
   0   1  -4 26732.0 1265.65   2
   0  -1  -5 67432.4 2268.08   2
   0   1  -5 58941.9 2059.67   2
   0   1  -6 156897. 3904.09   2
   0  -1  -6 173914. 4122.00   2
   0  -1  -7 38817.9 1691.05   2
   0   1  -7 37208.7 1647.90   2
   0   1  -8 728.984 301.777   2
   0  -1  -8 616.020 247.003   2
   0  -1  -9 45224.5 1863.00   2
   0   1  -9 43643.9 1853.44   2
   0   1 -10 1079.94 335.153   2
   0  -1 -10 946.784 265.673   2
   0  -1 -11 17582.8 1132.42   2
   0   1 -11 19541.3 1233.70   2
   0   1 -12 267.043 213.334   2
   0  -1 -12 576.220 280.032   2
   0   1 -13 529.402 265.719   2
   0  -1 -13 1037.34 328.089   2
   0  -1 -14 6921.74 744.408   2
   0   1 -14 6874.38 751.769   2
   0  -2  -1 17866.5 622.061   2
   0  -2   1 17043.6 688.133   3
   0  -2  -2 4705.34 445.556   2
   0   2  -2 3612.76 337.619   2
   0  -2  -2 4943.18 411.479   3
   0  -2   2 3762.11 275.814   3
   0   2   2 4400.87 276.785   3
   0   2  -3 51744.0 1693.68   2
   0  -2  -3 62156.6 1454.34   3
   0   2   3 68671.2 1242.93   3
   0  -2   3 67592.8 1310.59   3
   0  -2  -3 75316.9 2229.47   2
   0   2  -3 55376.5 1519.26   3
   0  -2  -4 1259.31 133.633   3
   0   2   4 1142.75 92.5287   3
   0   2  -4 1670.14 206.402   3
   0  -2  -4 1667.65 382.565   2
   0   2  -4 1311.55 292.325   2
   0  -2   4 1140.19 108.132   3
   0   2  -5 17976.3 556.060   3
   0   2  -5 15759.1 962.302   2
   0  -2  -5 18792.0 1114.17   2
   0  -2  -5 16169.1 417.397   3
   0  -2   5 17041.2 425.174   3
   0  -2  -6 15819.1 364.612   1
   0  -2   6 15494.1 379.660   3
   0   2  -6 15743.7 996.676   2
   0  -2   6 14917.7 320.178   1
   0   2  -6 15857.5 440.690   3
   0  -2  -7 79.8276 22.3101   1
   0   2  -7 119.150 203.218   2
   0  -2  -7 120.006 24.5612   1
   0  -2  -7 142.203 187.602   2
   0   2  -8 43132.3 1792.56   2
   0  -2  -8 44977.4 1805.22   2
   0  -2  -9 5549.76 630.104   2
   0   2  -9 5532.24 634.656   2
   0   2 -10 1840.46 391.483   2
   0  -2 -10 2307.00 408.624   2
   0   2 -11 33546.1 1625.08   2
   0  -2 -11 32470.0 1555.99   2
   0  -2 -12 15165.8 1053.05   2
   0   2 -12 14330.6 1062.43   2
   0  -2 -13 17539.3 1137.27   2
   0   2 -13 18119.8 1207.51   2
   0  -2 -14 557.374 255.195   2
   0   2 -14 1099.86 377.787   2
   0  -3   0-8.04506 162.245   3
   0   3  -1 48676.9 956.502   2
   0  -3   1 41720.2 1373.02   3
   0  -3  -1 45678.0 996.319   2
   0  -3  -1 44796.7 1555.61   3
   0   3   2 7181.41 449.145   3
   0  -3   2 6846.98 464.610   2
   0  -3  -2 6669.74 475.761   2
   0  -3  -2 6796.30 590.621   3
   0   3  -2 5493.72 371.825   2
   0  -3   2 5621.65 414.027   3
   0  -3  -3 23109.4 941.537   3
   0  -3   3 22551.0 999.897   2
   0  -3  -3 24610.7 1091.67   2
   0   3   3 23385.8 721.785   3
   0  -3   3 23298.3 775.326   3
   0  -3   4 41485.0 1503.34   2
   0   3  -4 43758.8 1335.27   3
   0  -3  -4 42043.7 1162.01   3
   0  -3   4 42065.4 1035.89   3
   0   3   4 42577.8 965.149   3
   0   3  -5 36753.2 1062.45   3
   0  -3   5 36281.7 1449.73   2
   0  -3   5 36726.6 869.354   3
   0  -3  -5 39159.5 1588.49   2
   0   3   5 35945.6 791.671   3
   0  -3  -5 37734.8 929.098   3
   0   3  -6 3237.31 435.423   2
   0  -3  -6 4218.01 524.812   2
   0  -3   6 3724.95 209.905   3
   0  -3  -6 4105.13 214.941   3
   0  -3   6 3392.25 437.811   2
   0   3  -6 3622.14 258.541   3
   0  -3  -7 16015.2 431.707   1
   0  -3   7 16272.6 389.724   1
   0   3  -7 15293.3 981.734   2
   0  -3   7 16059.5 445.835   3
   0  -3  -7 15254.5 381.145   3
   0  -3  -7 16390.4 1028.91   2
   0   3  -7 16211.7 505.559   3
   0   3  -8 27193.6 1336.17   2
   0  -3   8 20052.1 403.264   1
   0  -3   8 19558.4 402.295   1
   0  -3  -8 26824.9 502.084   1
   0  -3  -8 29109.4 1385.56   2
   0   3  -9 54806.6 2042.29   2
   0  -3  -9 53477.0 1989.41   2
   0   3 -10 2809.50 450.160   2
   0  -3 -10 2104.20 393.922   2
   0   3 -11 12086.6 944.769   2
   0  -3 -11 12842.6 942.055   2
   0  -3 -12 6575.96 683.279   2
   0   3 -12 6752.38 725.761   2
   0  -3 -13 443.838 218.616   2
   0   3 -13 657.606 337.062   2
   0  -3 -14 6433.52 705.430   2
   0   3 -14 6707.32 753.090   2
   0  -4   0 28126.3 1231.08   3
   0  -4  -1 1638.67 112.909   2
   0  -4   1 1559.69 296.076   3
   0   4  -1 1387.09 92.4893   2
   0  -4  -1 1762.60 349.327   3
   0  -4  -2 213482. 3639.92   2
   0  -4  -2 217904. 4498.54   3
   0   4  -2 197419. 3482.85   2
   0   4   2 228547. 4065.08   3
   0  -4   2 191015. 3937.13   3
   0  -4   3 139475. 2840.71   2
   0   4   3 139192. 2658.71   3
   0  -4   3 134335. 2735.78   3
   0  -4  -3 143269. 3142.54   3
   0  -4  -3 141016. 2878.23   2
   0   4   3 143621. 2801.16   2
   0   4   4 29971.7 877.117   3
   0   4  -4 26780.4 1113.54   3
   0  -4  -4 31802.0 1116.08   3
   0  -4  -4 31108.5 1236.77   2
   0   4  -4 26536.7 1083.37   2
   0   4   4 31456.0 1189.50   2
   0  -4   4 30976.4 1194.61   2
   0  -4   4 30455.9 948.131   3
   0  -4   5 68716.6 1536.87   3
   0  -4   5 69298.4 2074.49   2
   0  -4  -5 74178.6 2179.29   2
   0  -4  -5 74114.5 1684.11   3
   0   4   5 70669.2 1463.23   3
   0   4  -5 70853.6 1817.51   3
   0   4  -5 66619.1 1992.33   2
   0  -4  -6 8173.62 400.155   3
   0   4  -6 9682.55 708.913   2
   0  -4   6 7925.58 380.812   3
   0   4  -6 7891.05 458.022   3
   0  -4  -6 8651.78 716.238   2
   0  -4   7 10061.6 400.168   3
   0   4  -7 10181.3 462.632   3
   0  -4   7 9650.55 355.532   1
   0  -4  -7 10316.9 798.258   2
   0   4  -7 8756.77 724.453   2
   0  -4  -7 10801.6 392.664   3
   0  -4  -8 6611.73 254.459   3
   0   4  -8 6175.33 322.871   3
   0  -4   8 6587.00 254.951   1
   0  -4  -8 7599.36 684.805   2
   0   4  -8 5653.37 608.881   2
   0  -4   8 6953.44 305.319   3
   0  -4  -8 6336.68 282.529   1
   0  -4   9 17291.2 477.108   3
   0  -4   9 15346.2 367.109   1
   0   4  -9 16943.3 1061.40   2
   0  -4  -9 18011.2 1081.00   2
   0  -4  -9 16036.7 425.806   1
   0  -4   9 14274.6 359.609   1
   0   4 -10 1685.83 360.729   2
   0  -4 -10 1624.08 322.833   2
   0  -4 -10 1115.23 71.0691   1
   0  -4 -10 1097.67 72.5308   1
   0  -4 -11 9081.58 776.412   2
   0   4 -11 9270.57 819.505   2
   0   4 -12 4543.96 597.547   2
   0  -4 -12 4808.27 599.395   2
   0  -4 -13 209.915 181.298   2
   0   4 -13 569.878 235.389   2
   0   4 -14 492.851 258.434   2
   0  -4 -14 346.795 245.849   2
   0  -5   0 204.313 205.202   3
   0  -5   1 130749. 3154.00   3
   0  -5  -1 134068. 2083.16   2
   0  -5  -2 21365.4 1141.99   3
   0   5  -2 20097.9 583.218   2
   0  -5  -2 21009.7 637.237   2
   0   5   2 22457.5 999.726   3
   0   5   3 217752. 3978.81   3
   0   5  -3 212895. 3731.52   2
   0  -5   3 214656. 4084.95   3
   0  -5  -3 216627. 3832.31   2
   0   5   4 76544.7 1769.74   3
   0  -5  -4 80649.8 1994.09   2
   0   5  -4 71468.2 2093.25   3
   0  -5  -4 79018.8 2090.89   3
   0  -5   4 74935.8 1860.78   3
   0   5  -4 77319.2 1901.97   2
   0   5   5 1915.74 217.125   3
   0  -5  -5 2144.57 323.351   2
   0   5  -5 1683.15 278.345   2
   0   5  -5 1964.99 290.167   3
   0  -5  -5 2393.33 290.828   3
   0  -5   5 1570.95 224.148   3
   0   5   6 5394.89 329.943   3
   0  -5  -6 5933.86 545.745   2
   0  -5   6 5906.47 375.143   3
   0   5  -6 5785.72 528.631   2
   0  -5  -6 5899.87 398.216   3
   0   5  -6 5703.79 438.242   3
   0  -5   7 32142.7 907.807   3
   0   5  -7 30857.4 1343.06   2
   0  -5  -7 34650.8 937.769   3
   0   5  -7 31616.8 1005.83   3
   0  -5  -7 34726.0 1432.82   2
   0   5  -8 6458.23 619.788   2
   0  -5   8 7215.82 325.295   1
   0   5  -8 6726.65 388.400   3
   0  -5   8 7630.68 375.267   3
   0  -5  -8 7256.20 338.681   3
   0  -5  -8 7318.54 666.053   2
   0   5  -9 2462.24 415.338   2
   0  -5   9 2327.35 164.793   1
   0   5  -9 2261.64 206.979   3
   0  -5  -9 2624.27 193.495   1
   0  -5  -9 2343.59 160.225   3
   0  -5   9 2921.15 215.372   3
   0  -5  -9 2787.41 422.872   2
   0  -5  10 793.368 79.9042   1
   0   5 -10 1152.03 313.754   2
   0  -5 -10 1226.72 309.070   2
   0  -5 -10 1046.36 109.731   1
   0  -5  10 809.406 83.1667   1
   0  -5 -10 860.506 103.043   1
   0  -5 -11 655.268 64.6305   1
   0  -5 -11 567.191 58.6969   1
   0  -5 -12 6242.26 647.306   2
   0   5 -12 6767.14 718.650   2
   0  -5 -13 3973.19 544.507   2
   0   5 -13 4870.58 607.707   2
   0  -5 -14 4030.73 546.912   2
   0   5 -14 4644.07 616.085   2
   0  -6   0 2935.51 444.628   3
   0  -6  -1 21355.6 1154.10   3
   0  -6   1 18226.7 1032.79   3
   0   6   2 2847.52 377.353   3
   0  -6  -2 3165.52 194.370   2
   0  -6   2 2080.49 334.845   3
   0   6  -2 2732.73 167.460   2
   0  -6  -2 3221.91 470.709   3
   0  -6   3 26042.3 1113.43   3
   0   6   3 28953.1 1093.20   3
   0  -6  -3 27893.5 1285.93   3
   0   6  -3 27427.1 799.895   2
   0  -6  -3 27023.7 831.981   2
   0   6  -4 18350.9 744.017   2
   0   6   4 17350.7 774.286   3
   0  -6   4 17563.0 839.492   3
   0  -6  -4 18137.9 765.310   2
   0   6  -4 16879.1 938.103   3
   0  -6  -4 19149.2 966.888   3
   0  -6  -5 2370.14 310.568   3
   0   6  -5 1839.99 306.202   3
   0   6  -5 2424.25 304.297   2
   0   6   5 2095.81 249.243   3
   0  -6   5 2153.73 275.698   3
   0  -6  -5 2310.99 299.531   2
   0  -6  -6 54411.5 1468.70   3
   0   6  -6 49226.2 1581.54   2
   0  -6  -6 50069.1 1607.87   2
   0  -6   6 49718.6 1341.88   3
   0   6   6 50367.7 1277.35   3
   0   6  -7 2228.56 344.720   2
   0  -6  -7 2239.14 252.219   3
   0  -6  -7 1983.67 319.898   2
   0  -6   7 2017.49 229.761   3
   0   6   7 2073.29 220.622   3
   0  -6  -8 87147.5 1480.08   3
   0  -6  -8 81833.9 2153.74   2
   0   6  -8 80005.4 2152.70   2
   0  -6   8 81967.1 1469.11   3
   0   6  -9 9586.13 493.823   3
   0  -6  -9 12179.2 460.540   3
   0  -6   9 11344.0 494.794   3
   0  -6  -9 10513.1 783.332   2
   0  -6   9 11620.3 447.125   1
   0  -6  -9 10789.2 472.062   1
   0   6  -9 11779.9 836.374   2
   0   6 -10 37259.3 1608.40   2
   0  -6  10 43952.9 1039.87   3
   0  -6 -10 38496.6 885.880   3
   0  -6  10 42152.3 927.239   1
   0  -6 -10 39254.7 1616.37   2
   0  -6 -10 42081.3 991.847   1
   0  -6 -11 1194.75 309.711   2
   0   6 -11 1378.29 353.787   2
   0  -6  11 901.216 93.6245   1
   0  -6 -11 1350.55 135.600   1
   0   6 -12 4650.14 590.995   2
   0  -6 -12 5525.31 621.424   2
   0   6 -13 4988.97 623.433   2
   0  -6 -13 4592.71 573.827   2
   0   6 -14 1222.58 359.734   2
   0  -6 -14 1587.58 350.803   2
   0  -7   0-152.912 215.748   3
   0  -7   1 45647.4 1759.99   3
   0  -7  -1 52212.2 1881.34   3
   0   7  -2 14918.6 396.032   2
   0  -7  -2 17343.7 1028.18   3
   0  -7  -2 16016.4 428.576   2
   0  -7   2 16052.6 936.807   3
   0   7   2 18313.5 955.458   3
   0   7  -3 60.9019 51.7903   2
   0  -7   3 364.714 187.589   3
   0   7   3 97.9089 135.029   3
   0  -7  -3 137.426 70.3603   2
   0  -7  -3 207.861 144.323   3
   0  -7  -4 21575.0 777.879   2
   0  -7  -4 21615.2 1074.63   3
   0  -7   4 21707.9 1010.06   3
   0   7  -4 21261.4 749.150   2
   0   7   4 21191.0 913.451   3
   0  -7  -5 50223.4 1614.09   3
   0  -7   5 49935.9 1534.47   3
   0   7   5 50542.1 1432.40   3
   0   7  -5 50938.0 1419.54   2
   0  -7  -5 51343.8 1444.23   2
   0  -7  -6 6217.35 485.293   3
   0  -7  -6 6067.26 490.179   2
   0   7   6 5847.05 409.133   3
   0   7  -6 5588.19 468.569   2
   0  -7   6 5789.23 455.181   3
   0   7  -7 8218.82 610.064   2
   0  -7  -7 8234.98 605.661   2
   0  -7   7 7517.53 484.024   3
   0  -7  -7 8838.32 535.589   3
   0   7   7 7962.16 462.984   3
   0  -7  -8 956.566 179.903   3
   0   7  -8 1147.29 263.218   2
   0  -7  -8 955.716 230.650   2
   0  -7   8 591.608 145.760   3
   0  -7   9 1548.93 201.548   3
   0  -7  -9 2086.28 357.069   2
   0   7  -9 1663.91 322.527   2
   0  -7  -9 2135.94 222.168   3
   0  -7   9 1500.04 178.857   1
   0   7 -10 11305.3 817.076   2
   0  -7 -10 12535.0 456.941   3
   0  -7 -10 11946.1 818.565   2
   0  -7  10 12717.3 523.578   3
   0  -7  10 11913.6 450.416   1
   0  -7  11 228.771 93.2145   3
   0   7 -11 137.328 160.982   2
   0  -7 -11 223.198 64.9586   3
   0  -7 -11-10.8603 172.925   2
   0  -7 -12 16639.6 1044.19   2
   0   7 -12 17173.0 1096.89   2
   0   7 -13-70.1194 206.344   2
   0  -7 -13-58.0450 187.302   2
   0   7 -14 14544.9 1077.27   2
   0  -8   0 12299.6 880.944   3
   0  -8  -1 32735.4 1470.18   3
   0  -8   1 32430.4 1455.48   3
   0   8   2 6691.95 592.746   3
   0  -8  -2 5913.22 218.918   2
   0  -8   2 6518.64 617.402   3
   0  -8  -2 7236.44 674.780   3
   0  -8  -3 10956.1 809.946   3
   0   8  -3 9056.91 736.259   3
   0  -8   3 10092.5 729.897   3
   0  -8  -3 10124.4 395.276   2
   0   8  -3 10510.9 375.718   2
   0   8   3 11473.6 731.803   3
   0  -8  -4-19.4287 74.1085   2
   0   8  -4 110.018 145.944   3
   0   8  -4 120.046 63.2968   2
   0   8   4 45.4168 118.757   3
   0  -8   4 152.887 151.976   3
   0  -8  -4 146.105 163.124   3
   0  -8   5 42582.9 1438.19   3
   0   8   5 39997.2 1303.85   3
   0  -8  -5 42854.3 1506.11   3
   0   8  -5 39913.9 1154.51   2
   0   8  -5 36326.6 1449.64   3
   0  -8  -5 39179.9 1170.14   2
   0   8  -6 6449.84 467.528   2
   0   8  -6 5611.72 523.463   3
   0  -8   6 7061.85 522.633   3
   0  -8  -6 6978.78 497.209   2
   0  -8  -6 6262.05 511.807   3
   0   8   6 6065.30 456.795   3
   0   8   7 28655.3 983.484   3
   0  -8   7 27051.0 1025.92   3
   0  -8  -7 27655.7 1061.77   3
   0  -8  -7 29723.0 1137.39   2
   0   8  -7 29877.2 1199.51   3
   0   8  -7 30565.9 1159.08   2
   0   8  -8 10957.6 721.736   2
   0  -8  -8 11716.5 729.192   2
   0  -8  -8 10782.1 590.398   3
   0   8  -8 10707.5 654.085   3
   0  -8   8 11294.2 611.990   3
   0   8  -9 30.7763 88.0309   3
   0  -8  -9 258.850 151.246   2
   0  -8   9-89.4090 109.437   3
   0  -8  -9 50.1259 86.0655   3
   0  -8   9 197.487 92.6783   1
   0   8  -9 176.424 143.891   2
   0  -8 -10 3887.34 466.194   2
   0   8 -10 3033.01 426.802   2
   0  -8  10 3164.33 269.913   1
   0  -8  10 3228.28 295.733   3
   0   8 -10 3255.37 314.692   3
   0  -8 -10 4006.87 304.270   3
   0   8 -11 6872.05 667.679   2
   0  -8 -11 7269.47 655.300   2
   0  -8 -11 7566.57 375.657   3
   0  -8  11 7958.39 443.963   3
   0  -8 -12 1918.26 368.550   2
   0   8 -12 2197.66 395.923   2
   0  -8 -13 3854.81 519.367   2
   0   8 -13 3613.63 528.355   2
   0  -9   0 259.139 255.392   3
   0   9   1 117601. 3048.80   3
   0  -9  -1 117609. 3124.98   3
   0  -9   1 113162. 3094.36   3
   0  -9  -2 13792.4 930.913   3
   0  -9   2 11880.7 862.405   3
   0   9   2 12855.7 846.560   3
   0  -9   3 10830.7 785.820   3
   0  -9  -3 10451.0 370.683   2
   0   9   3 11035.3 743.777   3
   0   9  -3 10924.6 354.572   2
   0  -9  -3 11257.6 839.289   3
   0   9  -3 9972.25 785.816   3
   0   9   4 611.270 171.979   3
   0  -9  -4 661.267 244.068   3
   0  -9  -4 459.973 101.210   2
   0   9  -4 577.296 106.767   2
   0  -9   4 543.076 215.609   3
   0   9  -4 706.777 249.987   3
   0  -9  -5 26920.2 1202.06   3
   0   9  -5 24824.7 817.569   2
   0   9   5 26502.0 1072.80   3
   0  -9  -5 26263.2 866.409   2
   0  -9   5 26542.3 1169.64   3
   0   9  -5 22687.8 1152.66   3
   0   9   6 15200.0 764.032   3
   0  -9   6 15132.9 831.473   3
   0  -9  -6 16395.0 873.319   3
   0  -9  -6 15845.0 717.423   2
   0   9  -6 15539.7 698.107   2
   0   9  -6 15221.7 897.073   3
   0  -9   7 14835.4 779.514   3
   0   9  -7 13313.4 819.656   3
   0  -9  -7 16335.2 819.484   3
   0   9  -7 15047.1 748.837   2
   0   9   7 14673.8 720.914   3
   0  -9  -7 14269.7 737.401   2
   0  -9   8-30.4763 114.437   3
   0  -9  -8 34.3722 128.945   2
   0   9  -8 248.565 133.448   3
   0  -9  -8 94.1601 123.071   3
   0   9  -8 156.863 118.907   2
   0  -9   9 665.403 145.923   1
   0  -9  -9 1297.08 210.552   3
   0   9  -9 890.870 210.954   3
   0   9  -9 807.286 213.704   2
   0  -9   9 765.521 180.095   3
   0  -9  -9 1023.86 235.958   2
   0  -9 -10 1609.78 303.694   2
   0   9 -10 1840.04 325.247   2
   0   9 -10 1307.29 231.469   3
   0  -9 -10 1803.96 224.902   3
   0  -9 -10 1608.60 231.021   1
   0  -9  10 2146.28 268.282   3
   0  -9 -11 2691.17 401.289   2
   0   9 -11 2564.49 408.773   2
   0  -9  11 2877.91 290.071   3
   0  -9 -12 236.355 180.430   2
   0   9 -12 279.465 205.650   2
   0  -9 -13 290.129 229.299   2
   0   9 -13-31.2573 167.950   2
   0  10   0 29684.0 1391.18   3
   0 -10   0 28700.5 1393.03   3
   0  10  -1 28347.4 1367.04   3
   0 -10   1 27405.0 1363.33   3
   0 -10  -1 27207.2 1340.05   3
   0  10   1 28746.7 1349.98   3
   0 -10  -2 3616.38 496.172   3
   0  10   2 3183.35 441.973   3
   0  10  -2 3137.58 450.593   3
   0 -10   2 3267.65 478.159   3
   0 -10   3 4370.99 518.405   3
   0  10   3 4433.91 483.690   3
   0 -10  -3 4322.92 209.133   2
   0  10  -3 4864.05 553.221   3
   0 -10  -3 4635.63 555.978   3
   0  10  -4 24029.1 1235.77   3
   0 -10  -4 24826.2 705.432   2
   0  10   4 27182.0 1176.92   3
   0 -10  -4 27638.6 1316.04   3
   0 -10   4 27484.9 1270.89   3
   0  10  -4 25323.2 680.013   2
   0 -10  -5 33701.3 1404.86   3
   0  10   5 34224.4 1283.16   3
   0 -10  -5 32861.5 951.600   2
   0 -10   5 33227.4 1365.40   3
   0  10  -5 32936.6 912.707   2
   0  10  -5 31858.6 1404.41   3
   0  10  -6 18132.1 714.679   2
   0 -10  -6 18013.8 738.007   2
   0  10   6 17532.5 863.175   3
   0 -10  -6 19103.2 986.521   3
   0 -10   6 17757.1 952.369   3
   0  10  -6 18161.4 1013.24   3
   0 -10  -7 8515.74 619.062   3
   0 -10  -7 8737.05 540.447   2
   0 -10   7 8176.13 605.597   3
   0  10   7 8402.31 569.763   3
   0  10  -7 8015.76 516.271   2
   0  10  -7 7254.91 621.647   3
   0  10   8 1937.48 280.929   3
   0 -10  -8 2766.10 342.624   3
   0 -10  -8 2438.23 313.898   2
   0  10  -8 2261.33 347.880   3
   0 -10   8 2534.97 324.257   3
   0  10  -8 2381.08 309.101   2
   0 -10  -9 1332.20 224.196   3
   0  10  -9 641.995 197.953   3
   0  10  -9 1198.87 249.034   2
   0 -10   9 641.921 187.870   3
   0 -10  -9 855.840 203.349   2
   0 -10  10 19469.8 858.054   3
   0 -10 -10 19083.4 806.027   3
   0 -10 -10 19384.2 988.194   2
   0  10 -10 19243.3 1010.45   2
   0 -10 -11 453.305 227.883   2
   0  10 -11 212.375 159.074   2
   0 -10  11 265.988 124.759   3
   0  10 -12 112.873 160.988   2
   0 -10 -12 82.3599 154.492   2
   0 -10 -13 6255.34 621.227   2
   0  10 -13 6762.64 674.507   2
   0 -11   0 13.4164 173.948   3
   0  11   0 71.7288 125.759   3
   0  11   1 1868.17 370.215   3
   0  11  -1 1386.21 335.780   3
   0 -11  -1 1117.12 335.986   3
   0 -11   1 1656.33 358.901   3
   0 -11   2 492.202 226.607   3
   0  11   2 785.828 255.691   3
   0 -11  -2 295.099 205.295   3
   0  11  -2 258.235 153.667   3
   0 -11   3 8050.85 722.334   3
   0 -11  -3 8260.38 737.099   3
   0  11   3 8703.04 709.017   3
   0  11  -3 8539.52 744.716   3
   0 -11  -4 22640.5 624.665   2
   0 -11  -4 25976.6 1281.18   3
   0 -11   4 23150.6 1198.06   3
   0  11  -4 21979.0 1203.33   3
   0  11   4 22884.0 1110.41   3
   0  11  -5 4899.15 564.956   3
   0 -11   5 5124.09 542.858   3
   0 -11  -5 5961.67 341.060   2
   0  11   5 4638.16 480.357   3
   0  11  -5 4674.71 293.121   2
   0 -11  -5 5030.68 545.735   3
   0  11  -6 93.5047 128.766   3
   0  11   6 86.9819 111.154   3
   0 -11  -6 360.663 113.554   2
   0 -11   6 244.318 166.632   3
   0  11  -6 365.275 109.348   2
   0 -11  -6 178.475 140.269   3
   0 -11  -7 33243.6 1082.96   2
   0 -11   7 33876.7 1322.34   3
   0  11  -7 32646.3 1045.08   2
   0 -11  -7 32397.5 1291.36   3
   0 -11  -8 825.494 182.112   2
   0 -11  -8 789.753 211.470   3
   0 -11   8 801.153 247.076   3
   0  11  -8 525.047 160.048   2
   0  11   8 454.827 151.429   3
   0 -11   9 12403.1 738.964   3
   0 -11  -9 13301.6 733.090   3
   0  11  -9 12630.4 733.261   2
   0 -11  -9 12989.1 738.539   2
   0 -11 -10 3932.70 367.660   3
   0  11 -10 3894.63 437.239   2
   0 -11 -10 3483.24 404.172   2
   0 -11  10 3642.15 398.668   3
   0 -11  11 5755.82 469.126   3
   0 -11 -11 5779.87 542.784   2
   0  11 -11 5661.54 550.489   2
   0 -11 -12 5057.89 527.182   2
   0  11 -12 5692.58 586.454   2
   0 -11 -13 2054.94 353.350   2
   0  11 -13 2286.87 404.359   2
   0 -12   0 11706.0 882.073   3
   0 -12   1 5671.65 629.758   3
   0 -12  -1 6382.17 644.429   3
   0 -12  -2 60037.7 2123.92   3
   0 -12   2 60505.7 2144.95   3
   0 -12   3 493.728 242.129   3
   0 -12  -3-10.4277 179.975   3
   0 -12  -4 53.9712 171.999   3
   0 -12   4-109.983 179.727   3
   0 -12   5 45.6788 168.930   3
   0 -12  -5 211.275 80.9790   2
   0 -12  -5 272.281 196.104   3
   0 -12   6 655.205 223.447   3
   0 -12  -6 554.881 222.197   3
   0  12  -6 816.993 146.149   2
   0 -12  -6 543.920 145.388   2
   0 -12  -7 109.860 95.1669   2
   0  12  -7-92.2041 92.2582   2
   0 -12  -7 231.546 147.774   3
   0 -12   7 274.315 193.558   3
   0  12  -8 550.156 148.553   2
   0 -12  -8 522.931 151.889   2
   0 -12  -8 691.203 210.639   3
   0 -12   8 722.610 226.871   3
   0  12  -9 3283.59 356.977   2
   0 -12   9 3320.90 403.732   3
   0 -12  -9 2890.28 345.520   2
   0 -12  -9 3711.42 407.850   3
   0 -12 -10 7264.67 534.283   3
   0  12 -10 6369.24 532.887   2
   0 -12  10 7030.79 562.154   3
   0 -12 -10 7162.91 559.447   2
   0 -12 -11 1273.26 267.030   2
   0  12 -11 1107.21 246.300   2
   0 -12 -12 650.100 229.096   2
   0  12 -12 478.063 216.041   2
   0 -13   0 150.769 184.364   3
   0 -13  -1 1076.85 293.571   3
   0 -13   1 958.216 276.473   3
   0 -13   2 1905.46 415.435   3
   0 -13  -2 1940.03 407.092   3
   0 -13  -3 35.7700 164.492   3
   0 -13   3-17.2870 190.543   3
   0 -13  -4 42634.0 1744.63   3
   0 -13   4 43046.4 1773.46   3
   0 -13   5 627.782 280.679   3
   0 -13  -5 381.941 219.841   3
   0 -13  -6 2155.16 364.728   3
   0 -13   6 1818.78 373.235   3
   0 -13  -6 2090.85 212.914   2
   0  13  -7 310.843 107.854   2
   0 -13  -7 420.188 126.914   2
   0 -13  -7 178.389 152.991   3
   0 -13   7 274.519 162.711   3
   0  13  -8 12197.4 600.729   2
   0 -13  -8 11700.7 775.556   3
   0 -13  -8 11769.1 619.794   2
   0 -13   8 11868.7 810.433   3
   0 -13   9 1667.09 298.967   3
   0  13  -9 1925.53 266.616   2
   0 -13  -9 2240.03 332.311   3
   0 -13  -9 1618.75 266.213   2
   0 -13 -10 205.403 130.186   3
   0 -13  10 84.2811 122.433   3
   0 -14   0 1426.51 336.200   3
   0 -14   1 2079.29 403.384   3
   0 -14  -1 1273.51 331.140   3
   0 -14   2 34042.7 1597.80   3
   0 -14  -2 36760.3 1642.17   3
   0 -14   3 1133.66 307.210   3
   0 -14  -3 918.679 284.354   3
   0 -14  -4 1683.77 384.331   3
   0 -14   4 644.427 228.276   3
   0 -14  -5 3215.67 468.974   3
   0 -14   5 2847.81 449.072   3
   0 -14  -6 1127.92 302.292   3
   0 -14   6 1111.72 296.910   3
   0 -14  -7 1036.55 287.910   3
   0 -14   7 1145.87 313.890   3
   0 -14  -8 449.630 188.409   3
   0 -14   8 415.878 215.554   3
   0 -14   9 528.557 216.454   3
   0 -14  -9 566.293 210.629   3
   0 -14  10 4596.97 500.355   3
   0 -15   0 84.2582 202.772   3
   0 -15  -1 2037.31 416.429   3
   0 -15   1 1515.72 371.631   3
   0 -15   2-11.6415 221.764   3
   0 -15  -2-7.33742 191.550   3
   0 -15  -3 1176.11 336.217   3
   0 -15   3 1238.37 331.425   3
   0 -15  -4 8064.91 759.830   3
   0 -15   4 7062.76 731.156   3
   0 -15   5 1808.16 389.384   3
   0 -15  -5 1808.15 358.969   3
   0 -15   6 570.984 252.665   3
   0 -15  -6 643.977 235.285   3
   0 -15   7 10983.2 860.956   3
   0 -15  -7 11340.0 835.875   3
   0 -15   8 2534.15 417.431   3
   0 -15  -8 2867.95 426.697   3
   0 -15   9 5715.87 592.790   3
   0 -15  -9 5634.31 557.027   3
   0 -15  10 406.459 202.429   3
   0 -16   0 10118.4 873.832   3
   0 -16  -1 4015.71 547.619   3
   0 -16   1 3623.51 546.217   3
   0 -16  -2 211.535 219.522   3
   0 -16   2 676.741 308.528   3
   0 -16   3 1523.05 371.892   3
   0 -16  -3 2183.39 432.734   3
   0 -16  -4 6553.18 699.598   3
   0 -16   4 6003.14 673.130   3
   0 -16  -5 3748.44 523.573   3
   0 -16   5 3454.21 527.753   3
   0 -16  -6 1260.88 371.293   3
   0 -16   6 1930.62 419.834   3
   0 -16  -7 1502.62 335.529   3
   0 -16   7 1735.00 377.223   3
   0 -16  -8 528.373 256.799   3
   0 -16   8-149.029 181.837   3
   0 -16  -9 902.521 263.819   3
   0 -16   9 1182.24 288.265   3
   0 -17   0 84.9193 271.817   3
   0 -17  -1 11851.1 958.555   3
   0 -17   1 11789.0 965.961   3
   0 -17   2 3938.65 567.610   3
   0 -17  -2 3238.61 516.696   3
   0 -17  -3 573.329 257.275   3
   0 -17   3 555.563 281.511   3
   0 -17  -4 371.170 245.284   3
   0 -17   4-124.297 175.102   3
   0 -17  -5 2096.44 412.030   3
   0 -17  -6 5735.02 652.336   3
   0 -17  -7 976.415 269.374   3
   1   0 -14 178.959 230.496   2
   1   0 -13 635.373 246.704   2
   1   0 -12 761.346 330.888   2
   1   0 -11 1945.62 408.422   2
   1   0 -10 250.147 214.516   2
   1   0  -9 988.174 344.499   2
  -1   0   9 1438.32 397.033   2
   1   0  -8 384.566 241.340   2
   1   0  -7 49882.7 867.890   1
   1   0  -7 45487.6 1799.94   2
   1   0  -6 317.685 141.941   2
   1   0  -6 426.700 54.3903   1
   1   0  -5 16053.8 760.441   2
  -1   0   5 15474.0 369.842   1
   1   0  -5 15651.4 371.836   1
   1   0  -4 9.15698 28.3170   1
   1   0  -4 41.7821 86.7430   2
  -1   0   4 15.7854 32.8219   1
  -1   0   3 999999. 14063.8   1
   1   0  -3 991497. 14063.4   1
  -1   0   2 197.320 44.8172   1
   1   0  -2 194.706 41.3155   1
   1   0   0 310.361 51.1621   1
   1   0   1 285625. 4247.79   1
   1   0   2 848.735 73.4690   1
  -1   0  -3 189679. 2907.51   1
   1   0   3 193140. 2905.13   1
  -1   0  -4 163.299 39.3905   1
   1   0   4 161.691 41.6037   1
  -1   0  -5 11897.6 720.802   2
   1   0   5 11023.0 287.721   1
  -1   0  -5 11015.1 288.806   1
  -1   0  -6 1281.20 104.787   3
   1   0   6 1192.61 83.0446   1
  -1   0  -7 2909.19 473.210   2
  -1   0  -7 3142.84 160.405   3
  -1   0  -8 1157.18 343.552   2
  -1   0  -8 1293.22 99.6380   3
  -1   0  -9 8173.87 825.615   2
  -1   0 -10 390.876 254.057   2
  -1   0 -11 3374.48 534.434   2
  -1   0 -12 527.234 308.538   2
  -1   0 -13 11285.6 949.364   2
  -1   0 -14 222.397 207.768   2
   1   1 -14 4470.56 648.041   2
   1  -1 -14 4422.32 622.103   2
   1   1 -13 455.397 276.251   2
   1  -1 -13-43.1681 184.630   2
   1   1 -12 15664.7 1164.27   2
   1  -1 -12 17674.5 1253.44   2
   1  -1 -11 1862.15 468.944   2
   1   1 -11 2414.64 473.268   2
   1   1 -10 17704.6 1190.76   2
   1  -1 -10 21082.6 1365.98   2
  -1   1   9 57411.4 2249.41   2
   1  -1  -9 54895.6 2270.45   2
  -1  -1   9 56575.1 2252.89   2
   1   1  -8 37952.1 1675.94   2
   1  -1  -8 38403.6 685.865   1
   1  -1  -8 41238.2 1833.89   2
   1  -1  -7 27458.0 552.033   1
  -1  -1   7 28409.6 545.948   1
  -1  -1   7 27480.8 680.780   3
   1  -1  -7 25210.1 1297.09   2
   1   1  -7 27863.3 1344.14   2
   1  -1  -6 51157.5 896.818   1
  -1   1   6 48064.8 878.891   3
  -1  -1   6 50489.8 883.518   1
   1   1  -6 50976.7 1670.91   2
   1  -1  -6 49730.5 1665.84   2
  -1  -1   6 50045.0 979.489   3
   1   1  -6 51030.5 927.979   1
  -1   1   5 43396.2 792.415   3
  -1  -1   5 43052.5 796.776   1
   1   1  -5 46374.4 1368.94   2
   1  -1  -5 46178.6 1380.84   2
  -1  -1   5 43810.8 849.538   3
   1   1  -5 45193.3 834.881   1
   1  -1  -5 43729.8 812.174   1
  -1   1   4 2099.41 116.792   3
   1   1  -4 2679.53 252.236   2
   1  -1  -4 2226.22 125.755   1
   1   1  -4 2371.98 132.625   1
   1  -1  -4 2502.28 247.359   2
  -1  -1   4 2212.71 121.112   1
   1   1  -3 81852.6 1564.40   2
   1  -1  -3 82525.4 1568.92   2
  -1  -1   3 78363.7 1335.38   1
  -1   1   3 80452.5 1353.27   1
   1  -1  -3 81155.2 1347.21   1
   1   1  -3 80905.4 1355.96   1
   1  -1  -2 28372.5 578.696   1
   1   1  -2 28050.8 582.463   1
   1   1  -1 39070.0 741.339   1
   1  -1  -1 39230.8 743.315   1
   1  -1   0 19451.4 445.398   1
   1   1   0 20291.9 452.516   1
   1   1   1 17561.3 416.689   1
   1  -1   1 17939.8 414.229   1
   1  -1   2 66936.4 1145.92   1
   1   1   2 68079.3 1160.54   1
   1   1   3 261430. 3856.38   1
  -1  -1  -3 256004. 3839.62   1
  -1   1  -3 251067. 3887.68   3
  -1   1  -3 256185. 3847.59   1
   1  -1   3 256795. 3828.14   1
   1  -1   4 50529.6 891.990   1
  -1   1  -4 50610.3 959.769   3
   1   1   4 51452.3 925.667   1
  -1  -1  -4 49474.3 899.767   1
   1  -1   5 19491.7 417.087   1
   1   1   5 19875.1 461.290   1
  -1  -1  -5 18155.9 914.551   2
  -1   1  -5 18807.3 492.410   3
  -1   1  -5 18476.8 933.350   2
  -1  -1  -5 18745.3 426.302   1
  -1   1  -6 72950.1 1308.03   3
   1  -1   6 70161.9 1160.77   1
  -1  -1  -6 69554.7 1174.58   1
  -1  -1  -6 69407.4 2219.25   2
  -1   1  -7 4632.89 231.555   3
  -1   1  -7 4179.66 568.407   2
   1  -1   7 4156.67 140.779   1
  -1  -1  -7 4042.71 560.704   2
  -1  -1  -7 4329.71 151.498   1
  -1  -1  -8 44184.5 844.822   3
  -1  -1  -8 45995.4 1985.70   2
  -1   1  -8 48113.5 983.965   3
  -1  -1  -8 41476.9 796.127   3
  -1   1  -8 48754.2 2073.79   2
  -1   1  -9 2915.67 145.278   3
  -1   1  -9 3387.52 558.653   2
  -1  -1  -9 2539.85 481.988   2
  -1   1 -10 6218.17 719.015   2
  -1  -1 -10 6121.55 709.083   2
  -1   1 -11 18605.2 1236.18   2
  -1  -1 -11 18519.7 1210.90   2
  -1  -1 -12 5809.06 683.843   2
  -1   1 -12 5169.73 662.836   2
  -1   1 -13 940.228 330.153   2
  -1  -1 -13 987.280 309.917   2
   1   2 -14 23071.4 1442.36   2
   1  -2 -14 22244.2 1388.63   2
   1   2 -13 1013.88 351.412   2
   1  -2 -13 867.548 365.840   2
   1  -2 -12 12485.3 1050.83   2
   1   2 -12 13194.1 1045.51   2
   1   2 -11 11890.7 987.242   2
   1  -2 -11 14533.9 1124.23   2
   1   2 -10 1820.80 406.525   2
   1  -2 -10 2679.54 538.598   2
  -1   2   9 28535.8 1514.41   2
  -1  -2   9 27065.8 1474.57   2
   1   2  -9 24936.2 1326.40   2
   1  -2  -9 29568.4 1604.05   2
  -1   2   8 998.293 299.846   2
   1  -2  -8 1017.20 83.0866   1
  -1  -2   8 799.760 68.4176   1
   1  -2  -8 728.020 250.808   2
  -1  -2   8 940.930 99.1194   3
   1   2  -8 662.950 271.333   2
  -1  -2   8 703.187 269.112   2
  -1  -2   7 699.353 120.498   3
   1  -2  -7 645.656 73.5446   1
   1  -2  -7 864.780 251.700   2
  -1  -2   7 628.391 67.9199   1
   1   2  -7 929.152 281.923   2
  -1   2   7 645.292 91.6154   3
  -1  -2   7 678.704 216.929   2
  -1   2   6 35659.6 791.825   3
  -1  -2   6 39707.1 964.245   3
   1  -2  -6 37605.2 747.245   1
   1  -2  -6 35624.0 1363.73   2
   1   2  -6 36860.1 1357.09   2
  -1  -2   6 36127.9 718.801   1
  -1  -2   5 18792.5 452.577   1
  -1  -2   5 17339.6 538.153   3
   1   2  -5 18204.4 792.712   2
  -1   2   5 18786.3 481.560   3
   1  -2  -5 19298.9 833.920   2
   1  -2  -5 18612.0 465.421   1
   1   2  -4 348.376 106.134   2
   1   2  -4 453.791 75.9897   1
  -1   2   4 558.476 75.1644   3
   1  -2  -4 366.564 64.0198   1
  -1  -2   4 405.091 65.6709   1
  -1  -2   4 407.711 83.8495   3
   1  -2  -3 20021.8 596.062   2
   1   2  -3 19545.1 578.552   2
   1   2  -3 18998.1 493.745   1
  -1  -2   3 19188.7 480.109   1
   1  -2  -3 19177.2 484.164   1
  -1   2   3 19719.9 486.553   3
  -1   2   2 39789.1 807.827   3
   1  -2  -2 40390.1 820.022   1
  -1  -2   2 40547.7 813.929   1
   1   2  -2 40802.1 822.862   1
   1   2  -1 745.913 87.6147   1
   1  -2  -1 673.294 81.5227   1
   1  -2  -1 807.212 94.5300   3
   1   2   0 42035.0 841.157   1
   1  -2   0 42422.7 839.798   1
   1  -2   0 41054.0 841.610   3
   1  -2   1 2769.90 158.849   1
   1   2   1 3012.68 168.201   1
   1  -2   1 2801.86 165.098   3
   1  -2   2 45401.8 881.097   1
   1   2   2 46429.4 907.899   1
  -1   2  -3 371.699 72.7229   3
  -1  -2  -3 246.503 57.6568   1
   1   2   3 284.002 61.5826   1
   1  -2   3 353.233 62.7691   1
  -1  -2  -4 5502.04 226.567   1
  -1   2  -4 5144.06 252.706   3
   1  -2   4 5733.43 218.232   1
  -1  -2  -5 81600.4 2191.02   2
  -1  -2  -5 85567.2 1452.31   1
  -1   2  -5 85072.3 2294.18   2
   1  -2   5 85598.0 1425.50   1
  -1   2  -5 82997.7 1578.63   3
   1  -2   6 362.918 53.9079   1
  -1  -2  -6 242.830 65.1923   3
  -1  -2  -6 356.334 61.1646   1
  -1   2  -6 330.122 86.3088   3
  -1   2  -6 459.231 242.317   2
  -1  -2  -6 232.814 164.846   2
   1  -2   7 3615.85 146.191   1
  -1   2  -7 3763.55 562.962   2
  -1  -2  -7 3340.71 491.943   2
  -1  -2  -7 3705.36 162.754   1
  -1   2  -7 3836.92 257.040   3
  -1  -2  -7 3979.50 218.474   3
  -1   2  -8 28174.1 791.145   3
  -1  -2  -8 27551.0 650.757   3
  -1   2  -8 27536.2 1540.53   2
  -1  -2  -8 25309.4 1405.57   2
  -1   2  -9 36277.6 886.586   3
  -1  -2  -9 36750.8 1733.21   2
  -1   2  -9 39574.9 1864.08   2
  -1   2 -10 34530.9 1729.29   2
  -1  -2 -10 31352.5 1588.42   2
  -1   2 -11 307.643 223.969   2
  -1  -2 -11 856.626 294.007   2
  -1  -2 -12 26568.5 1471.53   2
  -1   2 -12 31017.9 1615.28   2
  -1  -2 -13 162.034 243.204   2
  -1   2 -13 546.272 270.055   2
   1  -3 -14 171.940 205.626   2
   1   3 -14 778.599 312.339   2
   1  -3 -13 1341.50 354.015   2
   1   3 -13 839.283 303.897   2
   1   3 -12 23216.0 1379.01   2
   1  -3 -12 22054.9 1371.14   2
   1  -3 -11 22491.2 1379.71   2
   1   3 -11 18957.4 1221.08   2
   1   3 -10 10661.3 876.770   2
   1  -3 -10 12830.7 1038.77   2
   1  -3  -9 290.553 55.5495   1
  -1  -3   9 277.934 46.1458   1
  -1   3   9-45.0603 193.598   2
   1   3  -9 631.734 233.543   2
   1  -3  -9 190.642 189.405   2
  -1  -3   9 281.037 59.3530   3
  -1  -3   9 490.141 271.853   2
   1  -3  -8 45914.6 878.444   1
   1  -3  -8 45752.5 1857.02   2
   1   3  -8 39637.7 1622.18   2
  -1   3   8 39849.0 1813.68   2
  -1  -3   8 42686.5 821.793   1
  -1  -3   8 39267.7 1835.04   2
  -1   3   8 40612.4 848.586   3
  -1  -3   8 43857.9 1020.59   3
  -1  -3   7 21339.6 1208.80   2
   1   3  -7 19194.1 1024.89   2
  -1  -3   7 21698.4 774.186   3
  -1   3   7 20681.5 673.910   3
  -1   3   7 19382.9 1153.23   2
  -1  -3   7 20695.7 511.973   1
   1  -3  -7 19207.5 1076.35   2
   1  -3  -7 21553.8 542.799   1
   1  -3  -6 466.936 195.444   2
  -1  -3   6 484.093 146.815   3
  -1  -3   6 385.227 212.285   2
   1   3  -6 380.160 156.667   2
   1  -3  -6 571.382 91.1846   1
  -1  -3   6 396.507 75.0956   1
  -1   3   6 380.809 90.0871   3
  -1  -3   5 59.3488 48.0654   1
  -1   3   5 185.111 66.9122   3
  -1  -3   5 400.401 160.676   2
   1   3  -5 178.256 113.071   2
   1  -3  -5 550.696 87.7256   1
  -1  -3   5 290.585 105.775   3
   1  -3  -5-144.900 131.255   2
  -1  -3   4 22250.2 775.323   2
  -1  -3   4 21596.7 567.232   1
   1  -3  -4 21156.6 563.625   3
  -1   3   4 21502.9 616.680   3
   1   3  -4 22405.1 721.630   2
  -1  -3   4 21070.2 671.594   3
   1  -3  -4 22549.3 755.537   2
  -1  -3   3 1538.04 152.923   2
  -1  -3   3 1491.75 134.177   1
  -1   3   3 1547.64 148.243   3
   1   3  -3 1561.81 153.597   2
  -1  -3   3 1595.99 167.179   3
   1  -3  -3 1642.26 161.163   2
   1  -3  -3 1496.29 141.716   3
   1  -3  -2 27689.3 698.839   3
  -1   3   2 27451.9 691.629   3
  -1  -3   2 26600.2 676.266   1
  -1  -3   2 27593.9 730.618   3
  -1  -3   2 28022.1 643.572   2
  -1  -3   1 20568.0 596.543   3
   1  -3  -1 20693.6 586.707   3
   1  -3   0 85185.5 1580.23   3
  -1  -3   0 82832.0 1570.76   3
  -1  -3  -1 42580.9 955.869   3
   1  -3   1 44590.0 970.358   3
  -1  -3  -2 6497.57 303.644   3
   1  -3   2 6157.63 294.541   3
   1  -3   3 7389.70 318.531   3
  -1  -3  -3 7529.95 314.795   1
  -1  -3  -3 7659.03 336.209   3
  -1   3  -3 8181.90 361.712   3
  -1   3  -4 9960.46 426.423   3
  -1  -3  -4 9893.35 392.048   3
   1  -3   4 10135.7 346.812   1
  -1  -3  -4 10417.0 368.920   1
   1  -3   4 9396.94 362.453   3
  -1  -3  -5 24344.0 683.620   3
  -1   3  -5 24121.5 749.192   3
   1  -3   5 24411.9 586.572   1
  -1  -3  -5 23091.8 1047.14   2
  -1  -3  -5 24231.7 613.036   1
  -1   3  -5 24202.6 1140.99   2
  -1   3  -6 67233.3 1528.03   3
  -1   3  -6 69585.5 2326.25   2
  -1  -3  -6 67985.7 1416.38   3
   1  -3   6 69519.1 1242.80   1
  -1  -3  -6 69055.8 1280.46   1
  -1  -3  -6 64767.4 2151.84   2
  -1  -3  -7 9516.28 321.830   1
  -1   3  -7 8907.96 481.156   3
  -1  -3  -7 9543.56 431.901   3
   1  -3   7 9821.82 303.174   1
  -1  -3  -7 8406.60 778.696   2
  -1   3  -7 8293.45 821.890   2
  -1  -3  -8 50478.3 941.779   1
  -1  -3  -8 47594.9 1160.54   3
  -1   3  -8 53620.2 1401.30   3
  -1  -3  -8 49157.9 2011.38   2
  -1   3  -8 52861.5 2178.65   2
   1  -3   8 49866.9 894.670   1
  -1  -3  -9 3789.52 201.082   3
  -1   3  -9 3460.56 564.641   2
  -1  -3  -9 3450.74 143.971   1
  -1  -3  -9 4249.08 575.481   2
  -1   3  -9 4427.36 309.998   3
  -1   3 -10 2931.12 536.568   2
  -1  -3 -10 3107.60 484.295   2
  -1   3 -10 2476.15 173.772   3
  -1  -3 -11 17010.4 1142.92   2
  -1   3 -11 18253.0 1229.86   2
  -1  -3 -12 2130.43 421.881   2
  -1   3 -12 2371.94 483.838   2
  -1  -3 -13 2296.03 457.186   2
  -1   3 -13 1277.76 368.354   2
   1   4 -14 5083.43 667.511   2
   1  -4 -14 5142.23 670.363   2
   1   4 -13 524.333 299.603   2
   1  -4 -13 439.417 243.012   2
   1   4 -12 534.444 259.097   2
   1  -4 -12 1008.08 332.877   2
   1  -4 -11 501.186 53.9670   1
   1  -4 -11 588.287 57.5042   1
  -1  -4  11 576.897 61.2937   3
   1   4 -11 832.919 305.602   2
  -1  -4  10 4024.07 214.460   3
  -1  -4  10 3636.26 161.634   1
   1  -4 -10 4363.16 206.860   1
   1   4 -10 3950.22 522.420   2
  -1   4   9 4525.96 580.287   2
   1   4  -9 3986.96 513.296   2
   1  -4  -9 4812.60 240.642   1
  -1  -4   9 5431.53 656.075   2
  -1  -4   9 4881.08 219.201   1
  -1  -4   9 4928.89 282.917   3
   1  -4  -9 4855.36 589.246   2
  -1   4   9 4236.59 200.712   3
   1  -4  -8 18586.2 1080.93   2
  -1   4   8 18788.1 577.201   3
   1  -4  -8 17835.6 533.304   1
  -1  -4   8 17942.7 667.240   3
  -1  -4   8 18905.5 515.836   1
  -1   4   8 17066.5 1134.96   2
  -1  -4   8 16853.4 1152.09   2
   1   4  -8 17914.9 1006.35   2
   1   4  -7 2487.53 348.493   2
  -1   4   7 2603.51 429.343   2
  -1  -4   7 1594.48 358.024   2
   1  -4  -7 2521.04 189.114   1
  -1   4   7 2022.35 226.388   3
  -1  -4   7 2364.69 276.331   3
  -1  -4   7 2361.15 173.369   1
   1  -4  -7 2323.67 361.997   2
  -1  -4   6 117796. 2064.90   1
  -1  -4   6 118026. 2606.10   3
   1  -4  -6 117315. 2727.35   2
   1  -4  -6 115819. 2041.67   3
  -1   4   6 117097. 2423.55   3
   1   4  -6 116359. 2629.75   2
  -1  -4   6 121077. 3006.29   2
   1  -4  -5 105500. 2253.89   2
   1   4  -5 100058. 2162.32   2
  -1  -4   5 97653.8 1838.38   1
   1  -4  -5 102161. 1856.80   3
  -1  -4   5 105258. 2339.15   3
  -1   4   5 97788.4 2081.65   3
  -1  -4   5 100430. 2403.46   2
  -1   4   5 104993. 2423.68   2
  -1  -4   4 5594.47 385.759   2
  -1  -4   4 5490.33 392.609   3
  -1   4   4 5770.48 356.713   3
   1   4  -4 5792.84 337.267   2
  -1  -4   4 5344.10 294.208   1
   1  -4  -4 5793.13 311.116   3
   1  -4  -4 5916.56 357.700   2
  -1   4   4 5716.14 381.725   2
  -1   4   3 30226.3 861.374   3
   1  -4  -3 29952.7 831.437   3
  -1   4   3 30457.7 798.430   2
  -1  -4   3 29874.1 923.387   3
  -1  -4   3 29676.4 799.090   2
  -1  -4   3 30043.7 805.300   1
   1  -4  -3 30218.1 764.851   2
   1   4  -3 30456.1 749.762   2
  -1   4   2 21323.6 545.872   2
   1  -4  -2 20997.1 690.748   3
  -1  -4   2 21654.8 671.076   1
  -1  -4   2 21099.1 718.832   3
  -1   4   2 20210.7 672.113   3
  -1  -4   2 21438.6 545.913   2
   1  -4  -1 195896. 3356.42   3
  -1  -4   1 192240. 3355.29   3
  -1  -4   0 45288.3 1117.69   3
   1  -4   0 46891.2 1141.75   3
   1  -4   1 103558. 2008.23   3
  -1  -4  -1 102126. 1991.42   3
   1  -4   2 123838. 2307.63   3
  -1  -4  -2 125057. 2314.80   3
  -1   4  -3 8416.67 443.714   3
   1  -4   3 8360.75 395.927   3
  -1  -4  -3 8204.49 382.351   1
  -1  -4  -3 8746.35 422.043   3
  -1   4  -4 13148.8 590.222   3
  -1   4  -4 13485.3 712.551   2
   1  -4   4 13523.6 501.668   3
  -1  -4  -4 13379.9 488.784   1
  -1  -4  -4 13333.5 545.051   3
  -1   4  -5 30353.9 981.216   3
  -1  -4  -5 29246.8 772.229   1
   1  -4   5 29454.4 789.525   3
  -1   4  -5 29128.0 1274.68   2
  -1  -4  -5 30338.7 1233.08   2
  -1  -4  -5 30476.6 900.757   3
   1  -4   6 81516.5 1492.13   1
  -1   4  -6 77082.3 2517.25   2
   1  -4   6 79137.6 1558.83   3
  -1   4  -6 79397.1 1896.36   3
  -1  -4  -6 73656.5 2355.75   2
  -1  -4  -6 80482.3 1536.03   1
  -1  -4  -6 78051.1 1763.46   3
  -1  -4  -7 3205.16 304.350   3
  -1  -4  -7 3368.26 213.058   1
  -1  -4  -7 3003.96 461.921   2
  -1   4  -7 3210.35 331.738   3
   1  -4   7 3382.72 198.090   1
  -1   4  -7 2936.97 499.859   2
  -1  -4  -8 5137.52 615.949   2
  -1   4  -8 5171.11 433.446   3
  -1  -4  -8 5592.94 263.833   1
  -1  -4  -8 5466.30 367.991   3
  -1   4  -8 4909.54 624.171   2
   1  -4   8 6098.92 251.287   1
  -1  -4  -9 6291.12 664.705   2
   1  -4   9 5962.01 220.945   1
  -1  -4  -9 6576.44 333.517   3
  -1   4  -9 6700.62 438.928   3
  -1  -4  -9 6157.86 253.994   1
  -1   4  -9 6849.64 749.251   2
  -1   4 -10 1275.18 157.237   3
  -1  -4 -10 1172.76 353.596   2
  -1   4 -10 863.740 302.759   2
  -1  -4 -10 990.695 86.5539   1
  -1   4 -11 717.431 96.1937   3
  -1  -4 -11 1101.96 341.846   2
  -1   4 -11 825.704 318.255   2
  -1   4 -12 3387.44 546.274   2
  -1  -4 -12 2257.42 419.750   2
  -1  -4 -13 471.839 251.636   2
  -1   4 -13 519.570 239.219   2
   1  -5 -14 2785.08 480.558   2
   1   5 -14 2221.70 453.443   2
   1  -5 -13 3796.26 553.549   2
   1   5 -13 2521.09 472.106   2
   1   5 -12 2757.62 463.789   2
   1  -5 -12 2491.18 450.610   2
   1   5 -11 296.447 201.924   2
   1  -5 -11 406.348 75.9904   1
   1  -5 -11 161.766 220.212   2
  -1  -5  11 426.046 82.2157   3
  -1  -5  11 302.025 49.9623   1
   1  -5 -10 12832.8 932.576   2
   1   5 -10 11579.1 869.275   2
   1  -5 -10 12404.3 433.992   1
  -1  -5  10 11668.6 382.646   1
  -1  -5  10 12489.2 474.879   3
   1  -5  -9 1069.81 301.102   2
  -1   5   9 1112.17 305.335   2
   1   5  -9 1208.36 279.253   2
  -1  -5   9 915.069 310.160   2
  -1  -5   9 1114.92 163.664   3
   1  -5  -9 1275.98 143.732   1
  -1  -5   9 1332.37 138.520   1
  -1   5   9 1116.16 131.149   3
  -1  -5   8 812.482 118.250   1
  -1   5   8 414.621 174.765   2
  -1   5   8 587.078 129.317   3
  -1  -5   8 466.488 121.940   3
   1  -5  -8 937.002 240.805   2
  -1  -5   8 447.406 227.472   2
   1   5  -8 721.017 240.679   2
   1  -5  -8 676.048 116.755   1
   1  -5  -7 37390.7 1394.49   2
  -1   5   7 37684.0 1168.23   3
  -1  -5   7 34884.0 1213.03   3
  -1   5   7 36242.1 1637.85   2
   1  -5  -7 35784.1 888.904   3
   1   5  -7 36215.3 1321.07   2
  -1  -5   7 36441.3 1665.97   2
  -1  -5   7 36491.1 904.763   1
   1  -5  -6 58760.3 1668.35   2
  -1  -5   6 57738.4 1257.05   1
  -1   5   6 56868.0 1608.21   3
  -1  -5   6 56829.8 1946.07   2
  -1  -5   6 54574.2 1690.04   3
   1   5  -6 55867.7 1566.32   2
   1  -5  -6 56072.4 1257.29   3
   1  -5  -5 31071.7 1007.91   2
   1   5  -5 30224.8 952.090   2
  -1   5   5 31769.4 1117.71   3
  -1  -5   5 30842.8 1194.56   2
   1  -5  -5 29235.3 860.825   3
  -1  -5   5 30461.9 1205.66   3
  -1   5   5 30979.9 1197.35   2
  -1  -5   5 28810.7 836.606   1
   1  -5  -4 130078. 2526.60   3
  -1  -5   4 132035. 2483.92   1
  -1  -5   4 133073. 2665.94   2
  -1   5   4 132293. 2745.32   3
   1   5  -4 133508. 2414.70   2
  -1  -5   4 134949. 2944.74   3
   1  -5  -4 133919. 2475.83   2
  -1   5   4 132093. 2660.31   2
   1   5  -3 3313.81 314.384   3
  -1   5   3 3179.77 237.297   2
  -1  -5   3 3275.99 244.753   2
   1  -5  -3 3091.01 282.605   3
  -1  -5   3 3104.06 336.733   3
  -1  -5   3 3019.57 269.527   1
  -1   5   3 3180.02 298.342   3
  -1   5   2 87520.4 1963.59   3
  -1  -5   2 87950.5 2037.07   3
  -1  -5   2 90395.8 1593.58   2
  -1   5   2 88595.8 1584.38   2
   1  -5  -2 89533.3 1968.75   3
  -1  -5   2 92687.6 1965.95   1
  -1  -5   1 649.923 157.639   3
   1  -5  -1 686.391 161.195   3
   1  -5   0 351109. 5815.11   3
  -1  -5   0 344854. 5779.13   3
   1  -5   1 70628.7 1673.60   3
  -1  -5  -1 69340.9 1654.33   3
   1  -5   2 18194.2 718.566   3
  -1  -5  -2 18296.4 731.134   3
  -1  -5  -3 12668.2 600.355   3
   1  -5   3 11701.3 545.191   3
  -1   5  -3 12270.3 632.426   3
  -1  -5  -3 11702.1 542.603   1
  -1   5  -4 61931.8 1735.91   2
  -1  -5  -4 62311.9 1555.80   3
  -1  -5  -4 57640.3 1384.56   1
  -1   5  -4 61061.3 1644.71   3
   1  -5   4 60245.7 1415.42   3
  -1  -5  -4 60828.2 1652.31   2
  -1  -5  -5 26689.4 817.526   1
   1  -5   5 28637.7 845.873   3
  -1   5  -5 28490.1 1089.29   3
  -1  -5  -5 28566.2 1217.39   2
  -1   5  -5 28118.7 1275.89   2
  -1  -5  -5 29585.9 1025.65   3
  -1   5  -6 788.932 256.010   2
  -1  -5  -6 934.619 294.795   2
  -1  -5  -6 796.039 131.162   1
  -1  -5  -6 815.657 195.127   3
   1  -5   6 1235.12 164.966   3
  -1   5  -6 1242.55 236.046   3
  -1   5  -7 2001.15 313.678   3
   1  -5   7 2415.78 214.042   3
  -1  -5  -7 2094.17 192.973   1
  -1   5  -7 1142.08 327.478   2
   1  -5   7 1910.96 173.243   1
  -1  -5  -7 1754.07 249.994   3
  -1  -5  -7 2307.88 419.178   2
  -1   5  -8 652.332 278.169   2
  -1  -5  -8 550.120 140.431   3
  -1   5  -8 391.515 154.541   3
  -1  -5  -8 406.925 219.237   2
  -1  -5  -8 604.965 102.997   1
   1  -5   8 536.130 98.5558   1
  -1  -5  -9 9723.75 385.733   1
  -1  -5  -9 9287.86 456.853   3
  -1   5  -9 10228.3 603.913   3
   1  -5   9 10658.2 369.020   1
  -1  -5  -9 10126.8 841.688   2
  -1   5  -9 9987.15 891.654   2
  -1   5 -10 7805.40 435.940   3
  -1  -5 -10 8432.88 347.127   3
  -1   5 -10 8606.51 831.559   2
  -1  -5 -10 7664.91 306.457   1
   1  -5  10 7101.13 257.092   1
  -1  -5 -10 7272.25 715.872   2
  -1  -5 -11 6190.39 671.324   2
  -1   5 -11 6179.60 712.251   2
  -1  -5 -12-194.319 222.684   2
  -1   5 -12 61.9954 183.161   2
  -1  -5 -13 3812.94 528.749   2
  -1   5 -13 4102.35 592.063   2
   1   6 -14 506.831 271.104   2
   1  -6 -14 532.387 272.306   2
   1   6 -13 11872.5 958.920   2
   1  -6 -13 12972.5 985.646   2
   1   6 -12 2722.28 458.239   2
   1  -6 -12 3988.26 544.221   2
  -1  -6  11 41541.6 1025.00   3
   1  -6 -11 42668.6 1745.87   2
   1   6 -11 41515.3 1725.52   2
   1  -6 -11 43279.1 993.956   1
  -1  -6  10 4243.66 303.623   3
   1  -6 -10 3821.84 502.219   2
   1   6 -10 3632.87 483.822   2
  -1  -6  10 4411.39 262.263   1
   1  -6 -10 3939.57 267.595   1
   1  -6  -9 39544.5 1547.40   2
  -1  -6   9 36384.0 1666.54   2
   1  -6  -9 38223.8 997.254   1
  -1  -6   9 37606.4 1110.13   3
  -1   6   9 38377.6 1004.02   3
  -1  -6   9 40126.8 978.745   1
  -1   6   9 40794.8 1746.19   2
   1   6  -9 36532.1 1473.58   2
  -1   6   8 152.423 170.834   2
  -1  -6   8 142.177 75.3975   1
  -1  -6   8-22.5179 133.564   2
   1   6  -8 238.000 148.377   2
   1  -6  -8 96.3935 141.566   2
  -1   6   8 222.047 115.866   3
  -1  -6   8 280.225 119.017   3
   1  -6  -8 340.600 105.799   3
   1  -6  -7 38739.4 1354.92   2
  -1   6   7 40058.9 1273.95   3
  -1  -6   7 37258.6 1304.30   3
  -1  -6   7 36591.9 983.406   1
   1   6  -7 38058.9 1295.44   2
   1  -6  -7 35851.1 982.230   3
  -1   6   7 37876.8 1645.99   2
  -1  -6   7 33852.1 1582.56   2
   1  -6  -6 32019.9 1125.01   2
   1   6  -6 31374.0 1062.04   2
  -1  -6   6 31452.0 1288.96   3
  -1   6   6 32945.9 1235.76   3
  -1  -6   6 31901.4 931.079   1
  -1  -6   6 31330.4 1415.68   2
   1  -6  -6 32132.5 961.860   3
  -1  -6   5 9005.93 464.946   1
   1  -6  -5 10148.0 511.552   2
   1   6  -5 9594.92 471.185   2
  -1  -6   5 8470.81 654.414   3
   1  -6  -5 8938.76 482.035   3
  -1   6   5 10280.2 681.314   2
  -1   6   5 9876.51 659.532   3
  -1  -6   5 9247.28 645.065   2
  -1   6   4 8846.58 528.653   2
   1  -6  -4 9531.01 436.389   2
  -1  -6   4 8213.00 646.792   3
   1  -6  -4 8169.81 492.903   3
   1   6  -4 9329.82 404.563   2
  -1  -6   4 9172.01 511.330   1
  -1   6   4 9227.46 629.875   3
  -1  -6   4 8465.23 521.722   2
  -1   6   3 2206.22 210.414   2
  -1  -6   3 1973.65 201.528   2
  -1  -6   3 1961.66 323.591   3
  -1  -6   3 1745.78 243.336   1
   1  -6  -3 2026.27 254.875   3
  -1   6   3 1830.75 278.699   3
   1   6  -3 2057.89 296.489   3
  -1  -6   2 18622.6 520.587   2
  -1  -6   2 17611.1 895.314   3
   1  -6  -2 18370.9 838.138   3
  -1   6   2 17514.7 502.808   2
  -1   6   2 17546.1 833.242   3
  -1  -6   1 2796.01 149.355   2
  -1   6   1 2908.38 150.687   2
   1  -6  -1 3095.66 368.845   3
  -1  -6   1 3092.63 361.301   3
  -1  -6   0 5343.24 453.255   3
   1  -6   0 5108.70 450.568   3
  -1  -6  -1 1205.71 239.802   3
   1  -6   1 1650.98 261.862   3
   1   6   2 13542.2 674.800   3
  -1  -6  -2 13828.9 723.766   3
   1  -6   2 13690.6 696.974   3
   1  -6   3 37645.1 1055.38   3
  -1  -6  -3 40808.6 1212.22   3
  -1  -6  -4 105.732 120.998   3
  -1  -6  -4-116.278 101.352   1
  -1   6  -4-49.8900 112.786   3
  -1  -6  -4 76.4865 106.272   2
   1  -6   4-0.78200 102.758   3
  -1   6  -4-31.7422 99.4406   2
  -1  -6  -5 106778. 2102.14   3
   1  -6   5 104205. 1614.33   3
  -1  -6  -5 94403.6 2159.25   2
  -1   6  -5 95361.9 2305.75   2
  -1   6  -6 26641.3 1330.68   2
  -1  -6  -6 23683.5 985.811   3
  -1  -6  -6 22749.4 1161.14   2
   1  -6   6 27158.6 785.723   3
  -1  -6  -7 75277.6 1673.05   3
  -1  -6  -7 74288.2 2125.67   2
  -1   6  -7 77162.0 2297.21   2
   1  -6   7 78823.8 1295.67   3
  -1  -6  -8 1354.28 210.595   3
   1  -6   8 1357.01 158.173   1
   1  -6   8 1215.10 170.278   3
  -1   6  -8 957.321 320.231   2
  -1  -6  -8 1091.57 305.981   2
  -1  -6  -9 23862.3 741.774   1
  -1  -6  -9 26726.8 890.013   3
   1  -6   9 28581.9 748.000   1
  -1  -6  -9 27660.9 1373.54   2
  -1   6  -9 26806.3 1427.22   2
  -1  -6 -10 6709.81 360.062   3
  -1  -6 -10 7089.04 340.232   1
  -1   6 -10 6007.25 680.989   2
   1  -6  10 7290.68 315.500   1
  -1  -6 -10 6446.83 666.100   2
  -1  -6 -11 12252.5 922.850   2
  -1   6 -11 11289.8 928.034   2
  -1  -6 -12 592.569 289.032   2
  -1   6 -12 690.260 287.783   2
  -1   6 -13-177.243 216.124   2
  -1  -6 -13 476.058 253.108   2
   1  -7 -14-155.610 218.714   2
   1   7 -14-99.4009 222.976   2
   1   7 -13 11762.5 948.189   2
   1  -7 -13 13388.4 979.146   2
   1  -7 -12 1895.55 393.320   2
   1   7 -12 2262.13 413.187   2
  -1  -7  11 5331.13 351.804   3
   1  -7 -11 4705.07 559.517   2
   1   7 -11 5799.14 615.517   2
   1  -7 -11 5763.97 341.148   1
   1  -7 -10 6137.52 587.810   2
   1   7 -10 5256.89 549.500   2
  -1  -7  10 5886.14 400.399   3
  -1   7  10 5081.94 319.100   3
   1  -7 -10 5269.20 344.432   1
  -1  -7  10 5710.32 338.720   1
  -1  -7   9 140.888 82.3440   1
   1   7  -9 291.906 172.003   2
  -1   7   9 363.031 121.436   3
  -1  -7   9 145.949 108.828   3
   1  -7  -9 29.7109 150.969   2
  -1   7   9 570.825 245.754   2
  -1  -7   9 691.252 244.054   2
   1  -7  -9 372.044 108.264   3
  -1  -7   8 14986.3 608.554   1
   1  -7  -8 15097.5 831.873   2
   1   7  -8 16226.3 841.101   2
  -1   7   8 16623.0 715.118   3
  -1   7   8 17807.0 1067.75   2
  -1  -7   8 15073.5 994.315   2
   1  -7  -8 15023.2 615.476   3
  -1  -7   8 13864.9 738.294   3
   1   7  -7 8971.11 570.672   2
  -1   7   7 9607.64 782.960   2
  -1  -7   7 8991.62 478.288   1
   1  -7  -7 8844.89 489.742   3
   1  -7  -7 8996.85 596.099   2
  -1  -7   7 8497.85 621.540   3
  -1   7   7 10343.4 639.755   3
  -1  -7   7 9384.71 767.987   2
   1   7  -6 220.897 101.308   2
   1  -7  -6 321.189 119.293   3
  -1   7   6 62.9829 132.642   3
  -1  -7   6 289.821 160.709   3
   1  -7  -6 161.957 94.4395   2
  -1  -7   6 291.938 164.522   2
  -1  -7   6 299.507 123.879   1
   1  -7  -5 14626.4 725.425   3
   1  -7  -5 17532.4 681.979   2
  -1  -7   5 15609.9 945.455   3
  -1   7   5 17087.1 932.887   2
  -1  -7   5 15354.8 709.117   1
  -1   7   5 16930.5 951.081   3
   1   7  -5 16758.2 634.157   2
  -1  -7   5 14426.1 853.603   2
  -1   7   4 13890.2 865.340   3
  -1  -7   4 12505.7 838.186   3
   1  -7  -4 12703.1 710.443   3
  -1  -7   4 14141.4 725.193   1
  -1  -7   4 14129.3 715.874   2
  -1   7   4 13379.4 711.516   2
   1  -7  -3 5337.83 478.005   3
  -1  -7   3 5207.79 552.891   3
  -1   7   3 5713.50 552.593   3
  -1  -7   3 5747.81 361.441   2
  -1   7   3 5825.98 368.273   2
  -1   7   2 68186.0 1324.07   2
  -1  -7   2 69164.9 1331.22   2
  -1  -7   2 65183.0 2082.77   3
   1  -7  -2 64639.5 1935.51   3
  -1   7   2 69169.4 2049.24   3
  -1   7   1 3474.70 165.140   2
   1  -7  -1 3402.73 425.751   3
  -1  -7   1 3494.53 440.070   3
  -1  -7   1 3695.68 172.295   2
  -1  -7   0 326.174 174.848   3
   1  -7   0 151.522 117.686   3
  -1  -7  -1 18548.5 987.238   3
   1  -7   1 19978.8 990.763   3
  -1  -7  -2 90695.1 2408.58   3
   1  -7   2 85921.2 2267.27   3
   1   7   2 87112.4 2191.92   3
  -1  -7  -3 17482.7 943.777   3
   1  -7   3 16607.6 817.377   3
  -1   7  -3 15477.1 726.071   2
  -1  -7  -3 17161.4 723.163   2
  -1   7  -4 3183.62 384.151   2
  -1  -7  -4 3787.27 445.275   3
   1  -7   4 2992.93 329.558   3
  -1  -7  -4 3136.77 356.211   2
  -1  -7  -5 3343.64 423.424   2
  -1   7  -5 3378.95 440.235   2
   1  -7   5 4308.89 371.707   3
  -1  -7  -5 3592.10 432.009   3
  -1  -7  -6 836.701 197.917   3
  -1  -7  -6 1019.46 301.156   2
  -1   7  -6 655.382 220.686   2
   1  -7   6 1125.04 203.354   3
  -1  -7  -7 4482.55 529.674   2
  -1  -7  -7 3328.72 386.979   3
   1  -7   7 3620.98 321.551   3
  -1   7  -7 3957.85 514.042   2
  -1   7  -8 3126.27 411.860   3
  -1  -7  -8 3244.16 470.619   2
  -1   7  -8 3014.02 459.575   2
   1  -7   8 3098.17 285.471   3
  -1  -7  -8 2648.41 311.110   3
  -1   7  -9 21301.7 991.732   3
  -1  -7  -9 19418.7 798.059   3
   1  -7   9 20676.0 680.779   1
   1  -7   9 20285.9 748.771   3
  -1  -7  -9 19487.1 1131.11   2
  -1   7  -9 20186.4 1196.14   2
   1  -7  10 1544.68 172.680   1
  -1  -7 -10 1753.61 376.967   2
  -1   7 -10 1119.96 322.181   2
  -1  -7 -10 1417.38 187.456   3
  -1   7 -11 26858.4 1427.58   2
  -1  -7 -11 27340.9 1375.91   2
  -1  -7 -12 4641.68 576.015   2
  -1   7 -12 4372.33 593.496   2
  -1  -7 -13 12993.7 979.253   2
  -1   7 -13 13750.6 1038.73   2
   1   8 -14 1309.02 359.614   2
   1  -8 -14 1346.85 346.764   2
   1   8 -13 1129.12 328.690   2
   1  -8 -13 730.171 264.238   2
   1   8 -12 449.489 246.573   2
   1  -8 -12 324.887 190.087   2
   1  -8 -11 5123.25 554.837   2
   1  -8 -11 5064.23 359.096   1
   1   8 -11 5364.35 569.180   2
  -1  -8  11 5439.79 391.551   3
   1  -8 -10 4520.78 493.009   2
   1   8 -10 4599.81 501.498   2
  -1   8  10 4252.55 324.862   3
  -1  -8  10 4635.43 382.521   3
  -1  -8  10 4378.13 325.117   1
   1  -8  -9 9005.86 658.451   2
   1   8  -9 8557.30 633.193   2
  -1  -8   9 9343.13 585.256   3
   1  -8  -9 8656.01 479.925   3
  -1  -8   9 7957.99 456.602   1
  -1  -8   9 7423.47 674.093   2
  -1   8   9 9776.07 783.593   2
  -1   8   9 8144.56 488.607   3
   1  -8  -8 37274.0 1307.30   2
   1   8  -8 35379.6 1255.26   2
  -1   8   8 34774.1 1159.64   3
  -1  -8   8 34205.5 1267.94   3
   1  -8  -8 37290.3 1118.04   3
  -1   8   8 38477.7 1559.78   2
  -1  -8   8 34306.9 1051.23   1
   1  -8  -7 710.642 173.015   2
  -1  -8   7 746.554 207.316   2
  -1  -8   7 636.014 150.573   1
   1   8  -7 869.373 182.779   2
   1  -8  -7 1068.86 197.049   3
  -1  -8   7 848.682 185.099   3
  -1   8   7 913.543 227.648   3
  -1   8   7 667.579 243.216   2
   1  -8  -6 6670.07 442.106   2
   1   8  -6 6660.34 418.318   2
  -1   8   6 6104.37 568.614   3
  -1  -8   6 5906.98 579.841   3
  -1  -8   6 6482.38 460.097   1
   1  -8  -6 6541.12 492.842   3
  -1  -8   6 6033.53 565.617   2
   1   8  -6 6349.49 524.799   3
   1   8  -5 209.121 185.733   3
  -1  -8   5-19.0145 136.752   1
  -1  -8   5 253.353 169.312   3
   1  -8  -5 284.044 133.245   3
   1  -8  -5 313.604 113.346   2
  -1   8   5 138.507 136.801   3
  -1  -8   5 54.3192 128.367   2
   1   8  -5 255.591 98.7326   2
  -1   8   5 201.411 140.011   2
   1  -8  -4 56961.1 1784.56   3
  -1   8   4 56725.1 1683.83   2
   1   8  -4 60801.5 1996.83   3
  -1   8   4 58557.1 1995.11   3
  -1  -8   4 53291.0 1940.95   3
  -1  -8   4 52412.4 1576.40   2
  -1  -8   3 7524.02 698.180   3
  -1   8   3 8494.25 719.072   3
  -1  -8   3 8415.37 465.300   2
  -1   8   3 8784.15 490.178   2
   1  -8  -3 8723.96 676.391   3
  -1  -8   2 3217.87 216.378   2
  -1   8   2 3501.99 478.217   3
   1  -8  -2 2381.01 381.755   3
  -1  -8   2 2788.57 415.987   3
  -1   8   2 2811.43 209.544   2
  -1   8   1 15417.3 403.105   2
  -1  -8   1 16289.9 413.256   2
  -1  -8   1 14951.8 970.529   3
  -1  -8   0 9835.81 769.138   3
   1  -8   0 9251.30 757.567   3
   1  -8   1 2003.12 367.632   3
  -1  -8  -1 1828.01 366.289   3
   1   8   2 19544.9 959.502   3
  -1   8  -2 18811.0 688.402   2
  -1  -8  -2 17921.4 1042.45   3
  -1  -8  -2 18246.3 644.503   2
   1   8   3 705.618 186.331   3
  -1  -8  -3 770.478 164.016   2
  -1   8  -3 846.292 280.138   3
  -1   8  -3 779.355 192.401   2
  -1  -8  -3 728.452 231.317   3
   1  -8   3 513.615 199.086   3
   1  -8   4 79169.1 2051.58   3
  -1  -8  -4 74429.4 2280.68   3
  -1   8  -4 75735.5 2144.16   2
  -1  -8  -4 70688.6 2002.56   2
  -1   8  -4 80205.6 2524.66   3
  -1  -8  -5 11681.6 804.703   3
  -1   8  -5 12145.1 913.509   3
  -1   8  -5 10793.9 759.837   2
  -1  -8  -5 11081.2 736.756   2
   1  -8   5 11619.5 670.438   3
  -1  -8  -5 12276.4 695.149   1
  -1  -8  -6 106.717 141.391   2
   1  -8   6 154.024 104.643   3
  -1   8  -6 163.120 149.498   3
  -1  -8  -6 655.494 214.432   3
  -1   8  -6 131.486 147.418   2
  -1  -8  -6 418.632 138.410   1
   1  -8   7 7407.25 487.098   3
  -1  -8  -7 7603.37 649.783   2
  -1   8  -7 7873.12 686.630   2
  -1   8  -7 6953.82 657.957   3
  -1  -8  -7 6746.06 558.765   3
  -1  -8  -7 7138.58 481.413   1
  -1  -8  -8 20234.8 801.554   1
   1  -8   8 19678.9 797.426   3
  -1   8  -8 19367.1 1068.15   3
  -1  -8  -8 18982.1 899.669   3
  -1  -8  -8 19131.8 1061.04   2
  -1   8  -8 21506.7 1174.23   2
  -1  -8  -9 7108.02 491.451   3
  -1   8  -9 6485.03 562.156   3
   1  -8   9 7340.80 461.403   3
  -1  -8  -9 7337.84 452.449   1
  -1  -8  -9 7359.40 667.248   2
  -1   8  -9 6629.01 661.870   2
  -1  -8 -10 4173.10 346.779   3
  -1   8 -10 4258.41 410.603   3
  -1   8 -10 3292.53 483.062   2
   1  -8  10 4312.99 306.563   1
  -1  -8 -10 4334.61 328.659   1
  -1  -8 -10 4066.39 512.209   2
  -1   8 -11 264.149 222.542   2
  -1  -8 -11 185.055 207.989   2
  -1  -8 -12-19.5686 177.983   2
  -1   8 -12 475.645 250.856   2
  -1  -8 -13 1941.96 393.956   2
  -1   8 -13 1722.96 392.164   2
   1   9 -13 940.963 291.970   2
   1  -9 -13 1030.55 285.414   2
   1  -9 -12 232.525 152.849   2
   1   9 -12 411.492 300.330   2
  -1  -9  11 552.729 157.471   3
   1   9 -11 133.973 185.411   2
   1  -9 -11 97.8641 145.411   2
   1  -9 -11 199.166 112.419   1
  -1  -9  10 14209.7 722.603   3
  -1  -9  10 11908.2 591.894   1
   1  -9 -10 13683.6 827.911   2
   1   9 -10 13072.3 815.649   2
   1  -9 -10 13795.7 629.323   3
   1  -9  -9 7730.23 586.340   2
   1   9  -9 7702.36 574.942   2
  -1  -9   9 7070.37 461.254   1
  -1  -9   9 8453.71 584.077   3
  -1   9   9 6367.75 467.895   3
   1  -9  -9 8560.34 511.218   3
  -1   9   8 3491.08 367.160   3
   1  -9  -8 3397.55 363.978   2
   1   9  -8 3658.41 372.052   2
   1  -9  -8 3409.40 348.657   3
  -1  -9   8 2822.20 303.694   1
  -1  -9   8 3637.88 417.038   3
  -1  -9   8 2752.73 409.970   2
  -1  -9   7 261.397 138.568   2
  -1   9   7 529.515 187.991   2
  -1  -9   7 138.113 105.363   1
   1   9  -7 241.737 113.123   2
   1  -9  -7 318.782 139.896   2
  -1  -9   7 28.7711 161.013   3
  -1   9   7 342.277 157.224   3
   1  -9  -6 2855.21 352.174   3
   1   9  -6 2945.68 276.931   2
  -1  -9   6 3286.92 390.581   2
   1   9  -6 3398.30 413.418   3
  -1  -9   6 2924.73 413.608   3
  -1  -9   6 3032.34 344.802   1
   1  -9  -6 3226.80 293.838   2
  -1   9   6 3618.74 445.765   3
  -1   9   5 8599.39 737.256   3
  -1  -9   5 9090.53 763.260   3
  -1  -9   5 8837.09 622.079   1
   1   9  -5 8132.93 684.764   3
  -1   9   5 10242.2 650.848   2
  -1  -9   5 7710.89 566.252   2
   1  -9  -5 9306.97 679.045   3
   1   9  -4 41735.4 1699.76   3
  -1   9   4 40814.1 1691.94   3
  -1  -9   4 35355.3 1217.41   2
   1  -9  -4 42098.0 1599.24   3
  -1  -9   4 36094.9 1613.06   3
  -1   9   4 43596.7 1349.25   2
  -1  -9   3 1574.96 210.623   2
  -1   9   3 2676.47 438.824   3
  -1  -9   3 2102.86 409.728   3
  -1   9   3 2076.93 243.429   2
   1  -9  -3 2259.79 381.191   3
   1   9  -3 1851.85 359.364   3
  -1  -9   2 133642. 3533.51   3
   1  -9  -2 129891. 3548.90   3
  -1   9   2 148585. 3708.25   3
  -1   9   2 144752. 2578.07   2
  -1  -9   2 142198. 2499.17   2
  -1  -9   1 6084.34 231.380   2
  -1  -9   1 6429.61 654.661   3
   1  -9  -1 5285.00 621.480   3
  -1   9   1 6472.81 667.727   3
  -1   9   1 5940.98 241.091   2
  -1  -9   0 16373.1 375.412   2
  -1  -9   0 18745.7 1121.98   3
   1  -9   1 2086.72 409.347   3
  -1  -9  -1 1864.85 365.427   3
   1   9   1 2142.51 361.766   3
  -1   9  -1 2340.68 186.589   2
  -1  -9  -1 2494.72 180.769   2
  -1   9  -2 75425.7 1691.55   2
  -1  -9  -2 68396.9 2286.40   3
   1   9   2 76071.9 2160.10   3
   1  -9   2 76349.7 2304.65   3
  -1  -9  -2 66344.3 1562.92   2
  -1   9  -2 78722.2 2584.33   3
   1   9   3 17230.8 903.694   3
  -1   9  -3 17958.5 1171.20   3
   1  -9   3 18442.9 999.702   3
  -1  -9  -3 15741.1 1014.40   3
  -1  -9  -3 15635.8 726.860   2
  -1   9  -3 17115.8 770.253   2
  -1  -9  -4 3071.80 465.718   3
  -1  -9  -4 3034.74 340.652   2
   1  -9   4 3003.96 392.948   3
  -1   9  -4 2702.42 326.286   2
  -1   9  -4 2461.49 444.906   3
  -1  -9  -5 1963.92 368.281   3
  -1   9  -5 1591.16 270.300   2
  -1  -9  -5 1846.43 288.106   2
  -1  -9  -5 1381.28 245.131   1
   1  -9   5 1773.31 288.478   3
  -1  -9  -6 2866.79 338.030   1
  -1   9  -6 2723.53 366.282   2
  -1   9  -6 2368.78 425.115   3
  -1  -9  -6 2780.55 365.951   2
   1  -9   6 2806.54 337.750   3
  -1  -9  -6 3030.92 411.091   3
   1  -9   7 1944.91 287.461   3
  -1  -9  -7 1617.90 306.440   2
  -1   9  -7 1685.49 323.747   2
  -1   9  -7 1070.06 262.094   3
  -1  -9  -7 1349.74 272.853   3
  -1  -9  -7 1555.83 247.347   1
  -1  -9  -8 3139.37 328.866   1
  -1   9  -8 4187.84 503.906   2
  -1  -9  -8 3366.55 430.699   2
  -1   9  -8 2999.14 432.510   3
  -1  -9  -8 3288.42 393.340   3
   1  -9   8 3659.20 359.221   3
  -1  -9  -9 1621.19 254.285   3
  -1  -9  -9 1803.52 334.451   2
  -1   9  -9 1384.36 276.531   3
  -1   9  -9 2007.88 368.665   2
   1  -9   9 1599.19 247.119   3
  -1  -9  -9 1573.77 231.801   1
  -1   9 -10 4416.84 443.275   3
  -1  -9 -10 4841.09 551.139   2
  -1  -9 -10 5217.46 411.855   3
  -1   9 -10 4460.26 547.052   2
   1  -9  10 5548.37 427.689   3
   1  -9  10 5458.75 379.283   1
  -1  -9 -11 522.586 217.145   2
  -1   9 -11 371.193 229.161   2
  -1   9 -12 4324.62 569.712   2
  -1  -9 -12 3619.91 486.755   2
  -1  -9 -13 779.354 277.485   2
  -1   9 -13 628.558 281.945   2
   1 -10 -13 5579.01 595.405   2
   1  10 -13 5222.84 589.277   2
   1 -10 -12 1215.52 285.974   2
   1  10 -12 1228.01 297.763   2
   1 -10 -11 2320.27 361.311   2
   1  10 -11 2814.45 406.755   2
  -1 -10  11 2832.62 332.916   3
   1 -10 -10-84.6361 160.889   2
   1  10 -10 421.521 171.621   2
   1 -10 -10 132.585 128.808   3
  -1 -10  10 185.816 165.122   3
   1 -10  -9 7197.45 565.674   2
  -1 -10   9 7677.88 590.540   3
   1 -10  -9 7387.55 515.791   3
  -1 -10   9 5988.63 451.397   1
  -1  10   9 5808.19 473.196   3
   1  10  -9 6458.82 509.958   2
   1  10  -8 18242.8 813.287   2
  -1 -10   8 18794.2 980.497   3
  -1 -10   8 16943.7 801.438   1
  -1  10   8 18042.9 881.615   3
   1 -10  -8 21204.5 934.710   3
   1 -10  -8 20286.1 874.432   2
   1  10  -7 25036.9 1148.54   3
   1 -10  -7 28236.4 1150.74   3
  -1  10   7 24327.2 1093.78   3
   1  10  -7 24981.2 886.449   2
  -1 -10   7 24845.7 1193.32   3
  -1 -10   7 23056.8 988.544   1
   1 -10  -7 26152.6 948.211   2
  -1  10   6 3960.72 474.385   3
   1  10  -6 4024.33 493.350   3
  -1 -10   6 3536.29 368.017   2
  -1 -10   6 3078.36 438.983   3
   1 -10  -6 3671.65 433.880   3
  -1 -10   6 3709.28 406.048   1
  -1 -10   5 1693.77 245.175   2
   1 -10  -5 1414.03 302.114   3
  -1 -10   5 1364.96 306.999   3
   1  10  -5 1454.56 320.861   3
  -1  10   5 1407.93 330.229   3
  -1  10   5 1877.85 255.711   2
  -1  10   4 40929.5 1744.83   3
   1 -10  -4 44175.1 1756.76   3
  -1 -10   4 36680.8 1651.65   3
  -1  10   4 47263.7 1242.17   2
   1  10  -4 37823.0 1651.00   3
  -1 -10   4 38305.2 1139.39   2
  -1 -10   3 19435.5 1178.02   3
  -1 -10   3 21454.6 708.322   2
  -1  10   3 23040.8 1302.62   3
   1  10  -3 19499.7 1177.69   3
  -1  10   3 24799.0 747.264   2
   1 -10  -3 25440.1 1363.33   3
   1 -10  -2 3314.10 528.937   3
  -1 -10   2 3566.88 521.455   3
  -1 -10   2 3487.58 207.021   2
   1  10  -2 2797.83 436.175   3
  -1  10   2 3806.24 541.525   3
   1  10  -1 7123.90 712.079   3
  -1  10   1 7792.53 773.046   3
   1 -10  -1 7684.50 824.933   3
  -1 -10   1 6469.40 685.416   3
  -1  10   0 2999.53 484.110   3
   1 -10   0 2217.81 442.463   3
  -1 -10   0 3047.54 474.993   3
   1  10   0 2346.85 415.283   3
  -1 -10  -1 14009.5 988.915   3
  -1 -10  -1 14046.3 403.325   2
  -1  10  -1 14585.2 1068.21   3
   1  10   1 14994.5 955.353   3
   1 -10   1 15144.6 1041.50   3
  -1 -10  -2 26890.8 1391.86   3
  -1  10  -2 29826.2 1581.93   3
   1  10   2 31650.4 1352.84   3
   1 -10   2 30506.6 1440.09   3
  -1 -10  -2 28136.8 789.768   2
  -1  10  -2 28803.7 745.444   2
   1  10   3 33730.9 1351.83   3
  -1 -10  -3 30325.7 1473.53   3
   1 -10   3 33574.7 1450.52   3
  -1  10  -3 34996.2 1704.10   3
  -1 -10  -3 32155.8 976.455   2
  -1  10  -3 35092.7 986.102   2
  -1 -10  -4 29552.7 1446.16   3
  -1 -10  -4 31995.8 1066.08   2
  -1  10  -4 33362.5 1669.29   3
   1  10   4 33661.2 1300.81   3
   1 -10   4 33597.9 1391.27   3
  -1  10  -4 33158.3 1077.37   2
  -1 -10  -5 1881.06 338.379   3
  -1 -10  -5 2365.25 294.341   2
  -1  10  -5 1483.37 380.950   3
   1 -10   5 1942.66 322.070   3
  -1  10  -5 2379.64 304.126   2
  -1 -10  -6 401.164 155.867   2
  -1  10  -6 572.551 254.768   3
  -1 -10  -6 393.449 155.911   3
  -1  10  -6 455.254 176.592   2
   1 -10   6 488.847 185.488   3
  -1 -10  -6 118.059 112.574   1
  -1 -10  -7 38210.2 1371.58   2
   1 -10   7 35966.0 1299.62   3
  -1  10  -7 35834.2 1620.13   3
  -1 -10  -7 35847.6 1432.99   3
  -1 -10  -7 35562.4 1275.10   1
  -1  10  -7 37341.9 1388.34   2
  -1  10  -8 561.186 197.573   2
   1 -10   8 585.324 174.511   3
  -1  10  -8 509.296 238.430   3
  -1 -10  -8 344.896 177.296   2
  -1 -10  -8 165.469 121.387   3
  -1 -10  -8 319.003 146.573   1
  -1  10  -9 1473.63 291.167   2
  -1 -10  -9 1200.88 231.085   3
  -1 -10  -9 1251.03 262.516   2
  -1  10  -9 606.383 218.095   3
   1 -10   9 1463.43 248.162   3
  -1 -10  -9 1217.75 219.001   1
  -1  10 -10 8162.02 695.791   2
   1 -10  10 8316.66 544.601   3
  -1 -10 -10 9171.06 579.707   3
  -1 -10 -10 8219.77 671.945   2
  -1  10 -11 2219.91 387.557   2
  -1 -10 -11 2491.34 396.625   2
  -1  10 -12 3220.05 491.257   2
  -1 -10 -12 3603.72 493.185   2
  -1 -10 -13 608.627 270.383   2
  -1  10 -13 353.221 236.255   2
   1  11 -13 4069.48 502.907   2
   1 -11 -13 4399.04 525.826   2
   1  11 -12 4977.32 529.583   2
   1 -11 -12 4601.85 508.107   2
   1 -11 -11 28.5064 131.247   2
   1  11 -11-109.515 148.709   2
  -1 -11  11 193.943 144.615   3
  -1 -11  10 19190.9 942.485   3
   1 -11 -10 20201.4 889.462   3
   1 -11 -10 19135.8 950.475   2
   1  11 -10 20195.0 947.284   2
  -1 -11   9 646.591 223.336   3
  -1 -11   9 513.087 166.362   1
  -1  11   9-17.5216 88.2216   3
   1 -11  -9 648.233 192.102   2
   1  11  -9 655.890 169.950   2
   1 -11  -9 497.378 181.499   3
   1 -11  -8 10270.1 603.930   2
  -1  11   8 8663.48 626.870   3
  -1 -11   8 9167.53 691.238   3
   1 -11  -8 9869.69 664.413   3
   1 -11  -7 8150.12 630.864   3
  -1 -11   7 7060.01 556.478   1
  -1 -11   7 7881.51 678.850   3
  -1  11   7 7302.60 599.474   3
  -1  11   6 7639.30 663.684   3
   1 -11  -6 8320.27 681.851   3
  -1 -11   6 7379.32 683.772   3
  -1 -11   6 7855.22 618.146   1
   1  11  -5 1495.64 334.349   3
  -1 -11   5 904.693 272.154   3
   1 -11  -5 1669.42 344.684   3
  -1  11   5 2048.41 379.248   3
   1  11  -4 3707.46 499.666   3
  -1  11   4 4341.16 570.739   3
  -1 -11   4 3520.20 497.138   3
   1 -11  -4 5154.32 617.460   3
   1  11  -3 128.206 173.717   3
  -1  11   3 367.349 225.044   3
   1 -11  -3 202.766 196.591   3
  -1 -11   3 15.8735 195.473   3
   1 -11  -2 2494.51 508.341   3
  -1 -11   2 2646.09 453.058   3
  -1  11   2 1624.53 385.449   3
   1  11  -2 2373.34 429.826   3
   1 -11  -1 6477.83 764.159   3
  -1 -11   1 5892.81 668.512   3
  -1  11   1 6488.70 733.411   3
   1  11  -1 5795.77 638.445   3
  -1  11   0 6286.45 717.786   3
  -1 -11   0 5786.70 671.235   3
   1  11   0 7048.33 705.472   3
   1 -11   0 6348.47 721.556   3
   1  11   1 31710.4 1462.52   3
  -1 -11  -1 31246.3 1530.36   3
   1 -11   1 29768.1 1532.92   3
  -1  11  -1 29041.5 1588.18   3
  -1 -11  -2 1117.18 101.020   2
  -1  11  -2 760.452 280.425   3
  -1 -11  -2 898.684 315.836   3
   1  11   2 1162.01 296.335   3
   1 -11   2 1070.22 300.464   3
  -1 -11  -3 242.368 208.520   3
  -1  11  -3 701.443 249.786   3
  -1  11  -3 887.950 119.634   2
   1  11   3 883.846 224.263   3
  -1 -11  -3 752.796 123.058   2
   1 -11   3 946.260 288.669   3
  -1 -11  -4 32082.3 955.309   2
  -1  11  -4 31171.4 912.028   2
   1 -11   4 31249.5 1398.86   3
   1  11   4 31595.9 1299.09   3
  -1 -11  -4 30967.9 1477.40   3
  -1  11  -4 33490.5 1705.43   3
  -1 -11  -5 1704.72 350.779   3
  -1 -11  -5 2182.01 258.539   2
  -1  11  -5 1899.07 244.465   2
   1 -11   5 1632.86 300.028   3
  -1 -11  -6 23030.5 922.862   2
  -1  11  -6 22961.5 928.976   2
  -1 -11  -6 20975.8 1143.08   3
  -1 -11  -6 22255.6 1050.68   1
   1 -11   6 23137.1 1089.62   3
  -1 -11  -7 263.737 140.769   2
  -1  11  -7 476.910 175.996   2
  -1 -11  -7 105.337 133.730   3
   1 -11   7 240.898 151.670   3
  -1 -11  -8 12488.7 788.312   3
  -1 -11  -8 12904.6 755.786   2
  -1  11  -8 12250.2 752.401   2
   1 -11   8 11749.2 721.321   3
  -1 -11  -9 9471.22 676.491   2
  -1  11  -9 10437.3 726.660   2
   1 -11   9 10042.9 654.997   3
  -1 -11  -9 10043.9 669.048   3
  -1 -11 -10 13571.5 845.649   2
   1 -11  10 12343.8 713.894   3
  -1 -11 -10 13308.9 740.681   3
  -1  11 -10 13497.2 865.042   2
  -1  11 -11 1594.01 333.728   2
  -1 -11 -11 1200.68 264.586   2
  -1  11 -12 195.966 160.927   2
  -1 -11 -12 18.5588 146.247   2
   1 -12 -12 1608.82 302.418   2
   1  12 -12 1314.23 273.476   2
   1 -12 -11 1177.69 257.782   2
   1  12 -11 1230.62 263.583   2
  -1 -12  11 1183.38 245.222   3
  -1 -12  10 1091.80 266.462   3
   1 -12 -10 1197.16 243.354   3
   1 -12 -10 1239.31 244.044   2
   1 -12  -9 412.882 157.953   3
  -1 -12   9 312.025 186.553   3
  -1 -12   8 11.6838 147.664   3
   1 -12  -8-43.0053 139.552   3
  -1 -12   7 3500.51 482.296   3
   1 -12  -7 4045.24 460.851   3
   1 -12  -6 74.4866 153.403   3
  -1 -12   6 43.2624 174.800   3
  -1 -12   5 30932.1 1500.30   3
   1 -12  -5 36920.5 1594.96   3
   1 -12  -4 4383.82 580.747   3
  -1 -12   4 4401.87 552.852   3
  -1 -12   3 8802.25 794.024   3
   1 -12  -3 9640.28 902.926   3
  -1 -12   2 2521.35 441.629   3
   1 -12  -2 3421.58 577.239   3
  -1 -12   1 51954.5 2079.36   3
   1 -12  -1 64535.1 2499.79   3
  -1 -12   0 187.878 208.725   3
   1 -12   0 100.007 226.967   3
   1 -12   1 10311.8 909.914   3
  -1 -12  -1 10046.2 868.271   3
  -1 -12  -2 344.271 205.965   3
   1 -12   2 119.091 203.399   3
  -1  12  -3 1054.34 98.5542   2
  -1 -12  -3 1183.31 117.019   2
   1 -12   3 1271.75 340.473   3
  -1 -12  -3 703.094 257.528   3
  -1  12  -4 868.269 120.301   2
  -1 -12  -4 1134.55 149.308   2
   1 -12   4 861.655 265.899   3
  -1 -12  -4 908.945 283.555   3
  -1 -12  -5 759.418 151.503   2
  -1  12  -5 987.668 159.339   2
  -1 -12  -5 831.065 286.477   3
   1 -12   5 918.909 266.844   3
  -1 -12  -6 3277.45 315.393   2
  -1  12  -6 2922.15 291.602   2
  -1 -12  -6 3246.88 463.072   3
   1 -12   6 2851.26 410.544   3
  -1 -12  -7 13343.2 687.058   2
  -1  12  -7 12272.5 658.516   2
   1 -12   7 11500.9 780.849   3
  -1 -12  -7 11440.1 809.117   3
   1 -12   8 1006.51 242.843   3
  -1 -12  -8 996.456 222.529   2
  -1  12  -8 991.746 211.783   2
  -1 -12  -8 724.755 233.539   3
   1 -12   9 419.966 183.086   3
  -1 -12  -9 375.451 181.540   2
  -1  12  -9 142.656 128.158   2
  -1 -12  -9 206.644 138.364   3
  -1 -12 -10 6673.96 539.779   3
  -1 -12 -10 6404.34 561.604   2
  -1  12 -10 6399.84 570.500   2
   1 -12  10 5826.61 518.645   3
  -1  12 -11 15.6619 146.127   2
  -1 -12 -11 123.103 137.837   2
   1 -13 -10-7.81048 109.687   3
  -1 -13  10 3.46382 143.804   3
  -1 -13   9 681.247 224.568   3
   1 -13  -9 277.707 147.984   3
   1 -13  -8 368.193 177.483   3
  -1 -13   8 496.162 237.634   3
  -1 -13   7 22650.2 1221.95   3
   1 -13  -7 23673.0 1185.99   3
  -1 -13   6 63.7047 167.710   3
   1 -13  -6-13.9055 168.232   3
  -1 -13   5 13128.6 953.349   3
   1 -13  -5 14065.1 994.238   3
  -1 -13   4 1534.41 361.973   3
   1 -13  -4 1002.19 294.406   3
  -1 -13   3 10.2471 180.280   3
   1 -13  -3 445.142 192.846   3
  -1 -13   2 524.192 238.104   3
   1 -13  -2 597.070 309.786   3
   1 -13  -1 2946.79 544.270   3
  -1 -13   1 2492.96 451.643   3
   1 -13   0-123.200 271.051   3
  -1 -13   0 192.866 244.022   3
  -1 -13  -1 38671.5 1751.51   3
   1 -13   1 44087.9 1954.45   3
  -1 -13  -2 398.729 234.519   3
   1 -13   2 339.912 244.813   3
   1 -13   3 5876.66 664.273   3
  -1 -13  -3 4854.70 599.795   3
  -1 -13  -4 258.747 70.7094   2
  -1  13  -4 150.819 54.7894   2
   1 -13   4 105.955 167.868   3
  -1 -13  -4 39.5696 162.027   3
  -1 -13  -5 18022.5 1098.98   3
  -1 -13  -5 19154.2 652.451   2
  -1  13  -5 17331.8 583.601   2
   1 -13   5 18710.0 1096.21   3
  -1  13  -6 2224.90 233.862   2
  -1 -13  -6 1764.06 220.455   2
  -1 -13  -6 1506.18 334.538   3
   1 -13   6 2097.13 375.172   3
  -1 -13  -7 3362.81 319.401   2
  -1  13  -7 3109.84 306.544   2
  -1 -13  -7 3147.87 437.590   3
   1 -13   7 3644.90 464.944   3
  -1 -13  -8 97.9933 102.711   2
  -1 -13  -8 246.864 181.893   3
   1 -13   8 380.299 181.910   3
  -1  13  -8 27.4524 115.082   2
  -1  13  -9 2009.32 296.936   2
   1 -13   9 2765.72 387.791   3
  -1 -13  -9 2237.01 335.801   3
   1 -13  10 587.685 187.409   3
  -1 -14  10 422.155 197.156   3
   1 -14  -9 509.059 197.340   3
  -1 -14   9 1013.97 285.752   3
  -1 -14   8 1307.43 325.540   3
   1 -14  -8 920.152 245.759   3
   1 -14  -7 991.394 279.974   3
  -1 -14   7 882.076 290.887   3
  -1 -14   6 669.342 278.111   3
   1 -14  -6 1329.56 322.230   3
   1 -14  -5 20159.8 1202.85   3
  -1 -14   5 17400.7 1126.28   3
  -1 -14   4 3198.25 498.927   3
   1 -14  -4 3051.86 511.280   3
   1 -14  -3 1003.23 325.190   3
  -1 -14   3 1576.23 382.679   3
   1 -14  -2 405.754 242.270   3
  -1 -14   2-97.7604 225.940   3
   1 -14  -1 35081.4 1775.75   3
  -1 -14   1 32206.3 1589.70   3
  -1 -14   0 716.073 282.696   3
   1 -14   0 627.054 331.018   3
  -1 -14  -1 10900.1 915.825   3
   1 -14   1 9723.09 915.914   3
  -1 -14  -2 4222.32 554.621   3
   1 -14   2 3880.54 573.615   3
  -1 -14  -3 867.220 317.806   3
   1 -14   3 953.915 309.561   3
   1 -14   4 3133.76 472.854   3
  -1 -14  -4 2537.78 445.719   3
  -1 -14  -5 4841.10 579.095   3
   1 -14   5 4174.57 555.408   3
  -1 -14  -6 55.3019 167.410   3
   1 -14   6-146.249 154.443   3
   1 -14   7 12494.6 883.478   3
  -1 -14  -7 12077.7 867.266   3
   1 -14   8 376.826 194.011   3
  -1 -14  -8 681.430 238.072   3
   1 -14   9 347.322 194.255   3
  -1 -14  -9 428.985 194.981   3
   1 -14  10 1919.96 336.325   3
  -1 -15  10 7664.45 692.245   3
   1 -15  -9 483.827 202.154   3
  -1 -15   9 564.495 249.661   3
  -1 -15   8 3320.98 503.902   3
   1 -15  -8 3232.77 450.104   3
  -1 -15   7 3325.41 502.357   3
   1 -15  -7 3188.20 466.971   3
  -1 -15   6 2309.09 415.230   3
   1 -15  -6 1974.15 392.168   3
   1 -15  -5 996.262 295.951   3
  -1 -15   5 702.545 292.081   3
  -1 -15   4 887.653 334.863   3
   1 -15  -4 1174.60 352.743   3
  -1 -15   3 241.879 211.779   3
   1 -15  -3 147.280 270.257   3
  -1 -15   2 3174.35 530.920   3
   1 -15  -2 3321.63 550.805   3
   1 -15  -1 2382.68 480.451   3
  -1 -15   1 1840.09 423.284   3
  -1 -15   0 722.778 283.135   3
   1 -15   0 1614.08 398.337   3
   1 -15   1 9013.34 888.411   3
  -1 -15  -1 7506.37 762.824   3
  -1 -15  -2 609.285 265.652   3
   1 -15   2 877.871 314.049   3
   1 -15   3 16.6287 229.134   3
  -1 -15  -3 347.447 182.933   3
  -1 -15  -4 9372.54 822.132   3
   1 -15   4 8600.59 813.875   3
  -1 -15  -5 3144.70 488.104   3
   1 -15   5 3253.71 483.954   3
  -1 -15  -6 11066.8 873.551   3
   1 -15   6 11933.5 909.686   3
  -1 -15  -7-79.4075 188.717   3
   1 -15   7 172.767 185.219   3
   1 -15   8 5682.70 606.525   3
  -1 -15  -8 5856.30 601.931   3
  -1 -15  -9 465.145 215.231   3
   1 -15   9 1341.97 301.684   3
   1 -16  -9 221.916 179.234   3
  -1 -16   8 1488.90 352.437   3
   1 -16  -8 1317.91 310.926   3
  -1 -16   7 6353.65 705.166   3
   1 -16  -7 5403.43 610.871   3
   1 -16  -6 1549.82 369.991   3
  -1 -16   6 2148.90 443.002   3
  -1 -16   5 679.616 307.227   3
   1 -16  -5 85.9701 197.958   3
  -1 -16   4 6241.89 720.785   3
   1 -16  -4 7368.97 783.660   3
  -1 -16   3 7658.65 779.506   3
   1 -16  -3 8927.30 885.275   3
  -1 -16   2-90.1822 181.405   3
   1 -16  -2 819.861 333.904   3
  -1 -16   1 723.152 274.786   3
   1 -16  -1 1607.85 398.913   3
  -1 -16   0 1510.63 375.725   3
   1 -16   0 1449.02 383.014   3
  -1 -16  -1 2881.86 504.304   3
   1 -16   1 3840.92 592.152   3
   1 -16   2 2709.39 505.908   3
  -1 -16  -2 3228.84 517.253   3
  -1 -16  -3 4570.59 594.522   3
   1 -16   3 3982.38 614.117   3
  -1 -16  -4 7505.13 757.111   3
   1 -16   4 7285.11 776.267   3
  -1 -16  -5 562.806 270.835   3
   1 -16   5-121.559 194.632   3
  -1 -16  -6 176.298 189.104   3
   1 -16   6 303.367 202.211   3
  -1 -16  -7 4531.08 557.507   3
   1 -16   7 4615.21 571.327   3
  -1 -16  -8 327.858 169.087   3
   1 -17  -7 155.333 192.164   3
   1 -17  -6 188.372 259.951   3
   1 -17  -5 2463.04 460.397   3
  -1 -17   4 3707.52 563.225   3
   1 -17  -4 4412.97 632.139   3
  -1 -17   3 1630.61 406.585   3
   1 -17  -3 1318.14 387.692   3
  -1 -17   2 15209.1 1117.41   3
   1 -17  -2 14123.1 1113.55   3
  -1 -17   1 2794.54 502.936   3
   1 -17  -1 3803.52 602.275   3
  -1 -17   0 1071.15 342.073   3
   1 -17   0 1492.45 388.881   3
  -1 -17  -1 118.279 210.964   3
   1 -17   1 147.338 216.887   3
  -1 -17  -2 6914.56 739.056   3
   1 -17   2 6181.18 744.832   3
   1 -17   3 8358.17 839.159   3
  -1 -17  -3 6054.82 688.516   3
  -1 -17  -4 518.870 274.422   3
  -1 -17  -5 433.324 237.876   3
   2   0 -14-70.0385 262.945   2
   2   0 -13-157.249 284.404   2
   2   0 -12 5229.70 774.410   2
   2   0 -11 508.248 306.201   2
   2   0 -10 9636.79 911.702   2
  -2   0  10 9215.41 269.570   3
  -2   0  10 9430.77 304.927   3
   2   0 -10 9150.92 334.502   1
   2   0  -9 338.763 74.8455   1
  -2   0   9 509.771 76.2861   3
  -2   0   9 343.258 207.151   2
  -2   0   9 340.776 69.7393   3
  -2   0   8 1225.24 125.479   1
   2   0  -8 1357.73 132.225   1
  -2   0   8 1233.25 279.459   2
  -2   0   7 82.0079 48.1131   1
   2   0  -7 11.7044 45.6416   1
   2   0  -7-31.5421 113.769   2
   2   0  -6 291863. 4530.59   1
  -2   0   6 290230. 4518.04   1
   2   0  -6 288206. 5089.43   2
  -2   0   5 301.500 72.3275   1
   2   0  -5 278.132 74.5091   1
   2   0  -4 139309. 2339.38   1
  -2   0   4 137852. 2329.38   1
  -2   0   3 214.531 67.0569   1
   2   0  -3 101.242 60.4285   1
   2   0  -2 239007. 3771.95   1
   2   0  -1 304.434 85.0437   1
   2   0   0 413070. 6250.66   1
   2   0   1 189.186 70.2037   1
  -2   0  -2 803.500 102.341   1
   2   0   2 839.226 107.512   1
  -2   0  -3 820.854 102.358   1
   2   0   3 782.071 103.964   1
  -2   0  -4 9275.57 350.560   1
   2   0   4 9186.88 343.373   1
   2   0   5 2197.06 164.929   1
  -2   0  -5 2295.35 171.796   1
   2   0   6 4621.73 237.383   1
  -2   0  -6 4593.76 243.994   1
  -2   0  -7 86.0519 46.1302   1
   2   0   7 14.5766 59.0609   1
  -2   0  -8 1836.54 392.155   2
  -2   0  -8 1588.31 159.634   3
   2   0   8 1393.63 130.551   1
  -2   0  -9 1549.73 391.471   2
  -2   0  -9 1801.55 165.979   3
  -2   0 -10 20777.9 603.983   3
  -2   0 -10 18117.2 1375.21   2
  -2   0 -11 91.2304 237.463   2
  -2   0 -12 1133.71 394.013   2
  -2   0 -13 134.870 213.671   2
   2   1 -14 2407.55 528.652   2
   2  -1 -14 2758.85 607.657   2
   2   1 -13 7398.46 885.182   2
   2  -1 -13 6989.20 896.914   2
   2  -1 -12 9548.69 1047.03   2
   2   1 -12 8641.98 919.858   2
   2  -1 -11 20240.4 1431.63   2
   2   1 -11 19566.5 1351.59   2
   2  -1 -11 19974.6 482.673   1
   2  -1 -10 14716.2 1126.90   2
   2   1 -10 14444.0 1108.63   2
   2  -1 -10 15046.8 442.434   1
  -2  -1  10 16903.9 525.079   3
  -2  -1  10 14219.7 378.783   3
  -2   1  10 13805.2 359.352   3
  -2   1  10 14693.1 378.939   3
   2  -1  -9 35268.0 1619.58   2
   2   1  -9 34430.7 1582.63   2
   2  -1  -9 35284.8 816.886   1
  -2   1   9 36595.9 780.257   3
  -2  -1   9 37885.9 821.694   1
   2   1  -9 35620.5 841.580   1
  -2   1   9 36479.7 1643.16   2
  -2  -1   9 38089.1 1665.71   2
  -2  -1   9 36780.6 870.511   3
  -2   1   8 17028.3 964.730   2
  -2  -1   8 17855.1 989.597   2
  -2   1   8 17719.1 493.517   3
   2  -1  -8 17554.7 997.095   2
   2   1  -8 16802.2 968.142   2
   2   1  -8 16797.7 524.007   1
   2  -1  -8 17129.0 512.273   1
  -2  -1   8 16870.0 496.608   1
   2  -1  -7 2555.95 184.527   1
  -2   1   7 2505.30 176.745   3
   2  -1  -7 2782.77 355.947   2
   2   1  -7 2716.27 341.507   2
  -2  -1   7 2678.81 181.069   1
   2   1  -7 3133.25 206.375   1
   2  -1  -6 115936. 2036.83   1
   2  -1  -6 117175. 2529.69   2
   2   1  -6 119946. 2526.23   2
   2   1  -6 117604. 2057.87   1
  -2  -1   6 116653. 2019.36   1
  -2   1   6 116453. 2054.08   1
   2   1  -5 29606.7 731.336   1
   2  -1  -5 28966.7 716.591   1
  -2   1   5 29230.4 724.776   1
  -2  -1   5 29026.6 708.456   1
   2   1  -4 7038.03 310.763   1
  -2   1   4 7431.68 316.571   1
  -2  -1   4 7098.11 305.708   1
   2  -1  -4 7623.24 320.230   1
   2   1  -3 5330.72 263.258   1
  -2   1   3 5128.90 256.947   1
   2  -1  -3 5064.27 258.892   1
  -2  -1   3 5128.18 251.468   1
   2   1  -2 231.360 70.7795   1
   2  -1  -2 789.768 108.465   1
   2   1  -1 27973.8 697.526   1
   2  -1  -1 29385.2 710.421   1
   2   1   0 146152. 2462.75   1
   2  -1   0 149271. 2474.17   1
   2   1   1 41393.8 903.716   1
   2  -1   1 41577.8 904.852   1
  -2  -1  -2 66531.9 1292.84   1
   2   1   2 65709.7 1285.34   1
  -2   1  -2 67440.8 1297.13   1
   2  -1   2 68261.9 1293.70   1
   2   1   3 74294.9 1393.67   1
  -2   1  -3 73363.4 1396.35   1
  -2  -1  -3 72394.3 1391.81   1
   2  -1   3 73860.3 1384.42   1
   2   1   4 12314.5 423.045   1
  -2   1  -4 13049.8 439.070   1
  -2  -1  -4 12920.9 432.488   1
   2  -1   5 87501.2 1581.27   1
   2   1   5 88474.4 1613.70   1
  -2   1  -5 88266.9 1622.20   1
  -2  -1  -5 85986.5 1598.21   1
   2  -1   6 32971.1 752.371   1
  -2   1  -6 32546.5 842.481   3
   2   1   6 33448.7 789.793   1
  -2  -1  -6 31513.9 761.545   1
   2  -1   7 21984.7 572.460   1
  -2   1  -7 21932.6 664.397   3
   2   1   7 22063.9 609.157   1
  -2  -1  -7 22044.9 589.516   1
   2  -1   8 28513.0 662.417   1
  -2  -1  -8 27659.9 676.018   1
  -2  -1  -8 28637.0 1477.62   2
  -2   1  -8 28188.8 1471.70   2
  -2   1  -8 26761.3 768.495   3
   2  -1   9 20134.5 505.076   1
  -2   1  -9 19195.3 626.699   3
  -2  -1  -9 19113.0 582.545   3
  -2   1  -9 17983.9 1292.60   2
  -2  -1  -9 17695.7 1278.18   2
  -2   1 -10 190.988 246.999   2
  -2  -1 -10 327.434 77.7605   3
  -2  -1 -10-52.5702 275.452   2
  -2   1 -10 302.025 73.9744   3
  -2  -1 -10 314.764 76.1975   3
  -2   1 -11 198.789 284.677   2
  -2  -1 -11 354.640 63.8791   3
  -2  -1 -12 3395.56 625.976   2
  -2   1 -12 3973.01 658.068   2
  -2  -1 -13 0.94317 264.358   2
  -2   1 -13-254.423 317.637   2
   2  -2 -14 1683.46 457.983   2
   2   2 -14 1551.21 444.478   2
   2  -2 -13 4514.08 736.938   2
   2   2 -13 3032.53 570.570   2
   2  -2 -12 21782.9 1569.84   2
   2   2 -12 19468.0 1349.25   2
   2  -2 -11 1486.54 120.318   1
   2  -2 -11 1215.86 360.376   2
   2   2 -11 1365.44 388.527   2
  -2  -2  11 958.298 69.2880   3
   2  -2 -10 751.123 102.904   1
  -2  -2  10 442.959 94.1795   3
   2  -2 -10 590.238 257.828   2
   2   2 -10 469.817 222.774   2
  -2  -2  10 845.212 99.3319   1
  -2  -2   9 9257.03 799.357   2
   2  -2  -9 9591.74 370.364   1
   2  -2  -9 11969.8 902.606   2
   2   2  -9 9874.14 813.688   2
  -2  -2   9 9677.69 442.768   3
  -2   2   9 9798.06 369.027   3
  -2  -2   9 9655.46 353.428   1
  -2   2   9 9929.45 825.837   2
   2  -2  -8 20042.3 579.715   1
   2  -2  -8 20925.4 1079.53   2
   2   2  -8 17763.2 987.658   2
  -2   2   8 20713.9 579.939   3
  -2  -2   8 19625.8 638.787   3
   2   2  -8 20330.9 616.189   1
  -2  -2   8 20080.1 560.222   1
  -2   2   8 20591.6 1072.62   2
  -2  -2   8 20429.0 1060.75   2
  -2  -2   7 1448.33 248.505   2
  -2   2   7 1572.24 150.441   3
   2   2  -7 1709.03 268.764   2
   2  -2  -7 1724.87 287.501   2
   2   2  -7 1837.84 170.241   1
  -2  -2   7 1517.89 141.235   1
   2  -2  -7 1690.78 155.186   1
  -2  -2   6 2135.51 270.681   2
  -2   2   6 1733.58 158.264   3
  -2  -2   6 1449.49 133.413   1
   2   2  -6 2105.11 277.131   2
   2  -2  -6 2240.27 282.875   2
   2  -2  -6 2117.31 172.712   1
   2   2  -6 1747.45 168.702   1
  -2  -2   5 26769.3 690.120   1
  -2   2   5 27190.4 695.333   3
   2   2  -5 27003.3 719.226   1
   2  -2  -5 27315.1 707.740   1
  -2  -2   4 4616.21 249.369   1
   2   2  -4 4297.05 251.508   1
  -2   2   4 4195.23 241.419   3
  -2   2   4 4491.75 252.760   1
   2  -2  -4 4474.95 250.438   1
  -2  -2   3 4207.25 239.542   1
   2  -2  -3 4261.43 243.539   1
  -2   2   3 4259.01 246.198   1
   2   2  -3 4287.29 246.001   1
   2   2  -2 3177.72 209.473   1
   2  -2  -2 3330.14 217.863   1
   2  -2  -1 38413.1 882.642   1
   2   2  -1 38194.0 883.212   1
   2   2   0 15156.8 485.408   1
   2  -2   0 14853.0 480.464   1
   2  -2   1 11540.4 411.917   1
   2   2   1 11713.2 417.304   1
  -2  -2  -2 81482.5 1539.61   1
   2   2   2 79298.0 1524.93   1
  -2   2  -2 80446.3 1530.53   1
   2  -2   2 81968.7 1522.35   1
  -2   2  -3 12313.4 439.055   1
   2  -2   3 12882.6 434.548   1
  -2  -2  -3 12549.4 443.852   1
   2   2   3 12623.2 442.329   1
  -2   2  -3 12017.1 456.864   3
  -2  -2  -4 6180.07 298.590   1
  -2   2  -4 6290.04 326.760   3
   2   2   4 6034.03 300.242   1
   2  -2   4 6427.18 294.835   1
  -2  -2  -5 5072.25 266.563   1
  -2   2  -5 5055.40 298.171   3
   2   2   5 5269.45 282.095   1
   2  -2   5 5481.50 271.559   1
   2  -2   6 53889.9 1101.24   1
  -2   2  -6 54239.9 1235.55   3
   2   2   6 55708.2 1179.88   1
  -2  -2  -6 54151.1 1130.57   1
   2  -2   7 38279.8 846.663   1
  -2   2  -7 38121.6 1586.89   2
  -2   2  -7 39485.3 1000.02   3
  -2  -2  -7 39000.0 1588.11   2
  -2  -2  -7 38361.2 875.459   1
  -2   2  -8 8587.19 423.482   3
  -2  -2  -8 8244.42 332.882   1
   2  -2   8 8550.24 318.108   1
  -2  -2  -8 8533.82 804.485   2
  -2   2  -8 8872.29 821.081   2
  -2  -2  -9 36933.6 936.386   3
  -2   2  -9 37311.1 1010.14   3
   2  -2   9 38374.6 792.039   1
  -2  -2  -9 38308.2 830.284   1
  -2  -2  -9 33486.5 1786.28   2
  -2   2  -9 32318.5 1785.92   2
  -2  -2 -10 73.2548 292.003   2
  -2  -2 -10 218.692 72.0209   3
   2  -2  10 228.440 47.0296   1
  -2   2 -10 24.5219 240.674   2
  -2   2 -10 309.270 94.8404   3
  -2  -2 -10 379.822 83.3550   3
  -2  -2 -11 37036.7 868.296   3
  -2  -2 -11 42164.5 2104.77   2
  -2   2 -11 38569.6 2056.19   2
  -2  -2 -12 911.339 405.469   2
  -2   2 -12 715.948 341.703   2
  -2   2 -13 7107.57 852.530   2
  -2  -2 -13 7754.88 888.643   2
   2  -3 -14 10902.3 1079.30   2
   2   3 -14 9130.26 943.118   2
   2   3 -13 6376.32 779.024   2
   2  -3 -13 5775.43 796.320   2
   2  -3 -12 246.046 291.055   2
   2   3 -12 27.6068 254.309   2
   2   3 -11 24408.4 1419.20   2
   2  -3 -11 24858.9 624.489   1
  -2  -3  11 23719.5 581.468   1
  -2  -3  11 24390.4 661.038   3
   2  -3 -10 7671.17 332.767   1
   2  -3 -10 7444.06 777.494   2
   2   3 -10 7588.99 745.003   2
  -2  -3  10 7988.76 462.007   3
  -2   3  10 7632.98 377.618   3
  -2  -3  10 7611.34 307.747   1
   2  -3  -9 12115.5 906.791   2
   2   3  -9 11994.0 871.418   2
  -2  -3   9 12565.9 593.619   3
  -2  -3   9 11806.6 415.046   1
  -2   3   9 12323.3 935.716   2
  -2  -3   9 13214.5 965.673   2
   2  -3  -9 11499.8 435.473   1
  -2   3   9 11993.9 476.002   3
   2  -3  -8 3817.40 464.292   2
  -2   3   8 3453.34 433.919   2
  -2  -3   8 3333.46 441.557   2
  -2   3   8 3478.13 244.803   3
   2   3  -8 3165.22 403.683   2
  -2  -3   8 3006.78 263.095   3
   2  -3  -8 3480.59 237.634   1
  -2  -3   8 3299.89 218.224   1
  -2   3   7 3635.72 390.105   2
  -2  -3   7 4112.41 424.587   2
  -2  -3   7 3458.32 226.181   1
   2  -3  -7 3058.93 366.273   2
  -2   3   7 3752.28 246.840   3
   2   3  -7 3045.70 350.854   2
   2   3  -7 3320.20 244.833   1
   2  -3  -7 3667.48 239.549   1
  -2  -3   7 3464.48 266.885   3
  -2  -3   6 1564.77 153.226   1
  -2  -3   6 1709.91 188.255   3
  -2   3   6 1559.21 239.023   2
  -2  -3   6 1963.37 255.429   2
   2   3  -6 1475.98 166.428   1
  -2   3   6 1478.54 153.881   3
   2  -3  -6 1525.48 159.681   1
  -2  -3   5 3638.21 303.291   2
  -2  -3   5 3356.37 225.249   1
   2  -3  -5 3363.60 232.528   1
  -2   3   5 3283.69 227.319   3
   2   3  -5 3227.74 234.319   1
  -2  -3   4 19563.6 656.644   2
  -2   3   4 17869.7 569.593   3
  -2  -3   4 18513.5 582.334   1
   2   3  -4 19397.5 604.989   1
   2  -3  -4 18358.6 582.589   1
  -2  -3   3 79152.0 1561.18   2
  -2   3   3 77845.7 1542.40   3
   2   3  -3 80105.5 1570.57   1
  -2  -3   3 79742.5 1561.11   1
   2  -3  -3 80281.6 1563.80   1
  -2   3   2 17249.1 549.826   3
   2  -3  -2 17091.9 556.257   1
   2   3  -2 16846.5 555.683   1
   2  -3  -1 4484.44 267.651   1
   2   3  -1 4245.49 264.404   1
   2   3   0 2360.97 193.030   1
   2  -3   0 2289.22 192.072   1
   2  -3   1 669.288 110.292   1
   2   3   1 894.078 127.203   1
   2   3   2 5692.53 305.397   1
   2  -3   2 5456.95 289.843   1
  -2  -3  -3 35953.2 896.624   1
  -2   3  -3 35534.1 922.991   3
   2   3   3 35851.0 892.900   1
   2  -3   3 35827.4 867.708   1
  -2  -3  -4 20529.7 628.346   1
  -2   3  -4 20018.6 663.621   3
   2   3   4 21704.4 652.986   1
   2  -3   4 20532.0 605.550   1
  -2  -3  -5 97505.2 1822.21   1
  -2   3  -5 95401.9 1921.76   3
   2   3   5 98190.0 1874.87   1
   2  -3   5 96506.8 1788.52   1
  -2   3  -6 360.001 90.1183   3
   2  -3   6 387.701 89.8867   1
  -2  -3  -6 371.292 85.6323   1
  -2  -3  -7 12950.8 453.440   1
  -2  -3  -7 13278.5 895.469   2
  -2   3  -7 13671.2 931.066   2
   2  -3   7 13092.9 438.005   1
  -2  -3  -8 32333.1 879.372   3
   2  -3   8 32329.2 723.730   1
  -2  -3  -8 31593.5 1558.37   2
  -2   3  -8 31171.1 1583.29   2
  -2  -3  -8 31565.9 759.642   1
   2  -3   9 17345.7 481.117   1
  -2  -3  -9 16196.8 615.627   3
  -2   3  -9 17028.8 691.305   3
  -2  -3  -9 15684.4 1213.24   2
  -2   3  -9 15957.9 1229.55   2
  -2  -3  -9 19328.2 541.974   1
  -2   3 -10 3248.72 305.710   3
   2  -3  10 3179.58 166.097   1
  -2  -3 -10 3032.49 186.047   1
  -2  -3 -10 2472.51 507.438   2
  -2  -3 -10 3237.70 255.941   3
  -2   3 -11 3791.76 676.366   2
  -2  -3 -11 3561.63 610.626   2
  -2  -3 -12 7433.81 867.208   2
  -2   3 -12 7848.42 909.131   2
  -2  -3 -13 6548.18 797.277   2
  -2   3 -13 6276.46 813.604   2
   2   4 -14 12.2521 217.476   2
   2  -4 -14 367.797 237.794   2
   2  -4 -13 907.468 346.399   2
   2   4 -13 896.724 314.608   2
   2  -4 -12 2986.10 532.590   2
   2   4 -12 1984.00 438.408   2
   2  -4 -11 1731.15 161.445   1
   2  -4 -11 2095.33 432.453   2
   2   4 -11 1624.84 383.167   2
  -2  -4  11 1605.27 183.911   3
  -2   4  11 1148.07 102.153   3
  -2  -4  11 1389.10 130.060   1
  -2  -4  10 179.103 59.1339   1
   2  -4 -10 263.784 82.7635   1
   2   4 -10 301.774 209.917   2
  -2   4  10 138.701 85.4990   3
  -2  -4  10 121.288 106.219   3
  -2  -4   9 60129.3 1257.66   1
  -2  -4   9 64701.2 1725.68   3
  -2   4   9 59921.9 1460.05   3
   2  -4  -9 58229.4 2056.35   2
   2   4  -9 57065.2 1968.01   2
   2  -4  -9 61467.2 1313.17   1
  -2   4   9 60529.4 2246.05   2
  -2  -4   9 58328.9 2189.79   2
  -2  -4   8 34680.8 875.249   1
   2  -4  -8 34186.0 1377.47   2
   2   4  -8 34566.3 1331.28   2
  -2  -4   8 33846.7 1104.92   3
  -2   4   8 32393.0 953.597   3
   2  -4  -8 34249.7 894.459   1
  -2   4   8 36063.8 1488.37   2
  -2  -4   8 36329.0 1494.89   2
  -2   4   7 15564.9 837.715   2
  -2  -4   7 17100.5 874.188   2
  -2  -4   7 15553.5 543.283   1
   2  -4  -7 15888.7 815.125   2
   2   4  -7 15091.5 763.257   2
  -2  -4   7 14942.7 656.073   3
  -2   4   7 14909.7 584.929   3
   2  -4  -7 15656.4 560.954   1
  -2   4   6 20303.3 850.935   2
  -2  -4   6 20883.7 860.407   2
  -2   4   6 19093.6 659.218   3
  -2  -4   6 20149.2 738.390   3
  -2  -4   6 20066.3 637.611   1
   2  -4  -6 19981.1 651.848   1
  -2  -4   5 28866.6 930.318   2
  -2  -4   5 28463.8 798.748   1
  -2   4   5 28293.2 814.149   3
   2   4  -5 29561.1 854.232   1
   2  -4  -5 28609.3 817.170   1
  -2  -4   5 28958.5 886.905   3
  -2   4   4 81252.0 1736.41   2
  -2  -4   4 88213.5 1778.08   2
  -2  -4   4 87820.8 1803.88   3
  -2  -4   4 84733.2 1709.40   1
  -2   4   4 85800.0 1717.27   3
   2  -4  -4 86859.9 1735.71   1
   2   4  -4 86269.3 1752.30   1
  -2   4   3 41.8517 57.1450   2
  -2  -4   3 102.866 77.8252   1
   2   4  -3 84.8835 74.9523   1
  -2  -4   3 95.9590 74.6057   2
  -2   4   3 48.4839 64.2189   3
   2  -4  -3 58.4374 72.8509   1
  -2   4   2 124766. 2317.19   3
   2  -4  -2 129188. 2352.09   1
   2   4  -2 125625. 2333.17   1
   2   4  -1 94244.5 1848.17   1
   2  -4  -1 93577.0 1854.91   1
   2  -4   0 10828.8 461.616   1
   2   4   0 10386.4 453.144   1
   2  -4   1 8445.14 400.557   1
   2   4   1 8655.10 407.249   1
   2  -4   2 67188.3 1428.68   1
   2   4   2 68676.9 1461.94   1
  -2  -4  -3 159755. 2367.44   1
   2  -4   3 157907. 2306.68   1
   2   4   3 161911. 2388.31   1
   2  -4   4 1305.22 150.065   1
  -2  -4  -4 836.981 131.275   1
   2  -4   5 355.843 96.8532   1
  -2  -4  -5 306.181 92.4309   1
   2  -4   6 5150.41 294.291   1
  -2  -4  -6 5015.29 334.615   3
  -2   4  -7 868.814 287.604   2
  -2  -4  -7 1639.15 202.590   3
  -2  -4  -7 2402.99 400.237   2
   2  -4   7 1658.16 171.190   1
  -2  -4  -7 1561.97 170.950   1
  -2  -4  -8 1814.68 176.504   1
  -2  -4  -8 1261.03 346.103   2
  -2  -4  -8 1861.89 217.516   3
  -2   4  -8 2121.93 425.662   2
   2  -4   8 1885.65 169.770   1
   2  -4   9 2022.29 164.271   1
  -2  -4  -9 1530.93 385.332   2
  -2  -4  -9 1932.45 229.524   3
  -2  -4  -9 1908.87 171.289   1
  -2   4  -9 1452.32 421.462   2
   2  -4  10 116.938 51.2845   1
  -2   4 -10-79.2804 62.6960   3
  -2  -4 -10-128.013 308.600   2
  -2   4 -10-153.319 269.327   2
  -2  -4 -10 88.8757 49.5327   1
  -2  -4 -10 109.644 78.5512   3
  -2   4 -11 7065.32 879.038   2
  -2  -4 -11 6984.46 840.843   2
  -2  -4 -12 11192.3 1043.78   2
  -2   4 -12 9228.21 965.076   2
  -2  -4 -13 531.712 309.165   2
  -2   4 -13 1277.44 441.728   2
   2  -5 -14 1283.80 407.712   2
   2   5 -14 321.707 188.678   2
   2   5 -13 3350.27 542.387   2
   2  -5 -13 4017.70 602.158   2
   2  -5 -12 401.652 247.050   2
   2   5 -12 480.023 261.073   2
  -2  -5  11 646.983 104.080   1
   2  -5 -11 472.491 227.294   2
   2  -5 -11 493.103 103.355   1
   2   5 -11 318.100 220.225   2
  -2  -5  11 520.723 128.247   3
  -2  -5  10 8922.41 391.664   1
   2  -5 -10 8502.42 767.196   2
   2   5 -10 7906.54 714.993   2
  -2  -5  10 8636.16 572.783   3
  -2   5  10 8804.98 510.850   3
   2  -5 -10 8790.82 419.255   1
  -2  -5   9 6490.33 349.930   1
   2  -5  -9 6095.67 615.951   2
   2   5  -9 6658.28 604.240   2
  -2  -5   9 6000.75 513.507   3
  -2   5   9 6734.25 717.936   2
  -2   5   9 6455.33 464.162   3
   2  -5  -9 6591.16 366.272   1
  -2  -5   9 7046.62 732.585   2
   2  -5  -8 21650.3 1060.88   2
   2   5  -8 23338.7 1043.85   2
  -2  -5   8 23810.6 733.252   1
  -2   5   8 22401.3 862.201   3
  -2  -5   8 24809.3 1047.02   3
   2  -5  -8 22793.2 742.425   1
  -2   5   8 25921.6 1264.24   2
  -2  -5   8 23476.6 1202.36   2
  -2   5   7 71958.6 2025.31   2
  -2  -5   7 72649.8 2038.18   2
   2  -5  -7 70619.2 1892.75   2
  -2  -5   7 68176.8 1791.45   3
  -2   5   7 67345.5 1635.93   3
   2  -5  -7 68877.8 1529.88   1
  -2  -5   7 70774.8 1516.85   1
  -2   5   6 6993.45 491.743   2
  -2  -5   6 6382.06 474.574   2
  -2  -5   6 6630.55 450.489   3
  -2   5   6 6861.30 416.890   3
   2  -5  -6 6759.19 387.041   1
  -2  -5   6 5969.35 353.769   1
  -2  -5   5 30946.9 980.066   2
  -2  -5   5 29793.0 874.353   1
  -2   5   5 29583.5 911.356   3
   2  -5  -5 30730.7 912.358   1
  -2  -5   5 29089.2 979.254   3
  -2  -5   4 7543.53 400.672   2
  -2  -5   4 7637.59 454.419   3
  -2   5   4 7628.75 416.686   3
  -2  -5   4 7689.26 408.388   1
   2  -5  -4 7759.24 424.368   1
   2  -5  -3 276993. 4600.82   1
   2  -5  -3 275359. 4579.09   3
  -2   5   3 270499. 4401.80   2
  -2  -5   3 274848. 4400.41   2
  -2  -5   3 277075. 4654.37   3
  -2   5   3 267309. 4541.73   3
  -2  -5   3 270033. 4538.58   1
  -2  -5   2 24103.2 817.903   3
  -2   5   2 23024.1 763.360   3
   2  -5  -2 24407.8 805.562   1
   2  -5  -2 23004.0 786.385   3
  -2  -5   1 56128.1 1367.68   3
   2   5  -1 53831.0 1327.87   1
   2  -5  -1 56030.8 1365.08   3
   2  -5   0 13467.5 582.046   3
   2   5   0 13015.4 557.763   1
  -2  -5   0 12646.7 562.875   3
   2  -5   1 72578.9 1616.17   3
   2  -5   1 70760.7 1580.34   1
  -2  -5  -1 70513.3 1600.21   3
   2  -5   2 49467.2 1216.76   1
  -2  -5  -2 48826.6 1252.60   3
   2  -5   2 48854.9 1241.80   3
  -2  -5  -3 24025.6 810.531   3
   2  -5   3 23817.9 762.063   1
  -2  -5  -4 19203.2 724.703   3
   2  -5   4 20186.1 677.590   1
  -2  -5  -5 3106.36 289.143   3
   2  -5   5 3058.27 247.473   1
  -2  -5  -6 6796.67 432.476   3
   2  -5   6 6893.79 368.210   1
  -2  -5  -7 13018.2 911.608   2
  -2  -5  -7 13746.8 642.446   3
   2  -5   7 13166.8 513.427   1
  -2   5  -7 13795.2 974.932   2
  -2  -5  -8 3782.88 553.547   2
  -2  -5  -8 3721.18 340.102   3
  -2   5  -8 3001.06 530.319   2
   2  -5   8 3943.30 263.516   1
  -2  -5  -9 996.293 188.598   3
  -2   5  -9 488.711 237.954   2
   2  -5   9 1003.92 129.072   1
  -2  -5  -9 542.118 233.205   2
  -2  -5  -9 71.1398 44.1036   1
   2  -5  10 9477.04 357.943   1
  -2  -5 -10 9058.18 555.392   3
  -2  -5 -10 8563.16 905.115   2
  -2   5 -10 9736.41 1005.69   2
  -2  -5 -10 8376.77 376.736   1
  -2  -5 -11 10289.3 990.335   2
  -2   5 -11 10525.3 1049.01   2
  -2   5 -12 3187.11 587.266   2
  -2  -5 -12 3102.23 580.964   2
  -2  -5 -13 4364.94 656.615   2
  -2   5 -13 4896.93 709.322   2
   2  -6 -14 15796.6 1167.27   2
   2   6 -14 13029.4 1070.61   2
   2  -6 -13 4619.15 615.671   2
   2   6 -13 3124.50 500.219   2
   2  -6 -12 18971.3 1213.16   2
   2   6 -12 18387.7 1174.41   2
   2  -6 -11 857.867 146.321   1
   2  -6 -11 776.895 243.762   2
  -2  -6  11 666.318 156.777   3
   2   6 -11 438.696 201.435   2
  -2  -6  10 33767.1 931.553   1
   2  -6 -10 34008.6 1497.69   2
   2   6 -10 34442.1 1462.54   2
  -2   6  10 33638.5 1154.04   3
  -2  -6  10 32983.4 1236.99   3
   2  -6 -10 36553.5 1000.88   1
   2  -6  -9 18625.6 1022.90   2
   2   6  -9 19489.6 995.997   2
  -2  -6   9 19813.6 691.093   1
  -2   6   9 18484.5 896.678   3
  -2  -6   9 17959.4 955.827   3
   2  -6  -9 19082.7 697.548   1
  -2   6   9 18961.6 1234.47   2
  -2  -6   9 18398.6 1224.27   2
   2  -6  -8 17343.5 917.798   2
   2   6  -8 16900.8 851.887   2
  -2  -6   8 16594.4 945.715   3
  -2   6   8 16514.2 816.321   3
   2  -6  -8 16780.9 664.120   1
  -2  -6   8 17882.2 662.579   1
  -2   6   8 17115.5 1054.26   2
  -2  -6   8 16642.4 1043.74   2
  -2   6   7 1422.15 276.723   2
  -2  -6   7 954.974 226.167   2
  -2  -6   7 1302.10 173.782   1
  -2  -6   7 1179.87 246.576   3
  -2   6   7 1007.97 200.324   3
   2  -6  -7 896.213 156.347   1
  -2   6   6 2557.87 314.130   2
  -2  -6   6 2365.33 302.795   2
  -2  -6   6 2259.21 239.362   1
  -2  -6   6 2128.95 297.046   3
   2  -6  -6 2344.39 254.466   1
  -2   6   6 2068.52 263.001   3
  -2  -6   5 6972.13 451.749   2
  -2  -6   5 7469.12 523.481   3
  -2   6   5 7239.55 467.796   3
  -2  -6   5 8096.26 450.028   1
   2  -6  -5 7961.68 454.328   3
   2  -6  -5 7877.71 460.825   1
  -2  -6   4 1555.13 214.191   1
  -2  -6   4 1475.94 183.595   2
  -2   6   4 1437.90 179.722   2
   2  -6  -4 2096.76 247.665   3
  -2  -6   4 1516.98 236.667   3
  -2   6   4 2009.57 246.603   3
  -2  -6   3 912.691 174.328   1
  -2  -6   3 1228.93 221.242   3
  -2   6   3 1174.07 148.427   2
  -2  -6   3 1318.91 156.313   2
  -2   6   3 1055.02 176.844   3
   2  -6  -3 1412.40 212.206   3
  -2  -6   2 3845.76 345.007   3
  -2   6   2 4599.21 352.017   3
   2  -6  -2 4346.29 357.685   3
  -2  -6   1 22338.6 850.186   3
   2  -6  -1 22719.9 860.105   3
   2  -6   0 15048.6 683.093   3
  -2  -6   0 14392.3 660.113   3
  -2  -6  -1 2114.93 263.419   3
   2  -6   1 2348.99 269.308   3
  -2  -6  -2 65783.5 1653.11   3
   2  -6   2 73065.3 1700.90   3
  -2  -6  -3 32375.0 1050.03   3
   2  -6   3 32690.9 1030.09   3
   2  -6   4 86287.1 1883.99   1
  -2  -6  -4 90832.5 2043.98   3
   2  -6   4 90944.4 1966.50   3
  -2  -6  -5 205.429 114.084   3
  -2   6  -5 61.3850 109.005   3
   2  -6   5 188.764 98.3551   1
  -2  -6  -6 65513.3 1704.30   3
   2  -6   6 63308.6 1469.17   1
  -2   6  -6 65723.0 2071.11   2
  -2   6  -6 66153.2 1784.92   3
  -2  -6  -7 5817.28 458.497   3
  -2   6  -7 4527.97 584.629   2
  -2  -6  -7 4529.41 549.487   2
  -2   6  -7 5338.16 473.945   3
   2  -6   7 5076.95 335.373   1
  -2   6  -8 44831.2 1547.79   3
   2  -6   8 50174.0 1183.79   1
  -2  -6  -8 43672.7 1940.27   2
  -2  -6  -8 46680.0 1464.00   3
  -2   6  -8 45324.5 2060.79   2
  -2   6  -9 3396.27 415.911   3
  -2  -6  -9 2794.12 500.699   2
   2  -6   9 4070.59 282.634   1
  -2  -6  -9 3221.96 370.559   3
  -2   6  -9 3407.41 573.041   2
  -2  -6 -10 2252.16 472.859   2
  -2   6 -10 2227.88 458.890   2
  -2   6 -10 2358.73 382.785   3
  -2  -6 -10 2341.11 302.270   3
   2  -6  10 2790.66 215.844   1
  -2   6 -11 706.169 301.779   2
  -2  -6 -11 834.964 324.450   2
  -2  -6 -12 1318.99 392.264   2
  -2   6 -12 1879.04 443.860   2
  -2   6 -13 7416.25 847.770   2
   2  -7 -13 1098.46 311.601   2
   2   7 -13 2024.81 411.583   2
   2  -7 -12 2065.87 405.917   2
   2   7 -12 1786.28 386.208   2
   2  -7 -11 1805.13 366.480   2
   2  -7 -11 2062.48 231.377   1
   2   7 -11 1772.03 356.833   2
  -2  -7  11 2071.47 272.915   3
  -2  -7  10 1054.32 170.267   1
   2  -7 -10 1132.06 185.165   1
   2   7 -10 751.239 225.936   2
  -2   7  10 1051.43 207.878   3
   2  -7 -10 1190.15 294.572   2
  -2  -7  10 1147.35 230.600   3
   2  -7  -9 714.437 158.301   1
  -2  -7   9 175.256 180.682   2
  -2  -7   9 574.362 131.534   1
  -2   7   9 580.689 276.321   2
   2  -7  -9 528.673 200.473   2
  -2   7   9 383.445 169.740   3
  -2  -7   9 261.808 158.186   3
   2   7  -9 790.011 210.385   2
  -2  -7   8 7487.04 669.601   3
  -2   7   8 7480.78 602.303   3
  -2  -7   8 7969.07 456.398   1
   2  -7  -8 7706.18 469.279   1
  -2   7   8 6877.62 683.023   2
  -2  -7   8 7033.66 695.702   2
  -2   7   7 324.704 174.808   2
  -2  -7   7 893.410 236.763   2
  -2  -7   7 737.670 214.382   3
  -2   7   7 733.586 200.899   3
  -2  -7   7 634.183 141.238   1
   2  -7  -7 722.009 158.194   1
  -2   7   6 10480.1 645.150   2
  -2  -7   6 11147.9 665.610   2
   2  -7  -6 10137.2 543.170   3
  -2  -7   6 9992.30 713.849   3
  -2   7   6 9212.09 613.994   3
  -2  -7   6 9563.12 526.907   1
  -2  -7   5 49199.6 1376.40   2
  -2  -7   5 48398.8 1597.54   3
   2  -7  -5 50152.0 1405.86   3
  -2  -7   5 50992.3 1386.84   1
  -2   7   5 50943.9 1517.86   3
  -2   7   4 228.111 77.1386   2
  -2  -7   4 431.242 114.279   2
  -2  -7   4 366.447 175.383   3
  -2  -7   4 354.800 141.674   1
  -2   7   4 390.882 146.067   3
   2  -7  -4 505.946 159.473   3
  -2   7   3 859.773 128.457   2
  -2  -7   3 745.238 119.741   2
  -2  -7   3 790.730 204.847   3
  -2  -7   3 881.066 183.913   1
  -2   7   3 1069.89 211.186   3
   2  -7  -3 929.023 203.529   3
   2  -7  -2 5108.73 435.524   3
  -2   7   2 4845.20 270.604   2
  -2  -7   2 4065.98 393.320   3
  -2   7   2 4687.00 398.981   3
  -2  -7   2 4825.27 406.382   1
   2  -7  -1 73515.0 1893.81   3
  -2  -7   1 69685.0 1843.77   3
   2  -7   0 20521.4 892.534   3
  -2  -7   0 20277.2 869.025   3
  -2  -7  -1 167.953 122.736   3
   2  -7   1 374.328 143.941   3
  -2  -7  -2 17369.3 798.118   1
  -2  -7  -2 17966.6 815.973   3
   2  -7   2 19110.2 832.756   3
  -2  -7  -3 240.265 119.647   1
  -2  -7  -3 87.8874 104.759   3
   2  -7   3 347.971 140.292   3
  -2   7  -3 148.890 112.633   3
  -2  -7  -4 537.653 149.748   1
  -2  -7  -4 575.347 169.586   3
  -2   7  -4 433.578 174.575   3
   2  -7   4 472.526 155.073   3
   2  -7   5 12081.8 620.566   3
  -2   7  -5 13603.5 773.306   3
  -2  -7  -5 12557.0 626.995   1
  -2  -7  -5 13332.0 725.159   3
   2  -7   5 12619.3 599.672   1
  -2  -7  -6 11571.3 689.081   3
  -2   7  -6 12654.8 764.321   3
  -2  -7  -6 10991.1 578.110   1
   2  -7   6 11142.1 554.968   1
  -2  -7  -6 11053.4 774.682   2
  -2  -7  -7 7596.69 579.712   3
  -2  -7  -7 7589.27 463.907   1
  -2   7  -7 7750.46 627.182   3
   2  -7   7 7311.64 432.857   1
  -2  -7  -7 8072.01 732.270   2
  -2   7  -7 6537.84 707.849   2
  -2  -7  -8 30497.4 1262.72   3
  -2  -7  -8 31250.2 983.440   1
  -2   7  -8 29788.2 1326.94   3
   2  -7   8 31457.8 942.789   1
  -2  -7  -8 29080.6 1557.03   2
  -2   7  -8 27636.6 1597.78   2
  -2  -7  -9 5766.57 379.122   1
  -2  -7  -9 5064.70 654.744   2
  -2   7  -9 5895.18 753.953   2
  -2  -7  -9 5676.72 519.067   3
  -2   7  -9 5942.19 596.453   3
   2  -7   9 6315.60 382.624   1
  -2   7 -10 24980.0 1225.96   3
  -2  -7 -10 26797.3 1107.47   3
   2  -7  10 28029.7 816.452   1
  -2  -7 -10 26191.6 1533.05   2
  -2   7 -10 27047.5 1622.34   2
  -2  -7 -11 631.653 255.757   2
  -2   7 -11 181.128 236.964   2
  -2  -7 -12 14523.4 1115.28   2
  -2   7 -12 12833.9 1100.84   2
   2   8 -13 15.4199 176.296   2
   2  -8 -13-118.246 222.255   2
   2   8 -12 6227.12 645.731   2
   2  -8 -12 5457.30 593.746   2
   2  -8 -11 18971.3 1073.03   2
   2   8 -11 18654.6 1046.71   2
  -2  -8  11 17960.7 848.592   3
   2  -8 -11 18614.6 754.267   1
   2  -8 -10 1876.58 242.773   1
  -2  -8  10 1288.30 195.626   1
   2  -8 -10 1799.92 323.646   2
  -2   8  10 1825.17 286.279   3
  -2  -8  10 1548.29 269.072   3
  -2   8   9 2103.45 428.937   2
  -2  -8   9 2561.18 277.756   1
  -2   8   9 2696.65 385.669   3
  -2  -8   9 2909.52 409.633   3
   2  -8  -9 2634.94 288.292   1
  -2   8   8 1345.53 315.042   2
  -2  -8   8 1744.82 357.583   3
  -2   8   8 1694.44 322.264   3
  -2  -8   8 1913.06 389.073   2
  -2  -8   8 1493.64 214.821   1
   2  -8  -8 1547.62 240.420   1
  -2  -8   7 42507.4 1265.20   1
  -2  -8   7 40558.4 1697.63   3
  -2   8   7 43728.8 1635.08   3
   2  -8  -7 41027.0 1256.53   3
  -2   8   7 45556.1 1687.75   2
  -2  -8   7 42575.0 1646.94   2
  -2  -8   6 1716.49 243.658   1
  -2   8   6 1726.63 288.369   2
  -2  -8   6 1532.91 278.178   2
  -2  -8   6 1669.34 348.922   3
  -2   8   6 1288.59 265.941   3
   2  -8  -6 1732.74 243.793   3
  -2  -8   5 4290.13 377.407   2
   2  -8  -5 4276.82 411.515   3
  -2  -8   5 4157.17 383.447   1
  -2  -8   5 4436.74 513.389   3
  -2   8   5 3990.99 434.674   3
  -2  -8   4 13956.5 588.792   2
  -2   8   4 12168.8 735.967   3
   2  -8  -4 12589.7 712.374   3
  -2  -8   4 13450.9 718.465   1
  -2  -8   4 13576.3 841.004   3
  -2   8   3 4477.43 291.461   2
  -2  -8   3 4545.35 294.735   2
  -2  -8   3 4380.92 470.012   3
  -2   8   3 4577.88 444.363   3
   2  -8  -3 4640.21 443.843   3
  -2  -8   3 3871.00 409.470   1
  -2   8   2 3743.15 238.452   2
  -2  -8   2 3402.71 230.858   2
  -2   8   2 3425.96 377.884   3
  -2  -8   2 2919.74 382.406   3
  -2  -8   2 3605.58 394.844   1
   2  -8  -2 3251.45 382.239   3
  -2  -8   1 570.317 210.392   3
   2  -8  -1 1264.87 245.622   3
  -2  -8   0 3708.93 406.385   3
   2  -8   0 2823.54 370.730   3
   2  -8   1 101110. 2502.67   3
  -2  -8  -1 100261. 2471.59   3
  -2  -8  -2 4592.59 454.646   3
  -2   8  -2 5570.18 489.441   3
  -2  -8  -2 5223.41 470.442   1
   2  -8   2 5086.73 470.858   3
  -2  -8  -3 2076.07 314.462   3
  -2   8  -3 2134.92 323.698   3
  -2  -8  -3 1961.39 294.886   1
   2  -8   3 1693.50 276.870   3
   2  -8   4 7841.99 549.211   3
  -2  -8  -4 7932.70 601.855   3
  -2  -8  -4 8050.56 554.445   1
  -2   8  -5 37112.6 1453.46   3
  -2  -8  -5 35593.9 1348.55   3
   2  -8   5 32043.1 1149.01   3
  -2  -8  -5 34654.0 1186.15   1
  -2   8  -5 34182.7 1334.05   2
  -2  -8  -6 13552.6 841.298   3
  -2   8  -6 13935.8 890.876   3
   2  -8   6 13711.2 690.861   3
  -2  -8  -6 13562.5 688.236   1
   2  -8   6 12879.7 638.354   1
  -2  -8  -6 14183.5 897.840   2
  -2   8  -6 12095.7 872.085   2
  -2   8  -7 427.820 252.054   2
  -2  -8  -7 586.554 222.701   3
  -2   8  -7 516.890 213.181   3
  -2  -8  -7 717.761 176.368   1
   2  -8   7 1016.17 188.628   1
  -2  -8  -8 1870.85 373.385   2
  -2   8  -8 2428.01 463.461   2
  -2  -8  -8 2351.92 271.488   1
  -2  -8  -8 2248.29 349.994   3
  -2   8  -8 2267.18 384.848   3
   2  -8   8 2608.52 279.886   1
   2  -8   9 1047.40 185.775   1
  -2  -8  -9 1148.76 373.050   2
  -2   8  -9 650.964 273.064   2
  -2  -8  -9 1015.44 183.743   1
  -2   8  -9 482.605 223.485   3
  -2  -8  -9 811.575 217.452   3
   2  -8  10 583.194 137.162   1
  -2   8 -10 57.3151 231.320   2
  -2  -8 -10 804.511 289.940   2
  -2  -8 -10 574.279 179.005   3
  -2  -8 -11 1655.63 400.668   2
  -2   8 -11 2038.47 466.438   2
  -2  -8 -12 744.365 291.130   2
  -2   8 -12 1078.59 375.396   2
   2  -9 -13 5334.35 607.732   2
   2  -9 -11 922.055 199.535   1
  -2  -9  11 678.930 183.370   3
  -2  -9  10 453.492 140.978   1
  -2  -9  10 302.274 165.889   3
   2  -9 -10 486.857 154.965   1
  -2  -9   9 452.981 227.769   2
  -2  -9   9 806.558 220.285   3
  -2   9   9 719.431 242.784   3
  -2  -9   9 704.772 175.757   1
   2  -9  -9 597.494 165.976   1
  -2   9   8 3295.35 459.027   3
  -2  -9   8 2843.83 441.734   3
  -2   9   8 3990.53 559.738   2
  -2  -9   8 3295.81 336.976   1
   2  -9  -8 3240.62 336.013   3
  -2  -9   8 2714.21 444.649   2
  -2  -9   7 4376.80 523.547   2
  -2  -9   7 3956.72 550.834   3
   2  -9  -7 4058.97 389.288   3
  -2   9   7 4622.71 545.025   2
  -2   9   7 3766.75 494.618   3
  -2  -9   7 3730.87 365.822   1
  -2  -9   6 3542.16 416.995   2
   2  -9  -6 3714.78 396.342   3
  -2  -9   6 4142.96 403.913   1
  -2  -9   6 4037.54 540.912   3
  -2   9   6 4529.17 462.012   2
  -2   9   6 3770.16 502.577   3
  -2  -9   5 99637.6 2295.85   2
  -2  -9   5 99967.2 2916.00   3
  -2   9   5 98793.9 2723.32   3
   2  -9  -5 92150.4 2404.94   3
  -2  -9   5 99837.2 2422.87   1
  -2  -9   4 990.252 184.810   2
   2  -9  -4 1336.27 282.242   3
  -2   9   4 1124.79 173.058   2
  -2  -9   4 1411.23 355.214   3
  -2   9   4 1151.42 270.843   3
  -2  -9   4 1144.32 263.687   1
  -2   9   3 25102.4 764.974   2
  -2  -9   3 25831.7 784.731   2
  -2  -9   3 25302.9 1271.90   3
  -2   9   3 25236.9 1181.20   3
   2  -9  -3 24339.8 1141.99   3
  -2  -9   3 27229.4 1207.95   1
  -2   9   2 2927.42 216.934   2
  -2  -9   2 3230.26 225.874   2
   2  -9  -2 2704.77 397.222   3
  -2  -9   2 3117.47 437.173   3
  -2   9   2 2730.65 393.919   3
  -2  -9   2 3280.83 441.193   1
  -2  -9   1 95240.4 2623.11   3
  -2   9   1 95342.5 2554.55   3
   2  -9  -1 93285.8 2612.76   3
  -2  -9   0 8393.66 674.486   3
  -2   9   0 8508.29 658.650   3
   2  -9   0 7663.71 657.027   3
  -2  -9   0 9828.24 739.879   1
  -2  -9  -1 6857.87 602.652   3
  -2   9  -1 7253.69 608.542   3
   2  -9   1 7373.54 646.233   3
  -2  -9  -1 8116.61 656.154   1
  -2  -9  -2 5243.21 530.720   3
  -2   9  -2 6876.52 605.106   3
   2  -9   2 5702.89 550.810   3
  -2  -9  -2 6494.98 581.323   1
  -2  -9  -3 3151.86 408.652   1
  -2  -9  -3 2585.84 387.521   3
  -2   9  -3 3257.02 430.063   3
   2  -9   3 3157.02 392.683   3
  -2  -9  -4 799.782 246.191   3
  -2   9  -4 592.302 228.679   3
   2  -9   4 907.530 216.189   3
  -2  -9  -4 561.577 193.326   1
  -2  -9  -5 1505.15 298.866   2
  -2  -9  -5 1800.86 357.093   3
  -2   9  -5 1740.64 324.925   2
   2  -9   5 1978.71 298.636   3
  -2   9  -5 1469.49 301.598   3
  -2  -9  -5 1510.18 268.041   1
  -2  -9  -6 6456.87 632.434   3
   2  -9   6 5922.73 483.200   3
  -2  -9  -6 5858.10 489.426   1
  -2   9  -6 5280.47 610.875   3
  -2  -9  -6 6480.99 621.128   2
  -2   9  -6 6440.69 645.648   2
  -2  -9  -7 15955.2 1014.95   3
  -2   9  -7 18625.3 1174.63   3
   2  -9   7 17005.3 818.005   3
  -2  -9  -7 17603.8 827.970   1
   2  -9   7 17566.2 779.487   1
  -2  -9  -7 16299.3 1089.17   2
  -2   9  -7 15786.7 1124.02   2
  -2   9  -8 380.009 184.127   3
  -2   9  -8 271.288 242.181   2
  -2  -9  -8 130.701 188.305   2
  -2  -9  -8 628.187 221.018   3
  -2  -9  -8 421.295 155.567   1
   2  -9   8 367.529 138.576   1
  -2   9  -9 1543.67 365.162   3
  -2  -9  -9 2756.53 492.739   2
  -2   9  -9 2164.94 442.602   2
  -2  -9  -9 2037.51 272.322   1
  -2  -9  -9 2388.69 381.059   3
   2  -9   9 2653.18 296.439   1
   2  -9  10 775.103 154.581   1
  -2  -9 -10 540.257 266.256   2
  -2   9 -10 511.194 279.204   2
  -2  -9 -10 581.188 180.366   3
  -2  -9 -11 191.712 212.628   2
  -2   9 -11 239.016 268.162   2
  -2  -9 -12 524.979 256.979   2
  -2   9 -12 929.754 324.761   2
   2 -10 -11 6130.84 480.530   1
  -2 -10  11 5556.06 506.104   3
  -2 -10  10 16510.9 964.119   3
   2 -10 -10 16701.5 812.686   1
  -2 -10   9 1007.04 306.442   2
   2 -10  -9 1630.37 277.758   1
  -2  10   9 1168.10 302.793   3
  -2 -10   9 1153.75 212.511   1
  -2 -10   9 980.362 255.206   3
  -2 -10   8 522.311 158.460   1
  -2  10   8 455.218 220.491   2
  -2 -10   8 442.062 213.825   2
  -2  10   8 1091.76 292.589   3
  -2 -10   8 991.798 291.453   3
   2 -10  -8 1357.38 245.655   3
  -2  10   7 24823.0 1343.77   3
  -2 -10   7 25200.2 1393.51   3
   2 -10  -7 27431.2 1126.80   3
  -2 -10   7 25593.4 1049.32   1
  -2  10   7 28370.3 1393.02   2
  -2 -10   7 24415.4 1269.63   2
  -2 -10   6 11167.7 931.293   3
  -2  10   6 12977.9 959.822   3
   2 -10  -6 13166.8 780.535   3
  -2 -10   6 11702.8 722.703   1
  -2  10   6 12551.6 815.246   2
  -2 -10   6 12467.7 795.158   2
  -2 -10   5 1269.88 231.596   2
  -2 -10   5 1570.44 388.710   3
   2 -10  -5 1893.94 332.151   3
  -2  10   5 1995.71 383.085   3
  -2 -10   5 1459.88 262.224   1
  -2  10   4 11774.3 581.994   2
  -2 -10   4 11072.1 567.274   2
  -2  10   4 11827.4 890.817   3
  -2 -10   4 10365.3 898.699   3
   2 -10  -4 10095.5 757.039   3
  -2 -10   4 11109.6 781.577   1
  -2 -10   3 421.339 184.891   1
  -2  10   3 294.684 101.262   2
  -2 -10   3 292.401 97.9319   2
  -2 -10   3 572.169 255.471   3
  -2  10   3 109.042 161.288   3
   2 -10  -3 262.297 177.698   3
  -2  10   2 5013.07 284.414   2
  -2 -10   2 5756.64 307.457   2
  -2 -10   2 4866.08 583.129   1
  -2 -10   2 4749.33 609.763   3
  -2  10   2 3970.49 516.776   3
   2 -10  -2 4898.61 577.574   3
  -2  10   1 8414.18 344.604   2
  -2 -10   1 8828.37 359.391   2
   2 -10  -1 8919.51 776.659   3
  -2 -10   1 9265.39 801.112   3
  -2  10   1 8045.49 717.503   3
  -2 -10   1 10046.3 835.935   1
  -2 -10   0 37944.2 1664.37   3
  -2  10   0 38819.3 1624.43   3
   2 -10   0 36426.2 1628.61   3
  -2 -10   0 41959.0 1752.64   1
  -2 -10  -1 50183.5 1921.53   3
  -2  10  -1 49520.0 1885.29   3
   2 -10   1 50832.6 1924.95   3
  -2 -10  -1 51269.4 1955.32   1
  -2 -10  -2 1885.37 351.707   1
  -2 -10  -2 1931.41 396.378   3
  -2  10  -2 1541.78 320.574   3
   2 -10   2 2112.65 390.984   3
  -2 -10  -3 4903.82 584.550   3
  -2  10  -3 3990.16 526.820   3
  -2 -10  -3 5070.07 546.524   1
   2 -10   3 4597.83 509.564   3
  -2 -10  -4 48078.4 1907.09   3
  -2  10  -4 49958.0 1979.19   3
   2 -10   4 47710.1 1661.90   3
  -2 -10  -4 48776.9 1692.08   1
  -2 -10  -4 46151.8 1460.27   2
  -2  10  -4 44651.0 1498.89   2
  -2 -10  -5 4556.77 469.293   1
  -2  10  -5 4846.39 523.829   2
   2 -10   5 4833.98 486.423   3
  -2 -10  -5 4968.54 599.542   3
  -2 -10  -5 4434.74 471.701   2
  -2 -10  -6 5370.40 602.758   3
  -2  10  -6 3980.70 521.809   2
   2 -10   6 5345.45 487.801   3
  -2 -10  -6 4984.85 476.081   1
  -2 -10  -6 5830.25 604.156   2
  -2  10  -7 1706.14 368.102   2
  -2 -10  -7 2127.42 387.777   2
  -2 -10  -7 2716.41 438.462   3
  -2 -10  -7 2334.64 322.837   1
   2 -10   7 2298.53 331.735   3
  -2 -10  -8 3506.65 503.856   2
   2 -10   8 3660.62 389.391   3
  -2  10  -8 2819.09 468.497   2
  -2 -10  -8 2976.10 450.830   3
   2 -10   8 3039.91 347.807   1
  -2 -10  -9 8650.59 711.385   3
   2 -10   9 9329.16 570.887   1
  -2 -10  -9 9821.50 851.643   2
  -2  10  -9 9468.18 850.486   2
  -2 -10 -10 4741.47 593.676   2
  -2  10 -10 4797.59 615.716   2
   2 -10  10 4487.18 382.721   1
  -2 -10 -10 4300.45 471.267   3
  -2 -10 -11 2078.08 408.656   2
  -2  10 -11 2210.42 419.999   2
  -2 -10 -12 795.494 264.158   2
  -2  10 -12 954.139 310.662   2
  -2 -11  11 8868.91 675.857   3
   2 -11 -11 8343.17 589.025   1
  -2 -11  10 322.426 183.254   3
   2 -11 -10 324.038 179.608   1
   2 -11  -9 6244.25 515.571   3
  -2 -11   9 5492.45 605.386   3
  -2  11   8 3316.43 474.138   2
  -2 -11   8 2590.29 411.438   2
  -2 -11   8 3844.59 542.208   3
   2 -11  -8 3649.50 405.448   3
  -2  11   8 3098.81 473.315   3
   2 -11  -7 10026.3 706.283   3
  -2  11   7 8651.86 817.620   3
  -2 -11   7 10203.4 883.892   3
  -2  11   7 9747.15 788.930   2
  -2 -11   7 7400.13 686.239   2
  -2 -11   6 121.959 142.918   2
  -2  11   6-19.7937 206.396   3
  -2  11   6 54.3153 171.652   2
  -2 -11   6 314.083 242.224   3
   2 -11  -6 349.503 209.525   3
  -2 -11   5 1853.04 278.977   2
  -2 -11   5 1659.30 369.781   3
  -2  11   5 1552.91 387.876   3
   2 -11  -5 2443.88 389.854   3
  -2 -11   4 10406.0 921.519   3
  -2  11   4 10733.4 918.612   3
   2 -11  -4 11461.1 866.687   3
  -2  11   4 11528.1 608.173   2
  -2 -11   4 10910.7 583.256   2
  -2  11   3 4465.49 313.448   2
  -2 -11   3 4380.49 309.022   2
  -2  11   3 4360.17 589.617   3
   2 -11  -3 4457.47 578.969   3
  -2 -11   3 3720.30 574.513   3
  -2  11   2 18644.9 576.680   2
  -2 -11   2 17874.5 575.499   2
  -2 -11   2 17232.3 1190.73   3
  -2 -11   1 1020.05 122.087   2
  -2 -11   1 854.721 305.031   3
  -2  11   1 971.003 115.351   2
   2 -11  -1 1136.47 319.328   3
  -2 -11   0 1921.99 412.399   3
   2 -11   0 1329.49 336.624   3
  -2 -11  -1 15226.6 1089.02   3
   2 -11   1 15906.6 1107.80   3
  -2 -11  -2 1565.30 375.095   3
   2 -11   2 1579.21 360.118   3
  -2 -11  -3 24600.2 1399.49   3
   2 -11   3 26627.6 1323.50   3
  -2 -11  -3 26420.0 956.957   2
  -2  11  -3 25662.2 986.506   2
  -2 -11  -4 2899.62 353.542   2
  -2 -11  -4 2723.59 473.925   3
   2 -11   4 3061.12 444.077   3
  -2  11  -4 3193.04 395.645   2
   2 -11   5 15971.9 925.845   3
  -2 -11  -5 16601.1 1127.73   3
  -2 -11  -5 14790.1 887.798   2
  -2  11  -5 14543.7 933.506   2
  -2 -11  -6 9622.89 844.075   3
   2 -11   6 9927.19 707.707   3
  -2 -11  -6 10231.7 776.942   2
  -2  11  -6 9001.90 754.071   2
  -2 -11  -7 29448.5 1486.91   3
   2 -11   7 30848.7 1247.03   3
  -2 -11  -7 33002.6 1466.29   2
  -2  11  -7 32118.3 1489.37   2
  -2  11  -8 1030.30 341.972   2
  -2 -11  -8 956.179 256.552   2
   2 -11   8 1132.22 241.021   1
  -2 -11  -8 1278.94 325.964   3
   2 -11   8 1099.04 245.735   3
  -2 -11  -9 981.517 287.175   2
  -2  11  -9 774.048 272.696   2
  -2 -11  -9 936.143 236.182   3
   2 -11   9 611.696 180.860   1
  -2  11 -10 13854.4 998.016   2
  -2 -11 -10 15263.7 1026.92   2
  -2 -11 -11 2486.84 429.910   2
  -2  11 -11 1455.64 342.392   2
  -2 -11 -12 2325.39 419.983   2
  -2  11 -12 2696.07 471.231   2
  -2 -12  11 65.8899 119.670   3
   2 -12 -11 221.387 163.121   1
  -2 -12  10 5610.20 595.470   3
   2 -12 -10 6519.72 563.546   1
  -2 -12   9 598.359 256.705   3
   2 -12  -9 297.636 153.971   3
  -2 -12   8 9303.86 811.837   3
   2 -12  -8 8295.38 648.226   3
  -2  12   7 734.946 225.185   2
  -2 -12   7 1328.79 272.246   2
  -2 -12   7 1232.42 352.560   3
   2 -12  -7 1189.01 273.733   3
  -2 -12   6 3378.21 412.440   2
  -2 -12   6 3596.40 555.239   3
   2 -12  -6 4275.74 518.384   3
  -2  12   5 60.2294 73.7635   2
  -2 -12   5 441.773 158.307   2
  -2 -12   5 274.670 221.642   3
  -2 -12   4 24865.1 1483.04   3
   2 -12  -4 27255.9 1444.89   3
  -2  12   4 27476.1 1027.25   2
  -2 -12   4 27419.4 1004.11   2
  -2  12   3-89.7992 97.7338   2
  -2 -12   3-51.4638 86.9209   2
   2 -12  -3-195.179 303.854   3
  -2 -12   3-220.519 315.677   3
  -2 -12   2 32766.2 831.729   2
  -2 -12   2 29297.4 1634.97   3
   2 -12  -2 29272.2 1633.45   3
  -2  12   2 31624.9 823.050   2
  -2  12   1 553.707 81.4848   2
  -2 -12   1 566.420 86.6089   2
  -2 -12   1 551.452 247.135   3
   2 -12  -1 790.422 275.149   3
  -2  12   0 3547.76 189.476   2
  -2 -12   0 3654.69 202.078   2
  -2 -12   0 3835.39 589.812   3
   2 -12   0 3501.44 580.666   3
  -2 -12  -1 3190.42 521.957   3
   2 -12   1 3684.51 587.154   3
  -2 -12  -2 5600.88 677.749   3
   2 -12   2 5892.97 670.999   3
  -2 -12  -2 5631.50 368.963   2
  -2  12  -2 5351.45 375.938   2
  -2 -12  -3 1683.23 244.323   2
  -2  12  -3 1820.57 260.976   2
  -2 -12  -3 1050.60 327.636   3
   2 -12   3 1861.45 387.255   3
  -2 -12  -4 8785.83 857.899   3
   2 -12   4 9314.47 774.756   3
  -2 -12  -4 8892.17 622.616   2
  -2  12  -4 9420.51 654.883   2
  -2 -12  -5 47.6429 145.422   2
  -2  12  -5 216.624 185.447   2
  -2 -12  -5 140.357 222.896   3
   2 -12   5 128.359 180.354   3
  -2  12  -6 1996.84 323.149   2
  -2 -12  -6 2256.30 347.154   2
  -2 -12  -6 1421.60 346.909   3
   2 -12   6 1816.68 337.287   3
   2 -12   7 5693.55 539.272   3
  -2 -12  -7 5162.55 646.722   3
  -2 -12  -7 6342.78 589.573   2
  -2  12  -7 5905.33 579.667   2
  -2 -12  -8 488.583 185.318   2
  -2  12  -8 112.206 149.961   2
  -2 -12  -8-7.69886 199.272   3
   2 -12   8 212.157 165.189   3
  -2  12  -9 4321.18 512.110   2
   2 -12   9 4458.15 436.508   1
  -2 -12  -9 3791.03 487.058   3
  -2 -12  -9 5170.82 556.292   2
  -2 -12 -10 315.899 199.779   2
  -2  12 -10 130.503 153.924   2
  -2  12 -11 1722.45 365.114   2
  -2 -12 -11 1548.96 320.996   2
   2 -13 -10 5369.79 512.342   3
  -2 -13  10 5814.86 623.052   3
   2 -13 -10 5559.05 541.696   1
  -2 -13   9 221.324 188.848   3
   2 -13  -9 63.4262 169.974   3
  -2 -13   8 17077.1 1123.59   3
   2 -13  -8 16942.6 980.621   3
  -2 -13   7 759.649 286.344   3
   2 -13  -7 983.940 294.308   3
  -2 -13   6 284.016 235.848   3
   2 -13  -6 597.998 245.424   3
  -2 -13   5 322.656 228.083   3
   2 -13  -5-188.934 226.833   3
  -2 -13   4 13819.9 1118.61   3
   2 -13  -4 13773.4 1075.22   3
  -2  13   4 14455.1 631.100   2
  -2 -13   4 11845.8 603.899   2
  -2  13   3 154.209 68.1244   2
  -2 -13   3 7.96845 72.9017   2
  -2 -13   3 186.841 214.080   3
   2 -13  -3 25.1726 215.267   3
  -2 -13   2 17385.7 1263.96   3
   2 -13  -2 17552.5 1334.46   3
  -2  13   2 17539.5 517.746   2
  -2 -13   2 17280.9 556.254   2
  -2 -13   1 277.332 55.8125   2
   2 -13  -1-112.398 344.837   3
  -2 -13   0 4687.37 194.719   2
  -2 -13   0 5433.86 709.673   3
   2 -13   0 5275.87 748.687   3
  -2 -13   0 5304.71 230.217   2
  -2  13  -1 80.9675 34.7685   2
   2 -13   1-85.3798 221.986   3
  -2  13  -1 50.2786 26.8133   2
  -2 -13  -1 100.199 42.0883   2
  -2 -13  -1-196.908 283.655   3
  -2 -13  -2 14873.5 1149.47   3
   2 -13   2 16511.6 1192.15   3
  -2 -13  -2 15224.2 623.857   2
  -2  13  -2 15654.4 579.362   2
  -2 -13  -3 822.985 150.699   2
  -2  13  -3 995.133 168.000   2
  -2 -13  -3 1151.71 334.270   3
   2 -13   3 873.924 292.988   3
  -2 -13  -4 17705.1 1230.48   3
   2 -13   4 17312.4 1116.81   3
  -2 -13  -4 18084.2 807.298   2
  -2  13  -4 18723.1 793.722   2
  -2 -13  -5 55.9586 112.275   2
  -2  13  -5 462.898 146.395   2
  -2 -13  -5 384.953 230.932   3
   2 -13   5 368.479 220.511   3
  -2 -13  -6 2250.70 314.168   2
  -2  13  -6 1947.89 294.473   2
  -2 -13  -6 1993.77 419.199   3
   2 -13   6 1373.55 299.490   3
  -2 -13  -7 643.340 174.139   2
  -2  13  -7 432.571 171.763   2
  -2 -13  -7 98.2681 184.899   3
   2 -13   7 485.330 215.623   3
  -2  13  -8 1879.84 325.132   2
   2 -13   8 2007.12 345.539   3
  -2 -13  -8 1410.00 319.906   3
  -2 -13  -9 599.515 230.354   3
   2 -13   9 384.701 195.084   3
   2 -13   9 547.946 202.565   1
  -2 -14  10 1919.65 360.557   3
  -2 -14   9 521.910 247.431   3
   2 -14  -9 503.615 194.516   3
   2 -14  -8 5176.18 574.023   3
  -2 -14   8 5953.19 683.129   3
  -2 -14   7 2179.79 444.946   3
   2 -14  -7 3094.48 469.957   3
  -2 -14   6-205.824 295.044   3
   2 -14  -6 780.974 271.935   3
  -2 -14   5-246.264 224.698   3
   2 -14  -5 20.7800 228.341   3
  -2 -14   4 16912.7 1250.15   3
   2 -14  -4 19858.0 1357.51   3
   2 -14  -3 359.275 303.836   3
  -2 -14   3-298.297 293.205   3
   2 -14  -2 23276.6 1639.87   3
  -2 -14   2 21411.5 1443.93   3
  -2 -14   1 2291.59 511.434   3
   2 -14  -1 3258.65 639.317   3
  -2 -14   0 570.703 244.962   3
   2 -14   0 290.940 254.431   3
  -2 -14  -1 3561.51 593.609   3
   2 -14   1 3752.79 651.664   3
  -2 -14  -2 12383.4 1069.44   3
   2 -14   2 13171.6 1103.88   3
  -2 -14  -3 1753.77 406.584   3
   2 -14   3 848.970 304.229   3
  -2 -14  -4 10989.5 998.819   3
   2 -14   4 12528.4 986.485   3
  -2 -14  -5-256.332 286.015   3
   2 -14   5 71.6106 189.020   3
  -2 -14  -6 145.776 190.437   3
   2 -14   6 295.383 192.736   3
  -2 -14  -7 723.476 281.431   3
   2 -14   7 1080.44 279.235   3
  -2 -14  -8 355.206 203.550   3
   2 -14   8 103.991 175.444   3
   2 -14   9 3554.73 436.571   1
  -2 -14  -9 3549.49 484.957   3
   2 -14   9 3690.15 461.113   3
  -2 -15  10 104.139 164.990   3
  -2 -15   9 2056.48 425.672   3
   2 -15  -9 2550.48 391.712   3
  -2 -15   8 1770.12 379.110   3
   2 -15  -8 1658.67 359.071   3
  -2 -15   7 1361.60 378.106   3
   2 -15  -7 1741.41 376.610   3
  -2 -15   6 198.282 237.222   3
   2 -15  -6 101.549 199.845   3
  -2 -15   5 1779.65 433.355   3
   2 -15  -5 1366.90 364.286   3
  -2 -15   4 3870.55 626.654   3
   2 -15  -4 4843.58 705.885   3
  -2 -15   3 500.404 300.183   3
   2 -15  -3 1369.20 480.285   3
  -2 -15   2 4474.35 670.801   3
   2 -15  -2 6079.13 880.975   3
   2 -15  -1 1325.39 477.158   3
  -2 -15   1 1424.89 415.166   3
  -2 -15   0 23.8757 241.576   3
   2 -15   0-34.1677 322.625   3
  -2 -15  -1 3024.73 553.476   3
   2 -15   1 3208.37 587.954   3
  -2 -15  -2 1956.08 447.355   3
   2 -15   2 2169.36 473.384   3
   2 -15   3 12519.4 1045.09   3
  -2 -15  -3 13085.9 1088.33   3
  -2 -15  -4 1754.16 432.084   3
   2 -15   4 2536.32 488.105   3
   2 -15   5 8068.93 785.433   3
  -2 -15  -5 6917.77 762.848   3
  -2 -15  -6 690.524 275.128   3
   2 -15   6 1037.76 309.174   3
  -2 -15  -7 8887.65 823.073   3
   2 -15   7 9390.57 792.412   3
  -2 -15  -8 382.354 187.856   3
   2 -15   8 707.294 273.053   3
   2 -15   9 1119.41 291.904   3
   2 -16  -8 244.703 217.840   3
  -2 -16   7 3541.24 552.756   3
   2 -16  -7 4758.55 607.837   3
  -2 -16   6 4041.53 602.153   3
   2 -16  -6 3918.95 586.492   3
  -2 -16   5 1015.07 378.511   3
   2 -16  -5 814.383 327.993   3
  -2 -16   4 2577.40 506.856   3
   2 -16  -4 3611.46 604.540   3
  -2 -16   3-147.454 277.556   3
   2 -16  -3 210.760 252.391   3
  -2 -16   2 1296.14 383.386   3
   2 -16  -2 751.878 344.233   3
  -2 -16   1 1063.47 385.620   3
   2 -16  -1 1341.07 462.290   3
  -2 -16   0 6063.52 757.627   3
   2 -16   0 8556.12 983.971   3
  -2 -16  -1 9847.38 958.222   3
   2 -16   1 9493.48 1021.64   3
  -2 -16  -2 88.2530 227.461   3
   2 -16   2 477.816 350.719   3
  -2 -16  -3 102.846 241.686   3
   2 -16   3 310.783 263.649   3
  -2 -16  -4 6346.11 761.718   3
   2 -16   4 6115.42 746.854   3
  -2 -16  -5 64.9318 204.535   3
   2 -16   5 136.039 206.692   3
  -2 -16  -6 81.4505 184.868   3
  -2 -16  -7 1300.63 365.546   3
   3   0 -12 184.220 66.1524   1
  -3   0  11 43.5483 61.0182   3
   3   0 -11 9.91253 73.4094   1
  -3   0  11-1.47787 55.1606   3
  -3   0  10 70.8125 63.7039   3
   3   0 -10 52.8052 74.2623   1
   3   0  -9 49903.1 1202.54   1
  -3   0   9 49974.4 1190.55   1
  -3   0   8 80.9257 80.5034   1
   3   0  -8 291.549 96.4342   1
  -3   0   7 95029.3 2197.99   2
   3   0  -7 89313.8 1817.36   1
  -3   0   7 89320.8 1797.97   1
   3   0  -6 30.2307 65.4079   1
  -3   0   6 134.540 74.7899   1
   3   0  -5 118514. 2225.71   1
  -3   0   5 119972. 2226.14   1
  -3   0   4 57.3233 58.8799   1
   3   0  -4 72.0448 74.3457   1
   3   0  -3 355604. 5615.04   1
  -3   0   3 352063. 5601.32   1
   3   0  -2 133.387 91.6560   1
   3   0  -1 14351.6 534.518   1
   3   0   0 81.0075 64.2871   1
   3   0   1 21014.1 661.388   1
   3   0   2 1870.20 190.713   1
   3   0   3 1645.51 176.232   1
   3   0   4 268.797 73.7417   1
   3   0   5 21372.6 676.938   1
   3   0   6 1748.61 180.735   1
   3   0   7 20996.6 669.146   1
   3   0   8 660.825 116.240   1
  -3   0  -9 200.945 276.404   2
   3   0   9 205.062 84.1041   1
   3   0  10-151.577 105.978   1
  -3   0 -10 38.2767 262.190   2
  -3   0 -11 35489.7 2141.84   2
  -3   0 -12 43.2348 364.503   2
   3  -1 -12 18000.9 588.891   1
  -3   1  11 3063.16 215.884   3
   3  -1 -11 2989.92 241.282   1
  -3  -1  11 2852.11 212.771   3
  -3  -1  11 3031.96 251.010   3
   3   1 -11 2892.09 243.776   1
   3  -1 -10 2761.87 237.769   1
  -3   1  10 2965.49 226.798   3
   3   1 -10 3133.72 261.493   1
  -3  -1  10 2978.31 241.047   1
   3  -1  -9 82125.6 1693.99   1
  -3   1   9 81747.8 1648.00   3
   3   1  -9 80527.8 1697.64   1
  -3  -1   9 78951.5 1645.62   1
  -3   1   8 23578.1 1047.96   2
  -3  -1   8 24093.4 1053.10   2
   3  -1  -8 23018.6 732.178   1
   3   1  -8 21974.0 727.199   1
  -3   1   8 22619.5 732.118   1
  -3  -1   8 21945.7 700.448   1
  -3  -1   7 340.871 98.9265   1
  -3  -1   7 212.964 106.098   2
   3   1  -7 130.163 86.2462   1
  -3   1   7 267.610 129.849   2
   3  -1  -7 320.344 98.7370   1
  -3   1   7 327.544 88.7509   1
   3  -1  -6 2195.41 209.414   1
   3   1  -6 2352.68 219.571   1
  -3   1   6 2232.26 213.028   1
  -3  -1   6 2436.08 216.118   1
   3  -1  -5 5179.65 316.617   1
   3   1  -5 4639.18 299.828   1
  -3   1   5 4055.69 281.697   1
  -3  -1   5 4901.65 302.210   1
   3  -1  -4 7594.10 385.631   1
   3   1  -4 7641.48 387.414   1
  -3   1   4 7678.15 384.085   1
  -3  -1   4 7374.17 376.116   1
   3  -1  -3 24272.3 737.405   1
   3   1  -3 25771.8 758.341   1
  -3   1   3 23839.5 731.596   1
  -3  -1   3 24050.4 733.414   1
   3  -1  -2 19589.3 645.395   1
   3   1  -2 19917.1 648.197   1
   3  -1  -1 85423.9 1713.91   1
   3   1  -1 85486.1 1714.56   1
   3  -1   0 41755.0 1023.67   1
   3   1   0 40391.5 1012.02   1
   3  -1   1 16659.6 581.255   1
   3   1   1 16152.9 574.469   1
   3  -1   2 86723.5 1720.28   1
   3   1   2 85203.2 1717.32   1
   3  -1   3 77032.8 1585.07   1
   3   1   3 77326.6 1592.30   1
   3  -1   4 40935.0 1012.84   1
   3   1   4 39661.8 1009.06   1
   3  -1   5 12083.4 488.969   1
   3   1   5 12653.3 506.630   1
   3   1   6 37837.3 984.122   1
   3  -1   6 38160.8 968.486   1
   3   1   7 636.413 127.433   1
   3  -1   7 516.571 112.130   1
   3  -1   8 5450.96 312.284   1
   3   1   8 5261.54 325.608   1
   3  -1   9 3390.78 242.147   1
  -3  -1  -9 3314.46 557.200   2
   3   1   9 3739.27 276.198   1
  -3   1  -9 3908.42 604.264   2
  -3  -1 -10 175.574 262.798   2
  -3   1 -10 80.8818 281.789   2
   3  -1  10 487.835 92.2066   1
  -3   1 -11 1724.73 501.368   2
  -3  -1 -11 1156.78 452.883   2
  -3  -1 -12-569.208 385.532   2
  -3   1 -12 760.503 348.520   2
   3  -2 -12 479.395 110.659   1
   3  -2 -11 10779.4 472.531   1
  -3   2  11 10753.3 445.542   3
  -3  -2  11 11044.5 526.475   3
  -3  -2  11 9885.14 432.979   1
  -3  -2  10 1600.01 177.808   1
   3  -2 -10 1460.16 182.178   1
  -3  -2  10 1729.31 208.019   3
   3   2 -10 1467.93 187.163   1
  -3   2  10 1649.11 178.001   3
  -3  -2   9 1138.17 157.839   1
  -3   2   9 1293.15 164.041   3
   3   2  -9 1060.98 161.661   1
   3  -2  -9 810.940 126.193   1
  -3   2   8 11251.2 701.489   2
  -3  -2   8 11316.5 701.164   2
   3  -2  -8 10638.1 484.170   1
  -3   2   8 10288.1 463.669   3
   3   2  -8 10439.1 492.845   1
  -3  -2   8 10794.9 469.063   1
   3  -2  -7 3702.73 280.778   1
  -3   2   7 4547.46 402.484   2
  -3  -2   7 4081.83 380.961   2
  -3   2   7 3997.89 275.606   3
   3   2  -7 3549.36 276.956   1
  -3  -2   7 4182.44 289.477   1
  -3  -2   6 1116.48 151.434   1
  -3   2   6 1067.06 177.387   2
  -3  -2   6 1221.39 203.181   2
   3  -2  -6 1210.17 165.237   1
   3   2  -6 1115.80 167.206   1
  -3   2   6 1235.03 169.028   1
  -3  -2   5 4202.17 329.915   2
   3   2  -5 3888.32 278.208   1
  -3   2   5 4030.70 284.513   1
   3  -2  -5 3842.86 279.271   1
  -3  -2   5 3955.31 277.525   1
   3   2  -4 12699.2 519.188   1
  -3   2   4 12482.5 516.451   1
   3  -2  -4 13265.2 531.276   1
  -3  -2   4 12961.3 519.374   1
  -3  -2   3 25031.0 757.513   1
  -3   2   3 24038.1 749.799   1
   3   2  -3 24086.0 755.010   1
   3  -2  -3 25358.1 766.304   1
   3   2  -2 6290.74 350.665   1
   3  -2  -2 6109.89 351.479   1
   3   2  -1 33918.6 916.672   1
   3  -2  -1 33381.9 910.396   1
   3   2   0 23963.5 740.251   1
   3  -2   0 24823.4 753.693   1
   3   2   1 5505.34 324.506   1
   3  -2   1 5222.07 318.471   1
   3   2   2 2753.34 232.749   1
   3  -2   2 3093.27 246.236   1
   3   2   3 35411.5 946.576   1
   3  -2   3 35609.6 946.002   1
   3   2   4 24529.5 761.774   1
   3  -2   4 24463.3 747.118   1
   3  -2   5 32756.1 898.720   1
   3   2   5 33872.0 928.635   1
   3  -2   6 22411.3 710.066   1
  -3   2  -6 23720.7 817.734   3
   3   2   6 23385.0 750.590   1
  -3   2  -7 1028.04 183.296   3
   3  -2   7 1487.88 175.245   1
   3   2   7 1374.82 177.164   1
  -3   2  -8 74005.6 1739.62   3
   3  -2   8 72854.0 1528.54   1
   3   2   8 77770.3 1649.15   1
  -3  -2  -9 4769.53 662.747   2
  -3   2  -9 5074.12 696.658   2
   3  -2   9 4476.39 280.396   1
  -3   2  -9 4624.71 361.604   3
   3  -2  10 20255.5 611.601   1
  -3  -2 -10 18768.8 1445.06   2
  -3   2 -10 18541.1 1443.44   2
  -3  -2 -11 4566.55 786.316   2
  -3   2 -11 3228.92 681.938   2
  -3  -2 -12 9463.65 1149.93   2
  -3   2 -12 10919.6 1211.58   2
   3  -3 -12 15399.1 565.925   1
   3  -3 -11 4819.17 321.077   1
  -3  -3  11 4841.05 296.561   1
  -3  -3  10-16.9096 61.1375   1
  -3  -3  10 251.308 113.358   3
  -3   3  10 131.226 84.0373   3
   3  -3 -10 116.453 87.1608   1
   3   3  -9 356.751 90.5589   1
  -3  -3   9 532.298 109.496   1
  -3  -3   9 645.290 143.359   3
   3  -3  -9 598.931 127.360   1
  -3   3   9 613.271 115.917   3
   3   3  -8 411.151 119.778   1
  -3  -3   8 503.701 176.816   2
  -3  -3   8 404.812 111.600   1
   3  -3  -8 300.333 100.741   1
  -3   3   8 483.071 120.886   3
  -3   3   7 9956.36 609.191   2
  -3  -3   7 10210.6 612.656   2
  -3   3   7 9947.94 469.613   3
   3   3  -7 9842.02 485.548   1
   3  -3  -7 9882.29 480.477   1
  -3  -3   7 9905.87 466.235   1
  -3  -3   6 32472.0 922.817   1
  -3   3   6 33813.3 1093.21   2
  -3  -3   6 33995.9 1093.53   2
  -3   3   6 32160.6 926.694   3
   3   3  -6 32798.1 957.533   1
   3  -3  -6 32945.2 946.712   1
  -3  -3   5 2257.59 221.047   1
  -3   3   5 2047.95 234.282   2
   3  -3  -5 2111.02 213.525   1
   3   3  -5 2352.25 231.002   1
  -3  -3   5 2064.24 231.958   2
  -3   3   5 1822.36 194.576   3
  -3  -3   4 18023.8 645.242   1
  -3   3   4 17037.4 629.383   3
   3   3  -4 17809.2 651.089   1
   3  -3  -4 17427.5 639.705   1
   3  -3  -3 192.207 82.8652   1
  -3   3   3 223.383 79.4696   1
  -3  -3   3 239.006 95.8579   1
  -3   3   3 214.052 88.2136   3
   3   3  -3 247.702 102.248   1
   3  -3  -2 1365.48 174.501   1
   3   3  -2 845.442 135.816   1
   3  -3  -1 575.978 116.923   1
   3   3  -1 864.549 145.430   1
   3  -3   0 1920.56 202.054   1
   3   3   0 2197.95 222.379   1
   3   3   1 24445.1 769.460   1
   3  -3   1 24580.5 767.109   1
   3   3   2 84099.2 1741.46   1
   3  -3   2 82785.6 1726.49   1
   3   3   3 545.709 127.518   1
   3  -3   3 783.902 143.820   1
  -3   3  -4 25304.9 842.460   3
   3   3   4 25292.1 797.272   1
   3  -3   4 24545.9 773.761   1
  -3   3  -5 33915.7 1029.86   3
   3   3   5 35189.2 983.494   1
   3  -3   5 33491.5 940.138   1
  -3   3  -6 45746.3 1257.79   3
   3   3   6 47260.3 1199.76   1
   3  -3   6 44420.8 1122.05   1
   3  -3   7 6272.06 354.136   1
  -3   3  -7 6808.68 445.178   3
   3   3   7 6499.00 393.747   1
  -3   3  -8 160.067 110.974   3
   3  -3   8 178.485 86.5780   1
  -3   3  -9 6060.72 767.821   2
   3  -3   9 6566.66 346.764   1
  -3   3  -9 6572.60 459.027   3
  -3  -3  -9 6850.38 791.894   2
  -3  -3 -10 6244.61 819.502   2
   3  -3  10 5786.83 306.598   1
  -3   3 -10 5621.28 803.436   2
  -3  -3 -10 6304.05 412.589   3
  -3   3 -11 10464.1 1143.14   2
  -3  -3 -11 14486.6 1377.12   2
  -3   3 -12 3279.10 737.081   2
  -3  -3 -12 2448.99 604.677   2
   3  -4 -12 17729.0 642.098   1
   3  -4 -11 6987.07 405.089   1
  -3  -4  11 7002.38 523.048   3
   3  -4 -10 12956.6 566.115   1
  -3   4  10 13160.9 597.457   3
  -3  -4  10 11690.9 511.707   1
  -3  -4  10 12768.1 667.346   3
  -3  -4   9 8643.13 526.291   3
  -3   4   9 9649.75 495.645   3
  -3  -4   9 8695.48 444.322   1
   3  -4  -9 9295.80 479.269   1
  -3   4   8 20195.6 977.562   2
  -3  -4   8 18006.7 928.577   2
  -3  -4   8 18884.0 767.993   3
  -3   4   8 18523.0 708.764   3
   3   4  -8 17560.0 717.961   1
   3  -4  -8 18494.1 700.659   1
  -3  -4   8 19528.7 694.123   1
  -3  -4   7 24827.1 814.452   1
  -3   4   7 27385.0 1055.59   2
  -3  -4   7 27298.6 1043.76   2
  -3   4   7 26740.3 861.213   3
   3   4  -7 23989.2 849.895   1
  -3  -4   7 25191.4 887.654   3
   3  -4  -7 24357.2 822.696   1
  -3   4   6 16997.8 752.770   2
  -3  -4   6 17722.8 763.426   2
  -3  -4   6 17733.2 665.574   1
  -3   4   6 17297.3 667.741   3
   3   4  -6 17091.1 685.759   1
   3  -4  -6 17050.4 666.976   1
  -3   4   5 89741.1 1951.87   2
  -3  -4   5 88849.2 1876.71   1
  -3  -4   5 90943.7 1958.94   2
  -3   4   5 88410.5 1877.90   3
   3   4  -5 88660.2 1904.40   1
   3  -4  -5 88406.6 1885.94   1
  -3  -4   4 27371.0 861.328   1
  -3   4   4 27947.2 855.928   2
  -3  -4   4 26900.2 854.341   2
  -3   4   4 27487.2 858.984   3
   3   4  -4 27325.7 871.098   1
   3  -4  -4 27979.4 877.654   1
  -3  -4   3 12941.8 565.952   1
  -3   4   3 13539.2 568.442   3
   3   4  -3 13435.5 576.762   1
   3  -4  -3 13140.5 569.181   1
  -3   4   2 2182.81 227.912   3
   3   4  -2 2613.87 250.584   1
   3  -4  -2 2313.30 238.025   1
   3   4  -1 76835.0 1667.89   1
   3  -4  -1 75036.0 1661.57   1
   3   4   0 132448. 2502.05   1
   3  -4   0 128717. 2485.83   1
   3   4   1 2480.79 242.423   1
   3  -4   1 2541.56 243.091   1
  -3  -4  -2 13234.7 580.879   1
  -3   4  -2 13137.1 585.647   3
   3   4   2 13617.0 573.513   1
   3  -4   2 13388.6 566.007   1
  -3  -4  -3 2241.18 234.056   1
  -3   4  -3 2664.80 265.210   3
   3   4   3 2231.02 237.110   1
   3  -4   3 2506.56 242.765   1
   3   4   4 1231.68 185.271   1
   3  -4   4 1290.87 177.685   1
  -3   4  -4 1241.57 191.459   3
  -3  -4  -4 1670.64 210.874   1
  -3  -4  -5 3746.82 303.690   1
  -3   4  -5 4016.04 342.393   3
   3   4   5 3681.23 308.284   1
   3  -4   5 3717.41 290.075   1
   3   4   6 983.690 171.716   1
   3  -4   6 1373.70 182.719   1
  -3  -4  -6 964.533 160.038   1
  -3   4  -6 1366.41 208.975   3
   3  -4   7 623.831 131.423   1
  -3  -4  -7 593.095 130.543   1
  -3   4  -7 747.930 177.046   3
   3  -4   8 19453.5 665.256   1
  -3   4  -8 18642.3 811.007   3
  -3  -4  -8 18203.4 682.062   1
   3  -4   9 13655.5 533.480   1
  -3  -4  -9 13290.7 650.875   3
  -3   4  -9 13328.5 696.125   3
  -3  -4  -9 14681.9 1165.77   2
  -3   4  -9 14547.4 1171.79   2
   3  -4  10 453.092 104.634   1
  -3  -4 -10 531.842 338.643   2
  -3   4 -10 440.032 281.141   2
  -3  -4 -10 465.634 143.619   3
  -3  -4 -11 232.548 347.342   2
  -3   4 -11 459.897 370.525   2
  -3  -4 -12-329.278 410.372   2
  -3   4 -12-180.813 421.440   2
   3  -5 -12 174.227 99.1467   1
   3  -5 -11 10012.1 507.852   1
  -3  -5  11 9552.02 690.689   3
  -3  -5  10 25928.6 1064.85   3
  -3   5  10 23932.8 909.377   3
   3  -5 -10 24011.6 837.924   1
  -3  -5  10 23391.4 792.518   1
  -3  -5   9 5249.37 355.643   1
  -3  -5   9 5412.92 442.062   3
  -3   5   9 4717.90 378.208   3
   3  -5  -9 5158.90 368.759   1
  -3   5   8 6764.83 562.318   2
  -3  -5   8 6468.62 552.790   2
  -3  -5   8 6328.28 400.062   1
  -3  -5   8 6261.66 465.957   3
  -3   5   8 7027.77 447.631   3
   3  -5  -8 6230.37 406.547   1
  -3   5   7 14741.1 764.690   2
  -3  -5   7 12980.4 713.986   2
  -3  -5   7 13379.0 598.700   1
  -3  -5   7 14247.4 691.231   3
  -3   5   7 13338.1 623.735   3
   3  -5  -7 13025.8 601.072   1
   3   5  -7 12826.6 633.812   1
  -3   5   6 134648. 2705.70   2
  -3  -5   6 126142. 2660.55   2
  -3  -5   6 127249. 2628.79   3
  -3  -5   6 126080. 2501.65   1
  -3   5   6 127823. 2538.41   3
   3  -5  -6 123808. 2513.72   1
   3   5  -6 122950. 2559.34   1
  -3  -5   5 1343.79 201.058   1
   3   5  -5 1173.72 190.105   1
  -3  -5   5 1052.33 171.119   2
   3  -5  -5 1576.81 217.459   1
  -3   5   5 1386.49 202.596   2
  -3   5   5 1126.77 187.761   3
  -3   5   4 70077.4 1579.95   2
  -3  -5   4 70078.3 1594.87   2
  -3   5   4 72454.0 1665.91   3
   3  -5  -4 69625.8 1657.55   1
   3   5  -4 70536.3 1662.47   1
  -3  -5   4 71422.6 1657.40   1
  -3  -5   3 6236.00 409.514   1
  -3   5   3 6569.34 416.063   3
   3   5  -3 6127.19 406.084   1
   3  -5  -3 6787.03 423.066   1
  -3   5   2 52656.0 1346.02   3
   3   5  -2 51042.7 1329.39   1
   3  -5  -2 51000.8 1344.58   1
   3   5  -1 34902.2 1042.45   1
   3  -5  -1 36677.7 1072.36   1
   3   5   0 69454.1 1627.44   1
   3  -5   0 70999.0 1645.05   1
   3   5   1 38800.0 1108.60   1
   3  -5   1 38838.7 1103.31   1
  -3  -5  -2 2257.37 254.485   1
  -3   5  -2 2846.43 286.945   3
   3   5   2 2267.20 244.228   1
   3  -5   2 2662.09 269.109   1
  -3  -5  -3 807.581 162.518   1
   3  -5   3 1007.52 168.137   1
   3   5   3 858.058 170.142   1
  -3   5  -3 1424.96 214.581   3
  -3  -5  -4 16080.3 681.142   1
  -3   5  -4 16753.1 726.098   3
   3  -5   4 15542.7 641.248   1
   3   5   4 15346.7 668.712   1
   3  -5   5 843.742 156.993   1
  -3   5  -5 844.985 174.729   3
  -3  -5  -5 810.540 160.317   1
   3  -5   6 1092.70 175.105   1
  -3   5  -6 990.647 182.234   3
  -3  -5  -7 8269.96 467.780   1
  -3   5  -7 8975.86 569.937   3
  -3  -5  -7 8585.11 525.713   3
   3  -5   7 9616.09 483.309   1
  -3  -5  -8 4479.00 335.388   1
  -3  -5  -8 4619.24 398.935   3
  -3   5  -8 4839.95 427.714   3
  -3   5  -8 4923.64 643.951   2
   3  -5   8 4983.57 340.379   1
   3  -5   9 12211.9 521.525   1
  -3  -5  -9 11204.1 630.444   3
  -3   5  -9 11076.8 673.730   3
  -3  -5  -9 13301.4 1132.73   2
  -3   5  -9 12534.6 1109.00   2
  -3  -5  -9 10917.2 525.343   1
   3  -5  10 10510.5 459.161   1
  -3  -5 -10 11767.3 657.045   3
  -3  -5 -10 11358.9 1130.18   2
  -3   5 -10 11419.4 1148.98   2
  -3  -5 -11 1011.66 402.337   2
  -3   5 -11 911.801 412.468   2
  -3  -5 -12 560.780 288.494   2
  -3   5 -12 908.754 335.542   2
   3  -6 -12 6875.43 428.776   1
  -3  -6  11 16462.8 955.614   3
   3  -6 -11 16558.9 699.727   1
   3  -6 -10 339.889 124.328   1
  -3  -6  10 104.813 143.831   3
  -3  -6  10 231.400 103.979   1
  -3   6  10 193.038 121.726   3
  -3  -6   9 4853.22 363.564   1
  -3   6   9 4745.19 420.699   3
  -3  -6   9 5795.63 509.391   3
   3  -6  -9 4808.60 375.025   1
  -3   6   8 1335.67 288.194   2
  -3  -6   8 1189.74 251.431   2
   3  -6  -8 1253.66 199.393   1
  -3  -6   8 913.727 209.393   3
  -3   6   8 1322.48 229.434   3
  -3  -6   8 1257.33 188.835   1
  -3  -6   7 892.891 176.957   1
   3  -6  -7 800.694 174.805   1
  -3   6   7 1045.39 218.163   2
  -3  -6   7 1085.02 228.097   2
  -3  -6   7 944.986 199.272   3
  -3   6   7 1078.42 205.188   3
  -3   6   6 8330.05 532.718   2
  -3  -6   6 8002.31 519.174   2
  -3  -6   6 7099.21 510.676   3
  -3   6   6 8701.46 520.773   3
   3  -6  -6 7899.82 491.472   1
  -3  -6   6 8744.70 499.893   1
  -3   6   5 5031.43 375.248   2
  -3  -6   5 4213.84 349.602   2
  -3  -6   5 4902.38 416.177   3
  -3  -6   5 4813.28 375.156   1
  -3   6   5 5287.49 403.674   3
   3  -6  -5 5367.86 407.442   1
  -3   6   4 17037.0 662.581   2
  -3  -6   4 17891.9 682.129   2
  -3  -6   4 17862.1 743.540   1
  -3   6   4 17631.6 742.136   3
  -3  -6   4 16635.8 762.743   3
   3  -6  -4 17998.2 763.454   1
   3   6  -4 17499.7 759.726   1
  -3  -6   3 2917.80 292.206   1
  -3  -6   3 3560.94 349.149   3
  -3   6   3 3008.04 297.609   3
   3   6  -3 2384.71 276.030   1
   3  -6  -3 3037.23 318.734   1
  -3  -6   2 5548.81 406.142   1
  -3   6   2 5371.86 394.506   3
   3  -6  -2 5387.61 410.053   1
   3   6  -2 5188.69 392.819   1
   3  -6  -1 20799.0 824.494   1
   3   6  -1 19561.7 788.881   1
   3  -6   0 19366.0 786.478   1
   3   6   0 18539.2 761.759   1
   3  -6   1 52869.2 1419.33   1
   3   6   1 52845.9 1418.64   1
  -3  -6  -2 3407.72 324.734   1
  -3   6  -2 3022.26 303.051   3
   3  -6   2 3246.76 307.595   1
   3   6   2 3320.56 320.716   1
  -3  -6  -3 87494.3 1994.42   1
  -3   6  -3 86865.6 2025.82   3
   3  -6   3 81508.7 1894.02   1
   3  -6   4 1468.78 217.239   1
  -3  -6  -4 1259.31 207.344   1
  -3  -6  -4 1718.12 250.115   3
  -3   6  -4 1398.02 228.714   3
  -3  -6  -5 83055.4 2006.93   3
  -3  -6  -5 84760.6 1956.94   1
   3  -6   5 82040.1 1878.88   1
  -3  -6  -6 11131.0 577.043   1
  -3  -6  -6 10614.7 612.888   3
  -3   6  -6 11202.3 659.268   3
   3  -6   6 11609.7 565.629   1
  -3  -6  -7 16175.6 703.532   1
  -3   6  -7 16251.5 832.865   3
  -3  -6  -7 15854.2 777.165   3
   3  -6   7 17940.3 707.430   1
   3  -6   8 2175.47 242.177   1
  -3  -6  -8 2335.60 301.878   3
  -3   6  -8 2179.43 464.774   2
  -3   6  -8 2281.51 325.912   3
  -3  -6  -8 2187.39 257.291   1
  -3  -6  -8 2499.58 485.668   2
  -3  -6  -9 2.69061 251.381   2
   3  -6   9 342.300 128.974   1
  -3  -6  -9 228.327 150.322   3
  -3   6  -9 148.744 248.529   2
  -3  -6  -9 234.404 87.6846   1
  -3   6  -9 64.0336 117.254   3
   3  -6  10 9770.14 464.918   1
  -3  -6 -10 9802.73 658.079   3
  -3  -6 -10 10012.5 1092.83   2
  -3   6 -10 10884.4 1151.40   2
  -3  -6 -11-437.441 416.488   2
  -3   6 -11 236.687 294.123   2
  -3   6 -12-256.198 404.995   2
   3  -7 -11 1362.00 216.928   1
  -3  -7  11 1079.02 274.699   3
   3  -7 -10 312.285 126.303   1
  -3  -7  10-189.655 185.616   3
  -3   7  10-6.41935 131.713   3
  -3  -7  10 163.800 105.298   1
  -3  -7   9 4944.79 390.057   1
  -3  -7   9 6399.90 594.947   3
  -3   7   9 5377.73 487.963   3
   3  -7  -9 5600.24 421.953   1
  -3   7   8 21131.8 1068.88   2
  -3  -7   8 20582.6 1052.76   2
  -3  -7   8 20299.1 820.379   1
  -3  -7   8 21068.3 1035.65   3
  -3   7   8 21769.1 960.298   3
   3  -7  -8 19622.8 827.778   1
  -3  -7   7 3601.97 389.675   2
  -3  -7   7 3436.17 325.633   1
  -3   7   7 3604.05 369.706   3
  -3   7   7 3098.49 369.943   2
  -3  -7   7 3307.58 384.798   3
   3  -7  -7 3398.89 340.480   1
   3  -7  -6 1823.05 257.069   1
  -3  -7   6 1613.62 234.058   1
  -3   7   6 1764.32 254.862   2
  -3  -7   6 1738.04 251.572   2
  -3  -7   6 1933.33 285.262   3
  -3   7   6 2153.66 283.268   3
   3  -7  -5 175.982 120.246   1
  -3  -7   5-11.6779 113.797   1
  -3   7   5-69.9438 101.473   2
  -3  -7   5-75.7293 108.794   2
  -3  -7   5-24.6566 143.562   3
  -3   7   5 83.1805 90.4072   3
  -3   7   4 30933.7 941.321   2
  -3  -7   4 29969.0 938.364   2
  -3  -7   4 30009.2 1128.95   3
  -3  -7   4 30588.0 1070.13   1
  -3   7   4 30491.0 1071.59   3
   3  -7  -4 29536.2 1084.75   1
  -3  -7   3 8285.31 532.114   1
  -3   7   3 8488.32 535.823   3
  -3  -7   3 8004.61 553.066   3
   3  -7  -3 8492.04 557.375   1
  -3  -7   2 9884.62 599.142   3
  -3  -7   2 9293.78 567.062   1
  -3   7   2 9838.67 576.010   3
   3  -7  -2 8846.27 569.714   1
  -3  -7   1 20470.9 872.621   1
  -3   7   1 21266.5 872.403   3
   3  -7  -1 20404.5 881.398   1
  -3  -7   1 20559.4 879.303   3
  -3  -7   0 399.524 168.081   3
  -3  -7   0 537.293 153.974   1
  -3   7   0 591.196 158.309   3
   3  -7   0 542.215 173.054   1
  -3  -7  -1 8130.77 536.157   3
  -3  -7  -1 8736.91 552.200   1
  -3   7  -1 8834.89 553.975   3
   3  -7   1 8086.40 529.397   1
  -3  -7  -2 23582.7 951.562   3
  -3  -7  -2 24017.8 954.621   1
  -3   7  -2 25943.5 998.237   3
   3  -7   2 24535.8 943.031   1
   3  -7   3 1284.38 210.524   1
  -3  -7  -3 1427.17 240.656   3
  -3  -7  -3 1412.11 227.762   1
  -3   7  -3 1787.41 267.777   3
  -3  -7  -4 12511.4 685.970   3
  -3  -7  -4 11520.7 636.895   1
  -3   7  -4 12728.7 705.303   3
   3  -7   4 12688.0 636.771   1
  -3  -7  -5 15812.9 788.579   3
  -3  -7  -5 14132.9 703.618   1
  -3   7  -5 15886.1 820.653   3
   3  -7   5 15329.0 699.785   1
  -3  -7  -6 4018.45 406.540   3
  -3  -7  -6 3856.11 359.453   1
  -3   7  -6 4298.65 431.144   3
   3  -7   6 4061.12 357.484   1
  -3  -7  -7 32531.5 1099.90   1
  -3   7  -7 35237.4 1343.35   3
  -3  -7  -7 34444.3 1271.43   3
   3  -7   7 35717.0 1099.25   1
  -3  -7  -8 2008.35 449.730   2
  -3   7  -8 1831.92 398.391   2
   3  -7   8 1656.98 232.389   1
  -3  -7  -8 1718.35 299.624   3
  -3   7  -8 2094.80 331.424   3
  -3  -7  -8 1725.20 237.778   1
  -3  -7  -9 24355.0 906.143   1
  -3  -7  -9 27851.3 1192.55   3
   3  -7   9 28441.8 930.051   1
  -3  -7  -9 27531.8 1668.20   2
  -3   7  -9 28303.1 1735.45   2
  -3  -7 -10 280.741 246.940   2
  -3  -7 -10 422.179 203.096   3
  -3   7 -10 241.836 323.873   2
  -3  -7 -11 13431.8 1272.65   2
  -3   7 -11 13772.2 1318.96   2
   3  -8 -11 2980.95 319.728   1
  -3  -8  11 2053.45 372.088   3
  -3  -8  10 15717.0 737.108   1
  -3  -8  10 17825.2 1125.84   3
   3  -8 -10 17788.9 798.371   1
  -3  -8   9 326.651 135.742   1
   3  -8  -9 203.006 135.369   1
  -3  -8   9 18.9012 179.414   3
  -3   8   9-226.214 188.645   3
  -3   8   8 13975.3 888.318   2
  -3  -8   8 13003.5 860.473   2
  -3  -8   8 13043.8 677.098   1
  -3  -8   8 14546.5 937.650   3
  -3   8   8 13300.8 813.229   3
   3  -8  -8 13572.1 712.680   1
  -3   8   7 4738.13 467.218   2
  -3  -8   7 5334.62 484.571   2
  -3  -8   7 6036.98 575.013   3
  -3  -8   7 4667.07 408.676   1
  -3   8   7 5486.94 503.231   3
   3  -8  -7 4793.30 427.686   1
   3  -8  -6 483.532 163.803   1
  -3   8   6 492.234 177.627   2
  -3  -8   6 533.188 171.288   2
  -3  -8   6 504.343 137.179   1
  -3  -8   6 433.465 191.986   3
  -3   8   6 506.210 165.703   3
  -3   8   5 2421.09 270.022   2
  -3  -8   5 1901.16 248.933   2
  -3  -8   5 1609.90 300.935   3
  -3  -8   5 1862.88 267.852   1
  -3   8   5 2019.67 300.425   3
   3  -8  -5 1913.26 280.375   1
  -3   8   4 5554.22 373.284   2
  -3  -8   4 5768.64 386.261   2
  -3  -8   4 5369.04 497.078   3
  -3   8   4 5518.38 471.847   3
  -3  -8   4 5014.60 439.276   1
   3  -8  -4 5807.46 495.299   1
  -3  -8   3 7978.23 427.569   2
  -3  -8   3 8522.33 609.460   3
  -3   8   3 7908.80 551.337   3
  -3  -8   3 7625.92 549.715   1
   3  -8  -3 8223.29 588.793   1
  -3  -8   2 66974.6 1893.85   3
  -3   8   2 67194.1 1822.49   3
  -3  -8   2 67333.0 1863.07   1
   3  -8  -2 68601.0 1919.65   1
  -3  -8   1-21.7087 128.691   3
  -3   8   1 260.554 136.353   3
  -3  -8   1 31.9299 116.182   1
   3  -8  -1 122.387 123.644   1
  -3   8   0 6416.48 499.106   3
  -3  -8   0 6336.57 507.840   1
  -3  -8   0 6735.71 524.813   3
   3  -8   0 6067.36 505.013   1
  -3  -8  -1 4714.31 439.275   3
  -3   8  -1 4422.15 420.137   3
  -3  -8  -1 5736.13 481.546   1
   3  -8   1 4326.75 423.432   1
  -3   8  -2 33349.6 1231.11   3
  -3  -8  -2 33211.7 1217.11   1
  -3  -8  -2 32394.6 1212.70   3
   3  -8   2 32916.9 1194.68   1
  -3  -8  -3 13179.3 743.207   3
  -3   8  -3 11638.5 711.193   3
  -3  -8  -3 12011.9 695.150   1
   3  -8   3 11871.7 674.033   1
  -3  -8  -4 4000.81 421.693   3
  -3   8  -4 4300.39 443.812   3
  -3  -8  -4 3325.35 362.344   1
   3  -8   4 3529.93 364.878   1
  -3  -8  -5 8310.86 609.513   3
  -3  -8  -5 8650.48 573.761   1
  -3   8  -5 9138.37 656.240   3
   3  -8   5 9303.85 566.946   1
   3  -8   6 1915.86 263.050   1
  -3  -8  -6 1702.19 261.997   1
  -3  -8  -6 2063.08 323.257   3
  -3   8  -6 2004.72 331.330   3
  -3  -8  -7 1023.23 210.102   1
   3  -8   7 801.700 185.669   1
  -3  -8  -7 1120.49 272.516   3
  -3  -8  -7 1376.28 318.963   2
  -3   8  -7 724.010 284.153   2
  -3  -8  -8 2110.15 270.773   1
  -3  -8  -8 2567.08 486.086   2
  -3   8  -8 2488.21 504.142   2
  -3  -8  -8 3136.82 421.030   3
   3  -8   8 3433.80 340.304   1
  -3   8  -9-131.388 308.223   2
   3  -8   9 576.537 163.169   1
  -3  -8  -9 555.858 303.602   2
  -3  -8  -9 393.211 218.572   3
  -3  -8 -10 2724.86 544.609   2
  -3   8 -10 3264.94 628.647   2
  -3  -8 -10 4004.55 503.612   3
  -3  -8 -11 4222.35 722.529   2
  -3   8 -11 3046.24 624.949   2
   3  -9 -11 889.594 205.210   1
  -3  -9  11 746.961 229.639   3
   3  -9 -10 577.716 171.074   1
  -3  -9  10 1.43176 186.032   3
   3  -9  -9 3325.56 362.086   1
  -3  -9   9 2811.15 325.496   1
  -3  -9   9 3856.21 551.227   3
  -3   9   9 3253.57 460.746   3
  -3  -9   8 36613.6 1680.58   3
  -3  -9   8 32277.2 1169.65   1
  -3   9   8 34562.5 1490.13   3
   3  -9  -8 33462.6 1236.04   1
  -3  -9   8 33156.7 1462.46   2
  -3   9   7 177.041 174.055   2
  -3  -9   7 225.098 156.112   2
  -3  -9   7 170.402 108.539   1
  -3  -9   7 313.700 195.047   3
  -3   9   7 27.9365 135.016   3
   3  -9  -7 272.523 164.267   1
  -3   9   6 18727.1 851.250   2
  -3  -9   6 16875.7 821.574   2
  -3  -9   6 16120.4 993.007   3
  -3   9   6 14722.0 881.392   3
  -3  -9   6 15654.7 810.801   1
   3  -9  -6 15323.0 850.536   1
  -3   9   5 1888.11 247.069   2
  -3  -9   5 1894.26 247.206   2
  -3  -9   5 1949.14 358.520   3
  -3   9   5 2232.80 331.199   3
  -3  -9   5 1531.33 270.497   1
   3  -9  -5 1580.85 288.622   1
  -3   9   4 67277.6 1591.64   2
  -3  -9   4 66014.9 1588.59   2
  -3  -9   4 70589.1 2111.38   3
  -3   9   4 64057.3 1925.03   3
  -3  -9   4 66031.0 1915.77   1
   3  -9  -4 61216.7 1929.47   1
  -3  -9   3 1075.92 257.774   3
  -3  -9   3 873.367 159.660   2
  -3   9   3 1203.84 251.632   3
   3  -9  -3 1671.20 305.653   3
   3  -9  -3 1190.16 270.429   1
  -3  -9   3 932.712 244.115   1
  -3  -9   2 36146.2 1403.90   3
  -3   9   2 35941.2 1348.98   3
  -3  -9   2 38365.9 1420.45   1
   3  -9  -2 37940.4 1439.50   3
   3  -9  -2 37694.4 1447.46   1
  -3   9   1 7069.90 567.428   3
  -3  -9   1 8459.41 643.052   1
   3  -9  -1 7739.99 624.073   3
  -3  -9   1 7395.60 603.158   3
   3  -9  -1 7640.90 621.254   1
  -3  -9   0 854.151 232.623   1
  -3  -9   0 628.199 206.009   3
  -3   9   0 710.154 201.207   3
   3  -9   0 1400.75 295.910   3
   3  -9   0 559.780 193.568   1
  -3  -9  -1 643.014 224.814   1
  -3  -9  -1 201.741 174.623   3
  -3   9  -1 637.854 211.594   3
   3  -9   1 376.903 192.546   3
   3  -9   1 721.091 213.379   1
  -3  -9  -2 4103.85 456.783   3
  -3   9  -2 3926.16 439.760   3
  -3  -9  -2 3833.76 432.183   1
   3  -9   2 4208.16 455.943   3
   3  -9   2 3952.92 431.673   1
  -3  -9  -3 11040.9 740.024   3
  -3  -9  -3 11112.9 711.227   1
   3  -9   3 9970.71 672.338   1
   3  -9   4 25045.2 1045.51   1
  -3  -9  -4 24408.1 1137.30   3
  -3  -9  -5-32.3263 154.871   3
   3  -9   5 272.881 151.454   1
   3  -9   6 834.272 195.946   1
  -3  -9  -6 781.643 237.505   3
   3  -9   7 1014.46 210.060   1
  -3  -9  -7 1049.94 298.777   2
  -3   9  -7 889.453 305.497   2
  -3  -9  -7 758.422 255.639   3
   3  -9   8 396.683 153.663   1
  -3  -9  -8-48.2867 219.511   2
  -3   9  -8 241.876 236.158   2
  -3  -9  -8 278.142 230.697   3
  -3  -9  -9 734.488 289.001   2
  -3   9  -9 224.838 257.497   2
  -3  -9  -9 809.165 261.497   3
   3  -9   9 740.319 183.027   1
  -3  -9 -10 1519.13 456.047   2
  -3   9 -10 395.664 279.783   2
  -3  -9 -11 180.254 299.178   2
  -3   9 -11 253.177 251.128   2
   3 -10 -11 851.618 194.248   1
  -3 -10  11 567.192 239.886   3
  -3 -10  10 10410.8 907.676   3
   3 -10 -10 9193.72 627.540   1
  -3 -10   9 5910.21 697.610   3
   3 -10  -9 4386.31 450.682   1
  -3 -10   8 7736.59 820.587   3
   3 -10  -8 6849.33 565.438   1
  -3 -10   8 6277.58 633.661   2
  -3  10   7 10783.5 748.536   2
  -3 -10   7 9593.14 704.049   2
  -3 -10   7 10789.3 933.286   3
   3 -10  -7 9527.96 688.019   1
  -3  10   6 349.141 138.164   2
  -3 -10   6 452.416 167.620   2
  -3 -10   6 388.598 212.003   3
   3 -10  -6 326.911 189.629   1
  -3  10   5 1342.65 230.778   2
  -3 -10   5 963.039 191.638   2
  -3 -10   5 1412.31 361.542   3
   3 -10  -5 800.523 222.156   1
  -3  10   4 103.542 86.4078   2
   3 -10  -4 245.735 168.688   1
  -3 -10   4 114.258 87.2188   2
  -3 -10   4 51.0413 175.463   3
   3 -10  -4 324.102 224.629   3
  -3 -10   3 26624.9 862.413   2
  -3 -10   3 26174.0 1287.31   3
   3 -10  -3 27357.4 1267.89   3
   3 -10  -3 26618.3 1267.93   1
  -3 -10   2 32213.1 1418.63   3
   3 -10  -2 33361.1 1445.50   3
  -3 -10   1 3618.91 452.361   3
   3 -10  -1 3003.77 440.514   3
  -3 -10   0 11886.9 825.571   3
   3 -10   0 12032.1 847.827   3
  -3 -10  -1 35899.7 1477.83   3
   3 -10   1 36972.2 1523.34   3
  -3 -10  -2 11870.0 817.558   3
   3 -10   2 10770.5 783.409   3
   3 -10   2 10437.1 754.012   1
  -3 -10  -3 12052.5 836.072   3
   3 -10   3 12653.5 829.205   3
   3 -10   3 12013.8 792.770   1
  -3 -10  -4 1159.97 297.863   3
   3 -10   4 1019.56 239.953   1
  -3 -10  -5 3957.45 503.446   3
   3 -10   5 3415.11 397.670   1
  -3 -10  -6 11856.1 880.355   3
   3 -10   6 11178.4 696.953   1
  -3 -10  -6 12223.0 868.653   2
  -3  10  -6 11787.3 874.750   2
  -3 -10  -7 12896.6 959.992   3
   3 -10   7 12150.3 708.559   1
  -3 -10  -7 12269.7 962.035   2
  -3  10  -7 14143.7 1066.17   2
   3 -10   8 1495.82 259.769   1
  -3 -10  -8 1433.00 354.250   2
  -3  10  -8 2350.79 505.296   2
  -3 -10  -8 1826.41 385.124   3
   3 -10   9 133.119 112.047   1
  -3 -10  -9-89.8404 233.014   2
  -3  10  -9-117.279 315.766   2
  -3 -10  -9 145.461 206.686   3
  -3  10 -10 9175.48 991.707   2
  -3 -10 -10 9214.25 974.845   2
  -3 -10 -11 993.289 361.587   2
  -3  10 -11 604.486 338.087   2
   3 -11 -11 2189.96 316.213   1
  -3 -11  11 1988.43 378.831   3
  -3 -11  10 9466.54 888.914   3
   3 -11 -10 9799.59 680.350   1
   3 -11  -9 167.766 143.248   1
  -3 -11   9 89.3590 196.661   3
  -3 -11   8 554.235 288.203   3
   3 -11  -8 460.552 191.855   1
  -3 -11   7 6689.01 788.108   3
   3 -11  -7 6896.61 619.575   1
  -3  11   7 9062.42 720.907   2
  -3 -11   7 7379.47 637.672   2
  -3  11   6 3115.41 371.129   2
  -3 -11   6 2236.73 324.718   2
  -3 -11   6 2507.10 516.878   3
   3 -11  -6 1862.49 343.084   1
  -3  11   5 4215.72 386.081   2
  -3 -11   5 3788.27 365.572   2
  -3 -11   5 4187.93 616.100   3
   3 -11  -5 3437.32 460.531   1
   3 -11  -5 4457.78 513.702   3
  -3 -11   4 1149.28 192.613   2
  -3 -11   4 639.920 285.340   3
   3 -11  -4 1197.06 292.149   3
  -3 -11   3 1323.28 191.422   2
  -3 -11   3 1631.88 378.097   3
   3 -11  -3 1389.87 358.429   3
  -3 -11   2 3407.03 273.122   2
  -3 -11   2 3659.89 515.186   3
   3 -11  -2 3102.23 476.892   3
  -3 -11   1 535.200 252.876   3
   3 -11  -1 1259.56 347.692   3
  -3 -11   0 17518.9 1080.01   3
   3 -11   0 16491.1 1076.04   3
  -3 -11  -1 12170.2 898.148   3
   3 -11   1 12356.9 928.466   3
  -3 -11  -2 11536.8 884.699   3
   3 -11   2 12352.9 900.991   3
   3 -11   3 5126.47 574.326   3
  -3 -11  -3 5295.48 603.878   3
   3 -11   3 5174.80 565.539   1
  -3 -11  -4 42883.3 1805.11   3
   3 -11   4 44926.5 1685.27   3
   3 -11   4 42053.9 1592.71   1
  -3 -11  -5 695.638 303.944   3
  -3  11  -5 476.050 225.958   2
   3 -11   5 424.135 208.910   1
  -3 -11  -6 5274.17 591.213   2
  -3  11  -6 5486.65 610.136   2
  -3 -11  -6 5855.70 690.694   3
   3 -11   6 5745.59 527.525   1
  -3 -11  -7 13160.6 1047.22   3
   3 -11   7 14609.7 815.880   1
  -3 -11  -7 14756.5 1082.30   2
  -3  11  -7 12456.0 1035.18   2
  -3 -11  -8 4173.86 618.827   2
  -3  11  -8 5391.12 730.549   2
  -3 -11  -8 4295.17 610.005   3
   3 -11   8 4723.30 459.930   1
  -3 -11  -9 8015.10 871.694   2
  -3 -11  -9 6728.95 735.826   3
   3 -11   9 6768.48 538.274   1
  -3  11  -9 6557.60 815.281   2
  -3 -11 -10 258.209 198.071   2
  -3  11 -10-84.9598 214.989   2
  -3 -11 -11 435.230 253.271   2
  -3  11 -11 292.426 206.358   2
   3 -12 -11 719.350 192.519   1
   3 -12 -10 54.1232 139.066   1
  -3 -12  10-15.6484 212.691   3
  -3 -12   9 1701.91 421.423   3
   3 -12  -9 1380.37 299.574   1
  -3 -12   8-61.6497 247.146   3
   3 -12  -8-12.6979 160.967   1
  -3 -12   7 5697.03 765.031   3
   3 -12  -7 5389.70 583.161   1
  -3  12   6-157.526 149.514   2
  -3 -12   6 106.582 237.009   3
   3 -12  -6-75.6047 192.686   1
   3 -12  -6 46.6420 152.031   3
  -3  12   5 32024.2 1156.80   2
  -3 -12   5 30214.0 1122.50   2
  -3 -12   5 34693.0 1840.58   3
   3 -12  -5 32206.5 1503.19   3
  -3 -12   4 857.652 174.757   2
  -3 -12   4 1093.36 333.781   3
   3 -12  -4 1046.97 299.733   3
  -3 -12   3 5601.65 376.714   2
   3 -12  -3 5936.31 677.153   3
  -3 -12   2 3599.04 276.419   2
  -3 -12   2 3094.26 526.464   3
   3 -12  -2 3336.31 522.070   3
  -3 -12   1 11727.7 470.304   2
  -3 -12   1 12540.6 1001.53   3
   3 -12  -1 10701.2 929.851   3
  -3 -12   0 648.225 259.113   3
   3 -12   0 703.657 305.511   3
  -3 -12  -1 979.765 314.413   3
   3 -12   1 1073.76 333.946   3
  -3 -12  -2 93.2604 215.266   3
   3 -12   2-41.1320 181.741   3
  -3 -12  -3 4921.83 654.187   3
   3 -12   3 5035.54 604.146   3
  -3 -12  -4 2129.67 469.741   3
   3 -12   4 1557.58 326.709   1
   3 -12   4 1884.35 366.363   3
  -3 -12  -5 80.0682 153.413   2
  -3  12  -5-207.129 160.331   2
  -3 -12  -5 190.058 213.052   3
   3 -12   5 18.4976 168.092   3
   3 -12   5 71.5932 171.167   1
  -3  12  -6 5056.84 620.909   2
  -3 -12  -6 5364.74 720.492   3
   3 -12   6 4992.80 519.336   1
  -3 -12  -6 5987.89 646.325   2
  -3 -12  -7 2842.65 491.469   2
  -3  12  -7 3490.72 560.713   2
  -3 -12  -7 3345.46 547.373   3
   3 -12   7 3212.69 410.741   1
   3 -12   8 1879.09 320.447   1
  -3 -12  -8 2273.30 454.146   2
  -3  12  -8 1187.44 348.397   2
  -3 -12  -8 1958.71 433.770   3
  -3 -12  -9 7244.15 792.047   2
  -3  12  -9 6946.27 790.363   2
  -3 -12  -9 7794.93 818.492   3
   3 -12   9 6184.83 534.599   1
   3 -13 -10 393.956 206.914   1
  -3 -13  10-389.266 298.602   3
  -3 -13   9 781.444 309.350   3
   3 -13  -9 294.171 200.425   1
  -3 -13   8-340.667 284.644   3
   3 -13  -8-23.4633 184.373   1
  -3 -13   7 14921.3 1242.00   3
   3 -13  -7 15596.9 1036.96   1
   3 -13  -6 49.7561 194.303   1
  -3 -13   6-319.805 342.677   3
   3 -13  -6 229.146 203.713   3
  -3 -13   5 1296.46 398.009   3
   3 -13  -5 1735.16 363.983   3
  -3 -13   4 1022.11 361.151   3
   3 -13  -4 370.541 250.121   3
  -3 -13   3 3991.75 631.019   3
   3 -13  -3 2604.36 487.747   3
  -3 -13   2 104.418 201.933   3
   3 -13  -2 230.933 198.134   3
  -3 -13   1 6696.84 803.021   3
   3 -13  -1 6066.65 763.824   3
  -3 -13   0-288.773 286.023   3
   3 -13   0 147.661 198.493   3
  -3 -13  -1 33852.5 1811.98   3
   3 -13   1 32689.2 1792.21   3
  -3 -13  -2 316.946 279.068   3
   3 -13   2 363.166 245.117   3
  -3 -13  -3-184.480 293.780   3
   3 -13   3-127.648 220.794   3
  -3 -13  -4 162.553 129.326   2
  -3 -13  -4-214.947 244.545   3
   3 -13   4 46.2544 186.056   3
  -3  13  -4 134.662 146.852   2
  -3  13  -5 4609.13 546.580   2
  -3 -13  -5 3898.50 474.399   2
  -3 -13  -5 3155.53 578.065   3
   3 -13   5 4011.07 525.695   3
   3 -13   5 3708.16 503.877   1
  -3 -13  -6 399.650 216.273   2
  -3  13  -6 492.720 246.264   2
  -3 -13  -6 597.559 271.017   3
   3 -13   6 596.307 219.011   1
  -3 -13  -7 2941.04 534.106   3
   3 -13   7 2886.78 406.899   1
   3 -13   8-120.454 149.225   1
  -3 -13  -8 200.508 223.225   3
  -3 -13  -9 1021.19 312.290   3
   3 -14 -10 1159.31 290.303   1
  -3 -14  10 852.276 303.694   3
  -3 -14   9-180.016 300.129   3
   3 -14  -9 413.103 234.722   1
  -3 -14   8 899.558 378.637   3
   3 -14  -8 367.638 227.751   1
   3 -14  -7 4370.42 596.693   1
  -3 -14   7 3863.71 644.967   3
   3 -14  -7 4004.48 552.996   3
  -3 -14   6-167.236 217.933   3
   3 -14  -6 208.783 211.941   3
  -3 -14   5 23458.6 1595.13   3
   3 -14  -5 22960.4 1401.78   3
  -3 -14   4 756.261 360.808   3
   3 -14  -4 526.562 311.946   3
  -3 -14   3-211.767 358.646   3
   3 -14  -3 35.0054 232.038   3
  -3 -14   2 955.738 335.369   3
   3 -14  -2 1795.85 477.177   3
  -3 -14   1 15407.8 1275.18   3
   3 -14  -1 14620.4 1281.68   3
  -3 -14   0 3283.94 590.108   3
   3 -14   0 2227.65 538.477   3
  -3 -14  -1 2957.83 569.162   3
   3 -14   1 3044.38 591.583   3
  -3 -14  -2 4.83759 251.755   3
   3 -14   2 62.7347 213.559   3
  -3 -14  -3 1060.79 389.008   3
   3 -14   3 1084.89 350.768   3
  -3 -14  -4-365.830 349.688   3
   3 -14   4 138.998 222.168   3
   3 -14   5 446.405 246.526   1
  -3 -14  -5 173.164 272.308   3
   3 -14   5 435.430 211.827   3
  -3 -14  -6 4219.07 641.681   3
   3 -14   6 3518.80 486.993   1
  -3 -14  -7 2992.26 557.514   3
   3 -14   7 3434.51 457.757   1
  -3 -14  -8 732.164 314.657   3
   3 -14   8 1267.64 322.368   1
  -3 -15   8 6.50596 274.037   3
   3 -15  -8 717.349 284.811   1
   3 -15  -7 2688.75 525.157   1
  -3 -15   7 2805.03 540.755   3
   3 -15  -7 2702.71 470.484   3
  -3 -15   6 3068.47 609.471   3
   3 -15  -6 481.081 269.246   3
  -3 -15   5 910.256 356.084   3
   3 -15  -5 1543.08 402.464   3
  -3 -15   4 1270.29 451.487   3
   3 -15  -4 1445.37 429.548   3
  -3 -15   3 806.596 340.309   3
   3 -15  -3 417.851 304.596   3
  -3 -15   2-69.7109 278.851   3
   3 -15  -2 1013.09 445.949   3
  -3 -15   1-48.2991 276.565   3
   3 -15  -1-240.234 364.895   3
  -3 -15   0 8260.65 966.234   3
   3 -15   0 7105.82 946.670   3
  -3 -15  -1 6160.85 845.414   3
   3 -15   1 6350.66 851.768   3
  -3 -15  -2 6141.15 843.438   3
   3 -15   2 4870.18 719.584   3
  -3 -15  -3 155.191 230.746   3
   3 -15   3 717.798 323.691   3
  -3 -15  -4 13375.4 1185.95   3
   3 -15   4 15887.0 1176.34   3
   3 -15   5 1178.15 347.222   1
  -3 -15  -5 1144.90 414.624   3
   3 -15   5 1974.19 422.655   3
  -3 -15  -6 3522.42 652.804   3
   3 -15   6 3370.94 503.274   1
  -3 -15  -7 1806.71 465.008   3
   3 -15   7 931.989 270.787   1
   3 -16  -4-183.911 310.895   3
   3 -16  -3 7207.28 961.098   3
   3 -16  -2 5138.57 850.338   3
   3 -16  -1 218.629 344.703   3
   4   0 -12 1560.78 215.940   1
   4   0 -11 275.219 115.561   1
   4   0 -10 34013.6 1058.07   1
  -4   0  10 30647.8 987.411   1
   4   0  -9 187.356 105.631   1
  -4   0   9 13.2750 88.4568   1
   4   0  -8 42410.6 1203.33   1
  -4   0   8 40368.1 1157.33   1
  -4   0   7 138.603 102.719   1
   4   0  -7-79.2855 128.344   1
  -4   0   6 198839. 3743.94   2
  -4   0   6 201524. 3588.23   1
   4   0  -6 196473. 3592.83   1
   4   0  -5 33.5655 83.5474   1
  -4   0   5 17.4404 93.8979   1
  -4   0   5-21.4640 96.0759   2
   4   0  -4 44114.7 1214.30   1
  -4   0   4 46564.4 1233.26   1
  -4   0   3-15.7547 90.6942   1
   4   0  -3-3.44744 95.1410   1
   4   0  -2 30531.4 951.836   1
   4   0  -1 834.094 160.921   1
   4   0   0 20185.3 741.481   1
  -4   0  -1 199.287 87.5193   1
   4   0   1 293.731 101.763   1
   4   0   2 32835.2 1000.78   1
  -4   0  -2 35429.5 1044.25   1
   4   0   3 1324.58 197.191   1
  -4   0  -3 1118.18 184.448   1
   4   0   4 15448.5 648.698   1
  -4   0  -4 15514.6 659.805   1
  -4   0  -5 1041.26 174.842   1
   4   0   5 1062.67 171.712   1
   4   0   6 4331.49 333.617   1
  -4   0  -6 3721.94 323.753   1
   4   0   7 14.3760 94.6978   1
  -4   0  -7-113.393 130.560   1
   4   0   8 27479.0 893.534   1
  -4   0  -8 25984.9 915.407   1
   4   0   9 248.178 92.4509   1
  -4   0  -9 461.863 139.935   3
  -4   0 -10 25260.2 1703.84   2
   4  -1 -12 31082.9 993.212   1
   4   1 -12 30735.0 996.966   1
   4  -1 -11 13641.9 634.862   1
   4   1 -11 13026.9 627.337   1
  -4  -1  10 2588.70 263.027   1
   4  -1 -10 3499.37 322.636   1
  -4   1  10 2818.64 270.410   3
   4   1 -10 3500.97 318.743   1
  -4  -1   9 1473.09 200.073   1
   4  -1  -9 1575.89 220.224   1
  -4   1   9 1746.51 222.336   1
   4   1  -9 1561.92 217.354   1
   4  -1  -8 5425.83 394.196   1
   4   1  -8 5953.08 409.985   1
  -4   1   8 6435.34 413.526   1
  -4  -1   8 5814.18 388.537   1
  -4   1   7 2556.96 261.740   1
  -4  -1   7 2396.44 251.057   1
   4   1  -7 2319.62 260.742   1
   4  -1  -7 2308.29 258.638   1
  -4   1   6 239.751 106.898   1
  -4  -1   6 367.983 142.510   1
   4   1  -6 168.188 105.007   1
  -4   1   6 372.887 174.505   2
  -4  -1   6 337.147 155.393   2
   4  -1  -6 14.6599 112.181   1
   4  -1  -5 7358.40 445.122   1
  -4   1   5 7740.23 476.215   2
  -4  -1   5 7739.57 475.515   2
   4   1  -5 8048.66 463.585   1
  -4   1   5 8042.44 461.843   1
  -4  -1   5 8072.61 458.474   1
   4  -1  -4 50401.6 1323.87   1
   4   1  -4 49963.1 1323.03   1
  -4   1   4 52345.2 1334.86   1
  -4  -1   4 51238.6 1326.26   1
   4  -1  -3 14298.8 623.547   1
   4   1  -3 13139.6 602.634   1
  -4   1   3 14536.6 619.022   1
  -4  -1   3 14361.4 619.485   1
   4  -1  -2 9662.37 504.754   1
   4   1  -2 10108.7 517.790   1
  -4   1   2 10594.5 525.924   1
  -4  -1   2 11647.8 551.145   1
   4  -1  -1 43395.8 1187.34   1
   4   1  -1 44509.2 1200.30   1
   4  -1   0 80474.9 1791.67   1
   4   1   0 81907.8 1803.79   1
   4  -1   1 40903.7 1147.75   1
   4   1   1 43436.1 1175.96   1
  -4   1  -1 43087.5 1185.12   1
  -4  -1  -1 44131.5 1205.63   1
  -4   1  -2 108.801 81.7907   1
  -4  -1  -2 74.1230 88.4302   1
   4  -1   2-24.4278 101.916   1
   4  -1   3 41638.0 1156.59   1
   4   1   3 41317.1 1154.58   1
  -4   1  -3 42246.6 1181.27   1
  -4  -1  -3 42059.9 1183.25   1
  -4   1  -4 669.394 148.352   1
  -4  -1  -4 937.781 171.778   1
   4   1   4 657.928 148.331   1
   4  -1   4 627.425 153.414   1
   4  -1   5 20208.9 756.726   1
   4   1   5 20213.1 759.808   1
  -4   1  -5 21076.5 795.717   1
  -4  -1  -5 20700.2 786.594   1
   4  -1   6 747.368 148.071   1
  -4  -1  -6 451.922 122.194   1
   4   1   6 728.785 148.683   1
  -4   1  -6 487.732 127.945   1
   4   1   7 2529.89 256.385   1
  -4  -1  -7 2346.93 259.346   1
   4  -1   7 2461.75 249.282   1
  -4   1  -7 2378.00 280.518   3
  -4   1  -7 2230.23 255.748   1
   4  -1   8 11000.7 534.088   1
  -4   1  -8 10463.8 597.931   3
   4   1   8 10893.2 545.228   1
  -4  -1  -8 10040.7 539.976   1
  -4   1  -9 136.897 98.5825   3
   4  -1   9 172.789 81.0500   1
   4   1   9 288.241 108.212   1
  -4  -1 -10 3660.03 674.982   2
  -4   1 -10 4828.17 770.455   2
   4   2 -12 3425.99 312.304   1
   4  -2 -12 3909.51 336.761   1
   4   2 -11 1886.80 238.329   1
  -4  -2  11 1983.22 251.176   3
   4  -2 -11 2102.42 252.685   1
  -4  -2  10 1172.63 173.489   1
   4  -2 -10 1377.83 204.286   1
   4   2 -10 1087.31 186.336   1
  -4   2  10 1080.38 167.237   3
   4  -2  -9 4083.17 348.446   1
  -4   2   9 3986.40 321.003   3
   4   2  -9 3662.64 335.996   1
  -4  -2   9 3920.16 322.802   1
  -4   2   8 3173.57 289.716   3
   4   2  -8 3369.58 314.709   1
  -4  -2   8 3167.06 294.574   1
   4  -2  -8 2885.83 293.837   1
  -4  -2   7 1502.06 209.390   1
   4  -2  -7 1420.63 215.046   1
   4   2  -7 1356.27 205.052   1
  -4   2   7 1352.91 203.828   1
   4  -2  -6 13973.8 638.502   1
  -4   2   6 15410.1 716.762   2
  -4  -2   6 15147.1 718.789   2
   4   2  -6 13958.2 638.265   1
  -4   2   6 14701.9 647.189   1
  -4  -2   6 15382.7 655.507   1
  -4  -2   5 1432.77 202.008   1
   4   2  -5 1191.81 190.204   1
  -4   2   5 1325.34 202.834   2
  -4  -2   5 1495.89 215.753   2
   4  -2  -5 1410.52 201.289   1
  -4   2   5 1322.86 197.984   1
   4  -2  -4 4441.65 340.888   1
   4   2  -4 4168.58 335.436   1
  -4   2   4 4573.57 352.487   1
  -4  -2   4 4522.61 343.621   1
   4  -2  -3 15997.8 673.982   1
   4   2  -3 17020.6 692.078   1
  -4   2   3 16921.2 685.163   1
  -4  -2   3 17236.7 697.274   1
   4   2  -2 3560.18 306.011   1
  -4   2   2 3994.61 320.458   1
  -4  -2   2 4091.86 327.229   1
   4  -2  -2 3539.86 307.254   1
   4   2  -1 16791.8 681.901   1
   4  -2  -1 16931.6 686.752   1
   4  -2   0 8558.82 473.065   1
   4   2   0 8292.66 469.694   1
   4  -2   1 6194.83 401.105   1
   4   2   1 6143.77 398.521   1
  -4   2  -1 6192.13 402.225   1
  -4  -2  -1 6170.30 410.383   1
   4  -2   2 50816.9 1335.23   1
   4   2   2 53295.0 1363.10   1
  -4   2  -2 53849.1 1384.36   1
  -4  -2  -2 52989.0 1387.04   1
   4  -2   3 4292.32 336.988   1
   4   2   3 4888.31 357.293   1
  -4   2  -3 3864.41 327.025   1
  -4  -2  -3 3908.10 326.448   1
   4  -2   4 4045.91 326.875   1
   4   2   4 3324.84 303.028   1
  -4   2  -4 3743.91 324.552   1
  -4  -2  -4 3527.06 315.656   1
   4  -2   5 69651.0 1652.46   1
   4   2   5 68819.8 1659.55   1
  -4   2  -5 74512.1 1791.38   3
  -4   2  -5 71432.9 1715.87   1
  -4  -2  -5 72638.6 1709.39   1
   4  -2   6 10977.9 547.758   1
  -4   2  -6 12647.4 648.585   3
   4   2   6 11641.6 573.990   1
  -4  -2  -6 11556.9 580.755   1
   4  -2   7 31283.0 975.390   1
  -4   2  -7 29186.8 1063.89   3
   4   2   7 32955.7 1024.33   1
  -4  -2  -7 30605.0 1000.70   1
   4   2   8 859.878 159.888   1
  -4  -2  -8 510.208 131.841   1
   4  -2   8 738.675 145.991   1
  -4   2  -8 608.798 168.334   3
   4  -2   9 22397.1 782.504   1
   4   2   9 23226.8 855.017   1
  -4  -2 -10 1038.67 425.200   2
  -4   2 -10 2889.62 628.454   2
   4  -3 -12-53.6364 108.535   1
   4  -3 -11 2773.59 295.701   1
   4   3 -11 2570.33 292.709   1
  -4  -3  11 2090.43 272.157   3
   4  -3 -10 3345.79 319.201   1
  -4  -3  10 3981.92 362.052   3
   4   3 -10 2929.91 300.445   1
  -4   3  10 3123.57 301.212   3
  -4  -3  10 2782.01 277.298   1
   4  -3  -9 5917.39 421.916   1
  -4   3   9 5420.31 391.000   3
   4   3  -9 5097.15 394.961   1
  -4  -3   9 4835.13 367.971   1
  -4  -3   8 67.6989 90.2670   1
   4   3  -8 106.590 94.9302   1
   4  -3  -8 94.5403 100.585   1
  -4   3   8 33.2794 87.4098   3
   4  -3  -7 15309.2 686.043   1
  -4   3   7 14935.8 663.345   3
   4   3  -7 14618.9 682.306   1
  -4  -3   7 15935.0 685.439   1
   4   3  -6 1247.50 205.088   1
  -4  -3   6 1194.48 186.640   1
  -4   3   6 1381.43 209.360   2
  -4  -3   6 1710.14 250.415   2
   4  -3  -6 1600.46 218.471   1
  -4   3   6 1468.65 207.138   3
  -4   3   5 2629.40 276.655   2
  -4  -3   5 3038.01 303.013   2
  -4   3   5 2914.18 279.494   3
   4  -3  -5 2833.77 285.101   1
  -4  -3   5 2522.71 261.318   1
  -4   3   5 2616.70 265.144   1
   4   3  -5 2361.64 264.477   1
   4   3  -4 5212.79 384.797   1
  -4   3   4 5165.32 380.237   1
   4  -3  -4 5278.98 388.300   1
  -4  -3   4 5924.28 408.139   1
  -4  -3   3 5195.00 377.934   1
   4   3  -3 5187.56 376.746   1
  -4   3   3 5076.61 373.490   1
   4  -3  -3 5005.73 371.960   1
  -4  -3   2 17514.5 723.598   1
   4   3  -2 18009.6 727.496   1
  -4   3   2 18232.8 732.553   1
   4  -3  -2 18501.8 737.970   1
   4   3  -1 33998.4 1049.97   1
   4  -3  -1 35151.9 1069.05   1
   4  -3   0 1442.24 210.497   1
  -4  -3   0 1580.20 215.469   1
   4   3   0 1304.97 198.689   1
  -4   3   0 1714.59 221.363   1
  -4  -3  -1 25478.2 899.248   1
   4   3   1 23572.8 843.195   1
  -4   3  -1 24084.3 863.975   1
   4  -3   1 24349.4 857.563   1
   4   3   2 18625.6 741.842   1
  -4   3  -2 19395.4 782.038   3
  -4   3  -2 18946.6 756.289   1
   4  -3   2 19222.3 752.592   1
  -4  -3  -2 19662.1 777.512   1
  -4   3  -3 54981.5 1472.22   3
   4   3   3 52436.8 1387.92   1
  -4   3  -3 54913.4 1434.42   1
  -4  -3  -3 53717.1 1434.37   1
   4  -3   3 53197.6 1392.25   1
   4  -3   4 9252.54 506.530   1
  -4   3  -4 9977.19 565.891   3
   4   3   4 9182.41 511.471   1
  -4  -3  -4 9592.90 537.486   1
   4  -3   5 12438.0 594.413   1
  -4   3  -5 12093.5 643.701   3
   4   3   5 12188.9 599.685   1
  -4  -3  -5 12416.7 613.663   1
   4  -3   6 2772.64 289.179   1
   4   3   6 2502.96 265.892   1
  -4   3  -6 2388.34 288.892   3
  -4  -3  -6 2884.56 291.212   1
   4   3   7 1664.45 231.884   1
  -4  -3  -7 1470.21 223.802   1
  -4   3  -7 1497.17 232.566   3
   4  -3   7 1628.64 224.629   1
   4  -3   8 23024.5 817.564   1
  -4   3  -8 21915.6 940.772   3
   4   3   8 24263.4 895.840   1
   4  -3   9 1604.74 210.657   1
  -4  -3 -10 1824.19 505.863   2
  -4   3 -10 897.108 397.551   2
   4  -4 -12 3334.85 315.165   1
   4  -4 -11 7535.19 491.879   1
  -4  -4  11 7656.19 540.880   3
   4  -4 -10 5247.93 404.619   1
  -4  -4  10 4497.53 420.088   3
  -4   4  10 4374.47 368.365   3
   4   4 -10 4838.46 409.203   1
  -4  -4  10 4182.74 347.917   1
   4  -4  -9 24426.5 909.838   1
  -4  -4   9 23941.9 949.458   3
  -4   4   9 22880.2 882.650   3
   4   4  -9 21695.2 891.873   1
  -4  -4   9 21199.9 833.719   1
  -4   4   8 41670.4 1242.91   3
   4   4  -8 41789.1 1278.40   1
  -4  -4   8 40913.3 1226.28   1
   4  -4  -8 42491.9 1260.70   1
   4  -4  -7 2081.17 263.983   1
  -4  -4   7 2234.82 271.518   1
  -4   4   7 2177.56 260.111   3
   4   4  -7 1878.73 257.511   1
  -4  -4   6 11655.6 596.461   1
  -4   4   6 10757.8 597.764   2
  -4  -4   6 11436.9 626.106   2
  -4   4   6 12100.3 604.345   3
   4   4  -6 10153.0 571.563   1
   4  -4  -6 10542.3 577.771   1
   4   4  -5 125.080 109.980   1
   4  -4  -5 177.124 134.805   1
  -4   4   5 23.0168 92.1227   2
  -4  -4   5 136.626 103.002   2
  -4  -4   5 28.1689 88.0490   1
  -4   4   5 18.9516 81.4262   3
  -4  -4   4 53115.5 1410.62   1
  -4   4   4 51337.3 1386.02   3
   4   4  -4 48896.2 1372.60   1
   4  -4  -4 51189.1 1398.51   1
  -4  -4   3 54961.6 1450.20   1
  -4   4   3 53362.4 1417.79   3
   4   4  -3 51335.7 1401.73   1
   4  -4  -3 51909.2 1414.71   1
  -4  -4   2 11965.7 602.841   1
  -4   4   2 11342.6 581.773   3
   4   4  -2 11447.6 583.454   1
   4  -4  -2 11274.4 582.000   1
  -4  -4   1 33686.4 1083.45   1
  -4   4   1 34127.7 1085.09   3
   4   4  -1 32872.3 1050.49   1
   4  -4  -1 33649.4 1065.08   1
   4   4   0 1482.32 218.990   1
   4  -4   0 1167.51 199.673   1
  -4  -4   0 1603.10 225.619   1
  -4   4   0 1495.40 219.960   3
   4   4   1 2246.97 259.098   1
   4  -4   1 2291.02 264.359   1
  -4   4  -1 3053.94 311.420   3
  -4  -4  -1 2676.40 284.150   1
  -4  -4  -2 7467.31 480.078   1
  -4   4  -2 7576.33 491.628   3
   4   4   2 7157.50 453.950   1
   4  -4   2 6936.27 449.208   1
  -4  -4  -3 12551.2 628.444   1
  -4   4  -3 12678.6 647.329   3
   4   4   3 11988.5 604.708   1
   4  -4   3 11094.7 577.125   1
   4  -4   4 1767.36 236.846   1
  -4  -4  -4 2013.19 253.756   1
   4   4   4 1462.45 226.923   1
  -4   4  -4 1533.53 237.133   3
  -4   4  -5 17687.2 808.616   3
   4   4   5 16568.7 736.157   1
   4  -4   5 17383.3 731.951   1
  -4  -4  -5 17970.2 766.765   1
   4  -4   6 10766.6 566.009   1
  -4   4  -6 11398.0 652.242   3
   4   4   6 10394.0 581.727   1
  -4  -4  -6 10871.1 586.889   1
   4  -4   7 2784.21 289.698   1
  -4  -4  -7 2725.38 290.630   1
   4   4   7 3160.37 328.137   1
  -4   4  -7 2882.61 337.842   3
  -4  -4  -8 966.168 188.763   1
  -4   4  -8 913.207 211.927   3
   4  -4   8 946.272 177.507   1
   4  -4   9 697.295 144.244   1
  -4  -4 -10 4331.25 726.772   2
  -4   4 -10 4205.52 743.667   2
  -4  -4 -10 3747.58 376.848   3
   4  -5 -12 2305.80 280.682   1
  -4  -5  11 901.070 204.785   3
   4  -5 -11 975.103 203.036   1
   4  -5 -10 8640.49 534.715   1
  -4   5  10 7855.92 527.736   3
  -4  -5  10 8462.47 593.181   3
  -4  -5  10 7605.41 490.533   1
  -4  -5   9 35696.5 1252.03   3
  -4   5   9 33151.5 1143.06   3
   4   5  -9 34837.7 1204.57   1
  -4  -5   9 32620.4 1101.43   1
   4  -5  -9 35423.2 1159.87   1
   4   5  -8 1688.80 261.584   1
   4  -5  -8 1399.74 242.218   1
  -4  -5   8 1818.82 270.568   3
  -4  -5   8 1936.22 255.201   1
  -4   5   8 1264.66 210.906   3
  -4  -5   7 52467.0 1451.79   1
  -4   5   7 52960.0 1481.98   3
   4   5  -7 51146.1 1488.86   1
   4  -5  -7 51196.9 1463.55   1
   4   5  -6 1307.48 216.727   1
   4  -5  -6 1314.28 219.741   1
  -4   5   6 1037.30 198.954   2
  -4  -5   6 1404.89 226.971   2
  -4  -5   6 1515.53 225.641   1
  -4   5   6 1405.35 221.570   3
  -4  -5   5 25318.7 939.987   1
  -4   5   5 25947.3 922.400   2
  -4  -5   5 25846.1 942.656   2
  -4   5   5 26823.9 964.527   3
   4   5  -5 24431.7 942.891   1
   4  -5  -5 25046.7 946.262   1
  -4  -5   4 12044.3 628.444   1
  -4   5   4 11705.8 612.705   3
   4   5  -4 10976.3 599.560   1
   4  -5  -4 11092.3 608.941   1
  -4  -5   3 90418.2 2064.37   1
  -4   5   3 89058.3 2046.63   3
   4   5  -3 85567.5 2014.94   1
   4  -5  -3 85890.8 2038.77   1
  -4  -5   2 36854.3 1169.42   1
  -4   5   2 37456.1 1161.03   3
   4   5  -2 33908.6 1114.41   1
   4  -5  -2 33288.3 1120.61   1
   4  -5  -1 792.579 187.664   1
   4   5  -1 686.203 175.880   1
  -4   5   1 1024.09 193.311   3
  -4  -5   1 954.833 185.598   1
   4  -5   0 2073.77 265.216   1
   4   5   0 1874.85 254.518   1
  -4  -5   0 2475.30 285.164   1
  -4  -5  -1 15152.8 714.946   1
  -4   5  -1 14964.3 712.489   3
   4   5   1 14026.5 673.280   1
   4  -5   1 13740.2 667.720   1
  -4  -5  -2 4063.84 365.226   1
  -4   5  -2 4236.29 374.758   3
   4   5   2 3177.69 322.333   1
   4  -5   2 3910.18 350.351   1
   4   5   3 214.519 115.830   1
   4  -5   3 274.433 123.069   1
  -4  -5  -3 267.722 133.008   1
  -4   5  -3 347.731 146.331   3
   4  -5   4 2831.11 300.603   1
   4   5   4 2640.51 292.065   1
  -4  -5  -4 3022.45 314.719   1
  -4   5  -4 2748.97 319.291   3
   4   5   5 63.9226 108.991   1
   4  -5   5 415.075 137.390   1
  -4  -5  -5 169.378 111.753   1
  -4   5  -5 209.372 128.582   3
  -4  -5  -6 17752.7 787.397   1
   4   5   6 18441.4 825.522   1
   4  -5   6 18917.4 790.327   1
  -4  -5  -7 15021.5 718.711   1
   4  -5   7 17234.2 739.617   1
   4  -5   8 3637.41 329.406   1
  -4  -5  -8 3263.37 327.023   1
  -4  -5  -9 617.874 185.447   3
   4  -5   9 496.374 137.428   1
  -4  -5 -10 2145.12 533.466   2
  -4   5 -10 1962.70 516.866   2
  -4  -5 -10 1721.97 277.744   3
   4  -6 -12 5159.27 425.857   1
  -4  -6  11 389.278 186.002   3
   4  -6 -11 252.637 136.218   1
  -4  -6  10 2401.49 348.371   3
   4  -6 -10 2055.54 285.494   1
  -4  -6   9 7942.77 524.056   1
  -4  -6   9 8825.08 629.320   3
  -4   6   9 8028.25 560.093   3
   4  -6  -9 8579.70 556.708   1
   4  -6  -8 1639.98 260.295   1
  -4  -6   8 1848.30 286.824   3
  -4  -6   8 982.951 191.926   1
  -4   6   8 1490.51 250.749   3
  -4  -6   7 5410.19 434.271   1
  -4  -6   7 6624.14 520.393   3
  -4   6   7 6736.26 490.721   3
   4   6  -7 5300.26 452.598   1
   4  -6  -7 5951.03 464.074   1
  -4  -6   6 1224.77 235.573   3
   4  -6  -6 1350.58 235.669   1
   4   6  -6 574.246 159.393   1
  -4   6   6 1042.14 196.402   2
  -4  -6   6 329.078 139.211   2
  -4   6   6 809.051 184.370   3
  -4  -6   6 1004.07 207.578   1
  -4  -6   5 3514.93 352.797   1
  -4   6   5 4020.39 348.180   2
  -4  -6   5 3793.22 347.672   2
  -4   6   5 3500.81 349.011   3
   4   6  -5 3927.45 384.292   1
   4  -6  -5 4141.65 388.372   1
   4  -6  -4 2116.82 286.370   1
   4   6  -4 2309.11 289.113   1
  -4   6   4 2247.17 282.620   3
  -4  -6   4 2414.47 296.366   1
  -4  -6   3 4811.02 410.094   1
  -4   6   3 4615.54 400.252   3
   4   6  -3 4796.65 407.377   1
   4  -6  -3 5209.83 429.110   1
  -4  -6   2 15611.8 745.343   1
  -4   6   2 15278.1 734.722   3
   4   6  -2 14361.7 711.628   1
   4  -6  -2 14263.4 724.592   1
  -4  -6   1 9463.22 580.785   1
  -4   6   1 9457.37 574.028   3
   4   6  -1 9304.86 565.726   1
   4  -6  -1 8559.07 555.105   1
  -4  -6   0 64903.2 1723.54   1
  -4   6   0 65496.1 1719.81   3
   4   6   0 60616.8 1650.41   1
   4  -6   0 61375.3 1675.18   1
  -4  -6  -1 24.6488 97.0895   1
   4  -6   1 51.8655 97.4515   1
   4   6   1-57.2100 124.382   1
  -4   6  -1 258.325 129.929   3
  -4  -6  -2 86226.9 2073.24   1
  -4   6  -2 84355.9 2084.16   3
   4   6   2 79866.0 1993.56   1
   4  -6   2 83681.5 2006.84   1
  -4  -6  -3 16556.2 792.023   1
  -4   6  -3 17603.4 837.459   3
   4   6   3 15609.2 754.921   1
   4  -6   3 17264.6 773.593   1
  -4  -6  -4 38083.2 1252.04   1
   4   6   4 37652.4 1244.96   1
   4  -6   4 36684.9 1189.67   1
   4  -6   5 1602.47 244.024   1
   4   6   5 1759.69 268.251   1
  -4  -6  -5 1549.59 245.395   1
  -4  -6  -6 6292.43 472.321   1
   4  -6   6 7252.69 495.703   1
  -4  -6  -7 8734.50 598.233   3
   4  -6   7 8506.88 535.073   1
  -4  -6  -8 580.142 194.248   3
   4  -6   8 790.267 172.346   1
  -4  -6  -9 299.416 152.454   3
   4  -6   9 197.483 99.9097   1
  -4   6  -9-15.7672 296.072   2
  -4  -6 -10 5375.45 816.351   2
  -4   6 -10 3830.30 695.470   2
  -4  -7  11 4860.90 550.996   3
   4  -7 -11 4918.13 430.339   1
   4  -7 -10 3096.97 350.589   1
  -4  -7  10 2843.49 395.945   3
   4  -7  -9 2571.42 321.666   1
  -4  -7   9 1839.00 311.255   3
  -4   7   9 2155.87 321.545   3
   4  -7  -8 1317.93 237.456   1
  -4  -7   8 846.378 221.530   3
  -4   7   8 1099.66 234.658   3
  -4  -7   7 6397.26 547.118   3
  -4   7   7 6473.91 512.411   3
   4  -7  -7 6689.23 515.767   1
   4  -7  -6 791.410 193.657   1
  -4  -7   6 902.365 221.016   3
  -4   7   6 600.854 155.932   2
  -4  -7   6 805.968 179.646   2
  -4   7   6 977.735 204.127   3
  -4   7   5 16218.2 727.983   2
  -4  -7   5 16307.5 744.243   2
  -4  -7   5 18195.0 893.844   3
  -4   7   5 16349.7 806.685   3
   4  -7  -5 17266.4 845.915   1
   4   7  -5 16471.2 825.723   1
  -4   7   4 8962.39 499.904   2
  -4  -7   4 9694.28 636.623   3
  -4   7   4 8992.95 583.357   3
   4  -7  -4 9435.14 612.928   1
   4   7  -4 9324.90 604.682   1
   4  -7  -3 107.030 109.376   1
   4   7  -3-42.4799 136.313   1
  -4   7   3 205.624 119.922   3
  -4  -7   2 12540.8 703.919   1
  -4   7   2 12113.5 680.031   3
   4  -7  -2 12182.1 709.057   1
   4   7  -2 11656.5 671.195   1
  -4   7   1 23591.0 973.320   3
   4  -7  -1 22873.6 982.270   1
   4   7  -1 22329.3 951.937   1
   4  -7   0 1432.51 256.187   1
   4   7   0 1006.27 204.875   1
   4  -7   1 6870.51 514.553   1
   4   7   1 6509.31 500.723   1
   4  -7   2 1032.90 205.353   1
   4   7   2 1294.36 239.274   1
   4  -7   3 808.548 199.613   1
  -4  -7  -4 22856.0 988.165   3
   4  -7   4 21971.9 926.915   1
  -4  -7  -5 4520.76 443.973   3
   4  -7   5 3883.29 376.861   1
  -4  -7  -6 30620.8 1215.26   3
   4  -7   6 32955.4 1140.42   1
   4  -7   7 617.389 179.931   1
  -4  -7  -7 679.659 203.699   3
  -4  -7  -8 27552.0 1184.50   3
   4  -7   8 26714.3 1015.11   1
  -4  -7  -9 10586.0 741.465   3
  -4  -7  -9 12703.1 1140.43   2
  -4   7  -9 11615.5 1125.26   2
   4  -7   9 10812.3 604.051   1
  -4  -7 -10 6971.57 938.606   2
  -4   7 -10 8273.50 1034.53   2
  -4  -8  11 14184.8 1036.28   3
   4  -8 -11 13248.3 739.954   1
   4  -8 -10 326.760 163.491   1
  -4  -8  10 846.325 259.517   3
   4  -8  -9 122.598 113.421   1
  -4  -8   9-121.029 161.189   3
   4  -8  -8 280.274 177.990   1
  -4  -8   8 446.429 209.083   3
  -4  -8   7 10078.0 738.466   3
   4  -8  -7 10397.0 666.670   1
  -4   8   6 6820.44 499.673   2
  -4  -8   6 5634.43 463.191   2
  -4  -8   6 7126.91 593.727   3
   4  -8  -6 7135.79 556.751   1
  -4   8   5 19604.7 808.871   2
  -4  -8   5 18698.8 816.879   2
  -4  -8   5 19742.4 990.107   3
   4  -8  -5 18860.6 939.427   1
   4  -8  -4 1571.85 288.747   1
  -4  -8   4 1884.10 307.977   3
  -4   8   4 1765.76 231.557   2
  -4  -8   4 1447.48 212.963   2
  -4  -8   3 7732.72 593.234   3
   4  -8  -3 8332.49 614.214   1
   4  -8  -2 1005.94 235.287   1
  -4  -8   2 1056.27 242.188   3
  -4  -8   1 15072.8 816.467   3
   4  -8  -1 14881.5 825.560   1
  -4  -8   0 4399.29 443.547   3
   4  -8   0 4490.33 457.921   1
  -4  -8  -1 19135.2 925.273   3
   4  -8   1 18615.8 907.032   1
  -4  -8  -2 11049.7 699.405   3
   4  -8   2 10674.8 674.243   1
   4  -8   3 786.861 200.162   1
  -4  -8  -3 1005.94 244.164   3
   4  -8   4 2928.68 342.890   1
  -4  -8  -4 3873.18 430.706   3
  -4  -8  -5 3167.57 391.806   3
   4  -8   5 3662.13 385.167   1
   4  -8   6 1148.71 228.418   1
  -4  -8  -6 1346.34 284.439   3
  -4  -8  -7 5642.51 545.566   3
   4  -8   7 4684.92 421.662   1
   4  -8   8 1121.15 231.315   1
  -4  -8  -8 1165.33 275.793   3
  -4  -8  -9 1143.22 399.524   2
  -4   8  -9 1078.55 397.481   2
   4  -8   9 793.948 195.308   1
  -4  -8  -9 934.850 261.177   3
  -4  -8 -10 5478.91 828.005   2
  -4   8 -10 4332.30 787.008   2
  -4  -9  11 8057.71 823.309   3
   4  -9 -11 6982.19 554.057   1
   4  -9 -10 640.986 174.180   1
  -4  -9  10 599.621 285.805   3
  -4  -9   9 8027.38 754.948   3
   4  -9  -9 6167.95 536.636   1
   4  -9  -8 591.965 207.006   1
  -4  -9   8 845.224 266.965   3
  -4  -9   7 25805.7 1277.84   3
   4  -9  -7 24938.8 1123.42   1
   4  -9  -6 566.816 212.387   1
  -4   9   6 413.020 154.483   2
  -4  -9   6 282.963 149.392   2
  -4  -9   6 401.325 195.588   3
  -4   9   5 44508.0 1344.13   2
  -4  -9   5 44152.8 1373.80   2
  -4  -9   5 49334.9 1726.23   3
   4  -9  -5 46246.9 1621.55   1
  -4   9   4 4735.73 369.315   2
  -4  -9   4 4238.00 363.310   2
  -4  -9   4 4659.70 502.095   3
   4  -9  -4 4316.65 488.750   1
   4  -9  -3 899.452 252.003   1
  -4  -9   3 1004.48 269.042   3
   4  -9  -2 562.779 223.075   1
  -4  -9   2 888.079 257.901   3
  -4  -9   1 11485.5 759.494   3
   4  -9  -1 11575.9 772.359   1
  -4  -9   0 9844.37 701.125   3
   4  -9   0 10656.1 749.951   1
  -4  -9  -1 13568.1 830.625   3
   4  -9   1 14509.2 850.108   1
   4  -9   2 642.267 208.071   1
  -4  -9  -2 479.331 195.697   3
   4  -9   3 2012.48 317.397   1
  -4  -9  -3 2311.87 360.480   3
   4  -9   4 983.134 240.382   1
  -4  -9  -4 711.555 250.448   3
   4  -9   5 492.746 181.381   1
  -4  -9  -5 416.476 208.127   3
   4  -9   6 1694.63 278.835   1
  -4  -9  -6 1536.59 314.737   3
   4  -9   7 176.173 142.519   1
  -4  -9  -7 191.254 209.496   3
  -4   9  -8 1217.30 375.653   2
   4  -9   8 707.218 196.326   1
  -4  -9  -8 837.488 276.453   3
  -4  -9  -8 865.565 328.583   2
  -4  -9  -9 11180.3 867.938   3
   4  -9   9 9988.77 635.430   1
  -4  -9  -9 11958.0 1146.42   2
  -4   9  -9 11313.3 1144.10   2
  -4  -9 -10 1551.23 504.051   2
  -4   9 -10 3135.67 675.051   2
  -4 -10  11 6976.93 789.328   3
   4 -10 -11 6377.59 552.755   1
  -4 -10  10 5140.65 699.379   3
   4 -10 -10 5863.26 532.020   1
   4 -10  -9 703.703 222.804   1
  -4 -10   9 758.918 333.864   3
   4 -10  -8 430.097 206.363   1
  -4 -10   8 363.872 253.236   3
   4 -10  -7 1709.06 325.351   1
  -4 -10   7 1731.08 383.758   3
  -4 -10   6 10705.7 673.913   2
   4 -10  -6 12637.3 838.408   1
  -4  10   5 8737.24 552.789   2
  -4 -10   5 8488.82 557.470   2
  -4 -10   5 9874.26 787.838   3
   4 -10  -5 9241.19 735.345   1
   4 -10  -4 2779.74 425.291   1
  -4 -10   4 3283.45 461.873   3
  -4  10   4 2909.75 298.842   2
  -4 -10   4 2835.38 306.745   2
  -4  10   3 9606.32 520.613   2
  -4 -10   3 9940.53 558.145   2
  -4 -10   3 10690.4 789.951   3
   4 -10  -3 10815.3 812.308   1
  -4 -10   2 15207.5 947.900   3
   4 -10  -2 16746.3 1015.83   1
  -4 -10   1 9683.71 745.681   3
   4 -10  -1 9617.56 763.519   1
  -4 -10   0 16591.0 977.000   3
   4 -10   0 16272.2 987.645   1
  -4 -10  -1 12107.3 823.703   3
   4 -10   1 12484.1 849.648   1
  -4 -10  -2 3620.37 448.446   3
   4 -10   2 4468.57 511.171   1
  -4 -10  -3 6031.28 599.135   3
   4 -10   3 7319.31 618.853   1
  -4 -10  -4 17660.4 1028.03   3
   4 -10   4 18511.2 970.911   1
   4 -10   5 367.931 173.148   1
  -4 -10  -5 550.127 241.003   3
   4 -10   6 212.607 151.321   1
  -4 -10  -6 360.015 219.873   3
  -4 -10  -7 13041.5 943.089   3
   4 -10   7 12752.6 761.195   1
  -4 -10  -8 1272.01 382.036   2
  -4  10  -8 809.428 331.219   2
   4 -10   8 662.375 192.357   1
  -4 -10  -8 1094.87 302.211   3
  -4 -10  -9 1172.78 354.932   2
  -4  10  -9 1248.86 437.970   2
  -4 -10  -9 965.732 308.107   3
  -4 -10 -10-170.040 309.201   2
  -4  10 -10-708.523 393.283   2
   4 -11 -11 427.059 196.957   1
   4 -11 -10 3286.15 421.796   1
  -4 -11  10 2854.36 518.589   3
   4 -11  -9 1533.51 312.627   1
  -4 -11   9 1340.44 418.949   3
   4 -11  -8 147.970 159.109   1
  -4 -11   8 369.761 306.598   3
   4 -11  -7 475.715 225.801   1
  -4 -11   7 187.428 220.535   3
   4 -11  -6 819.457 272.945   1
  -4 -11   6 1011.54 339.888   3
   4 -11  -5 701.086 252.159   1
  -4  11   5 438.150 151.828   2
  -4 -11   5 586.991 169.144   2
  -4 -11   5 651.413 336.874   3
   4 -11  -4 86.8664 195.372   1
  -4  11   4-24.7417 80.1794   2
  -4 -11   4-3.71147 86.7015   2
  -4 -11   4 386.998 276.281   3
  -4  11   3 5440.58 391.620   2
  -4 -11   3 6060.09 431.517   2
  -4 -11   3 6271.83 667.589   3
   4 -11  -3 6099.39 652.711   1
  -4 -11   2 13599.2 943.021   3
   4 -11  -2 14227.0 997.448   1
  -4 -11   1 4423.33 556.232   3
   4 -11  -1 5471.70 625.301   1
   4 -11   0 798.111 310.596   1
  -4 -11   0 819.658 281.250   3
  -4 -11  -1 32133.4 1474.29   3
   4 -11   1 32034.5 1491.14   1
   4 -11   2 527.722 228.631   1
  -4 -11  -2-22.7132 173.412   3
  -4 -11  -3 12228.5 901.604   3
   4 -11   3 12011.6 853.147   1
  -4 -11  -4 5962.09 647.430   3
   4 -11   4 5835.55 578.853   1
  -4 -11  -5 9053.10 795.988   3
   4 -11   5 9711.44 727.356   1
  -4 -11  -6 15071.1 1066.77   3
   4 -11   6 14144.8 852.757   1
   4 -11   7 2112.60 339.998   1
  -4 -11  -7 1819.22 410.133   3
  -4 -11  -7 2828.42 493.015   2
  -4  11  -7 2638.92 496.428   2
  -4 -11  -8 963.061 344.676   2
  -4  11  -8 939.958 362.888   2
   4 -11   8 1170.12 265.493   1
  -4 -11  -8 654.918 292.740   3
  -4 -11  -9 288.381 276.144   2
  -4  11  -9 504.027 244.482   2
  -4 -11  -9-154.437 244.769   3
   4 -12 -10 27.2635 133.803   1
  -4 -12  10 440.634 289.248   3
   4 -12  -9 9.83569 152.527   1
  -4 -12   9-520.339 309.575   3
  -4 -12   8 21084.6 1497.08   3
   4 -12  -8 17483.6 1063.64   1
   4 -12  -7 421.494 206.249   1
  -4 -12   7 1289.28 433.298   3
  -4 -12   6 7187.55 832.661   3
   4 -12  -6 5976.20 646.199   1
   4 -12  -5 1663.49 352.332   1
  -4 -12   5 2306.76 469.831   3
  -4 -12   4 10863.3 940.454   3
   4 -12  -4 10266.2 893.436   1
  -4  12   3-57.2075 114.507   2
  -4 -12   3 406.766 253.622   3
   4 -12  -3-49.7109 235.609   1
  -4 -12   2 1339.84 348.351   3
  -4  12   2 1548.93 209.868   2
   4 -12  -2 1273.23 329.980   1
  -4 -12   1 47.6484 196.971   3
   4 -12  -1 36.4119 209.403   1
  -4 -12   0 5418.10 635.061   3
   4 -12   0 3896.55 577.744   1
  -4 -12  -1 99.8173 171.225   3
   4 -12   1-352.690 277.553   1
   4 -12   2 600.299 280.288   1
  -4 -12  -2 553.764 284.787   3
   4 -12   3 3892.61 536.105   1
  -4 -12  -3 4722.31 613.281   3
  -4 -12  -4 9114.52 843.637   3
   4 -12   4 8301.70 727.864   1
   4 -12   5 1305.87 315.134   1
  -4 -12  -5 1374.13 369.200   3
   4 -12   6 2592.24 396.055   1
  -4 -12  -6 3623.52 577.534   3
  -4  12  -6 3350.45 514.842   2
  -4  12  -7 7416.97 818.667   2
  -4 -12  -7 6790.10 811.435   3
   4 -12   7 7029.40 615.752   1
  -4 -12  -7 7783.88 823.676   2
   4 -12   8 782.661 245.068   1
  -4  12  -8 794.163 378.063   2
  -4 -12  -8 975.688 258.256   3
  -4 -13  10 7094.61 872.015   3
   4 -13 -10 7985.32 700.416   1
   4 -13  -9 265.475 209.595   1
  -4 -13   9 396.949 310.986   3
   4 -13  -8 344.286 209.419   1
  -4 -13   8 633.613 296.438   3
   4 -13  -7 1253.81 327.840   1
  -4 -13   7 1802.47 450.075   3
   4 -13  -6 877.812 287.948   1
  -4 -13   6 842.716 383.806   3
  -4 -13   5 49.3092 234.098   3
   4 -13  -5 160.365 225.956   1
  -4 -13   4 442.855 277.484   3
   4 -13  -4 259.446 260.927   1
  -4 -13   3 188.733 269.862   3
   4 -13  -3 116.623 211.593   1
  -4 -13   2 30275.3 1660.22   3
   4 -13  -2 27347.8 1606.87   1
  -4 -13   1 389.339 245.324   3
   4 -13  -1 431.249 251.685   1
  -4 -13   0 966.327 348.611   3
   4 -13   0 421.535 206.504   1
  -4 -13  -1-267.665 270.743   3
   4 -13   1-39.2412 215.865   1
  -4 -13  -2 4644.09 657.024   3
   4 -13   2 5066.12 669.808   1
   4 -13   3 671.475 275.757   1
  -4 -13  -3 1202.08 354.134   3
   4 -13   4 649.876 280.769   1
  -4 -13  -4 482.992 299.876   3
   4 -13   5 22.9579 168.152   1
  -4 -13  -5 200.567 270.617   3
   4 -13   6 3034.38 453.357   1
  -4 -13  -6 2441.84 529.316   3
   4 -13   7 288.636 173.033   1
  -4 -13  -7 405.755 317.339   3
  -4 -13  -8 58.4838 256.171   3
  -4 -14   7 70.9466 237.618   3
   4 -14  -6 1818.74 416.512   1
  -4 -14   6 897.518 359.598   3
  -4 -14   5 515.537 342.330   3
   4 -14  -5 465.473 262.526   1
  -4 -14   4 13349.9 1245.79   3
   4 -14  -4 12676.5 1114.05   1
  -4 -14   3 4561.04 735.931   3
   4 -14  -3 2416.31 545.812   1
  -4 -14   2 14.1061 287.569   3
   4 -14  -2-17.3175 259.277   1
  -4 -14   1 134.776 286.516   3
   4 -14  -1 1089.97 376.854   1
  -4 -14   0 947.412 388.464   3
   4 -14   0 1138.32 414.148   1
  -4 -14  -1 580.426 322.137   3
   4 -14   1 178.408 216.590   1
  -4 -14  -2 436.740 342.615   3
   4 -14   2 98.6981 213.740   1
  -4 -14  -3 2103.25 518.074   3
   4 -14   3 1354.78 406.552   1
  -4 -14  -4 7742.45 913.916   3
   4 -14   4 8272.96 810.593   1
   4 -14   5 1101.64 316.507   1
  -4 -14  -5 991.894 390.338   3
   4 -14   6 1162.62 313.882   1
   5   0 -12 35.7070 112.073   1
   5   0 -11 9886.49 622.680   1
   5   0 -10 145.475 123.436   1
   5   0  -9 72614.6 1897.50   1
   5   0  -8-51.7376 132.997   1
   5   0  -7 46497.1 1410.32   1
   5   0  -6 31.4029 109.918   1
   5   0  -5 24887.5 966.518   1
   5   0  -4-122.849 141.027   1
   5   0  -3 42403.3 1293.23   1
   5   0  -2 63.7425 106.514   1
   5   0  -1 16109.0 742.952   1
   5   0   0 378.775 130.600   1
   5   0   1 7822.14 506.801   1
   5   0   2 1442.65 220.229   1
   5   0   3 6258.12 456.439   1
   5   0   4-173.078 145.636   1
   5   0   5 7960.95 519.980   1
   5   0   6 759.464 176.549   1
   5   0   7 26214.2 988.250   1
   5   0   8-141.829 134.808   1
   5   0   9 3950.81 359.679   1
   5   1 -12 892.576 211.273   1
   5  -1 -12 1303.37 230.756   1
   5   1 -11 3612.49 374.289   1
   5  -1 -11 3653.97 380.299   1
   5  -1 -10 1202.21 235.516   1
   5   1 -10 962.086 215.005   1
   5  -1  -9 8196.90 553.770   1
   5   1  -9 8023.42 558.855   1
   5  -1  -8 3377.19 362.449   1
   5   1  -8 3144.58 337.785   1
   5   1  -7 14893.6 746.015   1
   5  -1  -7 14518.5 733.535   1
   5  -1  -6 3090.79 335.715   1
   5   1  -6 3025.65 328.373   1
   5  -1  -5 3700.36 359.024   1
   5   1  -5 3511.17 348.066   1
   5  -1  -4 15153.2 727.756   1
   5   1  -4 15939.8 747.151   1
   5  -1  -3 42134.4 1297.01   1
   5   1  -3 43539.4 1321.43   1
   5  -1  -2 28195.7 1016.67   1
   5   1  -2 27827.6 1012.68   1
   5  -1  -1 10208.8 583.047   1
   5   1  -1 10618.7 597.601   1
   5  -1   0 28255.4 1013.34   1
   5   1   0 27487.0 1004.41   1
   5   1   1 479.298 152.083   1
   5  -1   1 444.067 132.730   1
   5  -1   2 34543.6 1138.78   1
   5   1   2 32548.0 1115.51   1
   5  -1   3 1467.76 227.880   1
   5   1   3 880.656 182.531   1
   5  -1   4 5825.87 448.034   1
   5   1   4 6763.52 479.945   1
   5  -1   5 17670.6 796.445   1
   5   1   5 17574.3 792.504   1
   5  -1   6 1352.14 225.725   1
   5   1   6 1641.35 247.543   1
   5   1   7 545.377 161.294   1
   5  -1   7 657.127 192.885   1
   5   1   8 598.435 159.100   1
   5  -1   8 767.218 184.251   1
   5   1   9 109.623 93.3719   1
   5  -1   9-131.873 130.739   1
   5  -2 -12 2295.87 301.500   1
   5   2 -12 1597.43 261.264   1
   5  -2 -11 1534.57 247.313   1
   5   2 -11 1387.99 245.187   1
   5  -2 -10 207.870 128.544   1
   5   2 -10-169.408 146.181   1
   5  -2  -9 3265.30 348.090   1
   5   2  -9 3582.03 365.068   1
  -5   2   9 3159.61 339.090   3
  -5   2   8 27.6898 90.7195   3
   5   2  -8 63.5165 115.527   1
   5  -2  -8-49.3427 103.268   1
   5   2  -7-177.750 159.352   1
   5  -2  -7-232.580 180.102   1
   5  -2  -6 3782.42 372.474   1
   5   2  -6 4128.90 384.413   1
   5   2  -5 2168.53 287.962   1
   5  -2  -5 1886.73 254.796   1
   5  -2  -4 16920.7 782.192   1
   5   2  -4 18187.6 810.686   1
   5   2  -3 56.2020 140.249   1
   5  -2  -3-28.2202 144.948   1
   5   2  -2-61.5723 131.905   1
   5  -2  -2-46.1163 122.622   1
   5  -2  -1 40178.9 1257.48   1
   5   2  -1 40222.3 1259.02   1
   5   2   0-20.3027 116.070   1
   5  -2   0 125.267 107.892   1
   5  -2   1 5097.50 413.213   1
   5   2   1 5106.43 415.024   1
   5  -2   2 36011.9 1179.24   1
   5   2   2 34539.8 1162.48   1
   5  -2   3 12821.3 669.967   1
   5   2   3 12686.7 662.860   1
   5  -2   4 29103.6 1059.91   1
   5   2   4 31109.0 1091.62   1
   5  -2   5 1255.02 216.501   1
   5   2   5 1566.87 250.542   1
   5  -2   6 29773.8 1069.91   1
   5   2   6 29056.8 1063.42   1
   5  -2   7 2158.67 277.067   1
   5   2   7 2121.29 284.424   1
   5  -2   8 19950.7 846.109   1
   5   2   8 18971.0 843.114   1
   5   2   9 485.326 173.569   1
   5  -2   9 101.399 106.409   1
   5  -3 -12 111.115 131.069   1
   5  -3 -11 1156.99 233.419   1
   5   3 -11 495.875 184.807   1
   5  -3 -10 6209.64 496.980   1
   5   3 -10 6183.47 494.843   1
   5   3  -9 1229.15 217.015   1
   5  -3  -9 1072.55 209.152   1
   5   3  -8 1506.17 249.042   1
   5  -3  -8 1547.79 259.081   1
   5  -3  -7 5335.02 442.937   1
   5   3  -7 5020.49 441.487   1
   5  -3  -6 10855.1 636.036   1
   5   3  -6 12072.1 674.972   1
   5  -3  -5 6991.20 504.145   1
   5   3  -5 6970.03 509.098   1
   5  -3  -4 4543.09 402.230   1
   5   3  -4 3791.25 371.301   1
   5  -3  -3 765.676 191.165   1
   5   3  -3 347.209 142.392   1
   5  -3  -2 12704.5 666.218   1
   5   3  -2 11909.8 650.581   1
   5  -3  -1 4446.69 396.161   1
   5   3  -1 4811.51 412.361   1
   5  -3   0 30097.4 1077.73   1
   5   3   0 31179.8 1097.63   1
   5  -3   1 8653.96 549.317   1
   5   3   1 10103.7 592.122   1
   5  -3   2 29051.4 1054.84   1
   5   3   2 29155.8 1063.04   1
   5   3   3 255.642 152.859   1
   5  -3   3 693.037 173.387   1
   5   3   4 721.711 187.766   1
   5  -3   4 620.208 179.935   1
   5  -3   5 23837.5 961.697   1
   5   3   5 25593.1 994.124   1
   5   3   6 341.857 153.629   1
   5  -3   6 743.664 181.287   1
   5   3   7 1274.82 221.545   1
   5  -3   7 1155.28 215.134   1
   5  -3   8 12157.7 652.428   1
   5   3   8 11254.6 659.823   1
   5  -3   9 6483.72 470.027   1
   5   3   9 7621.37 540.856   1
   5  -4 -12 13072.6 734.366   1
   5  -4 -11 13622.7 751.122   1
  -5  -4  11 12786.4 757.434   3
   5   4 -11 12946.6 751.532   1
   5   4 -10 590.645 191.718   1
   5  -4 -10 656.799 194.477   1
   5  -4  -9 6055.56 488.663   1
   5   4  -9 6436.71 514.045   1
   5  -4  -8 609.603 187.415   1
   5   4  -8 306.072 142.920   1
   5  -4  -7 21955.5 944.546   1
   5   4  -7 21468.6 948.225   1
   5  -4  -6 8593.07 580.563   1
   5   4  -6 7515.68 542.035   1
   5   4  -5 17417.4 824.669   1
   5  -4  -5 17180.1 817.507   1
   5   4  -4 29167.1 1082.68   1
   5  -4  -4 28405.0 1076.17   1
   5   4  -3 1074.14 209.786   1
   5  -4  -3 1084.30 207.324   1
   5   4  -2 3295.49 354.062   1
   5  -4  -2 3307.94 356.222   1
   5   4  -1 8625.44 559.432   1
   5  -4  -1 8587.57 558.315   1
   5   4   0 22176.5 921.103   1
   5  -4   0 22381.3 927.412   1
   5   4   1 866.101 197.366   1
   5  -4   1 924.181 205.218   1
   5   4   2 5146.04 429.900   1
   5  -4   2 4757.74 421.199   1
   5  -4   3 4117.06 391.326   1
   5   4   3 3599.17 371.576   1
   5  -4   4 4944.88 427.393   1
   5   4   4 5070.00 437.126   1
   5  -4   5 1708.67 264.607   1
   5   4   5 1677.00 263.371   1
   5   4   6 558.694 176.586   1
   5  -4   6 748.797 184.542   1
   5   4   7 2152.33 303.021   1
   5  -4   7 1982.80 282.957   1
   5  -4   8 2331.03 296.026   1
   5   4   8 2063.64 286.691   1
  -5  -5  11 4479.44 472.526   3
   5  -5 -11 3503.16 391.100   1
   5  -5 -10 23978.0 1030.36   1
  -5  -5  10 25343.7 1123.51   3
   5   5 -10 24050.1 1069.11   1
  -5  -5   9 189.512 153.720   3
   5  -5  -9 223.683 140.219   1
   5   5  -9 15.7942 134.718   1
   5  -5  -8 9055.05 613.863   1
   5   5  -8 9961.59 647.386   1
   5   5  -7 1218.18 245.559   1
   5  -5  -7 1369.46 250.747   1
   5   5  -6 60096.9 1732.05   1
   5  -5  -6 60162.1 1738.33   1
   5   5  -5 14768.6 777.654   1
   5  -5  -5 14979.1 790.408   1
   5   5  -4 4255.46 412.356   1
   5  -5  -4 4959.00 451.223   1
   5   5  -3 5767.01 471.107   1
   5  -5  -3 6323.90 503.180   1
   5   5  -2 10104.2 622.310   1
   5  -5  -2 10302.4 636.741   1
   5   5  -1 7580.03 536.592   1
   5  -5  -1 8025.01 561.507   1
   5  -5   0 3087.78 357.020   1
   5   5   0 2824.05 334.866   1
   5  -5   1 349.846 155.896   1
   5   5   1 67.7125 113.701   1
   5  -5   2 1704.84 275.606   1
   5   5   2 1485.83 248.761   1
   5   5   3 15632.8 785.259   1
   5  -5   3 16038.8 793.701   1
   5   5   4 14212.6 754.405   1
   5  -5   4 15324.4 775.525   1
   5   5   5 3104.76 355.058   1
   5  -5   5 3311.95 368.144   1
   5   5   6 166.803 132.204   1
   5  -5   6-34.6333 129.976   1
   5  -5   7 5644.99 463.736   1
   5   5   7 5386.19 485.710   1
   5  -5   8 13326.3 717.653   1
  -5  -5  -9 450.703 183.126   3
  -5  -6  11 349.753 172.413   3
   5  -6 -11 318.178 171.062   1
  -5  -6  10 922.343 256.719   3
   5  -6 -10 1126.77 252.018   1
   5   6  -9-5.25233 159.589   1
  -5  -6   9 325.906 180.826   3
   5  -6  -9 345.260 176.026   1
  -5  -6   8 1289.77 265.278   3
   5  -6  -8 1167.53 234.929   1
   5   6  -8 1034.75 238.127   1
   5  -6  -7 446.549 168.775   1
   5   6  -7 563.468 171.411   1
   5  -6  -6 176.591 142.648   1
   5   6  -6 25.7852 159.769   1
   5   6  -5 1079.27 236.579   1
   5  -6  -5 966.205 230.217   1
   5   6  -4 9219.80 619.000   1
   5  -6  -4 9542.67 639.298   1
   5   6  -3 25963.8 1070.01   1
   5  -6  -3 26639.8 1104.30   1
   5   6  -2 728.797 182.158   1
   5  -6  -2 1063.41 228.235   1
   5   6  -1 48588.4 1504.78   1
   5  -6  -1 46424.6 1508.70   1
   5   6   0 14615.0 778.120   1
   5  -6   0 14474.7 784.014   1
   5   6   1 40733.3 1365.66   1
   5  -6   1 40234.1 1368.99   1
   5   6   2 72.9286 127.599   1
   5  -6   2 129.190 122.595   1
   5   6   3 21729.9 973.332   1
   5  -6   3 21692.9 964.928   1
   5   6   4 3124.95 372.458   1
   5  -6   4 3919.89 407.151   1
   5   6   5 6018.88 515.673   1
   5  -6   5 7135.50 543.261   1
   5   6   6 1736.16 300.253   1
   5  -6   6 1764.75 278.799   1
   5  -6   7 972.744 226.512   1
  -5  -6  -8 185.984 149.776   3
   5  -6   8 152.306 154.321   1
  -5  -6  -9 2265.62 355.712   3
  -5  -7  11 1169.76 289.478   3
   5  -7 -11 1174.63 254.067   1
  -5  -7  10 719.068 222.326   3
   5  -7 -10 474.455 175.103   1
  -5  -7   9 106.792 147.476   3
   5  -7  -9 18.3520 137.746   1
  -5  -7   8 12687.3 823.831   3
   5  -7  -8 12437.2 766.530   1
   5  -7  -7 1414.19 278.848   1
  -5  -7   7 1754.63 323.075   3
   5   7  -7 1267.14 253.473   1
  -5  -7   6 441.628 187.903   3
   5  -7  -6 73.9757 146.217   1
   5   7  -6-117.411 166.264   1
   5   7  -5 6595.86 551.316   1
   5  -7  -5 6304.81 546.437   1
   5   7  -4 11790.2 735.775   1
   5  -7  -4 13121.4 781.109   1
   5  -7  -3 3867.93 427.964   1
   5   7  -3 3752.50 402.767   1
   5  -7  -2 970.982 242.232   1
   5   7  -2 1059.04 232.392   1
   5  -7  -1 1124.80 240.929   1
   5   7  -1 1089.43 242.488   1
   5   7   0 131.850 125.434   1
   5  -7   0 15.5851 131.579   1
   5   7   1 6929.51 550.654   1
   5  -7   1 6705.56 547.635   1
   5   7   2 6018.34 518.897   1
   5  -7   2 5084.84 475.472   1
   5   7   3 20330.7 968.043   1
   5  -7   3 20423.0 960.515   1
   5  -7   4 3010.68 366.695   1
   5   7   4 2434.45 335.032   1
   5  -7   5 29733.0 1180.83   1
  -5  -7  -6 11531.1 766.632   3
   5  -7   6 11186.1 697.193   1
  -5  -7  -7 14639.1 881.411   3
   5  -7   7 14527.9 794.291   1
  -5  -7  -8 588.240 217.455   3
   5  -7   8 710.549 207.919   1
  -5  -7  -9 4356.59 498.219   3
  -5  -8  11 164.572 158.841   3
   5  -8 -11 148.162 146.005   1
  -5  -8  10 8236.18 731.695   3
   5  -8 -10 7331.14 600.532   1
   5  -8  -9 2216.71 353.302   1
  -5  -8   9 1798.49 359.009   3
   5  -8  -8 1164.30 267.064   1
  -5  -8   8 1642.48 327.427   3
   5  -8  -7 2084.87 326.186   1
  -5  -8   7 1905.40 345.223   3
  -5  -8   6 4222.36 484.371   3
   5  -8  -6 4521.86 489.560   1
   5  -8  -5-72.3322 175.035   1
  -5  -8   5 66.5709 137.730   3
   5   8  -5-254.153 193.605   1
   5   8  -4 3314.55 401.655   1
   5  -8  -4 3233.50 415.567   1
  -5  -8   4 4076.23 463.745   3
  -5  -8   3 598.665 224.408   3
   5  -8  -3 187.263 156.451   1
   5   8  -3 388.879 170.552   1
   5  -8  -2 25763.8 1176.36   1
   5   8  -2 25094.4 1122.04   1
   5  -8  -1 5671.85 537.774   1
   5   8  -1 6045.71 542.127   1
   5   8   0 65.8274 145.231   1
   5  -8   0-17.6154 152.616   1
   5  -8   1 5566.63 519.344   1
   5   8   1 5942.99 544.164   1
   5  -8   2 3117.98 397.342   1
  -5  -8  -3 2537.33 371.621   3
   5  -8   3 2537.21 355.651   1
   5  -8   4 2083.09 332.099   1
  -5  -8  -4 2229.68 351.502   3
   5  -8   5 233.307 187.584   1
  -5  -8  -5 85.4773 138.676   3
   5  -8   6 657.636 207.881   1
  -5  -8  -6 443.999 210.554   3
  -5  -8  -7 3302.99 449.448   3
   5  -8   7 2746.70 360.485   1
  -5  -8  -8 3435.50 462.479   3
   5  -8   8 3442.40 396.730   1
   5  -9 -11 107.460 146.285   1
  -5  -9  10 5603.32 656.690   3
   5  -9 -10 5856.47 557.106   1
   5  -9  -9 1251.50 277.588   1
  -5  -9   9 1509.79 362.444   3
  -5  -9   8 31677.4 1499.28   3
   5  -9  -8 29643.9 1305.06   1
   5  -9  -7 1048.63 273.958   1
  -5  -9   7 1380.60 320.044   3
   5  -9  -6 2533.73 393.462   1
  -5  -9   6 3168.65 448.504   3
   5  -9  -5 668.220 247.442   1
  -5  -9   5 579.675 196.697   3
  -5  -9   4 14529.8 908.929   3
   5  -9  -4 13287.5 880.646   1
   5  -9  -3 4843.07 541.936   1
  -5  -9   3 5501.03 555.591   3
   5  -9  -2 1722.89 345.170   1
  -5  -9   2 1412.57 306.853   3
   5  -9  -1 915.263 243.678   1
  -5  -9   1 1279.54 288.520   3
  -5  -9   0 4646.81 496.787   3
   5  -9   0 4684.57 522.046   1
   5  -9   1 357.795 170.247   1
  -5  -9  -1 870.263 254.815   3
   5  -9   2 1247.39 291.493   1
  -5  -9  -2 818.483 248.975   3
   5  -9   3 2396.00 366.269   1
  -5  -9  -3 3307.80 438.127   3
   5  -9   4 4257.72 466.697   1
  -5  -9  -4 3319.01 435.537   3
   5  -9   5 1235.38 271.195   1
  -5  -9  -5 587.268 224.533   3
  -5  -9  -6 7895.84 691.335   3
   5  -9   6 7443.62 604.159   1
   5  -9   7 1455.57 286.578   1
  -5  -9  -7 1144.64 297.333   3
  -5  -9  -8 1705.19 359.495   3
   5  -9   8 1400.49 284.252   1
   5 -10 -11 193.073 146.291   1
   5 -10 -10 2377.63 379.957   1
  -5 -10  10 2453.41 496.361   3
   5 -10  -9 2778.54 422.732   1
  -5 -10   9 4106.29 593.081   3
   5 -10  -8 294.566 214.672   1
  -5 -10   8 522.727 263.509   3
   5 -10  -7 2365.62 411.929   1
  -5 -10   7 2404.05 419.022   3
   5 -10  -6 4204.99 513.948   1
  -5 -10   6 5793.79 639.348   3
   5 -10  -5 3731.16 490.707   1
  -5 -10   5 4231.21 542.841   3
   5 -10  -4 4407.58 537.874   1
  -5 -10   4 5438.58 587.078   3
  -5 -10   3 14944.1 960.084   3
   5 -10  -3 14203.6 964.235   1
  -5 -10   2 20154.7 1120.44   3
   5 -10  -2 20882.7 1175.81   1
   5 -10  -1 3336.75 476.788   1
  -5 -10   1 3610.34 482.783   3
   5 -10   0 966.113 276.509   1
  -5 -10   0 865.912 256.712   3
  -5 -10  -1 16262.7 992.045   3
   5 -10   1 17046.0 1013.47   1
   5 -10   2 131.010 176.121   1
  -5 -10  -2-95.1945 172.209   3
   5 -10   3 2084.53 348.583   1
  -5 -10  -3 1843.93 351.601   3
  -5 -10  -4 9786.64 781.220   3
   5 -10   4 8315.44 686.160   1
   5 -10   5 593.464 203.225   1
  -5 -10  -5 448.772 214.990   3
   5 -10   6 4009.08 470.605   1
  -5 -10  -6 3630.78 512.468   3
   5 -10   7 822.739 242.994   1
  -5 -10  -7 1130.65 305.311   3
   5 -10   8 261.904 139.207   1
  -5 -10  -8 623.504 236.207   3
   5 -11 -10 137.224 136.468   1
  -5 -11  10 227.497 267.465   3
   5 -11  -9 180.099 179.650   1
  -5 -11   9 177.535 220.163   3
   5 -11  -8 413.111 246.184   1
  -5 -11   8 490.616 288.810   3
   5 -11  -7-316.354 212.016   1
  -5 -11   7 451.396 280.497   3
   5 -11  -6 1563.98 358.509   1
  -5 -11   6 1456.44 376.534   3
  -5 -11   5 7634.35 758.538   3
   5 -11  -5 7669.18 736.821   1
   5 -11  -4 1761.93 416.259   1
  -5 -11   4 1663.60 365.149   3
   5 -11  -3 515.987 243.153   1
  -5 -11   3 379.258 214.565   3
  -5 -11   2 14073.5 971.568   3
   5 -11  -2 14828.6 1048.08   1
   5 -11  -1 278.536 231.892   1
  -5 -11   1 274.377 192.915   3
  -5 -11   0 13794.0 970.784   3
   5 -11   0 14284.0 1012.61   1
   5 -11   1 368.587 216.000   1
  -5 -11  -1 266.821 158.923   3
  -5 -11  -2 10291.5 829.399   3
   5 -11   2 9002.74 781.450   1
  -5 -11  -3 14115.9 986.791   3
   5 -11   3 13059.3 909.391   1
  -5 -11  -4 9271.77 806.899   3
   5 -11   4 8487.50 722.397   1
   5 -11   5 1421.73 308.623   1
  -5 -11  -5 1803.37 385.722   3
   5 -11   6 113.795 155.103   1
  -5 -11  -6-51.4402 193.599   3
  -5 -11  -7 7845.92 796.687   3
   5 -11   7 6930.26 620.383   1
  -5 -12   8 64.5359 249.615   3
   5 -12  -7 5422.79 630.062   1
  -5 -12   7 6471.07 775.299   3
   5 -12  -6-226.700 253.363   1
  -5 -12   6 90.6699 210.657   3
  -5 -12   5 7363.69 794.563   3
   5 -12  -5 7060.20 741.187   1
   5 -12  -4 183.887 254.133   1
  -5 -12   4-159.704 218.383   3
   5 -12  -3 1783.33 406.038   1
  -5 -12   3 2167.54 447.747   3
   5 -12  -2 455.274 274.643   1
  -5 -12   2 339.776 188.992   3
   5 -12  -1 1084.76 333.679   1
  -5 -12   1 953.619 316.756   3
   5 -12   0 2069.65 464.827   1
  -5 -12   0 1768.73 412.303   3
  -5 -12  -1 10783.7 901.516   3
   5 -12   1 9865.11 884.657   1
   5 -12   2 525.428 273.013   1
  -5 -12  -2 521.533 229.211   3
   5 -12   3 10.2596 178.030   1
  -5 -12  -3-51.3311 214.776   3
  -5 -12  -4 6661.13 738.911   3
   5 -12   4 6576.68 665.106   1
   5 -12   5 618.858 235.133   1
   5 -12   6 2648.02 414.715   1
   6   0 -11-143.288 129.796   1
   6   0 -10 26915.2 1173.53   1
   6   0  -9 25.6703 173.109   1
   6   0  -8 16206.3 872.173   1
   6   0  -7 133.885 134.964   1
   6   0  -6 42185.7 1454.89   1
   6   0  -5-76.5438 171.264   1
   6   0  -4 1076.42 231.748   1
   6   0  -3 68.2282 150.397   1
   6   0  -2 2710.19 345.735   1
   6   0  -1 510.669 150.057   1
   6   0   0 2676.18 346.671   1
   6   0   1 231.221 131.320   1
   6   0   2-165.948 187.399   1
   6   0   3 524.250 182.918   1
   6   0   4 20409.7 957.209   1
   6   0   5-21.8081 153.367   1
   6   0   6 2552.29 334.491   1
   6   0   7 0.80483 155.863   1
   6   0   8 18444.3 899.612   1
   6   1 -11 803.504 227.947   1
   6  -1 -11 1518.96 288.246   1
   6  -1 -10 2156.35 342.781   1
   6   1 -10 1918.76 326.911   1
   6  -1  -9 568.146 195.633   1
   6   1  -9 696.902 211.196   1
   6  -1  -8 659.262 194.353   1
   6   1  -8 874.018 230.109   1
   6  -1  -7 3160.83 371.471   1
   6   1  -7 3272.50 396.456   1
   6  -1  -6 10712.7 689.282   1
   6   1  -6 11313.8 713.341   1
   6  -1  -5 13911.3 783.590   1
   6   1  -5 13747.6 782.688   1
   6  -1  -4 19919.2 941.246   1
   6   1  -4 20310.5 947.999   1
   6  -1  -3 12661.9 733.800   1
   6   1  -3 12440.5 730.816   1
   6  -1  -2 96.5357 129.643   1
   6   1  -2 11.6138 134.755   1
   6  -1  -1 28874.3 1144.06   1
   6   1  -1 29610.8 1163.64   1
   6  -1   0 5555.69 487.397   1
   6   1   0 6112.82 504.701   1
   6  -1   1 9229.26 624.771   1
   6   1   1 9510.00 626.767   1
   6  -1   2 12077.6 718.861   1
   6   1   2 12775.3 738.012   1
   6  -1   3 3737.37 397.378   1
   6   1   3 4627.19 443.426   1
   6  -1   4 806.378 216.369   1
   6   1   4 761.748 217.898   1
   6  -1   5 628.365 204.115   1
   6   1   5 559.704 189.378   1
   6  -1   6 60.3370 166.746   1
   6   1   6-171.650 167.757   1
   6   1   7 17.3851 171.602   1
   6  -1   7 37.9579 129.095   1
   6   1   8 202.631 138.554   1
   6  -1   8 320.774 134.435   1
   6  -2 -11 168.249 142.058   1
   6   2 -11 90.9009 131.004   1
   6  -2 -10 139.655 147.610   1
   6   2 -10 370.251 183.254   1
   6   2  -9 76.9839 173.604   1
   6  -2  -9 250.389 154.445   1
   6  -2  -8 773.533 209.481   1
   6   2  -8 878.591 218.383   1
   6  -2  -7 8070.56 608.399   1
   6   2  -7 8756.04 632.882   1
   6  -2  -6 1169.45 216.036   1
   6   2  -6 1423.54 262.458   1
   6   2  -5 409.640 170.834   1
   6  -2  -5 402.486 151.588   1
   6  -2  -4 15706.4 831.092   1
   6   2  -4 16543.1 853.576   1
   6   2  -3 2729.06 350.595   1
   6  -2  -3 3296.04 375.803   1
   6  -2  -2 4701.00 446.928   1
   6   2  -2 4854.75 457.112   1
   6  -2  -1 7490.40 558.618   1
   6   2  -1 7776.73 566.107   1
   6  -2   0 7755.02 570.912   1
   6   2   0 8286.22 594.610   1
   6  -2   1 16488.8 846.939   1
   6   2   1 17470.6 874.393   1
   6  -2   2 8682.15 608.772   1
   6   2   2 8918.29 618.813   1
   6  -2   3 21780.2 1000.35   1
   6   2   3 22711.8 1016.34   1
   6  -2   4 881.757 213.135   1
   6   2   4 1027.88 231.277   1
   6  -2   5 28855.3 1173.74   1
   6   2   5 28716.2 1167.91   1
   6  -2   6 429.000 176.804   1
   6   2   6 617.556 214.094   1
   6  -2   7 4272.22 436.278   1
   6   2   7 4675.31 459.500   1
   6  -2   8 4482.19 437.632   1
   6   2   8 3840.11 412.609   1
   6   3 -11 197.085 139.151   1
   6  -3 -11 556.030 208.398   1
   6  -3 -10 2874.74 380.221   1
   6   3 -10 1932.27 325.645   1
   6  -3  -9 6623.94 566.460   1
   6   3  -9 5926.62 537.519   1
   6   3  -8 1379.88 274.794   1
   6  -3  -8 851.528 208.824   1
   6   3  -7 102.995 135.957   1
   6  -3  -7 167.751 153.838   1
   6   3  -6 51.3703 131.001   1
   6  -3  -6 21.4015 191.110   1
   6  -3  -5 3340.65 389.781   1
   6   3  -5 3420.28 395.414   1
   6  -3  -4 138.097 160.465   1
   6   3  -4 347.878 189.241   1
   6  -3  -3 7986.88 586.886   1
   6   3  -3 9047.33 627.871   1
   6  -3  -2 6648.54 537.245   1
   6   3  -2 6307.86 523.615   1
   6  -3  -1 28223.5 1146.12   1
   6   3  -1 28872.1 1157.85   1
   6  -3   0-129.036 171.942   1
   6   3   0 119.251 156.406   1
   6  -3   1 5241.19 478.762   1
   6   3   1 5386.27 486.898   1
   6  -3   2 16294.6 863.119   1
   6   3   2 17672.0 891.630   1
   6   3   3 2892.47 367.364   1
   6  -3   3 2850.46 357.164   1
   6   3   4 2474.66 348.514   1
   6  -3   4 1889.00 294.288   1
   6  -3   5 3215.20 394.945   1
   6   3   5 3816.68 419.672   1
   6  -3   6 4671.32 463.497   1
   6   3   6 5248.07 489.333   1
   6  -3   7 8996.95 629.612   1
   6   3   7 7760.34 605.005   1
   6  -3   8 4957.35 475.246   1
   6   3   8 4960.90 474.209   1
   6  -4 -11 528.134 197.903   1
  -6  -4  11 1107.72 266.935   3
   6   4 -11 919.107 233.493   1
   6  -4 -10 7402.26 613.755   1
   6   4 -10 6580.63 581.909   1
   6   4  -9 74.1054 150.527   1
   6  -4  -9 160.918 171.557   1
   6  -4  -8 13995.8 832.914   1
   6   4  -8 13967.2 839.017   1
   6  -4  -7 12580.2 779.320   1
   6   4  -7 12722.8 787.708   1
   6   4  -6 1387.72 249.010   1
   6  -4  -6 1370.21 269.131   1
   6   4  -5 2956.62 385.647   1
   6  -4  -5 2809.11 374.808   1
   6  -4  -4 8586.44 633.634   1
   6   4  -4 6884.76 565.364   1
   6  -4  -3 19136.0 943.484   1
   6   4  -3 19272.8 948.594   1
   6   4  -2 173.428 139.899   1
   6  -4  -2 57.7528 131.850   1
   6   4  -1 147.655 168.098   1
   6  -4  -1 451.827 196.886   1
   6   4   0 474.747 188.252   1
   6  -4   0 781.484 221.526   1
   6  -4   1 4162.45 432.072   1
   6   4   1 3744.51 414.057   1
   6   4   2 1606.96 286.883   1
   6  -4   2 2248.07 328.540   1
   6   4   3 118.413 138.027   1
   6  -4   3 340.800 145.092   1
   6   4   4 509.143 201.630   1
   6  -4   4 469.620 189.979   1
   6  -4   5 8659.73 627.909   1
   6   4   5 7046.50 576.437   1
   6  -4   6 8441.39 629.067   1
   6   4   6 8960.62 650.985   1
   6  -4   7 2426.79 347.082   1
   6   4   7 2507.86 352.877   1
   6  -4   8 177.114 140.755   1
   6   4   8 111.543 127.936   1
   6   5 -11 2697.34 392.525   1
   6  -5 -11 2782.85 390.211   1
   6   5 -10-55.7497 156.750   1
  -6  -5  10 48.4357 131.816   3
   6  -5 -10-116.642 147.536   1
   6  -5  -9 27805.2 1221.41   1
   6   5  -9 28737.0 1266.34   1
   6   5  -8 2498.28 379.163   1
   6  -5  -8 3202.95 415.745   1
   6  -5  -7 8844.21 670.306   1
   6   5  -7 8831.63 663.630   1
   6  -5  -6 5047.28 502.352   1
   6   5  -6 4305.24 475.153   1
   6  -5  -5 6068.60 548.039   1
   6   5  -5 5511.19 529.694   1
   6  -5  -4 7811.56 618.954   1
   6   5  -4 6062.42 543.046   1
   6  -5  -3 7966.95 621.260   1
   6   5  -3 7449.29 593.658   1
   6   5  -2 3213.31 386.753   1
   6  -5  -2 3354.88 405.367   1
   6   5  -1 2282.49 335.642   1
   6  -5  -1 2876.20 382.925   1
   6  -5   0 5420.83 505.283   1
   6   5   0 6230.44 539.100   1
   6  -5   1 8159.42 613.863   1
   6   5   1 7854.94 605.602   1
   6  -5   2 1242.07 264.850   1
   6   5   2 1306.04 263.353   1
   6  -5   3-16.2912 145.202   1
   6   5   3 6.11098 137.567   1
   6  -5   4 6902.16 572.748   1
   6   5   4 7148.16 589.585   1
   6  -5   5 7271.04 586.382   1
   6   5   5 6478.98 566.492   1
   6  -5   6 1254.52 260.626   1
   6   5   6 1395.99 269.461   1
   6  -5   7 7140.01 579.055   1
   6   5   7 6486.78 575.520   1
   6  -5   8-149.350 112.488   1
   6  -6 -11 49.9260 132.466   1
  -6  -6  10 438.376 193.868   3
   6  -6 -10 410.397 226.064   1
   6   6 -10 201.044 191.909   1
  -6  -6   9 338.916 189.265   3
   6   6  -9 452.335 188.082   1
   6  -6  -9 779.244 239.482   1
   6  -6  -8 247.846 153.484   1
   6   6  -8 305.592 159.381   1
   6  -6  -7 5613.76 549.591   1
   6   6  -7 5494.60 538.092   1
   6   6  -6 6787.96 599.941   1
   6  -6  -6 6911.51 605.148   1
   6   6  -5 922.495 238.718   1
   6  -6  -5 1207.63 291.946   1
   6   6  -4 16428.9 914.862   1
   6  -6  -4 17032.5 946.359   1
   6   6  -3 5783.68 537.804   1
   6  -6  -3 7027.86 603.766   1
   6   6  -2 25679.0 1146.88   1
   6  -6  -2 26125.9 1181.43   1
   6  -6  -1 983.719 268.360   1
   6   6  -1 630.321 204.412   1
   6   6   0 29441.0 1232.71   1
   6  -6   0 28657.6 1236.72   1
   6   6   1 438.097 169.810   1
   6  -6   1 532.731 180.013   1
   6   6   2 13665.2 828.625   1
   6  -6   2 14999.9 857.118   1
   6   6   3 3233.22 407.160   1
   6  -6   3 3698.85 435.856   1
   6  -6   4 550.211 211.823   1
   6   6   4 317.739 170.808   1
   6   6   5 599.409 219.972   1
   6  -6   5 543.272 193.301   1
   6   6   6 1355.00 285.017   1
   6  -6   6 1171.08 256.911   1
   6  -6   7 4876.55 493.851   1
  -6  -7  10 78.0469 142.220   3
   6  -7 -10-242.862 168.255   1
  -6  -7   9 302.998 219.617   3
   6  -7  -9 495.515 220.296   1
  -6  -7   8 2824.31 421.491   3
   6   7  -8 2270.69 368.957   1
   6  -7  -8 1611.42 314.389   1
  -6  -7   7 5069.20 544.130   3
   6  -7  -7 4491.72 508.493   1
   6   7  -7 4309.66 496.933   1
   6   7  -6 2917.26 421.124   1
   6  -7  -6 3216.57 425.493   1
   6  -7  -5 153.060 149.156   1
   6   7  -5 82.9498 150.382   1
   6  -7  -4 3862.42 476.932   1
   6   7  -4 3498.16 439.358   1
   6  -7  -3 638.641 218.117   1
   6   7  -3 568.114 215.435   1
   6  -7  -2 138.345 151.840   1
   6   7  -2-44.7601 175.597   1
   6  -7  -1 4638.74 505.750   1
   6   7  -1 4728.48 497.543   1
   6   7   0 7095.43 609.485   1
   6  -7   0 7488.44 631.320   1
   6  -7   1 4081.04 467.189   1
   6   7   1 3046.94 407.950   1
   6   7   2 17955.3 978.114   1
   6  -7   2 17117.1 959.764   1
   6   7   3 6252.52 590.808   1
   6  -7   3 6013.76 560.607   1
   6   7   4 18962.3 1023.93   1
   6  -7   4 17398.9 961.961   1
   6   7   5 830.272 258.348   1
   6  -7   5 1114.67 271.745   1
   6  -7   6 9527.60 700.614   1
  -6  -7  -7 1689.74 331.995   3
   6  -7   7 1449.73 293.302   1
  -6  -8  10 1152.43 323.484   3
   6  -8 -10 1272.73 298.479   1
  -6  -8   9 1964.14 382.966   3
   6  -8  -9 1513.98 332.340   1
  -6  -8   8 142.749 163.066   3
   6  -8  -8 68.1315 177.818   1
  -6  -8   7-37.3256 190.979   3
   6  -8  -7-183.476 214.628   1
   6  -8  -6 130.969 153.656   1
  -6  -8   6 376.623 238.675   3
   6   8  -6-295.225 238.213   1
  -6  -8   5 17779.3 1048.13   3
   6   8  -5 17712.4 1015.44   1
   6  -8  -5 17701.1 1050.64   1
   6   8  -4 1049.65 263.238   1
   6  -8  -4 1864.19 365.335   1
   6  -8  -3 1126.62 300.775   1
   6   8  -3 819.412 243.767   1
   6  -8  -2 4355.86 520.416   1
   6   8  -2 4671.85 506.738   1
   6  -8  -1 2333.58 379.474   1
   6   8  -1 1953.16 337.279   1
   6  -8   0 2785.33 415.424   1
   6   8   0 2643.03 403.248   1
   6  -8   1 311.457 192.463   1
   6   8   1 88.2496 150.023   1
   6   8   2 1994.71 361.540   1
   6  -8   2 1679.47 327.091   1
   6  -8   3 2242.01 362.990   1
  -6  -8  -4 1201.23 304.408   3
   6  -8   4 891.874 253.446   1
  -6  -8  -5 2503.99 409.096   3
   6  -8   5 2290.99 364.484   1
  -6  -8  -6 1840.46 349.352   3
   6  -8   6 1782.81 322.516   1
   6  -8   7 341.051 179.547   1
  -6  -9   9 2930.01 486.187   3
  -6  -9   8 480.160 259.160   3
  -6  -9   7 10433.4 852.806   3
   6  -9  -7 9330.06 774.244   1
   6  -9  -6 942.080 282.527   1
  -6  -9   6 1037.20 305.529   3
   6  -9  -5 981.769 301.644   1
  -6  -9   5 1141.16 316.602   3
   6  -9  -4 1490.04 335.235   1
  -6  -9   4 1263.54 329.735   3
   6  -9  -3 3503.43 496.974   1
  -6  -9   3 2872.10 441.209   3
   6  -9  -2 173.070 159.724   1
  -6  -9   2 332.273 267.971   3
   6  -9  -1 412.754 190.639   1
  -6  -9   1 922.734 268.832   3
   6  -9   0 2540.14 402.764   1
  -6  -9   0 3559.71 477.690   3
  -6  -9  -1 7184.24 665.126   3
   6  -9   1 7559.33 685.546   1
   6  -9   2 307.676 186.514   1
  -6  -9  -2 511.629 229.003   3
   6  -9   3 2471.12 400.039   1
  -6  -9  -3 2281.61 404.118   3
   6  -9   4 191.888 156.209   1
  -6  -9  -4 470.287 218.783   3
   6  -9   5 1571.29 315.371   1
  -6 -10   4 2057.06 391.082   3
   6 -10  -3 25.9535 194.251   1
  -6 -10   3 525.975 243.863   3
  -6 -10   2 11197.2 861.933   3
   6 -10  -2 10511.9 887.356   1
   6 -10  -1 967.848 304.057   1
  -6 -10   1 939.266 278.566   3
   6 -10   0 4353.38 555.182   1
   6 -10   1 1836.71 379.311   1
   7   0  -9 23046.5 1176.64   1
   7   0  -8 173.668 190.025   1
   7   0  -7 797.130 260.604   1
   7   0  -6 7.07263 154.353   1
   7   0  -5 1659.59 307.126   1
   7   0  -4 141.789 162.971   1
   7   0  -3 67.2366 160.903   1
   7   0  -2-157.050 197.941   1
   7   0  -1 1309.15 291.645   1
   7   0   0 71.4014 147.238   1
   7   0   1 8437.38 674.926   1
   7   0   2 213.083 153.607   1
   7   0   3 647.969 204.716   1
   7   0   4 200.635 150.061   1
   7   0   5 16731.4 961.941   1
   7   0   6 12.7427 166.608   1
   7  -1  -9 741.176 241.525   1
   7   1  -9 1002.63 277.053   1
   7  -1  -8 4390.59 509.395   1
   7   1  -8 4873.26 529.734   1
   7  -1  -7 14035.0 887.060   1
   7   1  -7 13807.8 886.448   1
   7  -1  -6 3307.47 423.916   1
   7   1  -6 3610.40 465.758   1
   7  -1  -5 322.291 150.901   1
   7   1  -5 338.584 159.590   1
   7  -1  -4 18299.0 989.759   1
   7   1  -4 17668.9 975.941   1
   7  -1  -3 8279.49 659.451   1
   7   1  -3 8432.57 661.854   1
   7  -1  -2 7749.19 640.251   1
   7   1  -2 8506.52 681.273   1
   7  -1  -1 2616.11 369.897   1
   7   1  -1 2175.21 344.360   1
   7  -1   0 6940.29 596.374   1
   7   1   0 6098.32 567.186   1
   7  -1   1 1244.84 268.563   1
   7   1   1 2788.56 401.684   1
   7  -1   2 2602.73 376.646   1
   7   1   2 2628.02 388.041   1
   7  -1   3-181.823 201.557   1
   7   1   3 82.0603 167.504   1
   7  -1   4-44.0193 156.070   1
   7   1   4-83.7819 154.607   1
   7  -1   5 546.705 212.837   1
   7   1   5 1001.44 242.882   1
   7   1   6 417.282 202.644   1
   7  -1   6 169.396 169.087   1
   7   2  -8 1005.96 264.323   1
   7  -2  -8 818.784 243.135   1
   7  -2  -7 2989.10 408.929   1
   7   2  -7 3513.37 442.749   1
   7  -2  -6 2891.82 404.785   1
   7   2  -6 3127.49 415.515   1
   7  -2  -5 3051.19 415.220   1
   7   2  -5 2407.84 378.855   1
   7  -2  -4 95.1029 174.640   1
   7   2  -4 78.4727 166.090   1
   7  -2  -3 2314.10 363.848   1
   7   2  -3 2592.21 382.550   1
   7  -2  -2 5294.28 531.476   1
   7   2  -2 5394.72 531.503   1
   7  -2  -1 13078.8 833.205   1
   7   2  -1 12596.8 814.797   1
   7  -2   0 11640.3 785.864   1
   7   2   0 11469.5 779.033   1
   7  -2   1 50.4238 173.586   1
   7   2   1 400.047 185.601   1
   7  -2   2 25990.5 1196.47   1
   7   2   2 24808.3 1185.98   1
   7   2   3 1299.19 275.914   1
   7  -2   3 1142.82 273.780   1
   7  -2   4 8919.51 700.010   1
   7   2   4 9218.99 720.183   1
   7   2   5 2788.74 403.561   1
   7  -2   5 2436.25 381.099   1
   7  -3  -7-33.7206 204.502   1
   7   3  -7 1.58975 163.164   1
   7  -3  -6 748.335 233.046   1
   7   3  -6 425.934 180.415   1
   7  -3  -5 2792.99 396.098   1
   7   3  -5 2593.99 383.829   1
   7  -3  -4 15233.1 907.542   1
   7   3  -4 15542.1 919.141   1
   7   3  -3 118.966 142.839   1
   7  -3  -3 65.6022 176.132   1
   7  -3  -2 7445.41 623.734   1
   7   3  -2 8050.44 659.993   1
   7  -3  -1 5557.13 559.064   1
   7   3  -1 7012.67 610.773   1
   7   3   0 4984.27 523.474   1
   7  -3   0 4607.82 497.467   1
   7  -3   1 2570.64 389.100   1
   7   3   1 2388.50 376.454   1
   7  -3   2 61.4104 174.854   1
   7   3   2-196.690 198.125   1
   7  -3   3 1351.89 290.576   1
   7   3   3 2001.37 342.134   1
   7  -3   4 5886.20 569.176   1
   7   3   4 6418.24 595.482   1
   7  -4  -6 8108.04 677.996   1
   7   4  -6 8457.72 685.643   1
   7   4  -5 1125.89 287.390   1
   7  -4  -5 717.545 215.623   1
   7   4  -4 2647.73 394.739   1
   7  -4  -4 2520.06 378.755   1
   7   4  -3 25.9350 150.873   1
   7  -4  -3-77.8700 155.859   1
   7   4  -2 1649.33 339.851   1
   7  -4  -2 1407.27 294.308   1
   7   4  -1 1764.24 336.230   1
   7  -4  -1 2158.23 354.757   1
   7   4   0-64.9666 173.387   1
   7  -4   0 280.376 175.770   1
   7   4   1 36.3010 159.707   1
   7  -4   1-132.031 190.814   1
   7  -4   2 9424.33 711.925   1
   7   4   2 9186.49 707.668   1
   7  -4   3 6334.02 586.198   1
   7   4   3 6405.51 598.105   1
   7   5  -4 477.150 188.545   1
   7  -5  -4 935.797 282.556   1
   7   5  -3 762.506 252.498   1
   7  -5  -3 686.705 253.715   1
   7   5  -2 4270.38 498.750   1
   7  -5  -2 3272.27 441.284   1
   7   5  -1 59.3121 158.693   1
   7  -5  -1 198.022 185.707   1
   7   5   0 217.856 195.997   1
   7  -5   0 92.2501 184.465   1
   7   5   1 3710.25 467.086   1
   7  -5   1 4202.65 490.778   1
   0   0   0    0.00    0.00   0
TITL ML288_3 in P2(1)/n
REM P2(1)/n (#14 in standard setting)
CELL 0.71073   6.086091  14.477347  12.030313  90.0000  97.8123  90.0000
ZERR    6.00   0.000375   0.001072   0.000744   0.0000   0.0054   0.0000
LATT  1
SYMM -x+1/2, y+1/2,-z+1/2
SFAC C H N Br I
UNIT 30.00 48.00 12.00 6.00 12.00
TREF
HKLF 4
END
;
_shelx_hkl_checksum              51662
_shelx_res_file
;
TITL ml288_3 in P 21/n  dunkelrote Leiste
    ml288_3.res
    created by SHELXL-2017/1 at 15:49:47 on 14-Jul-2017
CELL  0.71073   6.0861  14.4773  12.0303   90.000   97.812   90.000
ZERR     8.00   0.0004   0.0011   0.0007    0.000    0.005    0.000
LATT   1
SYMM  1/2 - X, 1/2 + Y, 1/2 - Z
SFAC  C    H    N    BR   I
UNIT  20   32   8    4    8
MERG   2
SHEL 999 0.83
TEMP -100
FMAP   2
PLAN   25
SIZE     0.08   0.10   0.36
ACTA
BOND   $H
CONF
L.S.  10
WGHT    0.010200    8.681202
FVAR       1.82756
I1    5    0.593376    0.170848    0.055902    11.00000    0.02479    0.03409 =
         0.02542    0.00032    0.00067   -0.00318
I2    5    0.515953    0.402986    0.011403    11.00000    0.02817    0.05216 =
         0.03204   -0.00962    0.00619   -0.00971
BR    4    0.043928    0.286815    0.205657    11.00000    0.02665    0.02480 =
         0.03058   -0.00363    0.00281   -0.00467
N2    3    0.445915    0.350121    0.333913    11.00000    0.02491    0.02978 =
         0.01980   -0.00306    0.00536   -0.00488
N1    3    0.232186    0.461825    0.263031    11.00000    0.03013    0.02448 =
         0.02563   -0.00606    0.00227    0.00087
C1    1    0.253773    0.370250    0.272126    11.00000    0.03098    0.02120 =
         0.02071   -0.00309    0.01094   -0.00451
C4    1    0.047078    0.512089    0.197251    11.00000    0.03514    0.03264 =
         0.03282    0.00706   -0.00291    0.00834
AFIX 137
H4A   2    0.076771    0.518793    0.119610    11.00000   -1.50000
H4B   2    0.032629    0.573356    0.230131    11.00000   -1.50000
H4C   2   -0.090958    0.477458    0.198377    11.00000   -1.50000
AFIX   0
C3    1    0.550004    0.432699    0.364852    11.00000    0.02387    0.03447 =
         0.03412   -0.00261    0.00172   -0.01258
AFIX  43
H3    2    0.690601    0.439536    0.409197    11.00000   -1.20000
AFIX   0
C5    1    0.529753    0.257846    0.366733    11.00000    0.02890    0.02290 =
         0.03558    0.00135    0.00277    0.00213
AFIX 137
H5A   2    0.422473    0.225817    0.406887    11.00000   -1.50000
H5B   2    0.671533    0.263396    0.415747    11.00000   -1.50000
H5C   2    0.551338    0.222595    0.299519    11.00000   -1.50000
AFIX   0
C2    1    0.419085    0.501094    0.321736    11.00000    0.04134    0.02327 =
         0.03086   -0.00334    0.00172   -0.00810
AFIX  43
H2    2    0.449093    0.565310    0.329958    11.00000   -1.20000
AFIX   0
HKLF 4
REM  ml288_3 in P 21/n  dunkelrote Leiste
REM R1 =  0.0357 for    1746 Fo > 4sig(Fo)  and  0.0406 for all    1912 data
REM     93 parameters refined using      0 restraints
END
WGHT      0.0103      8.6785
REM Highest difference peak  0.762,  deepest hole -0.974,  1-sigma level  0.164
Q1    1   0.5925  0.1141  0.0659  11.00000  0.05    0.76
Q2    1   0.7278  0.1767  0.1111  11.00000  0.05    0.71
Q3    1   0.4661  0.1159 -0.0015  11.00000  0.05    0.69
Q4    1   0.4172  0.4149 -0.0471  11.00000  0.05    0.64
Q5    1   0.7157  0.4353  0.4544  11.00000  0.05    0.62
Q6    1   0.6647  0.3580  0.0785  11.00000  0.05    0.60
Q7    1  -0.0330  0.4097  0.1249  11.00000  0.05    0.55
Q8    1  -0.0170  0.2425  0.1831  11.00000  0.05    0.55
Q9    1  -0.1110  0.3055  0.1616  11.00000  0.05    0.53
Q10   1   0.1207  0.2668  0.2606  11.00000  0.05    0.52
Q11   1   0.1205  0.2919  0.1539  11.00000  0.05    0.51
Q12   1   0.4836  0.1990  0.0141  11.00000  0.05    0.50
Q13   1  -0.0692  0.3036  0.2590  11.00000  0.05    0.48
Q14   1   0.6153  0.4887  0.2606  11.00000  0.05    0.46
Q15   1  -0.0606  0.4929  0.3305  11.00000  0.05    0.45
Q16   1   0.7004  0.2015  0.4375  11.00000  0.05    0.44
Q17   1  -0.1818  0.3529  0.1996  11.00000  0.05    0.44
Q18   1   0.5391  0.2993  0.0515  11.00000  0.05    0.43
Q19   1   0.1797  0.2422  0.1545  11.00000  0.05    0.43
Q20   1  -0.0504  0.5086  0.2596  11.00000  0.05    0.41
Q21   1   0.5027  0.1740  0.1109  11.00000  0.05    0.41
Q22   1   0.8078  0.3333  0.3788  11.00000  0.05    0.41
Q23   1   0.7060  0.4380 -0.0543  11.00000  0.05    0.41
Q24   1  -0.2231  0.5102  0.1423  11.00000  0.05    0.41
Q25   1   0.4861  0.3408  0.2589  11.00000  0.05    0.41
;
_shelx_res_checksum              81796
loop_
_space_group_symop_operation_xyz
'x, y, z'
'-x+1/2, y+1/2, -z+1/2'
'-x, -y, -z'
'x-1/2, -y-1/2, z-1/2'
loop_
_atom_site_type_symbol
_atom_site_label
_atom_site_fract_x
_atom_site_fract_y
_atom_site_fract_z
_atom_site_U_iso_or_equiv
_atom_site_adp_type
_atom_site_calc_flag
_atom_site_occupancy
I I1 0.59338(9) 0.17085(4) 0.05590(4) 0.02835(16) Uani d 1
I I2 0.51595(9) 0.40299(5) 0.01140(5) 0.03726(18) Uani d 1
Br Br 0.04393(13) 0.28681(6) 0.20566(7) 0.0274(2) Uani d 1
N N2 0.4459(11) 0.3501(5) 0.3339(5) 0.0246(15) Uani d 1
N N1 0.2322(11) 0.4618(5) 0.2630(5) 0.0269(15) Uani d 1
C C1 0.2538(13) 0.3703(6) 0.2721(6) 0.0236(17) Uani d 1
C C4 0.0471(14) 0.5121(6) 0.1973(7) 0.034(2) Uani d 1
H H4A 0.076771 0.518793 0.119610 0.051 Uiso calc 1
H H4B 0.032629 0.573356 0.230131 0.051 Uiso calc 1
H H4C -0.090958 0.477458 0.198377 0.051 Uiso calc 1
C C3 0.5500(14) 0.4327(6) 0.3649(7) 0.031(2) Uani d 1
H H3 0.690601 0.439536 0.409197 0.037 Uiso calc 1
C C5 0.5298(14) 0.2578(6) 0.3667(7) 0.0293(19) Uani d 1
H H5A 0.422473 0.225817 0.406887 0.044 Uiso calc 1
H H5B 0.671533 0.263396 0.415747 0.044 Uiso calc 1
H H5C 0.551338 0.222595 0.299519 0.044 Uiso calc 1
C C2 0.4191(15) 0.5011(6) 0.3217(7) 0.032(2) Uani d 1
H H2 0.449093 0.565310 0.329958 0.039 Uiso calc 1
loop_
_atom_site_aniso_label
_atom_site_aniso_U_11
_atom_site_aniso_U_22
_atom_site_aniso_U_33
_atom_site_aniso_U_12
_atom_site_aniso_U_13
_atom_site_aniso_U_23
I1 0.0248(3) 0.0341(3) 0.0254(3) -0.0032(2) 0.0007(2) 0.0003(2)
I2 0.0282(3) 0.0522(4) 0.0320(3) -0.0097(3) 0.0062(2) -0.0096(3)
Br 0.0267(4) 0.0248(5) 0.0306(4) -0.0047(3) 0.0028(3) -0.0036(3)
N2 0.025(3) 0.030(4) 0.020(3) -0.005(3) 0.005(3) -0.003(3)
N1 0.030(4) 0.024(4) 0.026(4) 0.001(3) 0.002(3) -0.006(3)
C1 0.031(4) 0.021(4) 0.021(4) -0.005(4) 0.011(3) -0.003(3)
C4 0.035(5) 0.033(5) 0.033(5) 0.008(4) -0.003(4) 0.007(4)
C3 0.024(4) 0.034(5) 0.034(5) -0.013(4) 0.002(3) -0.003(4)
C5 0.029(4) 0.023(5) 0.036(5) 0.002(4) 0.003(4) 0.001(3)
C2 0.041(5) 0.023(5) 0.031(5) -0.008(4) 0.002(4) -0.003(4)
loop_
_atom_type_symbol
_atom_type_description
_atom_type_scat_dispersion_real
_atom_type_scat_dispersion_imag
_atom_type_scat_source
C C 0.0033 0.0016 'International Tables Vol C Tables 4.2.6.8 and 6.1.1.4'
H H 0.0000 0.0000 'International Tables Vol C Tables 4.2.6.8 and 6.1.1.4'
N N 0.0061 0.0033 'International Tables Vol C Tables 4.2.6.8 and 6.1.1.4'
Br Br -0.2901 2.4595 'International Tables Vol C Tables 4.2.6.8 and 6.1.1.4'
I I -0.4742 1.8119 'International Tables Vol C Tables 4.2.6.8 and 6.1.1.4'
loop_
_geom_angle_atom_site_label_1
_geom_angle_atom_site_label_2
_geom_angle_atom_site_label_3
_geom_angle
C1 N2 C3 107.3(7)
C1 N2 C5 126.7(7)
C3 N2 C5 125.9(7)
C1 N1 C2 107.6(7)
C1 N1 C4 126.3(7)
C2 N1 C4 126.0(7)
N2 C1 N1 109.4(7)
N2 C1 Br 126.8(6)
N1 C1 Br 123.8(6)
N1 C4 H4A 109.5
N1 C4 H4B 109.5
H4A C4 H4B 109.5
N1 C4 H4C 109.5
H4A C4 H4C 109.5
H4B C4 H4C 109.5
C2 C3 N2 108.1(7)
C2 C3 H3 125.9
N2 C3 H3 125.9
N2 C5 H5A 109.5
N2 C5 H5B 109.5
H5A C5 H5B 109.5
N2 C5 H5C 109.5
H5A C5 H5C 109.5
H5B C5 H5C 109.5
C3 C2 N1 107.6(8)
C3 C2 H2 126.2
N1 C2 H2 126.2
loop_
_geom_bond_atom_site_label_1
_geom_bond_atom_site_label_2
_geom_bond_site_symmetry_2
_geom_bond_distance
I2 I2 3_665 2.8265(14)
Br C1 . 1.858(8)
N2 C1 . 1.330(10)
N2 C3 . 1.380(11)
N2 C5 . 1.465(11)
N1 C1 . 1.335(11)
N1 C2 . 1.377(11)
N1 C4 . 1.477(10)
C4 H4A . 0.9800
C4 H4B . 0.9800
C4 H4C . 0.9800
C3 C2 . 1.331(12)
C3 H3 . 0.9500
C5 H5A . 0.9800
C5 H5B . 0.9800
C5 H5C . 0.9800
C2 H2 . 0.9500
loop_
_geom_hbond_atom_site_label_D
_geom_hbond_atom_site_label_H
_geom_hbond_atom_site_label_A
_geom_hbond_site_symmetry_A
_geom_hbond_distance_DH
_geom_hbond_distance_HA
_geom_hbond_distance_DA
_geom_hbond_angle_DHA
_geom_hbond_publ_flag
C5 H5B I1 4_666 0.98 3.03 3.986(8) 166 y
loop_
_geom_torsion_atom_site_label_1
_geom_torsion_atom_site_label_2
_geom_torsion_atom_site_label_3
_geom_torsion_atom_site_label_4
_geom_torsion
C3 N2 C1 N1 -0.1(8)
C5 N2 C1 N1 178.0(7)
C3 N2 C1 Br 179.2(6)
C5 N2 C1 Br -2.7(11)
C2 N1 C1 N2 0.0(9)
C4 N1 C1 N2 177.1(7)
C2 N1 C1 Br -179.4(6)
C4 N1 C1 Br -2.2(11)
C1 N2 C3 C2 0.2(9)
C5 N2 C3 C2 -177.9(7)
N2 C3 C2 N1 -0.2(10)
C1 N1 C2 C3 0.2(9)
C4 N1 C2 C3 -177.0(8)

_cod_database_fobs_code 2242415
