#------------------------------------------------------------------------------
#$Date: 2017-07-25 12:53:52 +0300 (Tue, 25 Jul 2017) $
#$Revision: 199209 $
#$URL: file:///home/coder/svn-repositories/cod/cif/2/24/22/2242249.cif $
#------------------------------------------------------------------------------
#
# This file is available in the Crystallography Open Database (COD),
# http://www.crystallography.net/. The original data for this entry
# were provided by IUCr Journals, http://journals.iucr.org/.
#
# The file may be used within the scientific community so long as
# proper attribution is given to the journal article from which the
# data were obtained.
#
data_2242249
loop_
_publ_author_name
'Choudhury, Manisha'
'Viswanathan, Vijayan'
'Timiri, Ajay Kumar'
'Sinha, Barij Nayan'
'Jayaprakash, Venkatesan'
'Velmurugan, Devadasan'
_publ_section_title
;
 Crystal structures of
 2-[(4,6-diaminopyrimidin-2-yl)sulfanyl]-<i>N</i>-(2,4-dimethylphenyl)acetamide
 and
 2-[(4,6-diaminopyrimidin-2-yl)sulfanyl]-<i>N</i>-(3-methoxyphenyl)acetamide
;
_journal_coeditor_code           SU5373
_journal_issue                   7
_journal_name_full               'Acta Crystallographica Section E'
_journal_page_first              996
_journal_page_last               1000
_journal_paper_doi               10.1107/S2056989017008143
_journal_volume                  73
_journal_year                    2017
_chemical_formula_iupac          'C13 H15 N5 O2 S'
_chemical_formula_moiety         'C13 H15 N5 O2 S'
_chemical_formula_sum            'C13 H15 N5 O2 S'
_chemical_formula_weight         305.36
_chemical_name_systematic
;
2-[(4,6-Diaminopyrimidin-2-yl)sulfanyl]-<i>N</i>-(3-methoxyphenyl)acetamide
;
_space_group_crystal_system      triclinic
_space_group_IT_number           2
_space_group_name_Hall           '-P 1'
_space_group_name_H-M_alt        'P -1'
_symmetry_space_group_name_Hall  '-P 1'
_symmetry_space_group_name_H-M   'P -1'
_atom_sites_solution_hydrogens   geom
_atom_sites_solution_primary     direct
_atom_sites_solution_secondary   difmap
_audit_creation_method           SHELXL-2016/4
_cell_angle_alpha                106.561(5)
_cell_angle_beta                 97.888(5)
_cell_angle_gamma                110.461(5)
_cell_formula_units_Z            2
_cell_length_a                   8.014(5)
_cell_length_b                   8.724(5)
_cell_length_c                   12.068(5)
_cell_measurement_reflns_used    2991
_cell_measurement_temperature    293(2)
_cell_measurement_theta_max      26.485
_cell_measurement_theta_min      1.825
_cell_volume                     730.9(7)
_computing_cell_refinement
;
SAINT (Bruker, 2008)
;
_computing_data_collection
;
APEX2 (Bruker, 2008)
;
_computing_data_reduction
;
SAINT (Bruker, 2008)
;
_computing_molecular_graphics
;
ORTEP-3 for Windows (Farrugia, 2012)
;
_computing_publication_material
;
SHELXL2016 (Sheldrick, 2015) and PLATON (Spek, 2009)
;
_computing_structure_refinement
;
SHELXL2016 (Sheldrick, 2015)
;
_computing_structure_solution
;
SHELXS97 (Sheldrick, 2008)
;
_diffrn_ambient_temperature      293(2)
_diffrn_measured_fraction_theta_full 1.000
_diffrn_measured_fraction_theta_max 0.995
_diffrn_measurement_device_type  'Bruker SMART APEXII area-detector'
_diffrn_measurement_method       '\w and \f scans'
_diffrn_radiation_type           MoK\a
_diffrn_radiation_wavelength     0.71073
_diffrn_reflns_av_R_equivalents  0.0259
_diffrn_reflns_limit_h_max       9
_diffrn_reflns_limit_h_min       -10
_diffrn_reflns_limit_k_max       10
_diffrn_reflns_limit_k_min       -10
_diffrn_reflns_limit_l_max       15
_diffrn_reflns_limit_l_min       -15
_diffrn_reflns_number            10789
_diffrn_reflns_theta_full        25.242
_diffrn_reflns_theta_max         26.485
_diffrn_reflns_theta_min         1.825
_exptl_absorpt_coefficient_mu    0.234
_exptl_absorpt_correction_T_max  0.843
_exptl_absorpt_correction_T_min  0.785
_exptl_absorpt_correction_type   multi-scan
_exptl_absorpt_process_details
;
(<i>SADABS</i>; Bruker, 2008)
;
_exptl_crystal_colour            yellow
_exptl_crystal_density_diffrn    1.388
_exptl_crystal_description       block
_exptl_crystal_F_000             320
_exptl_crystal_size_max          0.300
_exptl_crystal_size_mid          0.250
_exptl_crystal_size_min          0.200
_refine_diff_density_max         0.169
_refine_diff_density_min         -0.271
_refine_ls_extinction_method     none
_refine_ls_goodness_of_fit_ref   0.814
_refine_ls_hydrogen_treatment    constr
_refine_ls_matrix_type           full
_refine_ls_number_parameters     191
_refine_ls_number_reflns         2991
_refine_ls_number_restraints     0
_refine_ls_restrained_S_all      0.814
_refine_ls_R_factor_all          0.0417
_refine_ls_R_factor_gt           0.0365
_refine_ls_shift/su_max          0.001
_refine_ls_shift/su_mean         0.000
_refine_ls_structure_factor_coef Fsqd
_refine_ls_weighting_details
'w=1/[\s^2^(Fo^2^)+(0.0820P)^2^+0.3261P] where P=(Fo^2^+2Fc^2^)/3'
_refine_ls_weighting_scheme      calc
_refine_ls_wR_factor_gt          0.1037
_refine_ls_wR_factor_ref         0.1102
_reflns_number_gt                2616
_reflns_number_total             2991
_reflns_threshold_expression     'I > 2\s(I)'
_cod_data_source_file            su5373sup1.cif
_cod_data_source_block           II
_cod_database_code               2242249
_shelx_space_group_comment
;
The symmetry employed for this shelxl refinement is uniquely defined
by the following loop, which should always be used as a source of
symmetry information in preference to the above space-group names.
They are only intended as comments.
;
_shelx_estimated_absorpt_t_min   0.933
_shelx_estimated_absorpt_t_max   0.955
_shelx_hkl_file
;
   1   0  -1   60.15    1.64
   1   0  -1   58.89    1.71
   1   0  -1   59.70    1.63
   1   0  -1   61.15    1.58
  -1   0   1   59.12    1.53
  -1   0   1   58.83    1.58
   2   0  -2   85.98    2.47
   2   0  -2   86.37    2.35
  -2   0   2   89.51    2.38
  -2   0   2   84.57    2.29
  -2   0   2   85.44    2.22
   3   0  -3  150.37    4.43
   3   0  -3  158.57    4.23
  -3   0   3  155.67    4.00
  -3   0   3  156.14    4.12
  -3   0   3  158.63    4.27
   4   0  -4   18.66    0.58
   4   0  -4   18.19    0.61
  -4   0   4   18.57    0.56
  -4   0   4   18.79    0.57
  -4   0   4   18.67    0.60
   5   0  -5    2.79    0.16
   5   0  -5    2.97    0.17
  -5   0   5    3.07    0.19
  -5   0   5    2.91    0.19
  -5   0   5    3.15    0.16
   6   0  -6    1.45    0.12
   6   0  -6    1.43    0.14
   6   0  -6    1.44    0.13
  -6   0   6    1.25    0.14
  -6   0   6    1.50    0.15
  -6   0   6    1.35    0.12
   7   0  -7    1.04    0.12
   7   0  -7    1.10    0.14
  -7   0   7    1.26    0.13
  -7   0   7    1.24    0.16
  -7   0   7    1.25    0.15
   8   0  -8    0.38    0.10
   8   0  -8    0.66    0.14
  -8   0   8    0.40    0.13
  -8   0   8    0.55    0.11
  -9   1   8    0.08    0.13
  -8   1   7    4.77    0.31
   8  -1  -7    4.84    0.27
   8  -1  -7    4.35    0.26
  -7   1   6    0.47    0.09
  -7   1   6    0.34    0.11
  -7   1   6    0.20    0.08
   7  -1  -6    0.25    0.07
  -6   1   5    0.00    0.04
  -6   1   5    0.10    0.09
  -6   1   5    0.05    0.07
   6  -1  -5    0.07    0.05
   6  -1  -5    0.04    0.05
  -5   1   4   25.90    0.76
  -5   1   4   26.03    0.78
   5  -1  -4   25.36    0.84
   5  -1  -4   26.51    0.80
  -4   1   3   22.08    0.66
  -4   1   3   22.53    0.65
   4  -1  -3   22.12    0.72
   4  -1  -3   22.55    0.67
  -3   1   2   19.74    0.57
  -3   1   2   19.55    0.56
   3  -1  -2   19.46    0.62
   3  -1  -2   20.07    0.58
  -2   1   1  793.64   25.51
  -2   1   1  912.34   23.72
  -2   1   1 1000.00   24.37
   2  -1  -1  978.15   23.71
   2  -1  -1  940.12   24.38
   2  -1  -1  782.67   25.51
  -1   1   0   50.93    1.33
  -1   1   0   50.97    1.47
  -1   1   0   52.78    1.41
  -1   1   0   51.03    1.37
   1  -1   0   52.23    1.31
   1  -1   0   52.06    1.32
   1  -1   0   49.86    1.47
   1  -1   0   51.04    1.41
   1  -1   0   52.33    1.37
   0   1  -1   27.58    0.84
   0   1  -1   26.63    0.73
   0   1  -1   26.84    0.70
   0   1  -1   27.33    0.69
   0  -1   1   26.75    0.84
   1   1  -2   87.06    2.31
  -1  -1   2   85.87    2.30
  -1  -1   2   87.58    2.22
  -1  -1   2   86.48    2.38
   2   1  -3    1.99    0.09
   2   1  -3    2.00    0.11
  -2  -1   3    2.02    0.10
  -2  -1   3    2.05    0.12
   3   1  -4    0.29    0.06
   3   1  -4    0.27    0.04
  -3  -1   4    0.18    0.06
  -3  -1   4    0.28    0.06
  -3  -1   4    0.36    0.05
   4   1  -5    1.97    0.12
   4   1  -5    2.00    0.14
   4   1  -5    1.96    0.12
  -4  -1   5    2.74    0.17
  -4  -1   5    2.00    0.12
  -4  -1   5    2.08    0.14
   5   1  -6    5.12    0.25
   5   1  -6    5.00    0.24
   5   1  -6    5.51    0.25
  -5  -1   6    5.30    0.24
  -5  -1   6    5.39    0.27
  -5  -1   6    5.47    0.26
   6   1  -7    7.74    0.34
   6   1  -7    7.03    0.32
   6   1  -7    7.55    0.34
  -6  -1   7    7.36    0.35
  -6  -1   7    8.02    0.33
  -6  -1   7    7.64    0.34
   7   1  -8   10.06    0.44
   7   1  -8   11.15    0.46
   7   1  -8   10.81    0.41
  -7  -1   8   11.32    0.46
  -7  -1   8   10.99    0.47
  -7  -1   8   11.06    0.44
   8   1  -9    0.38    0.11
   8   1  -9    0.35    0.13
  -8  -1   9    0.44    0.12
  -9   2   7    0.86    0.18
  -8   2   6    0.47    0.14
   8  -2  -6    0.42    0.10
  -7   2   5    0.70    0.10
  -7   2   5    0.79    0.12
  -7   2   5    0.80    0.13
   7  -2  -5    0.72    0.10
  -6   2   4    0.10    0.05
  -6   2   4   -0.03    0.07
  -6   2   4    0.14    0.09
   6  -2  -4   -0.01    0.05
   6  -2  -4    0.10    0.05
  -5   2   3   20.15    0.64
  -5   2   3   19.45    0.63
  -5   2   3   20.28    0.60
   5  -2  -3   19.79    0.67
   5  -2  -3   19.52    0.62
  -4   2   2   10.10    0.34
  -4   2   2    9.69    0.32
  -4   2   2    9.86    0.35
   4  -2  -2    9.76    0.36
   4  -2  -2   10.14    0.34
  -3   2   1   38.74    1.04
  -3   2   1   39.63    1.15
  -3   2   1   41.41    1.06
  -3   2   1   33.39    1.09
   3  -2  -1   38.95    1.15
   3  -2  -1   39.36    1.09
  -2   2   0  383.07   10.53
  -2   2   0  442.86   11.29
  -2   2   0  434.00   11.07
  -2   2   0  393.73   11.72
   2  -2   0  426.05   11.32
   2  -2   0  430.37   10.49
   2  -2   0  394.40   11.84
   2  -2   0  428.40   10.49
  -1   2  -1   28.02    0.83
  -1   2  -1   29.55    0.81
  -1   2  -1   29.31    0.74
  -1   2  -1   28.24    0.79
  -1   2  -1   28.52    0.74
  -1   2  -1   28.34    0.75
   1  -2   1   27.15    0.73
   1  -2   1   29.01    0.79
   1  -2   1   28.70    0.74
   0   2  -2  115.53    2.83
   0   2  -2  109.53    2.99
   0   2  -2  112.40    3.28
   0   2  -2  114.10    2.83
   0  -2   2  111.83    3.28
   1   2  -3   37.00    0.93
   1   2  -3   35.79    1.04
   1   2  -3   35.53    1.01
   2   2  -4   74.39    2.20
   2   2  -4   77.83    2.10
   2   2  -4   77.57    1.98
  -2  -2   4   74.80    2.16
  -2  -2   4   78.94    1.99
  -2  -2   4   77.90    2.08
   3   2  -5   11.66    0.39
   3   2  -5   11.70    0.41
  -3  -2   5   11.41    0.39
  -3  -2   5   11.83    0.42
  -3  -2   5   11.70    0.37
   4   2  -6   -0.02    0.03
   4   2  -6   -0.02    0.03
   4   2  -6    0.03    0.07
  -4  -2   6    0.07    0.07
  -4  -2   6   -0.05    0.06
  -4  -2   6    0.10    0.05
   5   2  -7    1.19    0.10
   5   2  -7    1.29    0.11
   5   2  -7    1.42    0.15
   5   2  -7    1.07    0.11
  -5  -2   7    1.17    0.14
  -5  -2   7    1.18    0.13
   6   2  -8    1.27    0.16
   6   2  -8    1.30    0.11
   6   2  -8    1.02    0.12
  -6  -2   8    1.16    0.14
  -6  -2   8    1.33    0.16
  -6  -2   8    1.31    0.14
   7   2  -9    0.31    0.12
   7   2  -9    0.12    0.08
  -7  -2   9    0.34    0.11
  -9   3   6    2.91    0.26
  -8   3   5    0.19    0.12
   8  -3  -5    0.21    0.08
  -7   3   4    0.43    0.10
  -7   3   4    0.22    0.11
  -7   3   4    0.56    0.09
   7  -3  -4    0.42    0.09
  -6   3   3   12.74    0.42
  -6   3   3   12.42    0.45
  -6   3   3   11.53    0.46
   6  -3  -3   12.12    0.44
  -5   3   2   11.84    0.42
  -5   3   2   11.53    0.38
  -5   3   2   12.06    0.41
   5  -3  -2   11.40    0.44
   5  -3  -2   11.88    0.41
  -4   3   1   15.93    0.51
  -4   3   1   16.81    0.56
  -4   3   1   16.00    0.52
  -4   3   1   16.19    0.49
   4  -3  -1   16.39    0.55
   4  -3  -1   16.85    0.43
   4  -3  -1   15.98    0.52
   4  -3  -1   17.14    0.43
  -3   3   0   -0.01    0.03
  -3   3   0    0.02    0.02
  -3   3   0    0.02    0.04
  -3   3   0    0.03    0.03
   3  -3   0   -0.02    0.02
   3  -3   0    0.00    0.02
   3  -3   0   -0.01    0.02
   3  -3   0   -0.01    0.03
  -2   3  -1    8.01    0.27
  -2   3  -1    7.82    0.25
  -2   3  -1    7.76    0.23
  -2   3  -1    7.89    0.27
  -2   3  -1    8.18    0.23
   2  -3   1    8.39    0.24
   2  -3   1    7.67    0.27
   2  -3   1    7.78    0.24
  -1   3  -2  145.80    3.98
  -1   3  -2  156.06    3.77
  -1   3  -2  147.30    4.25
  -1   3  -2  146.71    3.77
  -1   3  -2  148.10    3.82
   1  -3   2  151.58    3.77
   1  -3   2  149.70    4.26
   1  -3   2  156.40    3.77
   0   3  -3   14.35    0.37
   0   3  -3   13.06    0.37
   0   3  -3   13.23    0.43
   0   3  -3   13.85    0.41
   0  -3   3   13.71    0.41
   1   3  -4   12.55    0.34
   1   3  -4   12.68    0.39
   1   3  -4   12.97    0.43
   2   3  -5   24.51    0.77
   2   3  -5   25.20    0.75
   2   3  -5   24.60    0.76
   2   3  -5   26.69    0.68
   3   3  -6   20.61    0.67
   3   3  -6   22.74    0.61
   3   3  -6   21.91    0.68
   3   3  -6   20.81    0.70
  -3  -3   6   22.39    0.63
   4   3  -7    1.16    0.15
   4   3  -7    0.93    0.08
   4   3  -7    1.03    0.09
  -4  -3   7    1.16    0.11
   5   3  -8   16.58    0.61
   6   3  -9    0.62    0.11
   6   3  -9    0.61    0.14
   7   3 -10    3.37    0.27
   7   3 -10    3.16    0.24
  -9   4   5    0.30    0.13
  -8   4   4    0.98    0.17
   8  -4  -4    0.81    0.12
  -7   4   3   11.76    0.47
  -7   4   3   11.56    0.41
   7  -4  -3   10.99    0.44
  -6   4   2    3.58    0.23
  -6   4   2    3.20    0.19
  -6   4   2    3.12    0.16
   6  -4  -2    3.51    0.13
   6  -4  -2    3.19    0.19
   6  -4  -2    3.48    0.21
  -5   4   1    8.06    0.29
  -5   4   1    7.67    0.32
  -5   4   1    8.49    0.32
   5  -4  -1    7.59    0.32
   5  -4  -1    8.28    0.25
   5  -4  -1    7.59    0.33
  -4   4   0   23.39    0.69
  -4   4   0   24.41    0.76
  -4   4   0   23.33    0.69
   4  -4   0   23.43    0.73
   4  -4   0   22.88    0.64
   4  -4   0   23.70    0.76
  -3   4  -1   59.41    1.62
  -3   4  -1   59.04    1.68
  -3   4  -1   58.42    1.57
  -3   4  -1   61.20    1.51
  -3   4  -1   60.27    1.74
   3  -4   1   57.81    1.74
   3  -4   1   58.92    1.53
  -2   4  -2    7.95    0.25
  -2   4  -2    8.31    0.28
  -2   4  -2    8.15    0.29
  -2   4  -2    8.36    0.26
   2  -4   2    8.33    0.25
  -1   4  -3    0.27    0.07
  -1   4  -3    0.35    0.03
  -1   4  -3    0.31    0.04
  -1   4  -3    0.37    0.04
   1  -4   3    0.31    0.03
   1  -4   3    0.31    0.04
   0   4  -4   47.76    1.37
   0   4  -4   47.27    1.24
   0   4  -4   49.50    1.39
   0  -4   4   48.28    1.39
   1   4  -5   36.55    0.91
   1   4  -5   34.63    1.05
   1   4  -5   35.61    1.03
   1   4  -5   35.54    0.91
   2   4  -6    1.09    0.06
   2   4  -6    1.12    0.13
   2   4  -6    0.94    0.08
   3   4  -7    7.22    0.34
   4   4  -8    0.01    0.08
   5   4  -9    0.71    0.15
   6   4 -10    0.03    0.06
   6   4 -10    0.14    0.12
  -9   5   4    1.78    0.21
  -8   5   3   14.21    0.59
   8  -5  -3   15.97    0.59
  -7   5   2   26.54    0.80
  -7   5   2   26.21    0.86
   7  -5  -2   26.88    0.73
   7  -5  -2   25.83    0.87
  -6   5   1   11.43    0.44
  -6   5   1   11.08    0.39
  -6   5   1   11.68    0.43
   6  -5  -1   11.25    0.44
   6  -5  -1   10.97    0.35
   6  -5  -1   11.04    0.45
  -5   5   0    8.66    0.34
  -5   5   0    8.58    0.31
   5  -5   0    8.07    0.27
   5  -5   0    8.76    0.35
   5  -5   0    7.93    0.34
  -4   5  -1    4.79    0.22
  -4   5  -1    4.44    0.13
  -4   5  -1    4.63    0.21
  -4   5  -1    4.64    0.21
  -4   5  -1    4.80    0.14
  -4   5  -1    4.52    0.22
   4  -5   1    4.26    0.17
   4  -5   1    4.78    0.22
  -3   5  -2    1.86    0.12
  -3   5  -2    1.66    0.09
  -3   5  -2    1.47    0.11
  -3   5  -2    1.45    0.10
   3  -5   2    1.46    0.10
   3  -5   2    1.48    0.09
  -2   5  -3    7.11    0.29
  -2   5  -3    6.62    0.24
  -2   5  -3    7.73    0.25
  -2   5  -3    7.51    0.26
   2  -5   3    7.53    0.26
   2  -5   3    7.23    0.23
  -1   5  -4    2.47    0.16
  -1   5  -4    1.86    0.11
  -1   5  -4    2.17    0.10
  -1   5  -4    2.41    0.10
   1  -5   4    2.23    0.09
   1  -5   4    2.14    0.10
   0   5  -5   22.24    0.62
   0   5  -5   22.91    0.66
   0   5  -5   22.47    0.72
   1   5  -6    0.77    0.13
   1   5  -6    0.83    0.04
   1   5  -6    0.81    0.06
   2   5  -7    0.12    0.09
   2   5  -7    0.14    0.03
   3   5  -8   19.00    0.69
   4   5  -9    0.97    0.17
   5   5 -10    0.57    0.15
  -9   6   3    0.03    0.12
  -8   6   2    9.56    0.45
   8  -6  -2    9.19    0.32
   8  -6  -2    9.07    0.43
  -7   6   1    3.87    0.20
  -7   6   1    3.58    0.24
   7  -6  -1    3.27    0.17
   7  -6  -1    3.63    0.24
  -6   6   0    1.24    0.14
  -6   6   0    1.36    0.12
   6  -6   0    1.24    0.10
   6  -6   0    1.18    0.13
   6  -6   0    1.13    0.14
  -5   6  -1    1.14    0.11
  -5   6  -1    0.99    0.12
  -5   6  -1    1.06    0.12
   5  -6   1    0.99    0.09
   5  -6   1    1.07    0.11
  -4   6  -2    2.32    0.16
  -4   6  -2    2.75    0.12
  -4   6  -2    2.53    0.18
  -4   6  -2    2.54    0.15
  -4   6  -2    2.59    0.17
   4  -6   2    2.77    0.16
   4  -6   2    2.50    0.13
  -3   6  -3    7.25    0.28
  -3   6  -3    7.11    0.25
  -3   6  -3    6.69    0.30
  -3   6  -3    7.31    0.26
   3  -6   3    7.24    0.25
   3  -6   3    6.90    0.28
  -2   6  -4   15.66    0.48
  -2   6  -4   16.18    0.51
  -2   6  -4   15.66    0.55
  -2   6  -4   16.43    0.47
   2  -6   4   16.85    0.52
  -1   6  -5   33.29    0.94
  -1   6  -5   34.39    1.06
  -1   6  -5   35.73    1.01
   1  -6   5   34.73    1.01
   0   6  -6    4.92    0.20
   0   6  -6    4.93    0.27
   1   6  -7    6.48    0.33
   1   6  -7    6.53    0.23
   2   6  -8    0.40    0.06
   2   6  -8    0.57    0.15
   3   6  -9    1.98    0.22
   4   6 -10    1.91    0.23
  -9   7   2    0.27    0.14
  -8   7   1    0.31    0.13
   8  -7  -1    0.06    0.10
   8  -7  -1    0.32    0.07
  -7   7   0    0.12    0.07
  -7   7   0    0.27    0.11
   7  -7   0    0.30    0.07
  -6   7  -1    1.11    0.13
  -6   7  -1    1.35    0.13
  -6   7  -1    1.00    0.14
   6  -7   1    1.01    0.13
   6  -7   1    1.11    0.10
  -5   7  -2    0.93    0.13
  -5   7  -2    0.90    0.12
  -5   7  -2    0.81    0.12
   5  -7   2    0.89    0.11
   5  -7   2    0.93    0.09
  -4   7  -3    0.32    0.05
  -4   7  -3    0.29    0.10
  -4   7  -3    0.37    0.08
   4  -7   3    0.12    0.05
   4  -7   3    0.31    0.06
  -3   7  -4    1.74    0.12
  -3   7  -4    1.73    0.13
  -3   7  -4    2.34    0.20
   3  -7   4    1.75    0.11
   3  -7   4    1.91    0.13
  -2   7  -5    0.18    0.06
  -2   7  -5    0.22    0.11
  -1   7  -6    2.69    0.15
  -1   7  -6    2.61    0.21
   0   7  -7    2.54    0.21
   0   7  -7    2.60    0.15
   1   7  -8   16.14    0.63
   2   7  -9    1.68    0.12
   2   7  -9    1.81    0.22
   3   7 -10    0.27    0.14
  -8   8   0    0.57    0.15
  -7   8  -1    0.51    0.13
   7  -8   1    0.32    0.08
  -6   8  -2    2.10    0.18
  -6   8  -2    1.83    0.16
  -6   8  -2    1.71    0.17
   6  -8   2    1.92    0.14
  -5   8  -3    1.32    0.15
  -5   8  -3    1.40    0.16
  -5   8  -3    1.13    0.13
   5  -8   3    1.20    0.11
  -4   8  -4    1.19    0.16
  -4   8  -4    1.06    0.10
   4  -8   4    1.07    0.10
  -3   8  -5    6.05    0.32
  -3   8  -5    6.29    0.25
  -2   8  -6   10.64    0.37
  -2   8  -6   10.26    0.45
  -1   8  -7    2.90    0.23
  -1   8  -7    3.05    0.17
   0   8  -8    1.38    0.21
   0   8  -8    1.34    0.12
   1   8  -9   13.09    0.43
   1   8  -9   12.58    0.57
   2   8 -10    3.45    0.29
   2   8 -10    3.47    0.19
  -8   9  -1    1.03    0.18
  -7   9  -2    0.14    0.11
  -6   9  -3    0.11    0.10
  -6   9  -3    0.09    0.10
  -6   9  -3   -0.02    0.09
   6  -9   3   -0.06    0.05
  -5   9  -4    2.31    0.21
  -5   9  -4    2.52    0.21
   5  -9   4    2.63    0.16
  -4   9  -5    3.33    0.18
  -4   9  -5    3.28    0.24
  -3   9  -6    0.56    0.15
  -3   9  -6    0.64    0.09
  -2   9  -7    1.21    0.12
  -2   9  -7    1.07    0.18
  -1   9  -8    0.07    0.12
   0   9  -9    0.09    0.13
  -6  10  -4    0.33    0.14
  -5  10  -5    1.09    0.17
  -5  10  -5    1.18    0.19
  -4  10  -6    8.20    0.42
  -4  10  -6    8.16    0.33
  -3  10  -7    0.60    0.17
  -2  10  -8   -0.13    0.10
  -1  10  -9   -0.20    0.11
  -1  10  -8    1.37    0.22
  -2  10  -7    1.33    0.21
  -3  10  -6    0.34    0.08
  -3  10  -6    0.27    0.14
  -4  10  -5    1.27    0.19
  -5  10  -4    4.02    0.28
  -5  10  -4    4.43    0.31
  -6  10  -3    2.92    0.26
   1   9  -9   -0.15    0.11
   0   9  -8    0.72    0.18
  -1   9  -7    0.59    0.09
  -1   9  -7    0.74    0.16
  -2   9  -6    1.99    0.15
  -2   9  -6    2.13    0.22
  -3   9  -5    0.36    0.14
  -3   9  -5    0.29    0.08
   4  -9   4    1.22    0.11
  -4   9  -4    0.98    0.10
  -4   9  -4    1.13    0.17
   5  -9   3    3.43    0.18
  -5   9  -3    3.47    0.26
  -5   9  -3    3.64    0.24
   6  -9   2    2.21    0.16
  -6   9  -2    2.69    0.23
  -6   9  -2    2.28    0.20
  -7   9  -1    0.63    0.14
  -8   9   0   -0.12    0.11
   2   8  -9    1.00    0.10
   2   8  -9    1.13    0.20
   1   8  -8    0.95    0.18
   1   8  -8    0.99    0.10
   0   8  -7    7.00    0.37
   0   8  -7    6.89    0.28
  -1   8  -6   -0.07    0.09
  -1   8  -6    0.12    0.06
  -2   8  -5   -0.01    0.05
  -2   8  -5   -0.05    0.09
   3  -8   4   14.52    0.44
  -3   8  -4   14.09    0.46
  -3   8  -4   14.28    0.55
   4  -8   3    1.73    0.12
  -4   8  -3    1.97    0.18
  -4   8  -3    2.00    0.12
   5  -8   2    0.95    0.12
   5  -8   2    1.09    0.10
  -5   8  -2    1.25    0.14
  -5   8  -2    1.33    0.15
  -5   8  -2    0.82    0.13
   6  -8   1    1.37    0.12
  -6   8  -1    1.71    0.15
  -6   8  -1    1.36    0.16
  -6   8  -1    1.14    0.15
   7  -8   0    0.06    0.06
  -7   8   0   -0.01    0.10
  -8   8   1    0.02    0.11
   4   7 -10    1.56    0.23
   3   7  -9    2.00    0.24
   2   7  -8    0.18    0.12
   1   7  -7    0.08    0.05
   1   7  -7   -0.13    0.10
   0   7  -6    4.88    0.28
   0   7  -6    4.83    0.21
  -1   7  -5    2.56    0.21
  -1   7  -5    2.76    0.15
   2  -7   4    1.92    0.13
   2  -7   4    2.06    0.11
  -2   7  -4    1.53    0.17
  -2   7  -4    1.73    0.12
   3  -7   3    5.12    0.23
   3  -7   3    4.79    0.20
  -3   7  -3    5.28    0.23
  -3   7  -3    4.82    0.26
  -3   7  -3    4.83    0.20
  -3   7  -3    5.19    0.22
   4  -7   2    0.58    0.08
   4  -7   2    0.55    0.09
  -4   7  -2    0.68    0.11
  -4   7  -2    0.54    0.10
  -4   7  -2    0.57    0.11
  -4   7  -2    0.61    0.07
   5  -7   1    0.05    0.05
   5  -7   1    0.01    0.05
  -5   7  -1   -0.02    0.08
  -5   7  -1   -0.05    0.06
  -5   7  -1    0.01    0.06
   6  -7   0    4.03    0.19
  -6   7   0    4.02    0.20
  -6   7   0    4.40    0.26
  -6   7   0    3.63    0.24
   7  -7  -1    1.95    0.13
  -7   7   1    2.13    0.21
   8  -7  -2    0.22    0.12
   8  -7  -2    0.07    0.06
  -8   7   2    0.24    0.12
  -9   7   3    0.85    0.18
   5   6 -10    0.52    0.16
   4   6  -9    0.93    0.18
   3   6  -8   12.77    0.54
   2   6  -7   21.97    0.77
   2   6  -7   22.12    0.61
   1   6  -6    9.39    0.41
   0  -6   5   13.63    0.41
   0   6  -5   12.69    0.48
   0   6  -5   12.16    0.39
   1  -6   4   84.43    2.50
   1  -6   4   88.95    2.20
  -1   6  -4   89.39    2.50
  -1   6  -4   85.48    2.25
  -1   6  -4   87.00    2.42
   2  -6   3    5.03    0.21
   2  -6   3    5.11    0.19
  -2   6  -3    5.30    0.20
  -2   6  -3    4.72    0.20
  -2   6  -3    5.35    0.25
  -2   6  -3    5.22    0.21
   3  -6   2   13.86    0.42
   3  -6   2   13.64    0.48
  -3   6  -2   14.36    0.49
  -3   6  -2   14.04    0.42
  -3   6  -2   14.22    0.49
  -3   6  -2   14.29    0.45
   4  -6   1    0.44    0.06
   4  -6   1    0.42    0.07
  -4   6  -1    0.46    0.09
  -4   6  -1    0.35    0.09
  -4   6  -1    0.74    0.10
  -4   6  -1    0.50    0.05
   5  -6   0    4.24    0.23
   5  -6   0    4.11    0.18
  -5   6   0    4.20    0.24
  -5   6   0    4.39    0.24
  -5   6   0    3.96    0.19
   6  -6  -1    1.23    0.13
   6  -6  -1    0.94    0.08
   6  -6  -1    0.74    0.12
  -6   6   1    1.11    0.11
  -6   6   1    1.13    0.13
  -6   6   1    1.09    0.15
   7  -6  -2    0.53    0.07
   7  -6  -2    0.41    0.11
  -7   6   2    0.52    0.13
  -7   6   2    0.15    0.07
   8  -6  -3    3.24    0.16
   8  -6  -3    3.44    0.25
  -8   6   3    3.52    0.28
  -9   6   4    0.13    0.13
   6   5 -10    3.54    0.29
   5   5  -9    0.01    0.09
   4   5  -8    1.10    0.17
   3   5  -7   25.75    0.86
   2   5  -6    1.80    0.09
   2   5  -6    2.13    0.19
   1   5  -5   22.98    0.68
   1   5  -5   22.20    0.61
   1   5  -5   22.71    0.74
   0  -5   4    0.09    0.04
   0   5  -4    0.15    0.03
   0   5  -4    0.05    0.04
   0   5  -4    0.16    0.08
   1  -5   3   26.32    0.79
   1  -5   3   26.80    0.69
  -1   5  -3   26.56    0.70
  -1   5  -3   25.83    0.80
  -1   5  -3   26.55    0.79
  -1   5  -3   24.97    0.72
   2  -5   2   15.63    0.45
  -2   5  -2   15.94    0.51
  -2   5  -2   15.69    0.46
  -2   5  -2   15.87    0.51
  -2   5  -2   16.33    0.47
   3  -5   1   68.08    1.77
   3  -5   1   65.54    2.00
  -3   5  -1   69.27    1.81
  -3   5  -1   66.28    1.75
  -3   5  -1   70.88    2.01
  -3   5  -1   68.99    1.88
  -3   5  -1   69.96    1.96
   4  -5   0   89.85    2.32
   4  -5   0   88.29    2.65
  -4   5   0   92.70    2.40
  -4   5   0   89.98    2.45
  -4   5   0   91.98    2.56
  -4   5   0   91.32    2.65
   5  -5  -1    1.25    0.09
   5  -5  -1    1.29    0.12
   5  -5  -1    1.06    0.11
  -5   5   1    1.27    0.13
  -5   5   1    1.18    0.13
  -5   5   1    1.51    0.10
   6  -5  -2    1.13    0.13
   6  -5  -2    1.48    0.14
   6  -5  -2    1.32    0.09
  -6   5   2    1.36    0.14
  -6   5   2    1.91    0.12
  -6   5   2    1.32    0.15
   7  -5  -3    4.58    0.26
   7  -5  -3    4.51    0.18
  -7   5   3    4.56    0.29
   8  -5  -4    4.99    0.28
  -8   5   4    4.56    0.31
  -9   5   5    0.48    0.16
   6   4  -9    0.31    0.10
   6   4  -9    0.30    0.12
   5   4  -8    0.10    0.09
   4   4  -7    5.80    0.30
   3   4  -6    3.82    0.23
   3   4  -6    3.68    0.18
   3   4  -6    3.65    0.16
   2   4  -5   12.71    0.46
   2   4  -5   12.72    0.42
   1   4  -4   39.12    0.98
   1   4  -4   38.14    1.11
   1   4  -4   37.11    1.11
   1   4  -4   37.28    0.98
   0  -4   3   11.46    0.37
   0   4  -3   11.78    0.37
   0   4  -3   11.78    0.40
   0   4  -3   12.16    0.34
   1  -4   2   99.53    2.50
   1  -4   2   98.79    2.83
  -1   4  -2  100.86    2.67
  -1   4  -2   98.57    2.82
  -1   4  -2   95.92    2.51
  -1   4  -2  100.29    2.54
   2  -4   1   32.02    0.97
   2  -4   1   32.72    0.86
  -2   4  -1   32.16    0.92
  -2   4  -1   32.44    0.88
  -2   4  -1   32.85    0.85
  -2   4  -1   32.07    0.97
   3  -4   0    3.57    0.17
   3  -4   0    3.59    0.14
  -3   4   0    3.88    0.16
  -3   4   0    3.62    0.11
  -3   4   0    3.75    0.18
  -3   4   0    4.05    0.19
  -3   4   0    3.89    0.12
   4  -4  -1   11.75    0.34
   4  -4  -1   11.87    0.41
   4  -4  -1   11.38    0.43
  -4   4   1   11.96    0.42
  -4   4   1   11.98    0.43
  -4   4   1   11.57    0.40
  -4   4   1   11.94    0.37
   5  -4  -2    8.11    0.24
   5  -4  -2    7.68    0.33
   5  -4  -2    7.62    0.31
   5  -4  -2    7.39    0.23
  -5   4   2    7.90    0.32
  -5   4   2    7.48    0.32
  -5   4   2    7.33    0.27
   6  -4  -3    0.89    0.12
   6  -4  -3    0.58    0.10
  -6   4   3    0.71    0.11
  -6   4   3    0.70    0.09
  -6   4   3    1.12    0.15
   7  -4  -4    0.08    0.06
  -7   4   4    0.04    0.09
  -7   4   4    0.00    0.04
   8  -4  -5    0.24    0.09
  -8   4   5    0.12    0.11
  -9   4   6    0.42    0.17
   7   3  -9    0.08    0.11
   7   3  -9    0.06    0.08
  -6  -3   8    2.26    0.18
   6   3  -8    2.66    0.21
   6   3  -8    2.34    0.19
  -5  -3   7    3.99    0.23
   5   3  -7    3.90    0.20
   5   3  -7    3.78    0.24
  -4  -3   6    2.05    0.15
  -4  -3   6    2.01    0.14
   4   3  -6    2.03    0.15
   4   3  -6    2.04    0.18
   4   3  -6    1.94    0.11
   4   3  -6    2.01    0.13
  -3  -3   5   52.94    1.52
  -3  -3   5   54.71    1.41
   3   3  -5   54.23    1.58
   3   3  -5   52.50    1.53
  -2  -3   4    0.86    0.07
  -2  -3   4    0.68    0.08
   2   3  -4    0.80    0.10
   2   3  -4    0.93    0.05
   2   3  -4    0.90    0.08
   1   3  -3   32.90    0.97
   1   3  -3   31.88    0.95
   1   3  -3   32.49    0.84
   1   3  -3   34.29    0.84
   0  -3   2    3.95    0.11
   0  -3   2    3.97    0.11
   0  -3   2    3.91    0.15
   0   3  -2    4.07    0.13
   0   3  -2    3.90    0.13
   0   3  -2    3.96    0.14
   0   3  -2    3.82    0.17
   1  -3   1   93.73    2.34
   1  -3   1   92.68    2.33
  -1   3  -1   92.18    2.34
  -1   3  -1   92.09    2.37
  -1   3  -1   92.01    2.64
  -1   3  -1   92.19    2.47
   2  -3   0  117.99    3.51
   2  -3   0  127.58    3.10
   2  -3   0  121.51    3.10
  -2   3   0  126.96    3.10
  -2   3   0  121.72    3.51
  -2   3   0  126.40    3.09
  -2   3   0  123.45    3.26
  -2   3   0  122.36    3.38
  -2   3   0  120.21    3.16
   3  -3  -1    0.05    0.02
   3  -3  -1    0.09    0.03
   3  -3  -1    0.08    0.02
   3  -3  -1    0.12    0.04
  -3   3   1    0.20    0.05
  -3   3   1    0.31    0.06
  -3   3   1    0.14    0.03
  -3   3   1    0.06    0.03
   4  -3  -2   31.66    0.92
   4  -3  -2   30.45    0.98
  -4   3   2   30.78    0.90
  -4   3   2   31.55    0.87
  -4   3   2   31.60    0.98
  -4   3   2   31.91    0.94
   5  -3  -3    7.84    0.30
   5  -3  -3    7.86    0.33
  -5   3   3    7.68    0.32
  -5   3   3    7.87    0.33
  -5   3   3    7.75    0.27
   6  -3  -4   97.39    2.81
   6  -3  -4   92.83    2.64
  -6   3   4   95.80    2.69
  -6   3   4   93.39    2.56
  -6   3   4   92.56    2.54
   7  -3  -5    0.04    0.06
  -7   3   5    0.05    0.05
  -7   3   5    0.16    0.08
  -7   3   5   -0.02    0.09
  -8   3   6    3.00    0.25
  -9   3   7    5.14    0.36
  -8  -2   9    0.24    0.11
   8   2  -9    0.18    0.12
  -7  -2   8    0.06    0.08
   7   2  -8    0.10    0.10
   7   2  -8    0.11    0.07
  -6  -2   7   10.92    0.41
  -6  -2   7   10.73    0.43
   6   2  -7   10.12    0.43
   6   2  -7   11.18    0.44
   6   2  -7   10.66    0.45
  -5  -2   6    2.55    0.17
   5   2  -6    2.54    0.16
   5   2  -6    2.47    0.16
   5   2  -6    2.42    0.19
  -4  -2   5    7.85    0.31
  -4  -2   5    8.50    0.30
   4   2  -5    8.11    0.33
   4   2  -5    7.90    0.31
  -3  -2   4    1.69    0.11
  -3  -2   4    1.61    0.11
   3   2  -4    1.80    0.13
  -2  -2   3   32.73    0.88
  -2  -2   3   34.03    0.94
   2   2  -3   33.94    0.95
   2   2  -3   32.58    0.98
  -1  -2   2   38.15    1.04
  -1  -2   2   37.23    0.98
   1   2  -2   37.58    1.10
   1   2  -2   38.09    1.05
   0  -2   1   65.62    1.93
   0  -2   1   68.63    1.70
   0  -2   1   68.32    1.70
   0   2  -1   66.86    1.81
   0   2  -1   68.15    1.93
   0   2  -1   68.76    1.70
   0   2  -1   65.83    1.70
   1  -2   0   23.79    0.62
   1  -2   0   24.78    0.62
   1  -2   0   24.43    0.66
   1  -2   0   23.37    0.71
  -1   2   0   23.06    0.66
  -1   2   0   23.67    0.64
  -1   2   0   23.54    0.62
  -1   2   0   23.85    0.71
  -1   2   0   24.78    0.62
   2  -2  -1   64.46    1.55
   2  -2  -1   62.86    1.63
   2  -2  -1   60.30    1.55
   2  -2  -1   60.46    1.68
  -2   2   1   60.46    1.71
  -2   2   1   59.45    1.60
  -2   2   1   62.23    1.68
  -2   2   1   59.49    1.77
  -2   2   1   61.36    1.63
   3  -2  -2    0.91    0.08
   3  -2  -2    1.03    0.07
  -3   2   2    1.05    0.07
  -3   2   2    1.07    0.09
  -3   2   2    1.09    0.08
  -3   2   2    1.05    0.06
  -3   2   2    0.90    0.08
   4  -2  -3  236.13    6.96
   4  -2  -3  248.22    6.62
  -4   2   3  240.24    6.28
  -4   2   3  248.46    6.70
  -4   2   3  249.88    6.97
  -4   2   3  248.06    6.44
   5  -2  -4    3.85    0.18
   5  -2  -4    3.67    0.20
  -5   2   4    3.78    0.23
  -5   2   4    3.80    0.21
  -5   2   4    3.83    0.16
   6  -2  -5    2.73    0.16
   6  -2  -5    2.62    0.18
  -6   2   5    2.77    0.20
  -6   2   5    2.66    0.15
  -6   2   5    2.92    0.21
   7  -2  -6    3.26    0.19
  -7   2   6    3.18    0.23
  -7   2   6    3.43    0.19
  -7   2   6    3.20    0.24
  -8   2   7    0.28    0.13
   9  -2  -8    0.35    0.10
  -9   2   8    0.47    0.16
  -8  -1   8    6.08    0.32
  -8  -1   8    5.50    0.33
   8   1  -8    5.74    0.32
   8   1  -8    5.50    0.32
  -7  -1   7   11.59    0.46
  -7  -1   7   10.56    0.44
  -7  -1   7   11.44    0.47
   7   1  -7   11.50    0.47
   7   1  -7   11.53    0.47
  -6  -1   6   15.21    0.54
  -6  -1   6   14.92    0.52
  -6  -1   6   14.32    0.52
   6   1  -6   15.08    0.55
   6   1  -6   14.40    0.53
   6   1  -6   14.51    0.53
  -5  -1   5    6.33    0.27
  -5  -1   5    6.19    0.27
  -5  -1   5    6.26    0.28
   5   1  -5    6.24    0.27
   5   1  -5    6.14    0.27
   5   1  -5    5.96    0.28
  -4  -1   4    7.94    0.30
  -4  -1   4    8.25    0.29
  -4  -1   4    8.23    0.31
   4   1  -4    7.80    0.30
   4   1  -4    7.85    0.31
  -3  -1   3   36.28    1.03
  -3  -1   3   36.34    0.99
  -3  -1   3   37.70    1.07
  -2  -1   2  104.78    2.81
  -2  -1   2  106.40    2.90
  -1  -1   1   89.26    2.23
   1   1  -1   83.71    2.49
   1   1  -1   89.12    2.31
   0  -1   0  276.42    7.39
   0  -1   0  276.37    7.16
   0  -1   0  282.84    7.05
   0  -1   0  269.46    7.36
   0  -1   0  278.45    8.00
   0  -1   0  282.43    7.04
   0   1   0  284.53    7.03
   0   1   0  278.02    7.04
   0   1   0  271.02    7.38
   0   1   0  280.39    7.99
   1  -1  -1  233.34    7.17
   1  -1  -1  259.32    6.94
   1  -1  -1  262.31    6.87
  -1   1   1  262.66    6.90
  -1   1   1  237.85    6.39
  -1   1   1  240.56    7.18
  -1   1   1  261.07    6.98
  -1   1   1  261.76    6.90
   2  -1  -2  612.77   19.46
   2  -1  -2  732.56   18.10
   2  -1  -2  730.65   18.63
  -2   1   2  759.35   18.61
  -2   1   2  679.16   18.12
  -2   1   2  739.65   18.79
  -2   1   2  615.00   17.53
  -2   1   2  629.96   19.48
   3  -1  -3   29.88    0.86
   3  -1  -3   29.08    0.91
  -3   1   3   29.25    0.83
  -3   1   3   30.23    0.84
  -3   1   3   31.10    0.86
  -3   1   3   30.83    0.89
  -3   1   3   30.17    0.91
   4  -1  -4  291.29    8.48
   4  -1  -4  301.75    8.07
  -4   1   4  309.76    8.17
  -4   1   4  303.39    8.48
  -4   1   4  295.82    7.86
  -4   1   4  294.78    7.65
   5  -1  -5    1.62    0.13
   5  -1  -5    1.38    0.10
  -5   1   5    1.71    0.11
  -5   1   5    1.66    0.15
  -5   1   5    1.67    0.15
   6  -1  -6    2.33    0.17
   6  -1  -6    2.24    0.15
   6  -1  -6    1.78    0.14
  -6   1   6    2.13    0.14
  -6   1   6    1.95    0.18
  -6   1   6    2.23    0.18
   7  -1  -7    7.95    0.34
   7  -1  -7    8.19    0.34
  -7   1   7    8.05    0.37
  -7   1   7    7.72    0.37
  -7   1   7    7.58    0.32
   8  -1  -8    0.62    0.11
  -8   1   8    0.79    0.16
  -8   0   7    0.42    0.13
  -8   0   7    0.55    0.11
   8   0  -7    0.45    0.13
   8   0  -7    0.33    0.10
  -7   0   6    0.01    0.05
  -7   0   6    0.01    0.06
  -7   0   6    0.05    0.09
   7   0  -6   -0.09    0.06
   7   0  -6    0.02    0.05
  -6   0   5    0.33    0.08
  -6   0   5    0.24    0.10
   6   0  -5    0.39    0.08
   6   0  -5    0.29    0.07
  -5   0   4    0.00    0.03
  -5   0   4    0.00    0.07
  -5   0   4    0.10    0.05
   5   0  -4    0.12    0.04
   5   0  -4    0.07    0.04
  -4   0   3  158.66    3.99
  -4   0   3  157.99    4.12
   4   0  -3  147.86    4.43
   4   0  -3  155.44    4.23
  -3   0   2   84.31    2.18
  -3   0   2   83.24    2.25
  -3   0   2   86.65    2.32
   3   0  -2   82.50    2.43
  -2   0   1   41.13    1.12
  -2   0   1   39.87    1.05
  -2   0   1   41.31    1.12
  -2   0   1   38.92    1.09
   2   0  -1   39.16    1.12
  -1   0   0   33.10    0.92
  -1   0   0   34.99    0.94
  -1   0   0   33.85    0.88
   1   0   0   34.58    0.97
   0   0  -1    4.25    0.13
   0   0  -1    4.01    0.13
   0   0  -1    4.28    0.13
   0   0  -1    4.14    0.12
   0   0  -1    4.18    0.12
   0   0  -1    4.22    0.11
   0   0  -1    4.25    0.11
   0   0   1    4.16    0.13
   0   0   1    4.14    0.11
   0   0   1    4.06    0.13
   0   0   1    4.10    0.13
   0   0   1    4.17    0.11
   1   0  -2  140.77    3.75
   1   0  -2  138.00    4.00
   1   0  -2  143.51    3.71
   1   0  -2  140.82    3.59
  -1   0   2  137.93    4.00
  -1   0   2  141.14    3.60
  -1   0   2  143.08    3.75
  -1   0   2  142.84    3.85
   2   0  -3  370.82   10.97
   2   0  -3  383.66   10.49
   2   0  -3  377.13   10.25
  -2   0   3  404.04   10.45
  -2   0   3  386.98    9.84
  -2   0   3  391.51   10.97
  -2   0   3  383.67   10.23
   3   0  -4   23.04    0.71
   3   0  -4   21.59    0.67
   3   0  -4   23.16    0.66
  -3   0   4   22.92    0.66
  -3   0   4   23.22    0.71
  -3   0   4   23.11    0.66
  -3   0   4   23.42    0.71
   4   0  -5    0.06    0.05
   4   0  -5    0.07    0.03
   4   0  -5    0.04    0.04
  -4   0   5    0.01    0.06
  -4   0   5    0.10    0.04
  -4   0   5    0.12    0.07
   5   0  -6    0.13    0.05
   5   0  -6    0.18    0.08
   5   0  -6    0.11    0.05
  -5   0   6    0.15    0.08
  -5   0   6    0.07    0.05
  -5   0   6    0.18    0.09
   6   0  -7    3.29    0.21
   6   0  -7    3.21    0.19
   6   0  -7    3.39    0.20
  -6   0   7    3.19    0.23
  -6   0   7    3.27    0.22
  -6   0   7    3.23    0.18
   7   0  -8    1.22    0.13
   7   0  -8    1.02    0.12
   7   0  -8    1.52    0.16
  -7   0   8    1.30    0.16
  -7   0   8    1.47    0.14
  -7   0   8    1.34    0.17
   8   0  -9    0.48    0.10
  -8   0   9    0.59    0.15
  -9   1   7    2.85    0.25
   9  -1  -7    2.81    0.22
  -8   1   6    3.43    0.25
  -8   1   6    3.55    0.22
   8  -1  -6    3.40    0.22
  -7   1   5    1.29    0.15
  -7   1   5    1.57    0.14
   7  -1  -5    1.39    0.14
  -6   1   4    7.16    0.29
  -6   1   4    7.83    0.34
  -6   1   4    7.90    0.31
   6  -1  -4    7.47    0.31
   6  -1  -4    7.55    0.33
  -5   1   3    5.73    0.25
  -5   1   3    5.64    0.23
  -5   1   3    5.40    0.22
   5  -1  -3    5.32    0.25
   5  -1  -3    5.38    0.24
  -4   1   2   27.31    0.77
  -4   1   2   27.47    0.79
  -4   1   2   26.43    0.77
   4  -1  -2   27.54    0.81
   4  -1  -2   26.14    0.84
  -3   1   1   18.45    0.53
  -3   1   1   18.36    0.53
  -3   1   1   18.83    0.54
   3  -1  -1   17.78    0.58
   3  -1  -1   18.57    0.55
  -2   1   0   12.82    0.38
  -2   1   0   12.26    0.37
  -2   1   0   12.94    0.37
  -2   1   0   12.19    0.36
   2  -1   0   12.45    0.38
   2  -1   0   13.34    0.37
  -1   1  -1   18.72    0.50
  -1   1  -1   19.81    0.55
  -1   1  -1   19.15    0.51
  -1   1  -1   19.41    0.50
   1  -1   1   19.31    0.55
   1  -1   1   19.08    0.50
   1  -1   1   19.70    0.54
   0   1  -2  174.87    4.49
   0   1  -2  172.73    4.49
   0   1  -2  175.43    5.48
   0   1  -2  172.61    4.60
   0   1  -2  178.77    4.49
   0  -1   2  176.77    5.48
   0  -1   2  176.98    4.60
   0  -1   2  171.11    4.75
   1   1  -3   95.94    2.42
   1   1  -3   94.93    2.52
   1   1  -3   93.94    2.70
  -1  -1   3   94.56    2.61
  -1  -1   3   94.37    2.70
   2   1  -4  261.71    6.89
   2   1  -4  255.15    7.39
   2   1  -4  264.21    6.65
  -2  -1   4  267.78    6.89
  -2  -1   4  266.46    6.66
  -2  -1   4  256.60    7.13
   3   1  -5  110.94    3.02
   3   1  -5  109.22    3.22
   3   1  -5  113.93    2.90
  -3  -1   5  111.86    3.01
  -3  -1   5  114.48    2.92
  -3  -1   5  113.62    3.13
   4   1  -6    0.59    0.09
   4   1  -6    0.53    0.07
   4   1  -6    0.63    0.07
   4   1  -6    0.62    0.07
  -4  -1   6    0.61    0.10
  -4  -1   6    0.73    0.08
  -4  -1   6    0.60    0.10
   5   1  -7    0.35    0.10
   5   1  -7    0.42    0.07
   5   1  -7    0.27    0.06
   5   1  -7    0.30    0.06
  -5  -1   7    0.22    0.09
  -5  -1   7    0.44    0.08
  -5  -1   7    0.32    0.10
   6   1  -8    2.02    0.14
   6   1  -8    2.14    0.17
   6   1  -8    2.35    0.17
   6   1  -8    2.24    0.16
  -6  -1   8    1.98    0.18
  -6  -1   8    2.17    0.16
  -6  -1   8    2.53    0.20
   7   1  -9    0.49    0.10
   7   1  -9    0.78    0.14
   7   1  -9    0.41    0.09
  -7  -1   9    0.57    0.13
  -7  -1   9    0.43    0.13
  -7  -1   9    0.48    0.11
  -9   2   6    0.21    0.13
   9  -2  -6    0.37    0.11
  -8   2   5    0.09    0.11
  -8   2   5    0.29    0.09
   8  -2  -5    0.32    0.09
  -7   2   4    0.28    0.10
  -7   2   4   -0.03    0.04
   7  -2  -4    0.02    0.05
  -6   2   3    3.96    0.20
  -6   2   3    3.71    0.19
  -6   2   3    3.70    0.22
   6  -2  -3    4.11    0.22
   6  -2  -3    4.01    0.21
  -5   2   2   38.96    1.09
  -5   2   2   37.09    1.06
  -5   2   2   36.89    1.06
   5  -2  -2   37.45    1.10
   5  -2  -2   36.73    1.16
  -4   2   1   12.04    0.39
  -4   2   1   12.18    0.38
  -4   2   1   12.56    0.39
   4  -2  -1   11.58    0.40
   4  -2  -1   11.90    0.42
  -3   2   0    2.08    0.10
  -3   2   0    1.56    0.09
  -3   2   0    1.89    0.11
   3  -2   0    1.86    0.06
   3  -2   0    1.93    0.06
   3  -2   0    1.85    0.10
   3  -2   0    1.65    0.10
  -2   2  -1  236.11    6.16
  -2   2  -1  226.43    5.95
  -2   2  -1  245.59    6.32
  -2   2  -1  232.40    5.92
  -2   2  -1  233.48    5.92
   2  -2   1  230.34    6.62
   2  -2   1  236.70    5.87
   2  -2   1  236.42    5.91
   2  -2   1  231.66    6.32
  -1   2  -2  190.95    4.90
  -1   2  -2  189.59    5.08
  -1   2  -2  198.19    5.21
   1  -2   2  203.07    4.83
   1  -2   2  185.97    5.52
   1  -2   2  189.73    4.87
   0   2  -3   69.05    1.77
   0   2  -3   69.71    1.90
   0   2  -3   72.04    1.77
   0   2  -3   70.40    1.80
   1   2  -4  106.14    2.82
   1   2  -4  104.01    2.99
   1   2  -4  106.83    2.68
  -1  -2   4  103.52    2.91
   2   2  -5   25.08    0.76
   2   2  -5   25.66    0.69
   2   2  -5   25.57    0.76
  -2  -2   5   25.81    0.71
  -2  -2   5   25.44    0.79
   3   2  -6    0.92    0.07
   3   2  -6    0.88    0.07
   3   2  -6    0.88    0.11
  -3  -2   6    0.83    0.11
  -3  -2   6    0.99    0.09
   4   2  -7    6.27    0.26
   4   2  -7    6.16    0.28
   4   2  -7    5.89    0.23
  -4  -2   7    6.00    0.30
   5   2  -8    3.94    0.19
   5   2  -8    3.48    0.22
   5   2  -8    3.95    0.21
   5   2  -8    3.88    0.21
  -5  -2   8    3.83    0.22
  -5  -2   8    3.80    0.24
   6   2  -9    3.75    0.20
   6   2  -9    4.00    0.23
   6   2  -9    3.87    0.25
  -6  -2   9    3.54    0.26
   7   2 -10    0.65    0.15
   7   2 -10    0.50    0.11
  -7  -2  10    0.43    0.14
  -9   3   5    0.23    0.12
   9  -3  -5    0.26    0.09
  -8   3   4    1.74    0.15
  -8   3   4    2.05    0.20
   8  -3  -4    1.95    0.17
  -7   3   3    3.94    0.24
  -7   3   3    3.80    0.20
   7  -3  -3    3.75    0.22
  -6   3   2    1.52    0.15
  -6   3   2    1.72    0.14
  -6   3   2    1.71    0.12
   6  -3  -2    1.91    0.14
   6  -3  -2    1.51    0.13
  -5   3   1    5.55    0.22
  -5   3   1    5.32    0.22
  -5   3   1    5.05    0.24
   5  -3  -1    5.12    0.24
   5  -3  -1    5.53    0.15
   5  -3  -1    4.88    0.23
  -4   3   0   16.33    0.50
  -4   3   0   17.07    0.51
  -4   3   0   16.13    0.50
   4  -3   0   16.64    0.44
   4  -3   0   16.58    0.45
   4  -3   0   15.99    0.53
   4  -3   0   16.10    0.55
  -3   3  -1    3.42    0.10
  -3   3  -1    3.75    0.16
  -3   3  -1    3.48    0.15
  -3   3  -1    3.56    0.10
  -3   3  -1    3.51    0.15
   3  -3   1    3.49    0.16
   3  -3   1    3.62    0.17
   3  -3   1    3.41    0.13
   3  -3   1    3.79    0.13
  -2   3  -2   86.61    2.25
  -2   3  -2   87.95    2.34
  -2   3  -2   87.21    2.21
   2  -3   2   86.93    2.21
  -1   3  -3    0.16    0.03
  -1   3  -3    0.19    0.03
  -1   3  -3    0.23    0.06
  -1   3  -3    0.11    0.03
   1  -3   3    0.07    0.02
   1  -3   3    0.20    0.03
   1  -3   3    0.14    0.02
   0   3  -4   55.40    1.56
   0   3  -4   57.62    1.43
   0   3  -4   56.38    1.45
   0   3  -4   55.81    1.43
   1   3  -5    1.17    0.05
   1   3  -5    1.24    0.11
   1   3  -5    1.21    0.05
   1   3  -5    1.20    0.07
   2   3  -6   34.25    1.03
   2   3  -6   35.90    0.93
   2   3  -6   34.69    1.02
  -2  -3   6   34.00    1.06
   3   3  -7    6.58    0.23
   3   3  -7    6.67    0.24
   3   3  -7    6.49    0.30
  -3  -3   7    6.21    0.31
   4   3  -8   11.01    0.35
   4   3  -8   10.06    0.42
  -4  -3   8   10.42    0.44
   5   3  -9   11.10    0.47
   6   3 -10    4.53    0.29
   6   3 -10    4.67    0.27
  -9   4   4    0.17    0.13
   9  -4  -4    0.02    0.08
  -8   4   3    0.06    0.09
  -8   4   3    0.07    0.06
   8  -4  -3    0.04    0.06
  -7   4   2    8.82    0.38
  -7   4   2    8.61    0.34
   7  -4  -2    8.61    0.37
  -6   4   1    0.60    0.09
  -6   4   1    0.50    0.11
  -6   4   1    0.52    0.08
   6  -4  -1    0.51    0.05
   6  -4  -1    0.49    0.09
   6  -4  -1    0.43    0.09
  -5   4   0    8.76    0.34
  -5   4   0    9.06    0.32
  -5   4   0    9.03    0.33
   5  -4   0    8.97    0.35
   5  -4   0    8.87    0.28
   5  -4   0    8.86    0.36
  -4   4  -1    2.46    0.15
  -4   4  -1    2.21    0.13
  -4   4  -1    2.43    0.14
   4  -4   1    2.34    0.11
   4  -4   1    2.17    0.15
   4  -4   1    2.32    0.14
  -3   4  -2   33.00    0.96
  -3   4  -2   34.04    0.91
   3  -4   2   33.26    0.99
   3  -4   2   32.50    1.00
   3  -4   2   33.56    0.88
  -2   4  -3   32.95    0.88
  -2   4  -3   33.51    0.89
   2  -4   3   33.80    0.88
   2  -4   3   32.39    0.98
  -1   4  -4   20.98    0.56
   1  -4   4   20.45    0.55
   1  -4   4   20.75    0.61
   1  -4   4   20.72    0.55
   0   4  -5    4.99    0.15
   0   4  -5    4.51    0.16
   0   4  -5    4.20    0.22
   1   4  -6    2.73    0.10
   1   4  -6    2.82    0.10
   1   4  -6    2.85    0.11
   1   4  -6    2.40    0.17
   2   4  -7    1.16    0.08
   2   4  -7    1.18    0.06
   2   4  -7    1.39    0.15
   3   4  -8    1.01    0.15
   4   4  -9    0.86    0.14
   5   4 -10    3.72    0.27
   6   4 -11    0.03    0.11
   6   4 -11    0.04    0.07
  -9   5   3    0.59    0.15
   9  -5  -3    0.67    0.14
  -8   5   2    2.73    0.22
  -8   5   2    2.39    0.16
   8  -5  -2    2.31    0.20
  -7   5   1   16.15    0.60
  -7   5   1   16.45    0.55
   7  -5  -1   16.75    0.49
   7  -5  -1   17.18    0.61
  -6   5   0    0.65    0.11
  -6   5   0    0.76    0.10
  -6   5   0    0.72    0.10
   6  -5   0    0.70    0.10
   6  -5   0    0.59    0.07
   6  -5   0    0.89    0.12
  -5   5  -1    0.04    0.06
  -5   5  -1    0.09    0.06
  -5   5  -1    0.16    0.07
   5  -5   1    0.14    0.05
   5  -5   1    0.08    0.07
   5  -5   1    0.12    0.04
  -4   5  -2    6.77    0.21
  -4   5  -2    6.79    0.27
  -4   5  -2    7.00    0.27
  -4   5  -2    6.58    0.27
   4  -5   2    6.51    0.27
   4  -5   2    6.13    0.23
   4  -5   2    6.64    0.30
  -3   5  -3    0.34    0.06
  -3   5  -3    0.34    0.05
  -3   5  -3    0.67    0.10
   3  -5   3    0.41    0.05
   3  -5   3    0.28    0.05
  -2   5  -4    2.13    0.11
  -2   5  -4    2.18    0.11
  -2   5  -4    2.58    0.17
   2  -5   4    2.25    0.10
   2  -5   4    2.22    0.11
  -1   5  -5    0.10    0.03
  -1   5  -5   -0.05    0.06
  -1   5  -5    0.07    0.04
   1  -5   5    0.06    0.02
   1  -5   5    0.05    0.03
   1  -5   5    0.05    0.02
   0   5  -6    6.47    0.31
   0   5  -6    6.83    0.23
   1   5  -7    1.85    0.18
   1   5  -7    2.04    0.10
   2   5  -8    6.78    0.34
   3   5  -9    4.64    0.28
   4   5 -10    2.47    0.23
   5   5 -11    1.79    0.22
  -9   6   2    0.49    0.15
   9  -6  -2    0.27    0.12
  -8   6   1   -0.06    0.09
   8  -6  -1   -0.09    0.07
   8  -6  -1    0.03    0.05
  -7   6   0    0.73    0.11
  -7   6   0    0.58    0.12
   7  -6   0    0.53    0.08
   7  -6   0    0.70    0.13
  -6   6  -1    3.22    0.18
  -6   6  -1    3.24    0.20
  -6   6  -1    3.27    0.19
   6  -6   1    2.94    0.15
   6  -6   1    3.24    0.22
   6  -6   1    3.33    0.21
  -5   6  -2   26.00    0.81
  -5   6  -2   27.35    0.80
   5  -6   2   26.11    0.86
   5  -6   2   25.10    0.74
  -4   6  -3    3.27    0.18
  -4   6  -3    3.37    0.14
  -4   6  -3    3.44    0.20
   4  -6   3    3.17    0.17
   4  -6   3    3.12    0.15
  -3   6  -4    2.32    0.13
  -3   6  -4    2.55    0.14
  -3   6  -4    2.48    0.17
   3  -6   4    2.32    0.12
   3  -6   4    2.61    0.13
  -2   6  -5    4.77    0.18
  -2   6  -5    4.49    0.19
  -2   6  -5    4.46    0.25
   2  -6   5    4.49    0.17
   2  -6   5    4.65    0.18
  -1   6  -6   -0.01    0.08
  -1   6  -6   -0.02    0.04
   0   6  -7    1.03    0.15
   0   6  -7    0.76    0.08
   1   6  -8    5.19    0.30
   1   6  -8    5.56    0.21
   2   6  -9    1.19    0.18
   3   6 -10    0.95    0.18
   4   6 -11    0.08    0.12
  -9   7   1    2.31    0.24
   9  -7  -1    2.75    0.25
  -8   7   0    0.69    0.14
   8  -7   0    0.47    0.13
   8  -7   0    0.57    0.09
  -7   7  -1    3.31    0.20
  -7   7  -1    3.20    0.24
   7  -7   1    3.58    0.25
   7  -7   1    3.23    0.17
  -6   7  -2    4.26    0.23
  -6   7  -2    3.62    0.23
   6  -7   2    3.87    0.19
   6  -7   2    4.29    0.24
  -5   7  -3    6.36    0.29
  -5   7  -3    6.75    0.31
  -5   7  -3    6.71    0.31
   5  -7   3    6.34    0.29
   5  -7   3    6.68    0.26
  -4   7  -4    1.76    0.15
  -4   7  -4    2.09    0.18
  -4   7  -4    1.54    0.11
   4  -7   4    1.49    0.11
   4  -7   4    1.52    0.12
  -3   7  -5    3.20    0.16
  -3   7  -5    3.00    0.21
  -3   7  -5    3.04    0.16
   3  -7   5    3.27    0.15
  -2   7  -6   28.53    0.81
  -1   7  -7    0.02    0.05
  -1   7  -7   -0.04    0.10
   0   7  -8    0.68    0.08
   0   7  -8    0.51    0.14
   1   7  -9   11.96    0.53
   1   7  -9   12.83    0.40
   2   7 -10   14.31    0.61
   3   7 -11    0.42    0.16
  -8   8  -1   -0.03    0.10
  -7   8  -2    0.39    0.12
  -7   8  -2    0.36    0.10
   7  -8   2    0.40    0.08
  -6   8  -3    0.00    0.08
  -6   8  -3    0.03    0.07
  -6   8  -3    0.03    0.08
   6  -8   3    0.04    0.06
  -5   8  -4   -0.13    0.06
  -5   8  -4    0.03    0.09
   5  -8   4    0.00    0.05
  -4   8  -5   11.22    0.38
  -4   8  -5   10.83    0.46
   4  -8   5   11.12    0.37
  -3   8  -6    4.00    0.26
  -3   8  -6    3.83    0.19
  -2   8  -7    2.44    0.22
  -2   8  -7    2.49    0.15
  -1   8  -8   10.23    0.47
  -1   8  -8   10.37    0.37
   0   8  -9    7.66    0.41
   0   8  -9    8.22    0.31
   1   8 -10    4.59    0.22
   1   8 -10    4.77    0.32
   2   8 -11    2.27    0.27
  -8   9  -2    1.17    0.17
  -7   9  -3   -0.08    0.08
  -7   9  -3   -0.03    0.09
  -6   9  -4   -0.01    0.10
   6  -9   4    0.20    0.07
  -5   9  -5    0.04    0.10
   5  -9   5    0.02    0.06
  -4   9  -6    1.23    0.12
  -4   9  -6    1.23    0.18
  -3   9  -7    2.76    0.26
  -3   9  -7    2.83    0.18
  -2   9  -8    3.40    0.27
  -2   9  -8    3.66    0.20
  -1   9  -9    0.09    0.12
   0   9 -10    1.31    0.23
  -6  10  -5    1.07    0.18
  -5  10  -6   -0.07    0.11
  -4  10  -7    0.80    0.11
  -4  10  -7    1.03    0.20
  -3  10  -8    0.17    0.15
  -2  10  -9    0.76    0.19
   0  10  -8    0.51    0.19
  -1  10  -7    4.98    0.33
  -2  10  -6    1.14    0.19
  -3  10  -5    0.10    0.07
  -3  10  -5    0.15    0.12
  -4  10  -4    3.24    0.25
  -4  10  -4    3.01    0.27
   5 -10   3    0.93    0.11
  -5  10  -3    1.41    0.19
  -6  10  -2    0.10    0.11
   1   9  -8    1.15    0.21
   0   9  -7    0.11    0.12
  -1   9  -6    0.41    0.15
  -1   9  -6    0.35    0.08
  -2   9  -5    0.02    0.06
  -2   9  -5    0.11    0.12
  -3   9  -4    6.49    0.27
  -3   9  -4    6.60    0.35
   4  -9   3    3.61    0.18
  -4   9  -3    3.40    0.24
  -4   9  -3    3.51    0.26
   5  -9   2    0.07    0.06
  -5   9  -2   -0.01    0.10
  -6   9  -1    0.88    0.16
  -6   9  -1    1.09    0.16
  -7   9   0    7.91    0.40
   3   8  -9    0.07    0.14
   2   8  -8    1.20    0.20
   2   8  -8    1.22    0.11
   1   8  -7    2.56    0.16
   1   8  -7    3.11    0.27
   0   8  -6    4.16    0.28
   0   8  -6    4.43    0.21
  -1   8  -5    0.87    0.10
  -1   8  -5    1.04    0.16
  -2   8  -4    3.13    0.23
  -2   8  -4    3.18    0.17
   3  -8   3    5.27    0.21
  -3   8  -3    5.46    0.29
  -3   8  -3    5.35    0.23
   4  -8   2    0.41    0.09
   4  -8   2    0.38    0.07
  -4   8  -2    0.40    0.11
  -4   8  -2    0.57    0.12
  -4   8  -2    0.33    0.09
   5  -8   1    1.32    0.11
   5  -8   1    1.37    0.14
  -5   8  -1    1.32    0.16
  -5   8  -1    1.42    0.14
  -5   8  -1    1.43    0.15
   6  -8   0    0.03    0.05
  -6   8   0   -0.10    0.08
  -6   8   0    0.00    0.08
  -7   8   1   -0.02    0.10
  -7   8   1    0.04    0.09
  -8   8   2    0.13    0.13
   4   7  -9    0.05    0.12
   3   7  -8   -0.01    0.10
   2   7  -7    0.03    0.05
   2   7  -7    0.12    0.11
   1   7  -6    2.78    0.22
   1   7  -6    2.73    0.15
   0   7  -5    0.75    0.09
   0   7  -5    0.95    0.15
  -1   7  -4    1.27    0.11
  -1   7  -4    1.48    0.17
   2  -7   3    6.47    0.25
   2  -7   3    8.03    0.32
  -2   7  -3    8.90    0.31
  -2   7  -3    8.31    0.35
  -2   7  -3    7.75    0.28
   3  -7   2    0.65    0.09
   3  -7   2    0.60    0.07
  -3   7  -2    0.68    0.08
  -3   7  -2    0.97    0.11
  -3   7  -2    0.96    0.13
  -3   7  -2    0.87    0.09
   4  -7   1    9.04    0.33
   4  -7   1    9.82    0.39
  -4   7  -1    9.87    0.37
  -4   7  -1   10.10    0.38
  -4   7  -1    9.77    0.41
   5  -7   0    2.37    0.14
   5  -7   0    2.39    0.18
  -5   7   0    2.60    0.20
  -5   7   0    2.38    0.19
  -5   7   0    2.34    0.15
   6  -7  -1    0.04    0.05
  -6   7   1   -0.01    0.09
  -6   7   1    0.01    0.08
   7  -7  -2    6.63    0.26
  -7   7   2    6.09    0.34
  -7   7   2    6.65    0.35
   8  -7  -3    1.47    0.12
  -8   7   3    1.06    0.19
   5   6  -9    1.84    0.24
   4   6  -8    0.97    0.18
   3   6  -7   29.60    0.99
   2   6  -6   45.75    1.39
   1   6  -5    3.67    0.16
   1   6  -5    3.14    0.22
   0  -6   4    5.24    0.21
   0   6  -4    5.13    0.20
   0   6  -4    4.90    0.20
   0   6  -4    4.66    0.26
   1  -6   3    3.35    0.13
   1  -6   3    3.10    0.17
  -1   6  -3    3.34    0.16
  -1   6  -3    3.26    0.20
  -1   6  -3    3.25    0.15
   2  -6   2    7.43    0.25
   2  -6   2    7.60    0.24
  -2   6  -2    7.22    0.25
  -2   6  -2    6.91    0.30
  -2   6  -2    7.27    0.28
  -2   6  -2    7.26    0.26
   3  -6   1   17.57    0.60
   3  -6   1   17.13    0.51
  -3   6  -1   18.21    0.55
  -3   6  -1   18.11    0.60
  -3   6  -1   17.55    0.61
  -3   6  -1   18.07    0.51
  -3   6  -1   17.33    0.57
   4  -6   0    1.11    0.11
   4  -6   0    1.47    0.10
  -4   6   0    1.36    0.11
  -4   6   0    1.26    0.13
  -4   6   0    1.07    0.13
   5  -6  -1   11.36    0.38
   5  -6  -1   12.42    0.48
  -5   6   1   12.07    0.46
  -5   6   1   11.89    0.47
  -5   6   1   12.26    0.40
   6  -6  -2    3.45    0.16
  -6   6   2    3.76    0.25
  -6   6   2    3.72    0.24
   7  -6  -3    0.09    0.05
   7  -6  -3    0.00    0.08
  -7   6   3    0.06    0.09
  -7   6   3   -0.02    0.10
  -8   6   4    1.67    0.21
  -9   6   5   -0.04    0.13
   6   5  -9    1.13    0.20
   5   5  -8    8.04    0.41
   4   5  -7    0.76    0.15
   3   5  -6    2.44    0.20
   2   5  -5   11.51    0.39
   2   5  -5   11.11    0.45
   2   5  -5   11.21    0.32
  -1  -5   4    7.65    0.27
   1   5  -4    7.21    0.24
   1   5  -4    7.11    0.32
   1   5  -4    7.68    0.27
   0  -5   3   31.66    0.95
   0   5  -3   31.73    0.95
   0   5  -3   30.59    0.85
   0   5  -3   32.89    0.95
   1  -5   2   10.73    0.30
   1  -5   2    8.81    0.30
   1  -5   2   10.58    0.36
  -1   5  -2   10.53    0.37
  -1   5  -2   10.36    0.31
  -1   5  -2   10.49    0.32
  -1   5  -2   10.80    0.36
   2  -5   1   33.76    0.90
   2  -5   1   32.72    1.03
  -2   5  -1   34.15    0.90
  -2   5  -1   33.74    0.97
  -2   5  -1   34.20    1.03
  -2   5  -1   34.06    0.93
   3  -5   0    5.64    0.25
   3  -5   0    5.69    0.20
  -3   5   0    5.43    0.22
  -3   5   0    5.85    0.19
  -3   5   0    6.00    0.27
  -3   5   0    5.98    0.25
  -3   5   0    5.68    0.24
   4  -5  -1    0.58    0.06
   4  -5  -1    0.61    0.08
  -4   5   1    0.65    0.10
  -4   5   1    0.46    0.10
  -4   5   1    0.54    0.07
   5  -5  -2   19.53    0.62
   5  -5  -2   18.18    0.53
   5  -5  -2   18.43    0.67
  -5   5   2   19.15    0.65
  -5   5   2   19.42    0.63
  -5   5   2   19.00    0.57
   6  -5  -3    1.75    0.10
   6  -5  -3    1.77    0.17
   6  -5  -3    1.81    0.16
  -6   5   3    2.08    0.19
  -6   5   3    1.77    0.17
   7  -5  -4    3.67    0.23
  -7   5   4    3.67    0.26
  -7   5   4    3.76    0.25
  -8   5   5    0.01    0.11
  -9   5   6    0.72    0.18
   7   4  -9    1.56    0.22
   6   4  -8    0.69    0.13
   6   4  -8    0.97    0.17
  -5  -4   7   15.19    0.56
   5   4  -7   14.56    0.58
  -4  -4   6    3.86    0.22
   4   4  -6    3.54    0.23
  -3  -4   5    0.62    0.10
   3   4  -5    0.63    0.12
   3   4  -5    0.64    0.09
   2   4  -4   28.45    0.85
   2   4  -4   27.57    0.71
   2   4  -4   27.72    0.86
  -1  -4   3    0.21    0.05
   1   4  -3    0.25    0.08
   1   4  -3    0.31    0.04
   1   4  -3    0.25    0.04
   1   4  -3    0.26    0.05
   0  -4   2  102.86    2.54
   0  -4   2   96.96    2.89
   0  -4   2  101.59    2.58
   0  -4   2  102.99    2.54
   0   4  -2  100.48    2.72
   0   4  -2  102.24    2.89
   0   4  -2   99.60    2.56
   1  -4   1   67.23    1.68
   1  -4   1   64.05    1.89
   1  -4   1   64.77    1.66
  -1   4  -1   65.36    1.88
  -1   4  -1   64.25    1.67
  -1   4  -1   64.59    1.69
  -1   4  -1   64.69    1.77
   2  -4   0    2.68    0.14
   2  -4   0    2.96    0.12
  -2   4   0    3.03    0.14
  -2   4   0    2.97    0.14
  -2   4   0    2.80    0.16
  -2   4   0    2.93    0.14
  -2   4   0    2.84    0.11
   3  -4  -1    2.30    0.10
   3  -4  -1    2.19    0.13
  -3   4   1    2.35    0.15
  -3   4   1    2.43    0.16
  -3   4   1    2.45    0.14
  -3   4   1    2.27    0.11
   4  -4  -2    2.21    0.14
   4  -4  -2    2.11    0.09
   4  -4  -2    2.21    0.14
  -4   4   2    2.25    0.16
  -4   4   2    1.99    0.10
  -4   4   2    2.27    0.16
   5  -4  -3    3.74    0.13
   5  -4  -3    3.98    0.22
   5  -4  -3    3.32    0.18
  -5   4   3    3.74    0.15
  -5   4   3    3.56    0.22
  -5   4   3    3.76    0.23
   6  -4  -4   69.77    2.13
   6  -4  -4   71.08    1.99
  -6   4   4   69.66    2.04
  -6   4   4   68.63    1.95
   7  -4  -5   11.15    0.43
  -7   4   5   11.69    0.50
  -7   4   5   11.20    0.47
  -8   4   6    1.08    0.18
   9  -4  -7    3.19    0.23
  -9   4   7    2.97    0.28
  -7  -3   8    8.35    0.40
   7   3  -8    8.55    0.41
   7   3  -8    7.99    0.42
  -6  -3   7    0.21    0.09
   6   3  -7    0.23    0.08
   6   3  -7    0.20    0.11
  -5  -3   6    0.91    0.12
   5   3  -6    0.94    0.10
   5   3  -6    0.84    0.14
  -4  -3   5   13.83    0.49
  -4  -3   5   14.25    0.44
   4   3  -5   14.49    0.50
   4   3  -5   12.93    0.50
  -3  -3   4    4.50    0.17
  -3  -3   4    4.15    0.20
   3   3  -4    4.32    0.20
   3   3  -4    4.62    0.23
  -2  -3   3    0.48    0.07
  -2  -3   3    0.46    0.04
   2   3  -3    0.45    0.06
   2   3  -3    0.54    0.09
  -1  -3   2   92.38    2.53
  -1  -3   2   92.12    2.69
  -1  -3   2   96.75    2.42
   1   3  -2   92.94    2.54
   1   3  -2   93.49    2.69
   1   3  -2   96.67    2.37
   0  -3   1    4.32    0.13
   0  -3   1    4.45    0.13
   0   3  -1    4.15    0.14
   0   3  -1    4.24    0.14
   0   3  -1    4.39    0.17
   0   3  -1    4.14    0.16
   1  -3   0    0.37    0.05
   1  -3   0    0.34    0.04
   1  -3   0    0.40    0.04
   1  -3   0    0.28    0.03
  -1   3   0    0.44    0.05
  -1   3   0    0.45    0.04
  -1   3   0    0.39    0.04
  -1   3   0    0.53    0.06
  -1   3   0    0.40    0.04
   2  -3  -1  132.08    3.15
   2  -3  -1  124.33    3.15
   2  -3  -1  120.05    3.57
   2  -3  -1  128.66    3.30
  -2   3   1  123.65    3.30
  -2   3   1  122.69    3.45
  -2   3   1  129.49    3.40
  -2   3   1  123.05    3.13
  -2   3   1  125.34    3.14
  -2   3   1  123.54    3.57
  -2   3   1  122.53    3.22
   3  -3  -2   24.88    0.81
   3  -3  -2   27.08    0.67
   3  -3  -2   24.82    0.67
   3  -3  -2   25.88    0.75
  -3   3   2   26.23    0.79
  -3   3   2   24.99    0.74
  -3   3   2   26.89    0.81
  -3   3   2   25.27    0.71
   4  -3  -3   98.00    2.98
   4  -3  -3  103.23    2.82
  -4   3   3  105.21    2.89
  -4   3   3  101.58    2.71
  -4   3   3  101.99    2.72
  -4   3   3  105.80    2.99
   5  -3  -4   25.65    0.77
   5  -3  -4   25.25    0.84
  -5   3   4   25.52    0.72
  -5   3   4   24.97    0.82
  -5   3   4   25.87    0.80
   6  -3  -5    4.26    0.22
   6  -3  -5    4.37    0.25
  -6   3   5    4.62    0.20
  -6   3   5    4.71    0.28
  -6   3   5    4.64    0.26
   7  -3  -6   21.73    0.72
  -7   3   6   22.37    0.77
  -7   3   6   21.58    0.77
  -8   3   7   12.15    0.54
   9  -3  -8    0.13    0.08
  -9   3   8    0.18    0.15
  -8  -2   8    0.87    0.15
   8   2  -8    0.95    0.18
   8   2  -8    0.82    0.14
  -7  -2   7    2.88    0.21
   7   2  -7    3.18    0.23
   7   2  -7    2.74    0.21
  -6  -2   6    3.18    0.20
  -6  -2   6    3.17    0.20
   6   2  -6    2.96    0.20
   6   2  -6    2.99    0.21
   6   2  -6    3.49    0.20
  -5  -2   5    0.24    0.07
  -5  -2   5    0.00    0.04
   5   2  -5    0.12    0.08
   5   2  -5    0.11    0.05
   5   2  -5    0.13    0.05
  -4  -2   4   17.40    0.56
  -4  -2   4   17.77    0.52
   4   2  -4   16.74    0.57
  -3  -2   3    5.90    0.23
  -3  -2   3    5.83    0.21
   3   2  -3    5.70    0.24
   3   2  -3    6.23    0.25
  -2  -2   2   44.68    1.14
  -2  -2   2   43.79    1.22
   2   2  -2   45.22    1.23
   2   2  -2   42.24    1.29
  -1  -2   1   29.62    0.89
  -1  -2   1   30.41    0.84
  -1  -2   1   30.79    0.78
   1   2  -1   30.96    0.77
   1   2  -1   29.75    0.89
   1   2  -1   29.51    0.84
   1   2  -1   29.72    0.77
   0  -2   0  318.54    9.12
   0  -2   0  314.60    8.39
   0  -2   0  319.59    8.13
   0  -2   0  313.71    8.07
   0  -2   0  324.41    8.38
   0  -2   0  337.50    8.07
   0   2   0  316.58    8.39
   0   2   0  318.94    8.39
   0   2   0  318.92    8.08
   0   2   0  320.53    8.03
   0   2   0  315.13    9.02
   1  -2  -1   14.27    0.38
   1  -2  -1   14.41    0.38
   1  -2  -1   13.78    0.45
   1  -2  -1   14.20    0.40
   1  -2  -1   14.55    0.39
  -1   2   1   13.57    0.44
  -1   2   1   13.75    0.41
  -1   2   1   14.43    0.37
  -1   2   1   14.27    0.40
  -1   2   1   14.03    0.44
   2  -2  -2   67.36    2.13
   2  -2  -2   72.73    1.86
   2  -2  -2   73.55    2.01
   2  -2  -2   77.72    1.86
   2  -2  -2   75.22    1.96
  -2   2   2   73.98    2.13
  -2   2   2   71.54    1.93
  -2   2   2   75.09    2.06
  -2   2   2   76.59    2.01
  -2   2   2   73.90    1.96
   3  -2  -3    9.09    0.29
   3  -2  -3    9.23    0.34
  -3   2   3    9.55    0.34
  -3   2   3    9.79    0.30
  -3   2   3    9.25    0.27
  -3   2   3    9.19    0.33
  -3   2   3    9.11    0.34
   4  -2  -4   40.88    1.13
   4  -2  -4   39.07    1.22
  -4   2   4   40.72    1.22
  -4   2   4   38.81    1.12
  -4   2   4   38.77    1.19
  -4   2   4   39.55    1.08
   5  -2  -5    4.08    0.22
   5  -2  -5    4.25    0.19
  -5   2   5    4.34    0.24
  -5   2   5    4.20    0.17
  -5   2   5    4.12    0.24
   6  -2  -6   59.92    1.72
   6  -2  -6   61.61    1.86
  -6   2   6   59.39    1.66
  -6   2   6   60.77    1.79
  -6   2   6   59.60    1.71
   7  -2  -7    1.03    0.12
  -7   2   7    1.22    0.16
  -7   2   7    1.00    0.16
   8  -2  -8    2.87    0.20
  -8   2   8    2.88    0.25
  -8  -1   7    2.18    0.21
  -8  -1   7    2.42    0.20
   8   1  -7    2.29    0.20
   8   1  -7    2.29    0.23
  -7  -1   6   -0.01    0.08
  -7  -1   6    0.04    0.06
   7   1  -6   -0.03    0.05
   7   1  -6   -0.03    0.08
  -6  -1   5    5.27    0.26
  -6  -1   5    4.89    0.25
   6   1  -5    4.72    0.25
   6   1  -5    5.48    0.26
  -5  -1   4   12.02    0.40
  -5  -1   4   11.24    0.40
   5   1  -4   11.52    0.43
   5   1  -4   10.71    0.41
  -4  -1   3   25.02    0.75
  -4  -1   3   25.70    0.72
   4   1  -3   25.14    0.78
  -3  -1   2    2.92    0.13
  -3  -1   2    2.88    0.13
   3   1  -2    2.77    0.14
  -2  -1   1   32.37    0.89
   2   1  -1   31.99    0.96
  -1  -1   0    5.17    0.17
  -1  -1   0    5.20    0.19
   1   1   0    5.33    0.14
   1   1   0    5.23    0.14
   1   1   0    5.37    0.19
   0  -1  -1   20.70    0.52
   0  -1  -1   19.98    0.52
   0  -1  -1   19.60    0.54
   0  -1  -1   19.64    0.60
   0  -1  -1   19.80    0.53
   0   1   1   19.97    0.52
   0   1   1   20.01    0.60
   0   1   1   19.94    0.52
   0   1   1   19.70    0.58
   0   1   1   20.16    0.54
   1  -1  -2  159.13    4.74
   1  -1  -2  170.99    4.74
   1  -1  -2  167.61    4.26
  -1   1   2  174.42    4.73
  -1   1   2  163.40    4.74
  -1   1   2  175.27    4.57
  -1   1   2  162.44    4.27
   2  -1  -3   37.62    1.16
   2  -1  -3   40.75    1.05
   2  -1  -3   40.35    1.08
   2  -1  -3   40.16    1.06
   2  -1  -3   39.07    1.05
  -2   1   3   38.91    1.13
  -2   1   3   38.73    1.16
  -2   1   3   38.10    1.06
  -2   1   3   39.93    1.05
   3  -1  -4    0.79    0.06
   3  -1  -4    0.90    0.06
   3  -1  -4    0.65    0.07
  -3   1   4    0.62    0.09
  -3   1   4    0.83    0.09
  -3   1   4    0.86    0.06
  -3   1   4    0.78    0.08
   4  -1  -5    0.01    0.04
   4  -1  -5    0.04    0.03
   4  -1  -5    0.21    0.05
  -4   1   5    0.17    0.04
  -4   1   5    0.06    0.07
  -4   1   5    0.02    0.06
  -4   1   5    0.01    0.04
   5  -1  -6    8.76    0.32
   5  -1  -6    9.36    0.33
   5  -1  -6    9.43    0.38
  -5   1   6    9.08    0.37
  -5   1   6    8.74    0.31
  -5   1   6    8.78    0.38
   6  -1  -7    6.42    0.28
   6  -1  -7    6.79    0.28
   6  -1  -7    6.53    0.32
   6  -1  -7    5.90    0.28
  -6   1   7    6.59    0.27
  -6   1   7    6.50    0.33
  -6   1   7    6.00    0.32
   7  -1  -8    0.82    0.11
  -7   1   8    0.95    0.14
  -7   1   8    0.67    0.14
   8  -1  -9    0.19    0.08
  -8   1   9    0.08    0.12
  -9   0   7    0.00    0.07
  -9   0   7   -0.02    0.12
   9   0  -7    0.02    0.09
   9   0  -7    0.08    0.09
  -8   0   6    2.03    0.18
  -8   0   6    2.13    0.20
   8   0  -6    2.13    0.19
  -7   0   5    0.02    0.06
  -7   0   5    0.02    0.08
   7   0  -5    0.05    0.06
  -6   0   4    0.23    0.07
  -6   0   4    0.27    0.08
  -6   0   4    0.30    0.09
   6   0  -4    0.29    0.07
   6   0  -4    0.33    0.07
  -5   0   3    9.97    0.34
  -5   0   3    9.50    0.34
  -5   0   3    9.66    0.35
   5   0  -3    9.14    0.37
   5   0  -3    9.20    0.36
  -4   0   2   18.04    0.54
  -4   0   2   18.97    0.55
  -4   0   2   17.64    0.55
   4   0  -2   17.88    0.57
  -3   0   1   11.27    0.35
  -3   0   1   11.35    0.36
  -3   0   1   11.99    0.35
   3   0  -1   11.11    0.37
  -2   0   0    7.65    0.24
  -2   0   0    7.46    0.25
   2   0   0    7.78    0.23
   2   0   0    7.58    0.25
  -1   0  -1   18.98    0.52
  -1   0  -1   18.96    0.48
  -1   0  -1   18.28    0.53
  -1   0  -1   18.61    0.50
  -1   0  -1   17.55    0.51
  -1   0  -1   18.02    0.56
   1   0   1   18.55    0.48
   1   0   1   19.17    0.52
   1   0   1   18.41    0.56
   1   0   1   18.65    0.48
   1   0   1   19.71    0.53
   1   0   1   18.10    0.53
   0   0  -2   48.75    1.22
   0   0  -2   48.21    1.32
   0   0  -2   47.03    1.28
   0   0  -2   47.60    1.38
   0   0  -2   48.30    1.22
   0   0  -2   47.65    1.24
   0   0   2   48.17    1.22
   0   0   2   48.10    1.33
   0   0   2   48.58    1.34
   0   0   2   47.70    1.22
   0   0   2   48.48    1.38
   1   0  -3    3.99    0.15
   1   0  -3    3.82    0.14
   1   0  -3    4.10    0.13
   1   0  -3    3.83    0.14
  -1   0   3    3.89    0.15
  -1   0   3    3.93    0.17
  -1   0   3    4.08    0.14
  -1   0   3    3.94    0.16
   2   0  -4   35.29    0.94
   2   0  -4   34.73    0.96
   2   0  -4   34.39    1.04
  -2   0   4   35.33    1.03
  -2   0   4   35.42    0.96
  -2   0   4   35.36    1.04
   3   0  -5    0.45    0.06
   3   0  -5    0.34    0.04
   3   0  -5    0.27    0.05
   3   0  -5    0.34    0.05
  -3   0   5    0.27    0.07
  -3   0   5    0.33    0.07
  -3   0   5    0.29    0.05
  -3   0   5    0.44    0.05
   4   0  -6   26.34    0.83
   4   0  -6   28.35    0.89
   4   0  -6   27.98    0.80
   4   0  -6   28.31    0.83
  -4   0   6   28.13    0.83
  -4   0   6   28.89    0.89
  -4   0   6   28.36    0.90
  -4   0   6   28.09    0.81
   5   0  -7    0.19    0.08
   5   0  -7    0.23    0.06
   5   0  -7    0.27    0.06
   5   0  -7    0.28    0.07
  -5   0   7    0.31    0.07
  -5   0   7    0.31    0.10
  -5   0   7    0.30    0.10
   6   0  -8    5.33    0.28
   6   0  -8    5.38    0.25
   6   0  -8    5.70    0.27
   6   0  -8    5.37    0.25
  -6   0   8    5.36    0.30
  -6   0   8    5.36    0.25
  -6   0   8    5.98    0.31
   7   0  -9    1.19    0.13
  -7   0   9    1.14    0.17
  -7   0   9    1.28    0.17
   8   0 -10    0.03    0.06
  -8   0  10    0.11    0.11
  -9   1   6    0.93    0.18
  -9   1   6    1.12    0.16
   9  -1  -6    0.79    0.13
  -8   1   5    8.12    0.38
  -8   1   5    7.94    0.35
   8  -1  -5    7.08    0.35
  -7   1   4    6.32    0.31
  -7   1   4    6.81    0.29
   7  -1  -4    5.80    0.29
  -6   1   3   11.28    0.43
  -6   1   3   12.50    0.41
  -6   1   3   12.06    0.42
   6  -1  -3   11.41    0.44
   6  -1  -3   11.81    0.46
  -5   1   2    3.55    0.16
  -5   1   2    3.29    0.18
  -5   1   2    3.01    0.16
   5  -1  -2    3.18    0.18
   5  -1  -2    3.17    0.17
  -4   1   1    0.36    0.07
  -4   1   1    0.52    0.05
  -4   1   1    0.55    0.06
   4  -1  -1    0.39    0.06
   4  -1  -1    0.38    0.06
  -3   1   0    2.45    0.12
  -3   1   0    2.55    0.12
  -3   1   0    2.65    0.09
   3  -1   0    2.42    0.12
   3  -1   0    2.72    0.09
  -2   1  -1  176.32    4.72
  -2   1  -1  173.53    4.60
  -2   1  -1  170.89    4.45
   2  -1   1  174.11    4.72
   2  -1   1  180.03    4.41
   2  -1   1  173.39    4.42
  -1   1  -2  746.89   18.73
  -1   1  -2  769.58   20.20
  -1   1  -2  774.22   18.75
  -1   1  -2  758.54   19.04
   1  -1   2  724.57   20.20
   1  -1   2  736.67   18.74
   1  -1   2  777.29   18.73
   1  -1   2  714.04   20.34
   1  -1   2  718.49   21.18
   0   1  -3    0.16    0.03
   0   1  -3    0.12    0.02
   0   1  -3    0.13    0.03
   0   1  -3    0.16    0.04
   0   1  -3    0.11    0.02
   0  -1   3    0.15    0.02
   0  -1   3    0.16    0.04
   1   1  -4   54.41    1.58
   1   1  -4   55.77    1.43
   1   1  -4   54.39    1.49
  -1  -1   4   55.90    1.58
  -1  -1   4   54.88    1.56
   2   1  -5    3.94    0.17
   2   1  -5    4.21    0.16
   2   1  -5    4.01    0.16
  -2  -1   5    3.72    0.15
  -2  -1   5    3.96    0.18
  -2  -1   5    4.00    0.20
   3   1  -6   36.38    1.09
   3   1  -6   36.91    0.99
   3   1  -6   36.20    1.04
  -3  -1   6   36.40    1.02
  -3  -1   6   36.02    1.10
   4   1  -7   25.83    0.82
   4   1  -7   27.73    0.86
   4   1  -7   27.17    0.78
  -4  -1   7   27.71    0.81
  -4  -1   7   26.79    0.88
   5   1  -8    5.21    0.26
   5   1  -8    5.31    0.23
   5   1  -8    5.10    0.24
   5   1  -8    5.61    0.26
  -5  -1   8    5.55    0.28
  -5  -1   8    5.24    0.29
   6   1  -9    0.60    0.10
   6   1  -9    0.71    0.10
   6   1  -9    0.66    0.10
   6   1  -9    0.78    0.13
  -6  -1   9    0.55    0.13
  -6  -1   9    0.87    0.14
   7   1 -10    2.11    0.17
  -7  -1  10    2.02    0.21
  -7  -1  10    2.73    0.23
  -9   2   5   -0.02    0.10
  -9   2   5    0.04    0.07
   9  -2  -5   -0.10    0.06
  -8   2   4    0.17    0.08
  -8   2   4    0.05    0.09
   8  -2  -4    0.25    0.08
  -7   2   3    0.71    0.10
  -7   2   3    0.62    0.12
   7  -2  -3    0.67    0.10
  -6   2   2    3.70    0.19
  -6   2   2    3.79    0.22
  -6   2   2    4.01    0.18
   6  -2  -2    3.74    0.21
   6  -2  -2    3.55    0.20
  -5   2   1   33.47    0.98
  -5   2   1   36.27    0.98
  -5   2   1   33.76    0.99
   5  -2  -1   33.84    1.02
   5  -2  -1   34.17    1.08
  -4   2   0   39.36    1.09
  -4   2   0   38.47    1.07
  -4   2   0   40.37    1.09
   4  -2   0   37.98    1.13
   4  -2   0   39.10    0.99
   4  -2   0   38.29    1.18
  -3   2  -1   74.86    2.04
  -3   2  -1   82.32    2.16
  -3   2  -1   74.91    2.11
   3  -2   1   83.26    1.99
   3  -2   1   79.50    1.99
   3  -2   1   77.83    2.17
   3  -2   1   76.98    2.27
  -2   2  -2  111.87    2.82
  -2   2  -2  111.15    2.87
  -2   2  -2  112.22    2.82
   2  -2   2  113.70    2.82
   2  -2   2  112.22    2.82
   2  -2   2  111.09    3.06
  -1   2  -3  852.80   23.32
  -1   2  -3  864.00   21.61
  -1   2  -3  882.74   21.60
  -1   2  -3  874.58   21.90
  -1   2  -3  821.79   22.78
   1  -2   3  919.95   21.59
   1  -2   3  843.12   24.44
   1  -2   3  829.98   21.59
   0   2  -4   66.81    1.59
   0   2  -4   62.55    1.62
   0   2  -4   62.44    1.71
   0   2  -4   60.85    1.84
   0   2  -4   62.42    1.59
   0  -2   4   61.69    1.77
   0  -2   4   63.20    1.84
   1   2  -5    3.22    0.13
   1   2  -5    3.26    0.12
   1   2  -5    3.48    0.16
  -1  -2   5    3.29    0.12
  -1  -2   5    3.38    0.17
   2   2  -6   95.90    2.46
   2   2  -6   95.61    2.72
   2   2  -6   94.45    2.58
  -2  -2   6   94.28    2.68
   3   2  -7    1.98    0.11
   3   2  -7    2.07    0.11
   3   2  -7    1.79    0.15
  -3  -2   7    1.63    0.15
   4   2  -8   12.58    0.43
   4   2  -8   11.95    0.40
   4   2  -8   11.83    0.45
  -4  -2   8   12.56    0.43
  -4  -2   8   11.48    0.48
   5   2  -9    0.57    0.11
   5   2  -9    0.46    0.08
   5   2  -9    0.56    0.09
  -5  -2   9    0.36    0.11
  -5  -2   9    0.58    0.12
   6   2 -10    0.50    0.10
   6   2 -10    0.63    0.14
  -6  -2  10    0.29    0.12
  -7  -2  11    1.62    0.20
  -9   3   4    0.39    0.10
  -9   3   4    0.27    0.12
   9  -3  -4    0.18    0.09
  -8   3   3    0.88    0.12
  -8   3   3    0.72    0.14
   8  -3  -3    0.83    0.12
  -7   3   2    3.09    0.21
  -7   3   2    3.25    0.18
   7  -3  -2    3.05    0.20
  -6   3   1    2.80    0.16
  -6   3   1    2.70    0.19
  -6   3   1    3.25    0.16
   6  -3  -1    3.15    0.18
   6  -3  -1    3.05    0.10
   6  -3  -1    2.98    0.19
  -5   3   0   13.76    0.43
  -5   3   0   13.44    0.45
  -5   3   0   13.91    0.45
   5  -3   0   14.14    0.38
   5  -3   0   14.11    0.38
   5  -3   0   14.04    0.50
   5  -3   0   12.73    0.47
  -4   3  -1    1.24    0.09
  -4   3  -1    1.07    0.08
  -4   3  -1    0.89    0.09
   4  -3   1    1.09    0.07
   4  -3   1    1.05    0.10
   4  -3   1    1.04    0.09
  -3   3  -2    4.31    0.19
  -3   3  -2    4.43    0.14
  -3   3  -2    4.76    0.18
  -3   3  -2    4.57    0.14
   3  -3   2    4.28    0.18
   3  -3   2    4.40    0.20
   3  -3   2    4.77    0.16
  -2   3  -3   89.31    2.22
  -2   3  -3   88.10    2.37
  -2   3  -3   88.09    2.26
   2  -3   3   85.82    2.22
   2  -3   3   87.78    2.50
   2  -3   3   86.32    2.43
  -1   3  -4   20.10    0.61
  -1   3  -4   19.05    0.53
  -1   3  -4   19.94    0.54
   1  -3   4   19.98    0.58
   1  -3   4   19.89    0.58
   1  -3   4   20.05    0.52
   1  -3   4   19.47    0.52
   0   3  -5   14.07    0.40
   0   3  -5   14.38    0.47
   0   3  -5   13.71    0.38
   0   3  -5   14.48    0.39
   1   3  -6   28.53    0.83
   1   3  -6   28.84    0.77
   1   3  -6   28.72    0.86
  -1  -3   6   27.79    0.88
   2   3  -7   14.10    0.41
   2   3  -7   13.84    0.49
   2   3  -7   14.06    0.43
  -2  -3   7   14.02    0.51
   3   3  -8    3.58    0.23
   3   3  -8    4.07    0.17
   3   3  -8    4.03    0.17
  -3  -3   8    3.98    0.25
   4   3  -9    1.17    0.15
  -4  -3   9    0.91    0.14
   5   3 -10    7.16    0.35
  -5  -3  10    6.81    0.36
   6   3 -11    3.01    0.24
  -9   4   3   -0.01    0.09
  -9   4   3    0.27    0.09
   9  -4  -3    0.05    0.08
  -8   4   2    0.06    0.05
  -8   4   2   -0.02    0.08
   8  -4  -2    0.05    0.07
  -7   4   1    6.03    0.27
  -7   4   1    6.27    0.30
   7  -4  -1    5.75    0.29
   7  -4  -1    5.81    0.21
  -6   4   0    3.35    0.21
  -6   4   0    3.50    0.17
  -6   4   0    3.24    0.18
   6  -4   0    3.24    0.20
   6  -4   0    3.22    0.14
   6  -4   0    3.58    0.21
  -5   4  -1    7.79    0.28
  -5   4  -1    7.30    0.29
  -5   4  -1    7.49    0.30
   5  -4   1    7.47    0.25
   5  -4   1    7.03    0.31
   5  -4   1    7.44    0.31
  -4   4  -2    5.42    0.23
  -4   4  -2    5.34    0.21
  -4   4  -2    5.44    0.15
  -4   4  -2    5.25    0.22
  -4   4  -2    5.22    0.15
   4  -4   2    5.37    0.25
   4  -4   2    5.09    0.23
   4  -4   2    5.23    0.19
  -3   4  -3   25.16    0.67
  -3   4  -3   24.90    0.75
  -3   4  -3   25.65    0.71
   3  -4   3   24.32    0.78
   3  -4   3   24.76    0.68
  -2   4  -4   11.64    0.40
  -2   4  -4   11.14    0.34
  -2   4  -4   11.13    0.34
   2  -4   4   11.46    0.33
   2  -4   4   11.00    0.36
  -1   4  -5    7.32    0.24
  -1   4  -5    7.82    0.24
  -1   4  -5    7.42    0.30
   1  -4   5    7.34    0.23
   1  -4   5    7.46    0.21
   1  -4   5    7.60    0.21
   0   4  -6    5.65    0.19
   0   4  -6    5.24    0.18
   0   4  -6    5.10    0.25
   1   4  -7    2.46    0.10
   1   4  -7    2.58    0.18
   1   4  -7    2.73    0.10
   1   4  -7    2.65    0.12
   2   4  -8    0.15    0.10
   3   4  -9    0.20    0.10
   4   4 -10    1.34    0.17
   5   4 -11    0.80    0.15
  -9   5   2    1.27    0.18
   9  -5  -2    1.17    0.16
  -8   5   1    0.86    0.12
  -8   5   1    0.53    0.13
   8  -5  -1    0.88    0.13
   8  -5  -1    0.74    0.08
  -7   5   0    4.51    0.27
  -7   5   0    5.11    0.24
   7  -5   0    4.95    0.20
   7  -5   0    5.21    0.28
  -6   5  -1    0.92    0.12
  -6   5  -1    1.09    0.12
  -6   5  -1    0.88    0.10
   6  -5   1    0.80    0.10
   6  -5   1    0.85    0.12
   6  -5   1    0.89    0.08
  -5   5  -2    1.77    0.13
  -5   5  -2    1.60    0.13
  -5   5  -2    1.92    0.15
   5  -5   2    1.74    0.11
   5  -5   2    1.71    0.13
   5  -5   2    1.87    0.15
  -4   5  -3    0.04    0.03
  -4   5  -3    0.02    0.05
  -4   5  -3    0.09    0.06
   4  -5   3    0.07    0.06
   4  -5   3    0.03    0.04
   4  -5   3    0.02    0.04
  -3   5  -4   11.27    0.35
  -3   5  -4   10.80    0.41
  -3   5  -4   11.32    0.36
   3  -5   4   11.18    0.38
   3  -5   4   11.28    0.34
  -2   5  -5   10.71    0.41
  -2   5  -5   10.60    0.34
  -2   5  -5   11.03    0.34
   2  -5   5   10.97    0.35
  -1   5  -6   11.62    0.34
  -1   5  -6   11.18    0.35
  -1   5  -6   10.91    0.42
   0   5  -7    0.10    0.09
   0   5  -7    0.00    0.04
   0   5  -7    0.03    0.04
   1   5  -8    8.78    0.28
   1   5  -8    9.51    0.40
   2   5  -9   18.84    0.68
   3   5 -10    0.16    0.10
   4   5 -11    2.61    0.25
   5   5 -12    2.48    0.27
  -9   6   1    4.83    0.32
   9  -6  -1    5.08    0.32
   9  -6  -1    5.36    0.24
  -8   6   0    6.28    0.33
  -8   6   0    6.05    0.29
   8  -6   0    6.17    0.25
   8  -6   0    6.61    0.35
  -7   6  -1    3.31    0.23
  -7   6  -1    3.11    0.19
   7  -6   1    3.37    0.24
   7  -6   1    3.14    0.16
  -6   6  -2    3.91    0.23
  -6   6  -2    3.67    0.21
   6  -6   2    3.79    0.24
   6  -6   2    3.88    0.18
   6  -6   2    3.94    0.22
  -5   6  -3    4.61    0.23
  -5   6  -3    4.61    0.24
  -5   6  -3    4.70    0.23
   5  -6   3    4.82    0.23
   5  -6   3    4.96    0.20
  -4   6  -4    4.29    0.17
  -4   6  -4    4.30    0.23
  -4   6  -4    3.98    0.20
   4  -6   4    4.18    0.18
   4  -6   4    3.63    0.19
  -3   6  -5   15.35    0.46
  -3   6  -5   14.65    0.53
  -3   6  -5   14.63    0.46
   3  -6   5   14.85    0.44
   3  -6   5   14.97    0.49
  -2   6  -6    1.39    0.11
  -2   6  -6    1.51    0.10
  -2   6  -6    1.59    0.17
   2  -6   6    1.62    0.09
  -1   6  -7    0.35    0.11
   0   6  -8   14.99    0.57
   0   6  -8   14.43    0.45
   1   6  -9    0.09    0.10
   1   6  -9    0.13    0.05
   2   6 -10    5.39    0.32
   3   6 -11    2.18    0.24
   4   6 -12    0.03    0.12
  -9   7   0    4.36    0.31
   9  -7   0    4.66    0.32
  -8   7  -1    5.22    0.31
  -8   7  -1    4.86    0.27
   8  -7   1    4.97    0.23
   8  -7   1    5.05    0.32
  -7   7  -2    2.77    0.21
  -7   7  -2    2.64    0.19
   7  -7   2    2.46    0.22
   7  -7   2    2.57    0.16
  -6   7  -3    0.22    0.09
  -6   7  -3    0.25    0.09
   6  -7   3    0.16    0.06
   6  -7   3    0.10    0.07
  -5   7  -4    7.56    0.31
  -5   7  -4    7.31    0.34
   5  -7   4    7.56    0.32
   5  -7   4    7.35    0.28
  -4   7  -5    1.81    0.12
  -4   7  -5    2.37    0.16
  -4   7  -5    2.23    0.19
   4  -7   5    1.84    0.12
  -3   7  -6    4.48    0.21
  -3   7  -6    4.82    0.28
   3  -7   6    4.98    0.19
  -2   7  -7    2.55    0.15
  -2   7  -7    3.00    0.23
  -1   7  -8    3.52    0.18
  -1   7  -8    3.50    0.24
   0   7  -9   13.48    0.45
   0   7  -9   14.67    0.58
   1   7 -10    0.26    0.07
   1   7 -10    0.20    0.12
   2   7 -11    1.75    0.23
   3   7 -12    2.22    0.27
  -8   8  -2    0.13    0.11
  -8   8  -2    0.02    0.08
  -7   8  -3    1.67    0.18
  -7   8  -3    1.44    0.17
  -6   8  -4    0.53    0.13
  -6   8  -4    0.53    0.11
   6  -8   4    0.47    0.09
  -5   8  -5    1.66    0.19
  -5   8  -5    1.58    0.14
   5  -8   5    1.58    0.12
  -4   8  -6    5.73    0.32
  -4   8  -6    5.86    0.25
   4  -8   6    6.07    0.23
  -3   8  -7    0.87    0.16
  -3   8  -7    1.07    0.11
  -2   8  -8   12.23    0.53
  -2   8  -8   12.09    0.42
  -1   8  -9    0.13    0.11
  -1   8  -9    0.07    0.06
   0   8 -10    1.44    0.13
   0   8 -10    1.57    0.21
   1   8 -11    0.09    0.13
  -8   9  -3    0.15    0.12
  -7   9  -4    0.49    0.12
  -7   9  -4    0.46    0.13
  -6   9  -5    0.72    0.15
   6  -9   5    0.65    0.10
  -5   9  -6    0.56    0.15
  -4   9  -7    0.65    0.16
  -4   9  -7    0.64    0.09
  -3   9  -8    1.79    0.15
  -3   9  -8    1.66    0.21
  -2   9  -9    0.20    0.13
  -1   9 -10    0.86    0.19
  -6  10  -6    1.84    0.23
  -5  10  -7    2.06    0.25
  -4  10  -8    0.83    0.19
  -3  10  -9    0.13    0.13
   0  10  -7   -0.12    0.14
  -1  10  -6    0.40    0.16
  -2  10  -5    1.44    0.21
  -3  10  -4    0.01    0.06
  -3  10  -4    0.21    0.13
  -4  10  -3    4.24    0.31
   5 -10   2    0.40    0.09
  -5  10  -2    0.40    0.15
  -6  10  -1    0.05    0.12
   2   9  -8    0.09    0.14
   1   9  -7    0.06    0.13
   0   9  -6    1.08    0.20
  -1   9  -5    0.41    0.14
  -1   9  -5    0.47    0.09
  -2   9  -4    0.34    0.14
  -2   9  -4    0.45    0.08
  -3   9  -3   15.84    0.51
  -3   9  -3   15.61    0.59
   4  -9   2   15.16    0.48
  -4   9  -2   14.45    0.61
  -4   9  -2   14.63    0.55
   5  -9   1    2.83    0.17
  -5   9  -1    3.10    0.25
   6  -9   0    3.87    0.23
  -6   9   0    3.37    0.26
  -6   9   0    3.45    0.25
   7  -9  -1    4.67    0.27
  -7   9   1    4.07    0.30
  -7   9   1    4.55    0.31
   3   8  -8    1.69    0.13
   3   8  -8    1.63    0.23
   2   8  -7    0.22    0.14
   2   8  -7    0.26    0.07
   1   8  -6    7.63    0.30
   1   8  -6    7.91    0.40
   0   8  -5    0.08    0.06
   0   8  -5   -0.03    0.10
  -1   8  -4    5.85    0.31
  -1   8  -4    5.65    0.24
  -2   8  -3    6.37    0.31
  -2   8  -3    6.07    0.25
   3  -8   2    4.99    0.26
   3  -8   2    4.91    0.21
  -3   8  -2    4.77    0.21
  -3   8  -2    4.65    0.26
  -3   8  -2    5.14    0.30
   4  -8   1    1.55    0.15
   4  -8   1    1.53    0.12
  -4   8  -1    1.61    0.17
  -4   8  -1    1.67    0.16
  -4   8  -1    1.71    0.15
   5  -8   0    0.29    0.07
   5  -8   0    0.25    0.08
  -5   8   0    0.37    0.12
  -5   8   0    0.32    0.11
   6  -8  -1   -0.01    0.05
  -6   8   1    0.09    0.10
  -6   8   1    0.04    0.09
  -7   8   2    0.07    0.10
  -7   8   2    0.13    0.11
   8  -8  -3    1.11    0.15
  -8   8   3    0.85    0.18
   4   7  -8    0.12    0.13
   3   7  -7    6.48    0.37
   2   7  -6    2.51    0.24
   2   7  -6    2.68    0.14
   1   7  -5    2.62    0.21
   1   7  -5    2.69    0.15
   0   7  -4    5.80    0.23
   0   7  -4    5.62    0.30
   1  -7   3   11.78    0.43
  -1   7  -3   11.32    0.38
  -1   7  -3   11.42    0.45
  -1   7  -3   12.31    0.42
   2  -7   2   11.37    0.36
  -2   7  -2   11.08    0.43
  -2   7  -2   11.60    0.42
  -2   7  -2   11.12    0.37
   3  -7   1    3.31    0.16
   3  -7   1    2.95    0.15
   3  -7   1    3.00    0.19
  -3   7  -1    3.05    0.19
  -3   7  -1    3.17    0.15
  -3   7  -1    3.47    0.23
  -3   7  -1    3.14    0.19
   4  -7   0    7.03    0.27
   4  -7   0    7.63    0.34
   4  -7   0    7.75    0.29
  -4   7   0    7.45    0.29
  -4   7   0    7.66    0.32
  -4   7   0    7.01    0.35
   5  -7  -1    2.10    0.14
   5  -7  -1    2.34    0.18
  -5   7   1    2.50    0.20
  -5   7   1    2.63    0.20
   6  -7  -2    4.72    0.21
  -6   7   2    4.92    0.29
  -6   7   2    4.62    0.28
   7  -7  -3   -0.02    0.05
  -7   7   3    0.09    0.10
  -7   7   3    0.02    0.10
   8  -7  -4    0.01    0.07
   8  -7  -4    0.00    0.06
  -8   7   4   -0.13    0.11
   5   6  -8    1.70    0.23
   4   6  -7    0.61    0.15
   3   6  -6    3.06    0.24
   2   6  -5    2.59    0.22
   2   6  -5    2.63    0.13
  -1  -6   4   24.23    0.75
   1   6  -4   24.12    0.74
   1   6  -4   22.44    0.66
   1   6  -4   22.92    0.77
   0  -6   3    0.40    0.08
   0   6  -3    0.30    0.10
   0   6  -3    0.55    0.07
   0   6  -3    0.56    0.07
   1  -6   2    7.05    0.23
   1  -6   2    7.11    0.22
  -1   6  -2    6.72    0.30
  -1   6  -2    7.08    0.27
  -1   6  -2    6.20    0.24
   2  -6   1   12.14    0.44
   2  -6   1   12.30    0.37
   2  -6   1   12.48    0.37
  -2   6  -1   11.63    0.38
  -2   6  -1   12.16    0.43
  -2   6  -1   12.49    0.40
  -2   6  -1   11.70    0.42
   3  -6   0    0.18    0.06
   3  -6   0    0.23    0.05
   3  -6   0    0.22    0.05
  -3   6   0    0.15    0.07
  -3   6   0    0.22    0.05
  -3   6   0    0.16    0.08
  -3   6   0    0.26    0.08
   4  -6  -1    3.20    0.15
   4  -6  -1    3.18    0.20
  -4   6   1    3.21    0.16
  -4   6   1    3.57    0.23
  -4   6   1    3.68    0.22
   5  -6  -2    0.31    0.08
   5  -6  -2    0.39    0.06
  -5   6   2    0.42    0.11
  -5   6   2    0.17    0.10
   6  -6  -3    3.33    0.16
  -6   6   3    3.32    0.24
  -6   6   3    3.44    0.24
   7  -6  -4    0.30    0.06
  -7   6   4    0.63    0.13
  -7   6   4    0.25    0.12
   8  -6  -5    0.06    0.06
  -8   6   5    0.02    0.11
   6   5  -8    0.12    0.12
   5   5  -7    0.70    0.15
   4   5  -6    2.42    0.22
   3   5  -5    3.28    0.23
   2   5  -4   11.05    0.39
   2   5  -4   10.35    0.42
   2   5  -4   10.20    0.31
  -1  -5   3   25.15    0.79
   1   5  -3   24.86    0.79
   1   5  -3   25.67    0.79
   1   5  -3   25.32    0.69
   0  -5   2   43.16    1.10
   0  -5   2   39.91    1.26
   0  -5   2   42.88    1.08
   0  -5   2   43.70    1.08
   0   5  -2   42.08    1.22
   0   5  -2   43.56    1.27
   0   5  -2   40.97    1.12
   1  -5   1   37.94    1.00
   1  -5   1   38.67    0.99
   1  -5   1   36.78    1.14
  -1   5  -1   38.55    1.14
  -1   5  -1   37.14    1.08
  -1   5  -1   36.42    1.00
   2  -5   0   12.84    0.39
   2  -5   0   12.69    0.46
  -2   5   0   13.84    0.46
  -2   5   0   13.00    0.39
  -2   5   0   13.18    0.42
  -2   5   0   13.75    0.42
  -2   5   0   13.11    0.48
   3  -5  -1   11.83    0.38
   3  -5  -1   11.71    0.44
   3  -5  -1   11.85    0.36
  -3   5   1   12.09    0.45
  -3   5   1   12.17    0.41
  -3   5   1   12.16    0.44
  -3   5   1   11.78    0.38
  -3   5   1   12.08    0.33
   4  -5  -2    1.19    0.08
   4  -5  -2    1.10    0.11
  -4   5   2    1.21    0.13
  -4   5   2    1.03    0.13
  -4   5   2    1.12    0.08
   5  -5  -3    2.57    0.18
   5  -5  -3    2.48    0.12
  -5   5   3    2.54    0.21
  -5   5   3    2.55    0.20
   6  -5  -4    3.54    0.20
   6  -5  -4    3.37    0.14
  -6   5   4    3.83    0.26
  -6   5   4    3.24    0.23
  -7   5   5    0.14    0.10
  -7   5   5   -0.07    0.09
   8  -5  -6    6.57    0.34
  -8   5   6    7.05    0.40
  -7  -4   8    2.75    0.23
   7   4  -8    3.07    0.28
  -6  -4   7    0.33    0.11
   6   4  -7    0.19    0.11
   6   4  -7    0.13    0.07
  -5  -4   6    0.06    0.07
   5   4  -6    0.06    0.09
  -4  -4   5   78.59    2.26
   4   4  -5   84.14    2.38
   4   4  -5   78.53    2.28
  -3  -4   4   65.41    1.84
   3   4  -4   66.83    1.93
   3   4  -4   63.82    1.86
  -2  -4   3   32.24    0.96
  -2  -4   3   32.35    0.85
   2   4  -3   31.89    0.99
   2   4  -3   32.80    0.84
   2   4  -3   33.12    0.98
  -1  -4   2   58.03    1.63
  -1  -4   2   61.34    1.51
   1   4  -2   60.47    1.73
   1   4  -2   56.98    1.64
   1   4  -2   57.91    1.51
   0  -4   1  126.68    3.74
   0  -4   1  132.12    3.33
   0  -4   1  134.84    3.29
   0   4  -1  128.41    3.31
   0   4  -1  132.48    3.74
   0   4  -1  130.69    3.50
   1  -4   0    0.02    0.03
   1  -4   0    0.06    0.02
   1  -4   0    0.00    0.04
  -1   4   0    0.04    0.04
  -1   4   0    0.01    0.03
  -1   4   0    0.05    0.05
  -1   4   0    0.03    0.03
   2  -4  -1    0.26    0.04
   2  -4  -1    0.19    0.04
   2  -4  -1    0.23    0.05
  -2   4   1    0.21    0.07
  -2   4   1    0.15    0.04
  -2   4   1    0.26    0.05
  -2   4   1    0.15    0.03
  -2   4   1    0.26    0.06
   3  -4  -2   14.35    0.52
   3  -4  -2   15.30    0.46
   3  -4  -2   14.74    0.42
  -3   4   2   15.04    0.43
  -3   4   2   14.72    0.49
  -3   4   2   15.71    0.52
  -3   4   2   15.08    0.52
   4  -4  -3    0.13    0.03
   4  -4  -3    0.05    0.05
   4  -4  -3    0.05    0.05
  -4   4   3   -0.04    0.07
  -4   4   3    0.12    0.03
  -4   4   3    0.16    0.08
   5  -4  -4    0.30    0.07
   5  -4  -4    0.23    0.07
   5  -4  -4    0.31    0.04
  -5   4   4    0.31    0.04
  -5   4   4    0.21    0.10
  -5   4   4    0.26    0.09
   6  -4  -5    0.01    0.06
  -6   4   5    0.12    0.09
  -6   4   5   -0.09    0.09
   7  -4  -6    7.17    0.33
  -7   4   6    6.70    0.38
  -7   4   6    7.27    0.37
   8  -4  -7    6.24    0.32
  -8   4   7    6.45    0.38
  -7  -3   7    0.30    0.11
   7   3  -7    0.46    0.14
   7   3  -7    0.21    0.09
  -6  -3   6    4.22    0.25
   6   3  -6    4.24    0.25
   6   3  -6    3.98    0.23
   6   3  -6    4.02    0.26
  -5  -3   5   11.44    0.43
   5   3  -5   10.25    0.43
   5   3  -5   10.58    0.44
  -4  -3   4   20.78    0.68
  -4  -3   4   20.92    0.61
   4   3  -4   21.26    0.70
   4   3  -4   22.04    0.71
  -3  -3   3    3.13    0.17
  -3  -3   3    3.09    0.13
   3   3  -3    3.00    0.18
   3   3  -3    2.95    0.17
  -2  -3   2    1.35    0.07
  -2  -3   2    1.41    0.10
   2   3  -2    1.33    0.11
   2   3  -2    1.22    0.11
   2   3  -2    1.34    0.05
   2   3  -2    1.37    0.05
  -1  -3   1    9.91    0.33
  -1  -3   1   10.09    0.29
  -1  -3   1    9.43    0.34
   1   3  -1   10.19    0.35
   1   3  -1   10.31    0.34
   1   3  -1   10.09    0.29
   1   3  -1   10.56    0.29
   0  -3   0    4.72    0.19
   0  -3   0    4.53    0.17
   0  -3   0    4.92    0.16
   0  -3   0    4.74    0.15
   0  -3   0    4.88    0.16
   0   3   0    4.88    0.18
   0   3   0    4.44    0.16
   0   3   0    4.98    0.19
   1  -3  -1    0.40    0.06
   1  -3  -1    0.55    0.05
   1  -3  -1    0.45    0.04
   1  -3  -1    0.43    0.04
  -1   3   1    0.41    0.06
  -1   3   1    0.43    0.05
  -1   3   1    0.37    0.05
  -1   3   1    0.46    0.04
  -1   3   1    0.36    0.04
  -1   3   1    0.41    0.06
   2  -3  -2   58.10    1.51
   2  -3  -2   53.25    1.68
   2  -3  -2   56.90    1.46
   2  -3  -2   60.19    1.53
   2  -3  -2   60.00    1.47
  -2   3   2   57.89    1.58
  -2   3   2   55.58    1.52
  -2   3   2   56.44    1.64
  -2   3   2   57.53    1.69
  -2   3   2   56.91    1.53
   3  -3  -3  111.39    2.85
   3  -3  -3  106.89    3.27
   3  -3  -3  114.35    2.99
   3  -3  -3  119.98    2.86
   3  -3  -3  111.86    3.09
   3  -3  -3  110.97    2.94
  -3   3   3  116.20    3.17
  -3   3   3  115.19    3.27
  -3   3   3  110.36    2.96
  -3   3   3  113.09    2.99
  -3   3   3  116.66    3.08
   4  -3  -4   21.55    0.64
   4  -3  -4   21.26    0.72
   4  -3  -4   21.60    0.64
  -4   3   4   21.17    0.59
  -4   3   4   21.40    0.71
  -4   3   4   21.37    0.68
   5  -3  -5    3.40    0.20
   5  -3  -5    2.86    0.16
   5  -3  -5    2.93    0.17
  -5   3   5    2.91    0.20
  -5   3   5    2.95    0.22
  -5   3   5    2.97    0.13
   6  -3  -6   19.98    0.66
   6  -3  -6   20.61    0.65
   6  -3  -6   21.09    0.75
  -6   3   6   20.51    0.71
  -6   3   6   20.52    0.73
   7  -3  -7    0.89    0.12
  -7   3   7    0.82    0.16
  -7   3   7    0.52    0.13
   8  -3  -8    0.95    0.13
  -8   3   8    0.69    0.17
  -8   3   8    1.09    0.17
  -8  -2   7    0.17    0.10
   8   2  -7    0.34    0.12
   8   2  -7    0.28    0.10
  -7  -2   6    0.38    0.10
   7   2  -6    0.33    0.09
   7   2  -6    0.40    0.12
  -6  -2   5    7.74    0.32
  -6  -2   5    7.48    0.33
   6   2  -5    7.90    0.34
   6   2  -5    7.14    0.34
   6   2  -5    7.29    0.35
  -5  -2   4   14.64    0.49
   5   2  -4   13.04    0.50
  -4  -2   3   14.76    0.47
  -4  -2   3   15.52    0.52
   4   2  -3   16.08    0.54
   4   2  -3   16.78    0.55
  -3  -2   2    0.21    0.04
  -3  -2   2    0.11    0.04
   3   2  -2    0.21    0.06
  -2  -2   1   27.91    0.86
  -2  -2   1   27.99    0.80
  -2  -2   1   28.78    0.75
   2   2  -1   28.04    0.86
  -1  -2   0    2.17    0.06
  -1  -2   0    2.10    0.09
  -1  -2   0    2.07    0.12
  -1  -2   0    2.11    0.10
   1   2   0    2.12    0.12
   1   2   0    2.28    0.08
   1   2   0    2.10    0.08
   0  -2  -1   54.82    1.40
   0  -2  -1   57.54    1.40
   0  -2  -1   54.80    1.43
   0  -2  -1   54.77    1.47
   0  -2  -1   53.96    1.60
   0   2   1   56.37    1.48
   0   2   1   54.44    1.55
   0   2   1   58.01    1.40
   0   2   1   52.00    1.46
   0   2   1   54.27    1.40
   0   2   1   54.08    1.60
   1  -2  -2    1.41    0.07
   1  -2  -2    1.40    0.09
   1  -2  -2    1.40    0.07
   1  -2  -2    1.39    0.08
  -1   2   2    1.50    0.06
  -1   2   2    1.57    0.09
  -1   2   2    1.44    0.06
  -1   2   2    1.55    0.11
  -1   2   2    1.51    0.05
  -1   2   2    1.54    0.06
  -1   2   2    1.35    0.10
   2  -2  -3   57.33    1.47
   2  -2  -3   57.70    1.53
   2  -2  -3   54.84    1.70
   2  -2  -3   60.53    1.47
   2  -2  -3   58.61    1.59
  -2   2   3   57.69    1.66
  -2   2   3   59.66    1.58
  -2   2   3   56.99    1.55
  -2   2   3   58.86    1.70
   3  -2  -4   51.77    1.41
   3  -2  -4   52.73    1.46
   3  -2  -4   54.12    1.41
   3  -2  -4   54.27    1.41
   3  -2  -4   50.79    1.57
  -3   2   4   53.26    1.57
  -3   2   4   50.65    1.44
  -3   2   4   52.12    1.54
  -3   2   4   54.17    1.45
  -3   2   4   53.85    1.41
   4  -2  -5    0.05    0.03
   4  -2  -5   -0.04    0.03
   4  -2  -5    0.07    0.04
  -4   2   5   -0.01    0.06
  -4   2   5   -0.02    0.08
   5  -2  -6   47.12    1.35
   5  -2  -6   48.21    1.47
   5  -2  -6   46.58    1.31
   5  -2  -6   46.95    1.32
  -5   2   6   47.89    1.37
  -5   2   6   46.41    1.44
  -5   2   6   48.07    1.30
   6  -2  -7    0.74    0.11
   6  -2  -7    0.67    0.11
   6  -2  -7    0.92    0.09
  -6   2   7    0.88    0.15
  -6   2   7    0.82    0.13
   7  -2  -8    0.58    0.10
  -7   2   8    0.61    0.14
  -7   2   8    0.71    0.15
   8  -2  -9    1.29    0.15
  -8   2   9    1.46    0.21
  -8   2   9    1.23    0.18
  -8  -1   6    1.67    0.18
  -8  -1   6    1.77    0.18
   8   1  -6    1.10    0.15
   8   1  -6    1.84    0.20
  -7  -1   5    1.17    0.14
  -7  -1   5    1.43    0.15
   7   1  -5    0.98    0.13
  -6  -1   4    7.37    0.32
  -6  -1   4    7.32    0.31
   6   1  -4    7.60    0.33
   6   1  -4    7.09    0.32
  -5  -1   3    3.42    0.18
  -5  -1   3    3.22    0.18
   5   1  -3    3.02    0.18
  -4  -1   2   16.97    0.56
  -4  -1   2   18.58    0.53
   4   1  -2   18.29    0.58
  -3  -1   1    0.30    0.05
  -3  -1   1    0.18    0.04
   3   1  -1    0.21    0.05
   3   1  -1    0.26    0.05
  -2  -1   0   16.52    0.51
  -2  -1   0   17.29    0.48
   2   1   0   17.77    0.55
   2   1   0   17.49    0.45
   2   1   0   18.01    0.53
  -1  -1  -1   24.95    0.72
  -1  -1  -1   25.68    0.79
  -1  -1  -1   26.24    0.70
  -1  -1  -1   25.67    0.67
  -1  -1  -1   27.15    0.67
   1   1   1   26.23    0.68
   1   1   1   27.37    0.68
   1   1   1   25.99    0.74
   1   1   1   25.93    0.75
   1   1   1   25.83    0.79
   0  -1  -2   85.25    2.32
   0  -1  -2   88.15    2.26
   0  -1  -2   91.48    2.22
   0  -1  -2   86.55    2.21
   0   1   2   90.14    2.32
   0   1   2   85.42    2.21
   0   1   2   88.31    2.42
   0   1   2   87.87    2.39
   0   1   2   88.23    2.21
   0   1   2   86.25    2.51
   1  -1  -3   38.44    1.05
   1  -1  -3   38.51    0.98
   1  -1  -3   39.13    0.98
   1  -1  -3   37.57    1.02
   1  -1  -3   37.20    1.13
  -1   1   3   37.76    1.11
  -1   1   3   39.64    1.14
  -1   1   3   39.22    1.04
   2  -1  -4   12.57    0.36
   2  -1  -4   12.63    0.36
   2  -1  -4   12.33    0.38
   2  -1  -4   13.27    0.35
   2  -1  -4   12.07    0.42
  -2   1   4   12.25    0.43
  -2   1   4   12.60    0.42
  -2   1   4   11.96    0.40
   3  -1  -5   55.11    1.57
   3  -1  -5   57.92    1.53
   3  -1  -5   59.41    1.55
   3  -1  -5   56.60    1.70
  -3   1   5   56.39    1.66
  -3   1   5   58.89    1.69
  -3   1   5   56.58    1.56
   4  -1  -6    7.82    0.28
   4  -1  -6    7.91    0.27
   4  -1  -6    7.87    0.29
   4  -1  -6    8.02    0.32
  -4   1   6    7.71    0.32
  -4   1   6    7.87    0.33
  -4   1   6    7.99    0.27
  -4   1   6    7.53    0.34
   5  -1  -7   19.83    0.60
   5  -1  -7   18.91    0.67
   5  -1  -7   18.70    0.59
   5  -1  -7   18.18    0.60
  -5   1   7   18.66    0.68
  -5   1   7   19.21    0.58
  -5   1   7   19.06    0.65
   6  -1  -8    0.42    0.09
   6  -1  -8    0.61    0.11
  -6   1   8    0.45    0.12
  -6   1   8    0.37    0.12
   7  -1  -9    2.76    0.19
  -7   1   9    2.48    0.22
  -7   1   9    2.38    0.22
   8  -1 -10    5.17    0.29
  -8   1  10    5.14    0.34
  -8   1  10    5.13    0.35
  -9   0   6    0.15    0.11
  -9   0   6    0.14    0.09
   9   0  -6    0.30    0.13
  -8   0   5    5.38    0.29
  -8   0   5    5.96    0.32
   8   0  -5    5.30    0.30
  -7   0   4   15.47    0.55
  -7   0   4   15.29    0.54
   7   0  -4   15.62    0.57
  -6   0   3    0.19    0.09
  -6   0   3    0.08    0.05
   6   0  -3    0.07    0.05
   6   0  -3    0.19    0.06
  -5   0   2    4.70    0.22
  -5   0   2    4.91    0.22
   5   0  -2    4.93    0.23
  -4   0   1    1.03    0.09
  -4   0   1    0.63    0.07
   4   0  -1    0.57    0.07
  -3   0   0    1.33    0.09
  -3   0   0    1.31    0.08
   3   0   0    1.42    0.09
  -2   0  -1  135.65    3.55
  -2   0  -1  132.00    3.34
  -2   0  -1  124.77    3.45
   2   0   1  128.19    3.30
   2   0   1  127.53    3.55
   2   0   1  125.28    3.72
   2   0   1  140.64    3.28
   2   0   1  131.57    3.62
  -1   0  -2    7.88    0.28
  -1   0  -2    7.99    0.25
  -1   0  -2    8.24    0.23
  -1   0  -2    8.31    0.23
  -1   0  -2    8.34    0.25
  -1   0  -2    8.31    0.26
   1   0   2    8.23    0.28
   1   0   2    8.05    0.25
   1   0   2    8.21    0.26
   1   0   2    8.37    0.24
   1   0   2    8.67    0.24
   0   0  -3    5.91    0.18
   0   0  -3    5.84    0.17
   0   0  -3    5.89    0.19
   0   0  -3    5.59    0.19
   0   0  -3    5.62    0.21
   0   0  -3    5.82    0.17
   0   0   3    5.80    0.18
   0   0   3    4.87    0.18
   0   0   3    5.84    0.16
   0   0   3    6.14    0.21
   0   0   3    6.35    0.16
   0   0   3    6.06    0.22
   1   0  -4   58.20    1.72
   1   0  -4   58.75    1.55
   1   0  -4   58.99    1.59
  -1   0   4   62.02    1.59
  -1   0   4   59.96    1.72
  -1   0   4   59.13    1.68
   2   0  -5   18.12    0.52
   2   0  -5   17.73    0.56
   2   0  -5   17.40    0.51
  -2   0   5   17.67    0.56
  -2   0   5   17.41    0.54
  -2   0   5   17.78    0.58
   3   0  -6    2.64    0.14
   3   0  -6    2.67    0.13
   3   0  -6    2.36    0.11
   3   0  -6    2.41    0.14
  -3   0   6    2.73    0.18
  -3   0   6    2.44    0.17
  -3   0   6    2.87    0.15
   4   0  -7    1.13    0.11
   4   0  -7    1.37    0.11
   4   0  -7    0.98    0.10
   4   0  -7    1.11    0.08
  -4   0   7    1.19    0.14
  -4   0   7    1.45    0.11
  -4   0   7    1.10    0.14
   5   0  -8    1.22    0.13
   5   0  -8    1.08    0.10
   5   0  -8    1.10    0.11
   5   0  -8    1.13    0.12
  -5   0   8    1.15    0.14
  -5   0   8    1.09    0.15
   6   0  -9    0.48    0.09
   6   0  -9    0.62    0.11
  -6   0   9    0.71    0.14
  -6   0   9    0.65    0.14
   7   0 -10    0.65    0.11
  -7   0  10    0.54    0.14
  -7   0  10    0.66    0.15
  -9   1   5    5.50    0.34
  -9   1   5    6.15    0.32
   9  -1  -5    6.01    0.33
  -8   1   4    2.79    0.20
  -8   1   4    3.13    0.23
   8  -1  -4    3.47    0.22
  -7   1   3    4.34    0.23
  -7   1   3    4.57    0.26
   7  -1  -3    4.41    0.24
  -6   1   2   10.51    0.39
  -6   1   2    9.90    0.38
  -6   1   2   11.28    0.35
   6  -1  -2   10.46    0.42
   6  -1  -2    9.91    0.40
  -5   1   1   16.66    0.53
  -5   1   1   17.47    0.49
  -5   1   1   15.99    0.52
   5  -1  -1   16.48    0.56
  -4   1   0   15.10    0.47
  -4   1   0   14.53    0.48
   4  -1   0   16.19    0.44
   4  -1   0   14.91    0.49
  -3   1  -1    8.65    0.30
  -3   1  -1    8.80    0.29
   3  -1   1    9.10    0.25
   3  -1   1    9.80    0.25
   3  -1   1    8.60    0.31
  -2   1  -2    0.10    0.04
  -2   1  -2    0.13    0.02
  -2   1  -2    0.18    0.04
  -2   1  -2    0.12    0.03
  -2   1  -2    0.07    0.02
   2  -1   2    0.07    0.04
   2  -1   2    0.10    0.03
   2  -1   2    0.10    0.02
   2  -1   2    0.08    0.03
  -1   1  -3  141.43    3.55
  -1   1  -3  138.14    3.49
  -1   1  -3  143.51    3.49
  -1   1  -3  135.20    3.67
  -1   1  -3  140.01    3.76
  -1   1  -3  133.93    3.94
   1  -1   3  144.58    3.48
   1  -1   3  138.91    3.79
   1  -1   3  136.00    3.76
   1  -1   3  139.16    3.94
   1  -1   3  136.86    3.49
   0   1  -4  112.76    2.90
   0   1  -4  115.56    3.07
   0   1  -4  114.48    2.84
   0   1  -4  113.77    3.22
   0   1  -4  108.28    3.00
   0   1  -4  114.49    2.84
   0  -1   4  112.95    3.12
   0  -1   4  113.18    3.22
   1   1  -5    1.28    0.07
   1   1  -5    1.19    0.09
   1   1  -5    1.38    0.08
  -1  -1   5    1.27    0.07
  -1  -1   5    1.41    0.11
   2   1  -6    0.04    0.03
   2   1  -6    0.01    0.05
   2   1  -6    0.05    0.03
  -2  -1   6    0.01    0.05
  -2  -1   6    0.00    0.02
   3   1  -7   65.83    1.94
   3   1  -7   65.71    1.83
   3   1  -7   66.52    1.76
  -3  -1   7   65.16    1.93
  -3  -1   7   68.17    1.94
   4   1  -8    0.07    0.07
   4   1  -8    0.11    0.05
   4   1  -8    0.10    0.05
  -4  -1   8    0.18    0.09
  -4  -1   8    0.03    0.08
   5   1  -9    6.86    0.30
   5   1  -9    6.46    0.30
   5   1  -9    6.46    0.28
   5   1  -9    6.40    0.28
  -5  -1   9    6.58    0.32
  -5  -1   9    6.33    0.34
   6   1 -10    5.19    0.26
   6   1 -10    5.41    0.28
  -6  -1  10    5.09    0.30
  -6  -1  10    5.58    0.33
   7   1 -11    0.06    0.07
  -7  -1  11    0.04    0.12
  -7  -1  11    0.11    0.12
  -9   2   4    0.35    0.10
  -9   2   4    0.35    0.12
   9  -2  -4    0.27    0.10
  -8   2   3    2.14    0.19
  -8   2   3    2.09    0.16
   8  -2  -3    2.34    0.18
  -7   2   2    4.72    0.23
  -7   2   2    4.30    0.25
   7  -2  -2    4.14    0.24
  -6   2   1    4.28    0.23
  -6   2   1    4.81    0.22
   6  -2  -1    4.72    0.23
   6  -2  -1    4.51    0.24
  -5   2   0   36.88    1.06
  -5   2   0   35.79    1.03
  -5   2   0   37.78    1.02
   5  -2   0   36.02    1.14
   5  -2   0   34.93    1.09
   5  -2   0   37.95    0.93
   5  -2   0   36.68    0.93
  -4   2  -1   66.37    1.80
  -4   2  -1   67.22    1.86
   4  -2   1   70.67    1.73
   4  -2   1   67.13    1.91
   4  -2   1   68.63    1.73
  -3   2  -2   21.04    0.56
  -3   2  -2   19.37    0.51
  -3   2  -2   19.12    0.59
  -3   2  -2   19.82    0.57
  -3   2  -2   19.08    0.51
   3  -2   2   19.13    0.54
   3  -2   2   19.90    0.61
   3  -2   2   20.48    0.54
  -2   2  -3    4.61    0.18
  -2   2  -3    4.53    0.15
  -2   2  -3    4.63    0.18
   2  -2   3    4.42    0.15
   2  -2   3    4.52    0.19
  -1   2  -4  198.12    4.86
  -1   2  -4  188.71    5.13
  -1   2  -4  192.69    4.94
  -1   2  -4  197.22    4.87
   1  -2   4  196.84    4.87
   1  -2   4  190.85    5.29
   1  -2   4  193.78    5.51
   0   2  -5    6.24    0.19
   0   2  -5    6.47    0.22
   0   2  -5    6.47    0.25
   0   2  -5    6.37    0.21
   0   2  -5    6.69    0.19
   0  -2   5    6.66    0.21
   0  -2   5    6.90    0.26
   1   2  -6    0.41    0.05
   1   2  -6    0.52    0.05
   1   2  -6    0.48    0.08
  -1  -2   6    0.53    0.04
  -1  -2   6    0.41    0.08
   2   2  -7    2.59    0.16
   2   2  -7    2.57    0.13
   2   2  -7    2.53    0.12
  -2  -2   7    2.41    0.18
  -2  -2   7    2.44    0.12
   3   2  -8    1.70    0.11
   3   2  -8    1.81    0.12
   3   2  -8    1.78    0.14
  -3  -2   8    1.65    0.16
   4   2  -9    0.39    0.11
   4   2  -9    0.27    0.07
   4   2  -9    0.39    0.07
  -4  -2   9    0.23    0.10
   5   2 -10    0.07    0.09
   5   2 -10    0.15    0.06
   5   2 -10   -0.01    0.05
  -5  -2  10    0.01    0.08
   6   2 -11    2.27    0.21
  -6  -2  11    1.63    0.20
  -9   3   3    1.89    0.21
  -9   3   3    2.50    0.19
   9  -3  -3    1.73    0.18
  -8   3   2    0.24    0.08
  -8   3   2    0.16    0.10
   8  -3  -2    0.13    0.08
  -7   3   1    0.69    0.12
  -7   3   1    0.86    0.11
   7  -3  -1    0.59    0.10
  -6   3   0    3.42    0.18
  -6   3   0    3.32    0.20
   6  -3   0    3.75    0.21
   6  -3   0    3.16    0.20
   6  -3   0    3.58    0.13
  -5   3  -1   29.63    0.80
  -5   3  -1   27.82    0.82
  -5   3  -1   28.02    0.84
   5  -3   1   27.37    0.90
   5  -3   1   26.79    0.87
   5  -3   1   29.37    0.76
  -4   3  -2    1.67    0.09
  -4   3  -2    1.53    0.11
  -4   3  -2    1.58    0.12
   4  -3   2    1.65    0.12
   4  -3   2    1.75    0.09
   4  -3   2    1.48    0.11
  -3   3  -3    0.94    0.08
  -3   3  -3    0.98    0.09
  -3   3  -3    0.81    0.06
   3  -3   3    0.92    0.07
   3  -3   3    1.14    0.10
  -2   3  -4   46.83    1.24
  -2   3  -4   48.04    1.27
  -2   3  -4   47.74    1.34
   2  -3   4   49.05    1.24
  -1   3  -5   11.95    0.35
  -1   3  -5   12.17    0.37
   1  -3   5   12.22    0.33
   1  -3   5   11.98    0.37
   1  -3   5   12.26    0.33
   0   3  -6   18.97    0.47
   0   3  -6   16.63    0.47
   0   3  -6   16.77    0.55
   0   3  -6   17.01    0.49
   0  -3   6   16.46    0.57
   1   3  -7   48.21    1.23
   1   3  -7   48.09    1.40
   1   3  -7   50.09    1.40
   1   3  -7   49.50    1.29
  -1  -3   7   47.38    1.44
   2   3  -8   17.84    0.62
   2   3  -8   18.98    0.57
   2   3  -8   19.05    0.55
  -2  -3   8   18.55    0.66
   3   3  -9    6.53    0.25
   3   3  -9    5.78    0.30
  -3  -3   9    5.66    0.32
   4   3 -10    0.45    0.12
  -4  -3  10    0.42    0.11
   5   3 -11    0.63    0.14
  -5  -3  11    0.33    0.13
  -6  -3  12    0.79    0.17
  -9   4   2    3.57    0.27
  -9   4   2    3.83    0.23
   9  -4  -2    4.01    0.27
  -8   4   1    0.00    0.06
  -8   4   1   -0.01    0.08
   8  -4  -1    0.04    0.07
  -7   4   0    0.08    0.06
  -7   4   0   -0.04    0.07
   7  -4   0    0.02    0.04
   7  -4   0   -0.10    0.05
  -6   4  -1   21.48    0.67
  -6   4  -1   20.67    0.67
   6  -4   1   21.36    0.72
   6  -4   1   20.66    0.73
   6  -4   1   21.47    0.60
  -5   4  -2    1.83    0.11
  -5   4  -2    1.63    0.14
  -5   4  -2    1.97    0.14
   5  -4   2    1.59    0.10
   5  -4   2    1.95    0.13
   5  -4   2    1.61    0.14
  -4   4  -3    8.29    0.24
  -4   4  -3    7.91    0.30
  -4   4  -3    8.13    0.31
   4  -4   3    7.99    0.31
   4  -4   3    8.08    0.33
   4  -4   3    8.00    0.27
  -3   4  -4  143.34    3.60
  -3   4  -4  141.62    3.83
  -3   4  -4  143.80    3.67
   3  -4   4  143.60    3.61
   3  -4   4  141.91    4.06
   3  -4   4  140.74    3.93
  -2   4  -5    8.14    0.32
  -2   4  -5    8.18    0.27
   2  -4   5    7.96    0.25
   2  -4   5    8.16    0.27
   2  -4   5    8.18    0.28
  -1   4  -6    0.12    0.04
  -1   4  -6    0.19    0.05
  -1   4  -6    0.13    0.07
   0   4  -7   12.77    0.37
   0   4  -7   12.45    0.38
   0   4  -7   12.42    0.46
   1   4  -8   45.24    1.18
   1   4  -8   42.33    1.13
   1   4  -8   44.65    1.31
   2   4  -9    2.11    0.18
  -2  -4   9    1.69    0.17
   3   4 -10    2.00    0.20
  -3  -4  10    1.56    0.18
   4   4 -11    0.49    0.14
   5   4 -12    4.38    0.29
  -9   5   1    0.17    0.10
  -9   5   1    0.21    0.09
   9  -5  -1    0.11    0.10
  -8   5   0    1.19    0.16
  -8   5   0    0.86    0.12
   8  -5   0    0.87    0.14
   8  -5   0    0.87    0.09
  -7   5  -1    7.11    0.31
  -7   5  -1    7.25    0.33
   7  -5   1    7.44    0.36
   7  -5   1    7.54    0.27
  -6   5  -2    0.10    0.06
  -6   5  -2    0.34    0.10
   6  -5   2    0.12    0.05
   6  -5   2    0.21    0.07
   6  -5   2    0.13    0.08
  -5   5  -3    0.03    0.07
  -5   5  -3   -0.03    0.05
  -5   5  -3   -0.07    0.05
   5  -5   3    0.05    0.04
   5  -5   3    0.09    0.07
   5  -5   3   -0.03    0.04
  -4   5  -4    2.42    0.16
  -4   5  -4    2.63    0.17
   4  -5   4    2.48    0.18
   4  -5   4    2.65    0.13
   4  -5   4    2.53    0.14
  -3   5  -5    2.77    0.14
  -3   5  -5    2.87    0.19
  -3   5  -5    2.96    0.15
   3  -5   5    2.90    0.13
   3  -5   5    2.89    0.14
  -2   5  -6   10.18    0.34
  -2   5  -6   10.80    0.42
  -2   5  -6   10.95    0.34
   2  -5   6   10.77    0.34
   2  -5   6   10.67    0.32
   2  -5   6   11.18    0.35
  -1   5  -7    0.57    0.07
  -1   5  -7    0.59    0.07
  -1   5  -7    0.51    0.11
   0   5  -8    0.06    0.09
   0   5  -8    0.13    0.05
   1   5  -9    4.44    0.27
   1   5  -9    4.70    0.18
   2   5 -10    0.42    0.13
   3   5 -11    3.05    0.24
   4   5 -12   18.64    0.72
  -9   6   0    0.16    0.09
  -9   6   0    0.06    0.11
   9  -6   0    0.16    0.07
   9  -6   0    0.17    0.12
  -8   6  -1    4.69    0.26
  -8   6  -1    4.46    0.28
   8  -6   1    4.93    0.31
   8  -6   1    4.74    0.22
  -7   6  -2    9.60    0.40
  -7   6  -2   10.04    0.41
   7  -6   2   10.28    0.35
   7  -6   2    9.86    0.45
  -6   6  -3    6.13    0.29
  -6   6  -3    6.63    0.30
   6  -6   3    6.64    0.26
   6  -6   3    6.76    0.34
   6  -6   3    7.24    0.32
  -5   6  -4    0.29    0.09
  -5   6  -4   -0.01    0.07
   5  -6   4    0.11    0.05
   5  -6   4   -0.02    0.04
  -4   6  -5   10.91    0.35
  -4   6  -5   10.49    0.43
  -4   6  -5   10.92    0.38
   4  -6   5   10.97    0.39
   4  -6   5   10.87    0.35
  -3   6  -6    2.23    0.18
  -3   6  -6    2.15    0.13
  -3   6  -6    1.86    0.13
   3  -6   6    2.04    0.11
  -2   6  -7    1.37    0.11
  -2   6  -7    1.48    0.17
  -2   6  -7    1.33    0.11
  -1   6  -8    6.62    0.25
  -1   6  -8    6.68    0.33
   0   6  -9    0.10    0.10
   0   6  -9    0.14    0.05
   1   6 -10    1.39    0.19
   1   6 -10    1.08    0.09
   2   6 -11    2.52    0.24
   3   6 -12    0.78    0.19
  -9   7  -1    8.54    0.43
  -9   7  -1    8.81    0.39
  -8   7  -2    6.33    0.34
  -8   7  -2    6.58    0.32
   8  -7   2    6.60    0.38
  -7   7  -3    6.70    0.32
  -7   7  -3    6.41    0.32
   7  -7   3    6.55    0.27
   7  -7   3    6.82    0.37
  -6   7  -4    0.21    0.09
  -6   7  -4    0.30    0.10
   6  -7   4    0.31    0.07
   6  -7   4    0.33    0.08
  -5   7  -5    6.82    0.33
  -5   7  -5    6.63    0.29
   5  -7   5    6.18    0.25
  -4   7  -6    7.04    0.35
  -4   7  -6    7.83    0.30
  -4   7  -6    7.86    0.28
   4  -7   6    7.39    0.27
  -3   7  -7    0.35    0.07
  -3   7  -7    0.39    0.12
  -2   7  -8    0.71    0.15
  -2   7  -8    0.67    0.09
  -1   7  -9    9.65    0.44
   0   7 -10    1.98    0.14
   0   7 -10    1.46    0.20
   1   7 -11    1.06    0.19
   1   7 -11    1.35    0.11
   2   7 -12    5.31    0.36
  -8   8  -3    0.36    0.12
  -8   8  -3    0.44    0.13
  -7   8  -4    0.45    0.13
  -7   8  -4    0.16    0.10
  -6   8  -5    8.17    0.39
  -6   8  -5    8.62    0.36
   6  -8   5    7.95    0.32
  -5   8  -6    0.95    0.16
  -5   8  -6    0.93    0.12
   5  -8   6    0.84    0.09
  -4   8  -7    0.18    0.07
  -4   8  -7    0.12    0.10
  -3   8  -8    0.91    0.16
  -3   8  -8    0.75    0.10
  -2   8  -9    1.44    0.20
  -2   8  -9    1.38    0.12
  -1   8 -10    0.41    0.08
  -1   8 -10    0.59    0.16
   0   8 -11    0.01    0.11
   1   8 -12    1.96    0.25
  -7   9  -5    2.71    0.24
  -7   9  -5    2.49    0.21
  -6   9  -6    0.41    0.14
   6  -9   6    0.31    0.08
  -5   9  -7    0.05    0.11
  -4   9  -8    1.06    0.18
  -4   9  -8    1.17    0.12
  -3   9  -9    3.05    0.26
  -2   9 -10    3.38    0.28
  -1   9 -11    2.50    0.27
  -5  10  -8    0.47    0.17
  -4  10  -9    3.76    0.31
   0  10  -6    1.90    0.24
  -1  10  -5    0.07    0.13
  -2  10  -4   -0.22    0.10
  -3  10  -3    0.01    0.09
  -3  10  -3   -0.02    0.06
  -4  10  -2    8.85    0.47
  -5  10  -1    0.36    0.14
  -6  10   0    0.01    0.11
   2   9  -7    3.85    0.31
   1   9  -6    0.33    0.15
   0   9  -5   10.33    0.48
  -1   9  -4    1.35    0.19
  -1   9  -4    1.18    0.12
  -2   9  -3    2.46    0.22
  -2   9  -3    2.75    0.17
   3  -9   2    3.91    0.19
  -3   9  -2    3.10    0.23
  -3   9  -2    3.68    0.27
  -3   9  -2    3.89    0.19
   4  -9   1    4.87    0.22
  -4   9  -1    4.72    0.32
   5  -9   0    5.43    0.24
  -5   9   0    5.01    0.32
   6  -9  -1    0.27    0.09
  -6   9   1    0.18    0.12
  -6   9   1    0.33    0.13
   7  -9  -2    0.25    0.10
  -7   9   2    0.47    0.14
  -7   9   2    0.12    0.13
   3   8  -7    2.41    0.16
   3   8  -7    2.74    0.28
   2   8  -6    8.96    0.46
   2   8  -6   10.07    0.36
   1   8  -5    3.23    0.25
   1   8  -5    3.49    0.18
   0   8  -4    2.64    0.22
   0   8  -4    2.68    0.16
  -1   8  -3    0.09    0.06
  -1   8  -3    0.36    0.12
   2  -8   2    1.84    0.17
  -2   8  -2    2.40    0.18
  -2   8  -2    2.31    0.15
   3  -8   1    9.87    0.34
   3  -8   1   10.10    0.42
  -3   8  -1   10.08    0.39
  -3   8  -1    9.54    0.34
  -3   8  -1    9.16    0.44
   4  -8   0    1.79    0.14
   4  -8   0    2.11    0.14
   4  -8   0    1.88    0.17
  -4   8   0    2.06    0.20
  -4   8   0    1.94    0.17
   5  -8  -1    0.45    0.08
   5  -8  -1    0.60    0.10
  -5   8   1    0.28    0.11
  -5   8   1    0.49    0.13
   6  -8  -2    4.37    0.24
   6  -8  -2    4.58    0.22
  -6   8   2    4.69    0.30
  -6   8   2    4.20    0.28
   7  -8  -3    0.88    0.13
  -7   8   3    0.93    0.18
  -7   8   3    0.69    0.15
   8  -8  -4    0.38    0.11
  -8   8   4    0.01    0.13
   4   7  -7    2.89    0.29
   3   7  -6    7.04    0.26
   3   7  -6    6.77    0.38
   2   7  -5    7.17    0.27
   2   7  -5    6.83    0.36
   1   7  -4    9.06    0.32
   1   7  -4    8.51    0.40
   0  -7   3    0.05    0.07
   0   7  -3   -0.01    0.05
   0   7  -3    0.14    0.10
   1  -7   2    1.08    0.09
  -1   7  -2    1.16    0.15
  -1   7  -2    1.14    0.11
  -1   7  -2    0.99    0.10
   2  -7   1   23.37    0.80
   2  -7   1   24.32    0.68
   2  -7   1   24.60    0.68
  -2   7  -1   23.65    0.75
  -2   7  -1   22.87    0.81
  -2   7  -1   23.53    0.69
   3  -7   0    2.84    0.15
   3  -7   0    3.09    0.20
  -3   7   0    3.21    0.23
  -3   7   0    2.27    0.13
  -3   7   0    2.83    0.18
  -3   7   0    3.30    0.19
   4  -7  -1    3.50    0.22
   4  -7  -1    3.41    0.17
   4  -7  -1    3.50    0.19
  -4   7   1    3.25    0.23
  -4   7   1    3.51    0.22
   5  -7  -2    9.02    0.32
   5  -7  -2    9.19    0.36
  -5   7   2    8.52    0.39
  -5   7   2    8.86    0.42
   6  -7  -3    7.98    0.35
   6  -7  -3    7.81    0.30
  -6   7   3    8.24    0.41
  -6   7   3    8.23    0.40
   7  -7  -4    1.27    0.11
   7  -7  -4    0.92    0.13
  -7   7   4    0.84    0.16
  -7   7   4    1.20    0.18
   8  -7  -5    0.12    0.09
  -8   7   5    0.42    0.16
   5   6  -7    0.28    0.14
   4   6  -6    4.34    0.29
   3   6  -5    4.37    0.18
   3   6  -5    4.38    0.27
   2   6  -4    1.97    0.20
   2   6  -4    2.06    0.12
  -1  -6   3    0.34    0.08
   1   6  -3    0.12    0.10
   1   6  -3    0.20    0.07
   1   6  -3    0.24    0.06
   0   6  -2   12.22    0.43
   0   6  -2   11.79    0.44
   0   6  -2   11.27    0.37
   1  -6   1   16.14    0.46
   1  -6   1   15.92    0.46
   1  -6   1   15.84    0.56
  -1   6  -1   16.50    0.55
  -1   6  -1   14.81    0.52
  -1   6  -1   15.38    0.47
   2  -6   0    4.85    0.20
   2  -6   0    4.85    0.25
   2  -6   0    5.25    0.20
  -2   6   0    5.17    0.23
  -2   6   0    5.09    0.20
  -2   6   0    5.26    0.27
  -2   6   0    5.37    0.23
   3  -6  -1    0.99    0.09
   3  -6  -1    1.13    0.09
   3  -6  -1    0.86    0.10
  -3   6   1    0.95    0.13
  -3   6   1    1.08    0.10
  -3   6   1    0.98    0.12
  -3   6   1    0.94    0.07
   4  -6  -2    0.31    0.06
   4  -6  -2    0.34    0.08
   4  -6  -2    0.33    0.07
  -4   6   2    0.50    0.11
  -4   6   2    0.24    0.10
   5  -6  -3    0.30    0.08
   5  -6  -3    0.23    0.06
   5  -6  -3    0.29    0.09
  -5   6   3    0.19    0.09
  -5   6   3    0.14    0.10
   6  -6  -4    1.17    0.13
   6  -6  -4    1.17    0.09
  -6   6   4    1.36    0.17
  -6   6   4    1.45    0.17
   7  -6  -5    0.53    0.07
   7  -6  -5    0.31    0.09
  -7   6   5    0.24    0.13
  -7   6   5    0.45    0.13
   8  -6  -6    1.50    0.17
  -8   6   6    1.28    0.19
  -8   6   6    1.75    0.23
  -6  -5   7    0.49    0.13
   6   5  -7    0.27    0.13
  -5  -5   6    6.58    0.34
   5   5  -6    6.64    0.36
  -4  -5   5   32.84    1.04
   4   5  -5   33.51    1.07
  -3  -5   4   22.15    0.74
   3   5  -4   22.68    0.61
   3   5  -4   21.70    0.76
   3   5  -4   23.54    0.75
  -2  -5   3    2.73    0.17
   2   5  -3    2.37    0.18
   2   5  -3    2.75    0.17
   2   5  -3    2.54    0.12
   1   5  -2    2.88    0.19
   1   5  -2    3.01    0.14
   1   5  -2    2.93    0.16
   0  -5   1   14.67    0.40
   0  -5   1   14.56    0.50
   0  -5   1   14.72    0.41
   0   5  -1   14.95    0.50
   0   5  -1   13.77    0.43
   0   5  -1   14.53    0.49
   1  -5   0   25.54    0.70
   1  -5   0   24.38    0.82
   1  -5   0   26.09    0.71
  -1   5   0   26.24    0.82
  -1   5   0   25.33    0.82
  -1   5   0   26.23    0.76
  -1   5   0   25.86    0.71
   2  -5  -1   42.76    1.17
   2  -5  -1   45.50    1.20
   2  -5  -1   41.97    1.35
  -2   5   1   46.61    1.35
  -2   5   1   45.33    1.23
  -2   5   1   44.40    1.16
  -2   5   1   43.56    1.22
  -2   5   1   44.34    1.33
   3  -5  -2   12.44    0.40
   3  -5  -2   11.72    0.36
   3  -5  -2   11.52    0.45
  -3   5   2   12.19    0.42
  -3   5   2   11.81    0.36
  -3   5   2   11.85    0.46
   4  -5  -3   14.57    0.47
   4  -5  -3   14.13    0.42
   4  -5  -3   13.67    0.53
  -4   5   3   13.98    0.54
  -4   5   3   14.28    0.51
   5  -5  -4    2.68    0.20
   5  -5  -4    2.72    0.13
   5  -5  -4    2.64    0.17
  -5   5   4    2.75    0.22
  -5   5   4    2.79    0.22
   6  -5  -5    4.63    0.18
   6  -5  -5    4.81    0.25
  -6   5   5    4.94    0.30
  -6   5   5    4.67    0.30
   7  -5  -6   -0.01    0.05
  -7   5   6   -0.10    0.09
  -7   5   6   -0.05    0.09
   8  -5  -7    0.15    0.08
  -8   5   7    0.05    0.12
  -8   5   7    0.37    0.13
  -7  -4   7    0.10    0.10
   7   4  -7    0.14    0.12
  -6  -4   6   14.10    0.55
   6   4  -6   13.43    0.57
   6   4  -6   13.89    0.56
  -5  -4   5    2.37    0.18
   5   4  -5    2.32    0.22
  -4  -4   4   11.88    0.45
   4   4  -4   11.56    0.47
  -3  -4   3   28.12    0.75
  -3  -4   3   27.50    0.85
   3   4  -3   28.54    0.89
   3   4  -3   28.09    0.72
   3   4  -3   26.16    0.87
  -2  -4   2    9.07    0.34
  -2  -4   2    9.03    0.35
  -2  -4   2    9.44    0.27
   2   4  -2    9.38    0.28
   2   4  -2    9.15    0.36
   2   4  -2    9.26    0.35
  -1  -4   1   18.82    0.52
  -1  -4   1   18.74    0.62
  -1  -4   1   19.64    0.59
   1   4  -1   19.76    0.63
   1   4  -1   18.90    0.53
   1   4  -1   19.00    0.60
   0  -4   0   57.96    1.70
   0  -4   0   61.03    1.50
   0  -4   0   49.64    1.47
   0   4   0   59.44    1.49
   0   4   0   58.04    1.70
   0   4   0   59.44    1.58
   1  -4  -1    2.99    0.14
   1  -4  -1    3.71    0.18
   1  -4  -1    3.84    0.14
  -1   4   1    4.05    0.18
  -1   4   1    3.64    0.20
  -1   4   1    3.91    0.16
  -1   4   1    3.87    0.15
   2  -4  -2   14.00    0.41
   2  -4  -2   13.88    0.43
   2  -4  -2   13.80    0.49
  -2   4   2   14.09    0.50
  -2   4   2   13.71    0.39
  -2   4   2   14.00    0.49
  -2   4   2   14.10    0.45
  -2   4   2   14.16    0.41
  -2   4   2   14.50    0.40
   3  -4  -3    1.84    0.12
   3  -4  -3    1.86    0.08
   3  -4  -3    1.73    0.13
   3  -4  -3    1.60    0.09
  -3   4   3    1.81    0.15
  -3   4   3    1.65    0.07
  -3   4   3    1.81    0.15
   4  -4  -4    1.40    0.08
   4  -4  -4    1.32    0.11
   4  -4  -4    1.35    0.13
  -4   4   4    1.33    0.06
  -4   4   4    1.57    0.16
  -4   4   4    1.30    0.15
   5  -4  -5    0.36    0.07
   5  -4  -5    0.47    0.05
   5  -4  -5    0.49    0.09
   5  -4  -5    0.36    0.09
  -5   4   5    0.37    0.12
  -5   4   5    0.46    0.11
   6  -4  -6    0.10    0.06
  -6   4   6    0.03    0.10
  -6   4   6    0.09    0.09
   7  -4  -7    0.94    0.13
  -7   4   7    0.85    0.16
  -7   4   7    0.75    0.16
   8  -4  -8   -0.06    0.06
  -8   4   8    0.27    0.14
  -8   4   8    0.22    0.12
  -7  -3   6    2.23    0.20
   7   3  -6    2.72    0.22
   7   3  -6    2.97    0.24
  -6  -3   5    0.88    0.13
   6   3  -5    0.95    0.13
   6   3  -5    1.05    0.16
  -5  -3   4    0.16    0.07
  -5  -3   4    0.37    0.09
   5   3  -4    0.28    0.11
   5   3  -4    0.16    0.06
  -4  -3   3   16.08    0.48
  -4  -3   3   15.77    0.54
   4   3  -3   15.43    0.55
  -3  -3   2    9.53    0.29
  -3  -3   2    8.86    0.33
   3   3  -2    8.92    0.35
   3   3  -2    8.91    0.35
  -2  -3   1   15.56    0.50
  -2  -3   1   15.66    0.44
  -2  -3   1   15.64    0.53
   2   3  -1   16.29    0.43
   2   3  -1   16.35    0.52
   2   3  -1   15.56    0.53
   2   3  -1   15.71    0.43
  -1  -3   0  234.11    6.88
  -1  -3   0  247.33    6.11
  -1  -3   0  238.62    6.39
  -1  -3   0  244.75    6.16
  -1  -3   0  242.46    6.09
   1   3   0  246.52    6.88
   1   3   0  244.41    6.12
   1   3   0  243.79    6.40
   0  -3  -1   15.06    0.42
   0  -3  -1   14.43    0.50
   0  -3  -1   15.19    0.44
   0   3   1   14.74    0.50
   0   3   1   15.19    0.43
   0   3   1   15.63    0.50
   0   3   1   15.66    0.45
   1  -3  -2   21.39    0.60
   1  -3  -2   20.89    0.57
   1  -3  -2   20.76    0.68
  -1   3   2   21.44    0.59
  -1   3   2   21.26    0.58
  -1   3   2   21.35    0.67
  -1   3   2   21.68    0.68
  -1   3   2   20.67    0.57
   2  -3  -3    0.18    0.04
   2  -3  -3    0.09    0.04
   2  -3  -3    0.08    0.03
  -2   3   3    0.05    0.06
  -2   3   3    0.15    0.06
  -2   3   3    0.08    0.04
  -2   3   3    0.09    0.03
   3  -3  -4    0.69    0.08
   3  -3  -4    0.80    0.05
   3  -3  -4    0.93    0.06
   3  -3  -4    0.59    0.08
  -3   3   4    0.77    0.10
  -3   3   4    0.70    0.09
  -3   3   4    0.84    0.10
  -3   3   4    0.73    0.05
   4  -3  -5    7.69    0.27
   4  -3  -5    7.78    0.34
   4  -3  -5    7.07    0.29
   4  -3  -5    8.03    0.23
  -4   3   5    7.65    0.35
  -4   3   5    8.34    0.26
  -4   3   5    7.45    0.34
  -4   3   5    8.06    0.23
   5  -3  -6    9.31    0.36
   5  -3  -6    9.67    0.41
   5  -3  -6    9.84    0.33
  -5   3   6    9.34    0.42
  -5   3   6    8.98    0.41
   6  -3  -7    2.03    0.16
  -6   3   7    2.09    0.20
  -6   3   7    2.29    0.20
   7  -3  -8    3.94    0.24
  -7   3   8    4.36    0.30
  -7   3   8    4.28    0.30
   8  -3  -9    0.22    0.10
  -8   3   9    0.13    0.12
  -8   3   9    0.16    0.14
  -8  -2   6    1.30    0.17
   8   2  -6    1.43    0.20
   8   2  -6    1.10    0.16
  -7  -2   5    1.73    0.17
  -7  -2   5    1.75    0.16
   7   2  -5    1.34    0.15
   7   2  -5    1.60    0.19
  -6  -2   4    6.04    0.30
  -6  -2   4    6.95    0.29
   6   2  -4    6.06    0.30
  -5  -2   3    2.84    0.18
  -5  -2   3    2.91    0.18
   5   2  -3    2.98    0.18
  -4  -2   2   10.81    0.39
   4   2  -2   11.24    0.42
   4   2  -2   11.19    0.41
  -3  -2   1  114.55    3.10
   3   2  -1  115.02    3.32
   3   2  -1  116.16    3.18
  -2  -2   0   28.18    0.87
  -2  -2   0   27.36    0.80
   2   2   0   26.83    0.72
   2   2   0   28.49    0.73
   2   2   0   28.52    0.87
  -1  -2  -1   31.70    0.85
  -1  -2  -1   32.89    0.82
  -1  -2  -1   31.13    0.87
  -1  -2  -1   31.43    0.82
  -1  -2  -1   30.10    0.96
   1   2   1   32.90    0.83
   1   2   1   31.86    0.92
   1   2   1   30.44    0.83
   1   2   1   31.73    0.96
   0  -2  -2   84.81    2.14
   0  -2  -2   86.08    2.19
   0  -2  -2   82.12    2.45
   0  -2  -2   84.22    2.24
   0   2   2   81.74    2.44
   0   2   2   86.84    2.36
   0   2   2   85.24    2.24
   0   2   2   86.38    2.15
   1  -2  -3   60.19    1.56
   1  -2  -3   59.11    1.60
   1  -2  -3   64.69    1.57
   1  -2  -3   59.41    1.79
   1  -2  -3   61.60    1.65
  -1   2   3   62.11    1.65
  -1   2   3   61.91    1.79
  -1   2   3   60.55    1.54
  -1   2   3   59.59    1.54
  -1   2   3   62.82    1.66
  -1   2   3   60.81    1.74
   2  -2  -4    1.55    0.10
   2  -2  -4    1.72    0.11
   2  -2  -4    1.63    0.07
   2  -2  -4    1.70    0.07
  -2   2   4    1.49    0.13
  -2   2   4    1.58    0.13
  -2   2   4    1.92    0.06
  -2   2   4    1.55    0.11
   3  -2  -5    4.24    0.13
   3  -2  -5    4.17    0.13
   3  -2  -5    4.10    0.19
   3  -2  -5    4.01    0.14
   3  -2  -5    3.84    0.20
  -3   2   5    4.18    0.23
  -3   2   5    4.20    0.20
  -3   2   5    3.83    0.22
   4  -2  -6   16.41    0.47
   4  -2  -6   16.25    0.57
   4  -2  -6   16.57    0.48
   4  -2  -6   15.28    0.51
  -4   2   6   14.92    0.55
  -4   2   6   16.37    0.59
   5  -2  -7   36.36    1.04
   5  -2  -7   36.07    1.05
   5  -2  -7   36.08    1.16
  -5   2   7   36.38    1.10
  -5   2   7   35.63    1.16
   6  -2  -8   13.95    0.50
  -6   2   8   14.00    0.57
  -6   2   8   13.86    0.56
   7  -2  -9    4.42    0.26
  -7   2   9    5.17    0.33
  -7   2   9    5.12    0.33
   8  -2 -10    1.53    0.17
  -8   2  10    1.65    0.21
  -8   2  10    1.26    0.21
  -8  -1   5    1.03    0.15
  -8  -1   5    1.01    0.15
   8   1  -5    1.04    0.15
  -7  -1   4    1.49    0.15
  -7  -1   4    1.36    0.14
   7   1  -4    1.61    0.15
  -6  -1   3   10.07    0.40
  -6  -1   3   10.48    0.39
   6   1  -3   10.13    0.41
  -5  -1   2   14.41    0.46
  -5  -1   2   13.84    0.48
   5   1  -2   13.56    0.49
  -4  -1   1   22.77    0.66
  -4  -1   1   21.89    0.69
   4   1  -1   23.83    0.72
   4   1  -1   22.57    0.75
  -3  -1   0   34.19    0.91
  -3  -1   0   33.28    0.95
   3   1   0   34.25    0.85
   3   1   0   32.64    0.98
   3   1   0   32.59    1.02
  -2  -1  -1  101.98    2.93
  -2  -1  -1  101.30    2.62
  -2  -1  -1   98.35    2.71
   2   1   1  100.16    2.56
   2   1   1  101.50    2.78
   2   1   1  105.15    2.56
   2   1   1  102.16    2.92
   2   1   1  102.60    2.79
  -1  -1  -2   70.64    1.92
  -1  -1  -2   72.47    1.82
  -1  -1  -2   74.41    1.83
  -1  -1  -2   71.72    1.87
  -1  -1  -2   70.56    2.09
   1   1   2   70.66    1.83
   1   1   2   71.53    1.99
   1   1   2   75.38    1.83
   1   1   2   70.76    2.09
   0  -1  -3    0.24    0.03
   0  -1  -3    0.31    0.03
   0  -1  -3    0.25    0.05
   0  -1  -3    0.19    0.04
   0  -1  -3    0.27    0.04
   0   1   3    0.21    0.04
   0   1   3    0.34    0.03
   0   1   3    0.23    0.02
   0   1   3    0.20    0.03
   0   1   3    0.31    0.05
   0   1   3    0.18    0.03
   1  -1  -4   62.29    1.58
   1  -1  -4   63.39    1.67
   1  -1  -4   61.35    1.64
   1  -1  -4   59.04    1.82
   1  -1  -4   63.94    1.59
  -1   1   4   61.24    1.78
  -1   1   4   64.77    1.67
  -1   1   4   64.54    1.83
   2  -1  -5   48.06    1.33
   2  -1  -5   48.58    1.47
   2  -1  -5   48.98    1.33
   2  -1  -5   52.95    1.33
   2  -1  -5   50.81    1.36
  -2   1   5   48.17    1.45
  -2   1   5   49.86    1.47
   3  -1  -6   27.85    0.78
   3  -1  -6   27.69    0.79
   3  -1  -6   27.43    0.80
   3  -1  -6   27.80    0.89
  -3   1   6   27.35    0.89
  -3   1   6   29.78    0.89
  -3   1   6   27.72    0.84
   4  -1  -7   41.81    1.20
   4  -1  -7   43.23    1.20
   4  -1  -7   44.35    1.33
   4  -1  -7   43.55    1.21
  -4   1   7   41.46    1.32
  -4   1   7   43.20    1.24
   5  -1  -8   52.76    1.58
   5  -1  -8   49.83    1.42
  -5   1   8   49.89    1.56
  -5   1   8   50.02    1.47
   6  -1  -9    3.88    0.22
  -6   1   9    4.13    0.28
  -6   1   9    3.81    0.28
   7  -1 -10    1.24    0.14
  -7   1  10    1.10    0.19
  -7   1  10    1.48    0.19
  -9   0   5    2.42    0.23
  -9   0   5    2.60    0.21
  -8   0   4    1.45    0.17
  -8   0   4    1.54    0.17
   8   0  -4    1.40    0.16
  -7   0   3    0.60    0.11
  -7   0   3    0.49    0.10
   7   0  -3    0.49    0.10
  -6   0   2    9.89    0.37
  -6   0   2    9.66    0.38
   6   0  -2   10.10    0.40
  -5   0   1   58.39    1.55
  -5   0   1   58.10    1.61
   5   0  -1   55.74    1.65
  -4   0   0    0.65    0.08
  -4   0   0    0.45    0.07
   4   0   0    0.57    0.07
   4   0   0    0.63    0.08
  -3   0  -1   58.84    1.55
  -3   0  -1   58.68    1.61
   3   0   1   57.78    1.65
   3   0   1   58.77    1.62
   3   0   1   57.95    1.74
   3   0   1   61.75    1.49
   3   0   1   58.21    1.49
  -2   0  -2   54.25    1.32
  -2   0  -2   51.75    1.32
  -2   0  -2   50.91    1.41
  -2   0  -2   51.33    1.53
  -2   0  -2   52.17    1.37
   2   0   2   53.02    1.33
   2   0   2   51.24    1.52
   2   0   2   50.51    1.45
   2   0   2   51.72    1.33
   2   0   2   52.06    1.44
  -1   0  -3    3.36    0.13
  -1   0  -3    3.62    0.14
  -1   0  -3    3.52    0.16
  -1   0  -3    3.97    0.16
  -1   0  -3    3.70    0.13
  -1   0  -3    3.69    0.13
   1   0   3    3.66    0.16
   1   0   3    3.44    0.13
   1   0   3    3.62    0.12
   1   0   3    3.60    0.15
   0   0  -4    0.73    0.07
   0   0  -4    0.87    0.05
   0   0  -4    0.78    0.04
   0   0  -4    0.79    0.05
   0   0  -4    0.71    0.06
   0   0   4    0.83    0.04
   0   0   4    0.76    0.08
   0   0   4    0.75    0.03
   0   0   4    0.77    0.05
   0   0   4    0.77    0.07
   1   0  -5   21.01    0.66
   1   0  -5   21.45    0.55
   1   0  -5   20.93    0.60
   1   0  -5   21.47    0.61
  -1   0   5   21.65    0.66
  -1   0   5   20.58    0.67
   2   0  -6    3.19    0.16
   2   0  -6    3.23    0.14
   2   0  -6    3.37    0.15
  -2   0   6    3.21    0.19
  -2   0   6    3.03    0.15
   3   0  -7    1.72    0.12
   3   0  -7    1.41    0.08
   3   0  -7    1.40    0.10
   3   0  -7    1.36    0.11
  -3   0   7    1.63    0.11
  -3   0   7    1.56    0.15
   4   0  -8    0.57    0.08
   4   0  -8    0.62    0.10
   4   0  -8    0.47    0.08
   4   0  -8    0.52    0.06
  -4   0   8    0.66    0.12
  -4   0   8    0.55    0.12
   5   0  -9    4.07    0.21
   5   0  -9    4.26    0.23
   5   0  -9    3.93    0.21
  -5   0   9    3.54    0.25
  -5   0   9    3.98    0.26
   6   0 -10    0.98    0.12
  -6   0  10    0.85    0.15
  -6   0  10    1.18    0.16
   7   0 -11    2.39    0.19
  -7   0  11    2.78    0.25
  -7   0  11    2.24    0.24
  -9   1   4    0.06    0.08
  -9   1   4    0.00    0.09
   9  -1  -4    0.01    0.07
  -8   1   3    0.99    0.14
  -8   1   3    1.34    0.15
   8  -1  -3    0.94    0.13
  -7   1   2    8.21    0.34
  -7   1   2    7.67    0.33
   7  -1  -2    7.38    0.34
  -6   1   1    0.25    0.08
  -6   1   1    0.27    0.07
   6  -1  -1    0.30    0.07
  -5   1   0    3.00    0.17
  -5   1   0    2.83    0.15
   5  -1   0    2.58    0.16
  -4   1  -1    0.30    0.06
  -4   1  -1    0.30    0.06
   4  -1   1    0.33    0.03
   4  -1   1    0.28    0.05
   4  -1   1    0.37    0.04
  -3   1  -2   32.56    0.95
  -3   1  -2   32.42    0.92
   3  -1   2   33.87    0.88
   3  -1   2   32.93    0.97
   3  -1   2   34.90    0.88
   3  -1   2   34.57    1.03
  -2   1  -3   41.43    1.06
  -2   1  -3   41.29    1.11
  -2   1  -3   40.94    1.14
   2  -1   3   40.78    1.07
   2  -1   3   39.81    1.16
   2  -1   3   42.18    1.22
   2  -1   3   42.18    1.15
  -1   1  -4   10.74    0.34
  -1   1  -4   11.25    0.31
  -1   1  -4   10.63    0.36
  -1   1  -4   10.74    0.35
  -1   1  -4   10.97    0.34
   1  -1   4   10.72    0.31
   1  -1   4   11.37    0.31
   1  -1   4   10.61    0.35
   1  -1   4   11.11    0.36
   1  -1   4   11.09    0.36
   0   1  -5   86.18    2.20
   0   1  -5   90.49    2.20
   0   1  -5   90.69    2.38
   0   1  -5   84.12    2.49
   0   1  -5   86.43    2.26
   0   1  -5   86.81    2.34
   0  -1   5   85.83    2.43
   0  -1   5   85.98    2.49
   1   1  -6    2.48    0.12
   1   1  -6    2.68    0.14
   1   1  -6    2.64    0.13
  -1  -1   6    2.75    0.12
  -1  -1   6    2.58    0.16
   2   1  -7   19.75    0.59
   2   1  -7   19.93    0.61
   2   1  -7   19.52    0.63
  -2  -1   7   19.82    0.67
  -2  -1   7   20.63    0.63
   3   1  -8   29.30    0.91
   3   1  -8   29.16    0.87
   3   1  -8   28.98    0.84
  -3  -1   8   28.71    0.95
  -3  -1   8   29.56    0.90
   4   1  -9    0.07    0.05
   4   1  -9    0.12    0.06
   4   1  -9    0.09    0.08
  -4  -1   9    0.05    0.09
   5   1 -10    0.73    0.10
   5   1 -10    0.63    0.12
  -5  -1  10    0.65    0.14
   6   1 -11    0.44    0.10
  -6  -1  11    0.49    0.14
  -7  -1  12    0.54    0.16
  -9   2   3    2.37    0.22
  -9   2   3    2.51    0.20
   9  -2  -3    2.01    0.19
  -8   2   2    1.29    0.14
  -8   2   2    1.40    0.16
   8  -2  -2    1.12    0.14
  -7   2   1    1.94    0.15
  -7   2   1    2.17    0.18
   7  -2  -1    1.88    0.16
  -6   2   0    1.33    0.13
  -6   2   0    1.57    0.12
   6  -2   0    1.58    0.13
   6  -2   0    1.50    0.07
   6  -2   0    1.51    0.13
  -5   2  -1   59.14    1.61
  -5   2  -1   58.06    1.65
   5  -2   1   63.95    1.52
   5  -2   1   54.94    1.70
   5  -2   1   59.46    1.52
  -4   2  -2    2.38    0.13
  -4   2  -2    2.31    0.14
   4  -2   2    2.29    0.14
   4  -2   2    2.61    0.11
  -3   2  -3   32.10    0.92
  -3   2  -3   31.67    0.83
  -3   2  -3   31.80    0.89
   3  -2   3   32.63    0.85
   3  -2   3   32.91    0.98
   3  -2   3   30.94    0.94
  -2   2  -4    1.68    0.11
  -2   2  -4    1.68    0.09
  -2   2  -4    1.76    0.11
   2  -2   4    1.53    0.11
   2  -2   4    1.78    0.10
   2  -2   4    2.00    0.11
   2  -2   4    1.74    0.09
  -1   2  -5    4.63    0.16
  -1   2  -5    4.40    0.19
  -1   2  -5    4.25    0.17
  -1   2  -5    4.60    0.18
   1  -2   5    4.52    0.17
   1  -2   5    4.52    0.19
   1  -2   5    4.54    0.14
   1  -2   5    4.49    0.14
   0   2  -6    0.11    0.03
   0   2  -6    0.10    0.03
   0   2  -6    0.10    0.04
   0   2  -6    0.02    0.05
   0   2  -6    0.08    0.03
   0  -2   6    0.08    0.05
   0  -2   6    0.06    0.03
   1   2  -7   22.35    0.67
   1   2  -7   22.53    0.64
   1   2  -7   21.94    0.68
  -1  -2   7   21.91    0.67
  -1  -2   7   22.45    0.73
   2   2  -8   14.31    0.44
   2   2  -8   14.02    0.48
   2   2  -8   13.62    0.46
  -2  -2   8   13.93    0.45
  -2  -2   8   14.56    0.53
   3   2  -9    0.39    0.06
   3   2  -9    0.35    0.07
   3   2  -9    0.32    0.09
  -3  -2   9    0.45    0.12
   4   2 -10    1.15    0.14
   4   2 -10    1.41    0.12
  -4  -2  10    1.05    0.15
   5   2 -11    0.12    0.10
   5   2 -11    0.13    0.07
  -5  -2  11    0.11    0.11
  -6  -2  12    3.78    0.30
 -10   3   3    1.46    0.18
  -9   3   2    2.75    0.20
  -9   3   2    2.87    0.23
   9  -3  -2    3.06    0.23
  -8   3   1    1.15    0.15
  -8   3   1    0.91    0.12
   8  -3  -1    0.97    0.13
  -7   3   0    9.92    0.38
  -7   3   0    9.61    0.39
   7  -3   0    9.12    0.40
   7  -3   0    9.78    0.30
  -6   3  -1   16.08    0.55
  -6   3  -1   16.83    0.56
   6  -3   1   16.32    0.58
   6  -3   1   16.80    0.48
   6  -3   1   16.61    0.60
  -5   3  -2   35.27    1.04
  -5   3  -2   36.54    1.02
   5  -3   2   36.10    1.12
   5  -3   2   34.61    1.08
   5  -3   2   36.17    0.96
  -4   3  -3    4.94    0.21
  -4   3  -3    4.77    0.22
  -4   3  -3    5.02    0.15
  -4   3  -3    4.67    0.15
   4  -3   3    5.04    0.19
  -3   3  -4   43.46    1.16
  -3   3  -4   41.98    1.22
  -3   3  -4   42.45    1.11
   3  -3   4   43.26    1.25
   3  -3   4   41.97    1.12
  -2   3  -5  275.41    6.92
  -2   3  -5  266.52    7.29
  -2   3  -5  279.67    7.03
   2  -3   5  272.35    6.91
   2  -3   5  286.32    7.80
  -1   3  -6    2.30    0.13
  -1   3  -6    2.25    0.11
  -1   3  -6    2.25    0.15
   1  -3   6    2.24    0.07
   1  -3   6    2.13    0.10
   1  -3   6    2.23    0.07
   1  -3   6    2.11    0.14
   0   3  -7   25.86    0.70
   0   3  -7   26.66    0.80
   0   3  -7   26.50    0.74
   0   3  -7   25.52    0.77
   0  -3   7   27.34    0.77
   0  -3   7   25.96    0.83
   1   3  -8   43.49    1.06
   1   3  -8   39.79    1.06
   1   3  -8   42.63    1.13
   1   3  -8   41.03    1.22
   1   3  -8   41.27    1.20
  -1  -3   8   41.14    1.20
  -1  -3   8   41.46    1.27
   2   3  -9   14.54    0.45
   2   3  -9   13.61    0.51
  -2  -3   9   14.09    0.55
   3   3 -10    0.42    0.11
   3   3 -10    0.23    0.07
  -3  -3  10    0.23    0.10
   4   3 -11    2.31    0.21
  -4  -3  11    1.58    0.19
   5   3 -12    0.96    0.17
  -5  -3  12    1.03    0.18
 -10   4   2    0.11    0.12
 -10   4   2    0.11    0.09
  -9   4   1    0.28    0.12
  -9   4   1    0.11    0.08
   9  -4  -1    0.06    0.08
  -8   4   0    2.69    0.21
  -8   4   0    2.83    0.19
   8  -4   0    2.35    0.20
   8  -4   0    2.65    0.14
  -7   4  -1   22.38    0.73
  -7   4  -1   21.43    0.72
   7  -4   1   22.69    0.78
   7  -4   1   22.61    0.64
  -6   4  -2    4.47    0.23
  -6   4  -2    4.28    0.23
   6  -4   2    4.33    0.25
   6  -4   2    4.74    0.19
   6  -4   2    4.82    0.25
  -5   4  -3   -0.03    0.05
  -5   4  -3    0.02    0.06
  -5   4  -3    0.04    0.05
   5  -4   3    0.02    0.04
   5  -4   3   -0.02    0.04
   5  -4   3    0.03    0.06
  -4   4  -4   27.38    0.79
  -4   4  -4   27.43    0.73
  -4   4  -4   27.00    0.83
   4  -4   4   27.57    0.86
   4  -4   4   27.26    0.86
   4  -4   4   26.58    0.75
  -3   4  -5  129.02    3.59
  -3   4  -5  135.58    3.38
  -3   4  -5  132.26    3.44
   3  -4   5  138.85    3.81
   3  -4   5  131.37    3.80
   3  -4   5  132.16    3.69
   3  -4   5  132.09    3.37
  -2   4  -6  111.58    3.05
  -2   4  -6  108.35    2.85
  -2   4  -6  113.69    2.90
   2  -4   6  109.51    2.83
   2  -4   6  111.69    3.18
   2  -4   6  116.20    3.19
  -1   4  -7    2.68    0.15
  -1   4  -7    2.62    0.13
  -1   4  -7    2.73    0.18
   1  -4   7    2.68    0.10
   1  -4   7    2.71    0.09
   0   4  -8    1.74    0.16
   0   4  -8    1.86    0.10
   0   4  -8    1.98    0.13
   0  -4   8    1.84    0.16
   1   4  -9    3.42    0.14
   1   4  -9    3.77    0.18
   1   4  -9    3.55    0.23
  -1  -4   9    3.48    0.23
   2   4 -10    4.73    0.27
  -2  -4  10    4.65    0.28
   3   4 -11    0.36    0.12
  -3  -4  11    0.26    0.11
   4   4 -12    4.53    0.30
  -4  -4  12    4.73    0.32
   5   4 -13    3.10    0.26
  -9   5   0    1.95    0.20
  -9   5   0    1.59    0.17
   9  -5   0    1.63    0.13
   9  -5   0    1.52    0.19
  -8   5  -1    0.03    0.06
  -8   5  -1   -0.03    0.08
   8  -5   1    0.07    0.06
   8  -5   1   -0.02    0.08
  -7   5  -2    0.94    0.13
  -7   5  -2    0.92    0.12
   7  -5   2    0.94    0.14
   7  -5   2    0.86    0.09
  -6   5  -3    0.70    0.11
  -6   5  -3    0.67    0.11
   6  -5   3    0.38    0.10
   6  -5   3    0.67    0.08
   6  -5   3    0.76    0.10
  -5   5  -4   12.99    0.47
  -5   5  -4   12.62    0.45
   5  -5   4   13.81    0.48
   5  -5   4   12.61    0.41
   5  -5   4   12.92    0.50
  -4   5  -5    0.85    0.08
  -4   5  -5    0.85    0.12
  -4   5  -5    0.79    0.10
   4  -5   5    0.97    0.08
   4  -5   5    0.65    0.07
  -3   5  -6    2.40    0.15
  -3   5  -6    2.17    0.17
  -3   5  -6    2.18    0.13
   3  -5   6    2.09    0.12
   3  -5   6    2.28    0.12
   3  -5   6    2.43    0.15
  -2   5  -7    0.04    0.05
  -2   5  -7    0.01    0.06
  -2   5  -7    0.04    0.08
   2  -5   7    0.04    0.02
   2  -5   7    0.00    0.03
  -1   5  -8    0.10    0.06
  -1   5  -8    0.20    0.10
  -1   5  -8    0.11    0.05
   0   5  -9   33.01    0.89
   0   5  -9   32.45    1.03
   1   5 -10    0.06    0.04
   1   5 -10   -0.08    0.08
   2   5 -11    0.01    0.10
   3   5 -12    3.18    0.25
   4   5 -13    0.45    0.16
  -9   6  -1    0.22    0.10
  -9   6  -1    0.15    0.10
   9  -6   1    0.08    0.10
  -8   6  -2    3.92    0.26
  -8   6  -2    3.77    0.23
   8  -6   2    3.80    0.20
   8  -6   2    3.67    0.27
  -7   6  -3    1.18    0.15
  -7   6  -3    1.60    0.16
   7  -6   3    1.36    0.12
   7  -6   3    1.23    0.16
  -6   6  -4   -0.01    0.07
  -6   6  -4    0.23    0.09
   6  -6   4    0.09    0.05
   6  -6   4    0.08    0.06
   6  -6   4    0.13    0.09
  -5   6  -5   45.19    1.27
  -5   6  -5   43.74    1.34
   5  -6   5   46.05    1.23
   5  -6   5   45.33    1.38
  -4   6  -6    8.19    0.29
  -4   6  -6    7.54    0.31
  -4   6  -6    7.59    0.35
   4  -6   6    7.63    0.28
   4  -6   6    7.86    0.30
  -3   6  -7   17.16    0.54
  -3   6  -7   18.03    0.55
  -3   6  -7   17.79    0.64
   3  -6   7   18.67    0.51
  -2   6  -8    9.47    0.33
  -2   6  -8    9.35    0.41
  -1   6  -9    0.47    0.07
  -1   6  -9    0.45    0.13
   0   6 -10    4.34    0.27
   0   6 -10    3.89    0.18
   1   6 -11    0.04    0.10
   1   6 -11    0.07    0.05
   2   6 -12    0.28    0.14
   3   6 -13    1.59    0.23
  -9   7  -2    0.78    0.14
  -9   7  -2    0.91    0.17
  -8   7  -3    0.43    0.12
  -8   7  -3    0.52    0.13
   8  -7   3    0.40    0.13
  -7   7  -4    7.11    0.34
  -7   7  -4    7.06    0.34
   7  -7   4    6.56    0.28
   7  -7   4    6.55    0.37
  -6   7  -5    1.02    0.13
  -6   7  -5    0.90    0.14
   6  -7   5    0.90    0.10
  -5   7  -6   12.26    0.49
  -5   7  -6   11.97    0.43
   5  -7   6   11.43    0.39
  -4   7  -7    0.02    0.05
  -4   7  -7   -0.08    0.06
  -4   7  -7   -0.06    0.09
   4  -7   7   -0.03    0.04
  -3   7  -8    0.88    0.15
  -3   7  -8    0.78    0.09
  -2   7  -9    4.10    0.28
  -2   7  -9    4.42    0.21
  -1   7 -10    0.24    0.12
  -1   7 -10    0.23    0.07
   0   7 -11    1.02    0.18
   0   7 -11    1.23    0.11
   1   7 -12    1.44    0.12
   1   7 -12    1.52    0.22
   2   7 -13    2.24    0.26
  -8   8  -4    2.59    0.21
  -8   8  -4    2.88    0.24
  -7   8  -5    8.92    0.42
  -7   8  -5    9.02    0.40
  -6   8  -6    2.36    0.19
  -6   8  -6    2.84    0.23
   6  -8   6    2.53    0.16
  -5   8  -7   -0.04    0.09
   5  -8   7   -0.05    0.05
  -4   8  -8    0.31    0.13
  -4   8  -8    0.46    0.09
  -3   8  -9    0.01    0.06
  -3   8  -9    0.28    0.12
  -2   8 -10    0.05    0.11
  -2   8 -10    0.07    0.06
  -1   8 -11    0.06    0.11
   0   8 -12    0.65    0.17
  -7   9  -6   -0.02    0.11
  -7   9  -6   -0.09    0.08
  -6   9  -7   -0.08    0.09
  -5   9  -8    0.03    0.11
  -4   9  -9    0.14    0.08
  -4   9  -9    0.09    0.12
  -3   9 -10    3.12    0.27
  -2   9 -11    0.21    0.15
   0  10  -5    1.24    0.22
  -1  10  -4    0.47    0.16
  -2  10  -3    5.29    0.32
  -2  10  -3    5.33    0.35
  -2  10  -3    5.21    0.26
  -3  10  -2    3.52    0.29
  -4  10  -1    0.06    0.11
  -5  10   0    0.20    0.12
  -6  10   1    0.03    0.11
   2   9  -6    1.58    0.24
   1   9  -5   -0.04    0.11
   0   9  -4   -0.03    0.11
  -1   9  -3    1.38    0.13
  -1   9  -3    1.42    0.19
  -2   9  -2    1.94    0.22
  -2   9  -2    1.90    0.15
  -2   9  -2    1.94    0.20
   3  -9   1    0.15    0.06
  -3   9  -1    0.07    0.10
   4  -9   0   -0.02    0.06
  -4   9   0    0.04    0.09
   5  -9  -1    0.14    0.08
  -5   9   1    0.19    0.11
  -5   9   1    0.11    0.11
   6  -9  -2   -0.06    0.06
  -6   9   2    0.05    0.11
  -6   9   2    0.06    0.10
   7  -9  -3    0.02    0.08
  -7   9   3   -0.08    0.11
  -7   9   3   -0.13    0.10
   3   8  -6    3.31    0.31
   2   8  -5    0.98    0.18
   2   8  -5    0.81    0.10
   1   8  -4    0.16    0.12
   1   8  -4    0.10    0.06
   0   8  -3   15.92    0.51
   0   8  -3   15.50    0.59
  -1   8  -2   15.45    0.57
  -1   8  -2   14.92    0.49
   2  -8   1   37.23    0.98
   2  -8   1   37.05    1.16
  -2   8  -1   34.98    1.08
  -2   8  -1   32.90    1.16
  -2   8  -1   35.28    1.00
   3  -8   0   24.29    0.86
   3  -8   0   24.94    0.72
  -3   8   0   24.66    0.88
   4  -8  -1    0.16    0.07
   4  -8  -1    0.08    0.06
  -4   8   1    0.14    0.11
  -4   8   1    0.01    0.09
   5  -8  -2    1.43    0.14
   5  -8  -2    1.44    0.12
  -5   8   2    1.07    0.17
  -5   8   2    1.42    0.17
   6  -8  -3    7.40    0.34
  -6   8   3    6.82    0.38
  -6   8   3    7.18    0.40
   7  -8  -4    1.75    0.18
  -7   8   4    1.62    0.21
  -7   8   4    1.67    0.22
   4   7  -6    0.22    0.14
   3   7  -5    2.29    0.24
   3   7  -5    2.21    0.14
   2   7  -4    0.04    0.10
   2   7  -4    0.08    0.05
   1   7  -3    2.33    0.20
   1   7  -3    2.89    0.16
   0  -7   2   42.36    1.43
   0   7  -2   48.41    1.38
   0   7  -2   49.11    1.27
   1  -7   1   13.23    0.50
   1  -7   1   13.16    0.39
  -1   7  -1   12.90    0.48
  -1   7  -1   12.93    0.42
   2  -7   0   10.14    0.41
   2  -7   0    9.17    0.32
   2  -7   0    9.60    0.32
  -2   7   0    8.76    0.32
  -2   7   0    9.14    0.36
  -2   7   0    8.96    0.42
   3  -7  -1   13.89    0.45
   3  -7  -1   13.06    0.43
   3  -7  -1   13.67    0.53
  -3   7   1   13.54    0.55
  -3   7   1   13.90    0.48
   4  -7  -2   10.54    0.45
   4  -7  -2    9.86    0.35
   4  -7  -2   10.60    0.39
  -4   7   2   10.62    0.42
  -4   7   2   10.32    0.46
   5  -7  -3    5.50    0.23
   5  -7  -3    5.69    0.27
  -5   7   3    5.92    0.32
  -5   7   3    4.84    0.31
   6  -7  -4    9.40    0.40
   6  -7  -4    9.44    0.34
  -6   7   4   10.11    0.47
  -6   7   4    9.79    0.46
   7  -7  -5    0.33    0.10
   7  -7  -5    0.24    0.07
  -7   7   5    0.29    0.12
  -7   7   5    0.24    0.14
   8  -7  -6    0.12    0.10
  -8   7   6    0.24    0.13
  -8   7   6   -0.02    0.13
   5   6  -6    6.37    0.38
   4   6  -5    8.35    0.42
   3   6  -4    1.99    0.12
   3   6  -4    1.97    0.20
   2   6  -3   70.04    1.85
   2   6  -3   71.43    2.03
  -1  -6   2   10.57    0.41
   1   6  -2   10.82    0.41
   1   6  -2   10.26    0.42
   1   6  -2   10.31    0.35
   0  -6   1   22.27    0.76
   0  -6   1   23.35    0.62
   0   6  -1   23.65    0.74
   0   6  -1   23.28    0.76
   0   6  -1   22.27    0.66
   1  -6   0    0.26    0.09
   1  -6   0    0.30    0.06
   1  -6   0    0.21    0.05
  -1   6   0    0.24    0.06
  -1   6   0    0.18    0.09
  -1   6   0    0.28    0.10
   2  -6  -1   12.94    0.50
   2  -6  -1   13.08    0.41
  -2   6   1   13.03    0.52
  -2   6   1   14.18    0.42
  -2   6   1   13.98    0.45
   3  -6  -2    0.63    0.08
   3  -6  -2    0.72    0.08
   3  -6  -2    0.87    0.11
  -3   6   2    0.87    0.14
  -3   6   2    0.86    0.08
  -3   6   2    0.77    0.12
   4  -6  -3    0.66    0.09
   4  -6  -3    0.76    0.11
   4  -6  -3    0.76    0.08
  -4   6   3    0.94    0.14
  -4   6   3    0.59    0.12
   5  -6  -4    1.92    0.15
   5  -6  -4    1.85    0.12
  -5   6   4    1.93    0.19
  -5   6   4    1.99    0.19
   6  -6  -5    0.24    0.08
   6  -6  -5    0.39    0.07
  -6   6   5    0.45    0.13
  -6   6   5    0.23    0.12
   7  -6  -6    0.30    0.10
   7  -6  -6    0.43    0.07
  -7   6   6    0.45    0.15
  -7   6   6    0.42    0.13
   8  -6  -7    0.75    0.14
  -8   6   7    1.06    0.21
  -8   6   7    0.69    0.17
  -6  -5   6    0.95    0.17
   6   5  -6    0.89    0.18
  -5  -5   5    0.29    0.10
   5   5  -5    0.45    0.14
  -4  -5   4   15.21    0.57
   4   5  -4   15.83    0.60
  -3  -5   3    0.84    0.12
   3   5  -3    0.99    0.08
   3   5  -3    1.04    0.15
  -2  -5   2   45.15    1.37
  -2  -5   2   43.49    1.29
   2   5  -2   46.52    1.37
   2   5  -2   44.16    1.18
   2   5  -2   43.77    1.31
  -1  -5   1    1.61    0.14
  -1  -5   1    1.60    0.12
  -1  -5   1    1.83    0.10
   1   5  -1    1.80    0.14
   1   5  -1    1.69    0.10
   1   5  -1    1.71    0.14
   0  -5   0    6.32    0.22
   0  -5   0    6.48    0.21
   0  -5   0    6.49    0.29
   0   5   0    6.23    0.23
   0   5   0    6.75    0.28
   0   5   0    5.97    0.26
   1  -5  -1    7.79    0.26
   1  -5  -1    7.52    0.33
  -1   5   1    7.91    0.29
  -1   5   1    8.09    0.27
  -1   5   1    7.39    0.34
  -1   5   1    8.21    0.32
   2  -5  -2    5.93    0.23
   2  -5  -2    6.19    0.29
   2  -5  -2    6.04    0.22
  -2   5   2    6.01    0.21
  -2   5   2    5.92    0.30
  -2   5   2    6.39    0.22
   3  -5  -3   30.62    0.84
   3  -5  -3   30.62    1.00
   3  -5  -3   31.57    0.89
  -3   5   3   31.46    0.84
  -3   5   3   30.84    1.00
  -3   5   3   30.24    0.92
   4  -5  -4    9.30    0.31
   4  -5  -4    9.91    0.37
   4  -5  -4    9.35    0.41
  -4   5   4   10.60    0.44
  -4   5   4   10.15    0.41
   5  -5  -5    0.78    0.11
   5  -5  -5    0.94    0.08
  -5   5   5    0.95    0.15
  -5   5   5    0.99    0.15
   6  -5  -6    0.60    0.11
   6  -5  -6    0.68    0.07
  -6   5   6    0.57    0.13
  -6   5   6    0.64    0.14
   7  -5  -7   -0.06    0.06
  -7   5   7    0.02    0.11
  -7   5   7   -0.01    0.10
   8  -5  -8    0.70    0.14
  -8   5   8    0.71    0.19
  -8   5   8    0.58    0.16
  -7  -4   6    7.60    0.39
   7   4  -6    7.15    0.41
  -6  -4   5    1.10    0.16
   6   4  -5    1.32    0.19
   6   4  -5    1.40    0.16
  -5  -4   4    4.40    0.25
   5   4  -4    4.94    0.27
   5   4  -4    4.32    0.27
  -4  -4   3   19.06    0.64
   4   4  -3   18.86    0.66
  -3  -4   2    0.50    0.07
  -3  -4   2    0.38    0.08
   3   4  -2    0.48    0.05
   3   4  -2    0.47    0.11
  -2  -4   1    2.28    0.11
  -2  -4   1    2.09    0.13
  -2  -4   1    2.19    0.15
   2   4  -1    2.13    0.15
   2   4  -1    2.31    0.16
   2   4  -1    2.16    0.11
  -1  -4   0   23.38    0.61
  -1  -4   0   22.92    0.76
  -1  -4   0   23.52    0.65
  -1  -4   0   22.77    0.69
   1   4   0   24.19    0.76
   1   4   0   23.20    0.65
   1   4   0   23.59    0.71
   0  -4  -1   21.86    0.72
   0  -4  -1   22.34    0.64
   0  -4  -1   22.58    0.60
   0  -4  -1   20.82    0.62
   0   4   1   22.54    0.65
   0   4   1   21.28    0.61
   0   4   1   21.61    0.71
   0   4   1   22.67    0.72
   1  -4  -2   50.40    1.57
   1  -4  -2   52.52    1.39
   1  -4  -2   51.74    1.35
  -1   4   2   52.08    1.53
  -1   4   2   52.50    1.36
  -1   4   2   52.52    1.56
  -1   4   2   52.31    1.41
   2  -4  -3    0.63    0.06
   2  -4  -3    0.57    0.07
   2  -4  -3    0.56    0.08
  -2   4   3    0.71    0.05
  -2   4   3    0.65    0.04
  -2   4   3    0.52    0.10
  -2   4   3    0.73    0.05
  -2   4   3    0.68    0.04
  -2   4   3    0.66    0.08
  -2   4   3    0.77    0.07
   3  -4  -4    1.08    0.10
   3  -4  -4    0.95    0.07
   3  -4  -4    0.73    0.10
  -3   4   4    0.90    0.07
  -3   4   4    0.90    0.13
  -3   4   4    1.21    0.14
   4  -4  -5   -0.03    0.04
   4  -4  -5   -0.04    0.05
   4  -4  -5   -0.04    0.03
  -4   4   5   -0.08    0.08
  -4   4   5    0.02    0.09
   5  -4  -6   13.53    0.39
   5  -4  -6   13.42    0.48
   5  -4  -6   14.28    0.55
  -5   4   6   13.56    0.53
  -5   4   6   13.36    0.55
   6  -4  -7    0.17    0.07
  -6   4   7   -0.01    0.10
  -6   4   7    0.10    0.10
   7  -4  -8    4.00    0.25
  -7   4   8    4.00    0.29
  -7   4   8    3.89    0.30
   8  -4  -9    1.50    0.18
  -8   4   9    1.61    0.22
  -8   4   9    1.35    0.23
  -8  -3   6    3.01    0.26
   8   3  -6    2.72    0.28
  -7  -3   5    0.08    0.08
   7   3  -5    0.02    0.10
   7   3  -5    0.09    0.08
  -6  -3   4    0.13    0.07
   6   3  -4   -0.03    0.07
   6   3  -4    0.02    0.06
  -5  -3   3   15.08    0.55
  -5  -3   3   16.56    0.50
   5   3  -3   15.68    0.58
   5   3  -3   15.16    0.57
  -4  -3   2   13.43    0.48
  -4  -3   2   14.01    0.43
   4   3  -2   12.88    0.49
   4   3  -2   13.97    0.36
  -3  -3   1   44.65    1.18
  -3  -3   1   43.20    1.27
   3   3  -1   44.15    1.14
   3   3  -1   43.70    1.36
   3   3  -1   45.87    1.14
  -2  -3   0   17.82    0.50
  -2  -3   0   16.99    0.54
  -2  -3   0   16.61    0.58
   2   3   0   16.98    0.48
   2   3   0   17.69    0.59
  -1  -3  -1    7.22    0.25
  -1  -3  -1    7.14    0.21
  -1  -3  -1    7.17    0.29
   1   3   1    7.24    0.29
   1   3   1    7.23    0.28
   1   3   1    6.69    0.23
   0  -3  -2  102.39    2.63
   0  -3  -2   99.95    2.95
   0  -3  -2  100.80    2.70
   0  -3  -2  102.24    2.58
   0   3   2  101.50    2.59
   0   3   2  102.35    2.85
   0   3   2  102.88    2.71
   0   3   2  103.12    2.95
   1  -3  -3   56.59    1.71
   1  -3  -3   56.56    1.53
   1  -3  -3   56.61    1.48
  -1   3   3   57.62    1.67
  -1   3   3   58.60    1.54
  -1   3   3   59.43    1.53
  -1   3   3   55.79    1.47
  -1   3   3   58.68    1.71
   2  -3  -4   38.09    0.98
   2  -3  -4   35.85    1.03
   2  -3  -4   36.19    1.16
  -2   3   4   37.51    1.15
  -2   3   4   39.06    1.16
  -2   3   4   38.12    1.03
   3  -3  -5   19.27    0.61
   3  -3  -5   19.91    0.54
   3  -3  -5   18.64    0.67
   3  -3  -5   21.37    0.55
  -3   3   5   20.47    0.65
  -3   3   5   18.71    0.68
  -3   3   5   20.79    0.56
   4  -3  -6    5.47    0.16
   4  -3  -6    5.68    0.20
   4  -3  -6    5.20    0.24
   4  -3  -6    5.38    0.28
  -4   3   6    5.85    0.31
  -4   3   6    5.24    0.29
   5  -3  -7    0.02    0.06
   5  -3  -7    0.03    0.05
  -5   3   7    0.10    0.10
  -5   3   7   -0.13    0.09
   6  -3  -8    0.14    0.07
  -6   3   8    0.11    0.10
  -6   3   8    0.00    0.10
   7  -3  -9    0.32    0.10
  -7   3   9    0.43    0.16
  -7   3   9    0.39    0.13
   8  -3 -10   -0.03    0.07
  -8   3  10    0.02    0.12
  -8   3  10    0.06    0.13
  -8  -2   5    2.86    0.23
   8   2  -5    2.97    0.27
  -7  -2   4    0.16    0.09
  -7  -2   4    0.00    0.07
   7   2  -4    0.11    0.07
  -6  -2   3   10.14    0.42
  -6  -2   3   10.89    0.39
   6   2  -3   10.46    0.44
  -5  -2   2   88.08    2.50
  -5  -2   2   92.89    2.38
   5   2  -2   89.93    2.57
  -4  -2   1   22.16    0.71
  -4  -2   1   23.58    0.67
   4   2  -1   23.35    0.59
   4   2  -1   22.58    0.73
  -3  -2   0    0.34    0.06
  -3  -2   0    0.34    0.06
   3   2   0    0.39    0.04
   3   2   0    0.31    0.06
   3   2   0    0.42    0.04
   3   2   0    0.27    0.07
  -2  -2  -1  200.03    5.73
  -2  -2  -1  203.41    5.13
  -2  -2  -1  195.65    5.31
   2   2   1  199.03    5.45
   2   2   1  199.12    5.04
   2   2   1  206.76    5.49
   2   2   1  202.90    5.73
  -1  -2  -2  241.22    5.92
  -1  -2  -2  233.84    6.22
  -1  -2  -2  235.51    6.02
  -1  -2  -2  235.80    6.72
   1   2   2  236.01    5.93
   1   2   2  234.17    6.38
   1   2   2  240.40    6.72
   1   2   2  236.02    6.45
   0  -2  -3   32.60    0.91
   0  -2  -3   32.45    1.02
   0  -2  -3   32.92    0.87
   0  -2  -3   33.73    0.91
   0   2   3   33.62    1.02
   0   2   3   33.31    0.88
   0   2   3   33.68    0.99
   0   2   3   34.21    0.93
   1  -2  -4   16.84    0.57
   1  -2  -4   16.55    0.46
   1  -2  -4   17.06    0.46
   1  -2  -4   16.70    0.50
  -1   2   4   16.98    0.46
  -1   2   4   17.57    0.56
  -1   2   4   16.63    0.56
   2  -2  -5   17.84    0.47
   2  -2  -5   16.51    0.58
   2  -2  -5   16.75    0.53
   2  -2  -5   17.35    0.46
  -2   2   5   18.16    0.59
  -2   2   5   16.97    0.59
   3  -2  -6   28.77    0.78
   3  -2  -6   27.28    0.81
   3  -2  -6   28.09    0.90
  -3   2   6   27.06    0.90
  -3   2   6   28.01    0.85
   4  -2  -7    0.00    0.05
   4  -2  -7    0.00    0.04
  -4   2   7    0.07    0.08
  -4   2   7    0.03    0.09
   5  -2  -8    6.22    0.31
   5  -2  -8    6.01    0.28
  -5   2   8    5.89    0.33
  -5   2   8    5.43    0.32
   6  -2  -9    4.55    0.25
  -6   2   9    4.63    0.30
  -6   2   9    4.97    0.31
   7  -2 -10    0.56    0.12
  -7   2  10    0.87    0.18
  -7   2  10    0.91    0.17
  -9  -1   5    1.63    0.20
  -8  -1   4    0.08    0.08
  -8  -1   4    0.13    0.08
   8   1  -4   -0.03    0.06
  -7  -1   3    0.26    0.09
  -7  -1   3    0.20    0.08
   7   1  -3    0.15    0.07
  -6  -1   2    7.39    0.32
  -6  -1   2    6.93    0.31
   6   1  -2    7.47    0.33
  -5  -1   1    0.64    0.09
  -5  -1   1    0.56    0.09
   5   1  -1    0.64    0.09
  -4  -1   0   -0.04    0.02
  -4  -1   0    0.00    0.05
   4   1   0    0.04    0.02
   4   1   0    0.03    0.03
   4   1   0    0.02    0.02
  -3  -1  -1    6.82    0.25
  -3  -1  -1    6.53    0.25
   3   1   1    6.63    0.21
   3   1   1    6.72    0.26
   3   1   1    6.73    0.28
   3   1   1    6.79    0.24
   3   1   1    7.22    0.21
  -2  -1  -2    1.96    0.10
  -2  -1  -2    2.23    0.08
  -2  -1  -2    2.05    0.13
  -2  -1  -2    2.07    0.08
  -2  -1  -2    2.16    0.12
   2   1   2    2.02    0.11
   2   1   2    2.05    0.09
   2   1   2    2.03    0.11
   2   1   2    2.05    0.14
  -1  -1  -3   34.71    0.96
  -1  -1  -3   34.93    0.95
  -1  -1  -3   34.98    0.91
  -1  -1  -3   33.91    1.06
   1   1   3   35.42    1.02
   1   1   3   35.33    0.92
   1   1   3   34.12    0.98
   1   1   3   36.06    1.06
   0  -1  -4    0.95    0.09
   0  -1  -4    0.90    0.05
   0  -1  -4    1.02    0.08
   0  -1  -4    0.84    0.06
   0   1   4    0.87    0.05
   0   1   4    0.90    0.05
   0   1   4    0.70    0.07
   0   1   4    0.91    0.05
   0   1   4    0.78    0.09
   1  -1  -5  220.58    5.24
   1  -1  -5  208.42    5.49
   1  -1  -5  206.28    5.23
   1  -1  -5  202.88    5.35
   1  -1  -5  198.02    5.94
  -1   1   5  214.66    5.49
  -1   1   5  216.22    5.94
  -1   1   5  205.32    5.74
   2  -1  -6   46.39    1.19
   2  -1  -6   43.74    1.34
   2  -1  -6   43.69    1.20
   2  -1  -6   44.06    1.21
  -2   1   6   44.41    1.34
  -2   1   6   41.68    1.33
  -2   1   6   46.15    1.19
   3  -1  -7    4.38    0.22
   3  -1  -7    4.43    0.17
   3  -1  -7    4.40    0.21
   3  -1  -7    4.53    0.15
  -3   1   7    4.45    0.22
  -3   1   7    4.56    0.26
   4  -1  -8    0.02    0.05
   4  -1  -8    0.07    0.06
   4  -1  -8    0.10    0.06
  -4   1   8    0.04    0.08
  -4   1   8   -0.06    0.09
   5  -1  -9    5.82    0.30
   5  -1  -9    5.40    0.27
  -5   1   9    5.42    0.31
  -5   1   9    6.05    0.33
   6  -1 -10    0.40    0.09
  -6   1  10    0.51    0.14
  -6   1  10    0.54    0.14
   7  -1 -11    0.06    0.08
  -7   1  11    0.01    0.12
  -7   1  11    0.04    0.10
  -9   0   4    0.95    0.16
  -9   0   4    1.52    0.18
  -8   0   3    0.61    0.12
  -8   0   3    0.55    0.12
   8   0  -3    0.40    0.10
  -7   0   2   10.64    0.42
  -7   0   2   10.34    0.42
   7   0  -2   10.18    0.43
  -6   0   1    6.56    0.29
  -6   0   1    6.38    0.28
   6   0  -1    6.44    0.30
  -5   0   0    4.87    0.22
  -5   0   0    4.80    0.22
   5   0   0    5.07    0.14
   5   0   0    4.60    0.14
   5   0   0    4.61    0.23
  -4   0  -1    2.36    0.14
  -4   0  -1    2.55    0.14
   4   0   1    2.50    0.10
   4   0   1    2.42    0.14
   4   0   1    2.68    0.17
   4   0   1    2.43    0.10
   4   0   1    2.48    0.10
  -3   0  -2   45.41    1.26
  -3   0  -2   45.97    1.30
   3   0   2   47.77    1.34
   3   0   2   46.31    1.21
   3   0   2   47.75    1.30
   3   0   2   47.71    1.41
  -2   0  -3    0.41    0.04
  -2   0  -3    0.43    0.05
  -2   0  -3    0.32    0.06
  -2   0  -3    0.39    0.06
   2   0   3    0.45    0.07
   2   0   3    0.38    0.05
   2   0   3    0.42    0.05
   2   0   3    0.45    0.05
  -1   0  -4   69.28    1.91
  -1   0  -4   71.28    1.87
  -1   0  -4   72.23    1.81
  -1   0  -4   72.22    1.94
  -1   0  -4   66.97    2.06
   1   0   4   71.42    1.95
   1   0   4   71.90    2.07
   1   0   4   72.54    1.99
   1   0   4   71.03    1.81
   0   0  -5   24.14    0.66
   0   0  -5   23.44    0.62
   0   0  -5   23.41    0.66
   0   0  -5   24.67    0.63
   0   0  -5   22.30    0.73
   0   0  -5   23.09    0.67
   0   0   5   22.63    0.60
   0   0   5   23.60    0.73
   0   0   5   23.32    0.73
   1   0  -6    1.35    0.06
   1   0  -6    1.15    0.09
   1   0  -6    1.18    0.06
   1   0  -6    1.17    0.08
   1   0  -6    1.17    0.09
   1   0  -6    1.25    0.07
  -1   0   6    1.39    0.10
  -1   0   6    1.11    0.11
   2   0  -7   19.26    0.57
   2   0  -7   19.31    0.63
   2   0  -7   18.89    0.58
  -2   0   7   19.00    0.66
  -2   0   7   20.33    0.63
   3   0  -8   17.95    0.57
   3   0  -8   18.94    0.57
   3   0  -8   18.37    0.62
   3   0  -8   18.16    0.54
  -3   0   8   19.27    0.62
  -3   0   8   17.47    0.66
   4   0  -9   24.56    0.74
   4   0  -9   23.85    0.81
   4   0  -9   24.36    0.75
  -4   0   9   23.99    0.85
   5   0 -10    0.05    0.06
   5   0 -10    0.00    0.06
  -5   0  10    0.06    0.09
   6   0 -11    5.37    0.28
  -6   0  11    5.84    0.36
   7   0 -12    5.91    0.32
  -7   0  12    6.26    0.40
  -9   1   3    0.10    0.09
  -9   1   3    0.21    0.10
   9  -1  -3   -0.06    0.07
  -8   1   2    0.17    0.08
  -8   1   2    0.20    0.10
   8  -1  -2    0.11    0.07
  -7   1   1    2.00    0.16
  -7   1   1    2.04    0.17
   7  -1  -1    1.93    0.16
  -6   1   0    0.58    0.10
  -6   1   0    0.77    0.10
   6  -1   0    0.73    0.05
   6  -1   0    0.72    0.10
  -5   1  -1    2.91    0.16
  -5   1  -1    2.78    0.17
   5  -1   1    2.80    0.12
   5  -1   1    2.92    0.17
   5  -1   1    3.29    0.13
  -4   1  -2    0.12    0.05
  -4   1  -2    0.00    0.05
   4  -1   2   -0.01    0.03
   4  -1   2   -0.02    0.02
   4  -1   2   -0.01    0.05
  -3   1  -3    9.70    0.33
  -3   1  -3    9.83    0.34
  -3   1  -3    9.83    0.28
  -3   1  -3   10.18    0.28
   3  -1   3   10.09    0.30
   3  -1   3   10.11    0.37
   3  -1   3    9.90    0.30
   3  -1   3    9.66    0.34
  -2   1  -4   80.61    2.23
  -2   1  -4   83.05    2.17
  -2   1  -4   85.26    2.11
  -2   1  -4   77.63    2.39
   2  -1   4   86.07    2.41
   2  -1   4   82.44    2.29
   2  -1   4   84.59    2.29
   2  -1   4   83.32    2.12
  -1   1  -5  187.18    4.93
  -1   1  -5  180.97    5.29
  -1   1  -5  186.17    4.78
  -1   1  -5  186.96    4.68
   1  -1   5  185.83    5.29
   1  -1   5  191.81    5.11
   0   1  -6    4.33    0.15
   0   1  -6    4.19    0.16
   0   1  -6    3.90    0.17
   0   1  -6    3.90    0.17
   0   1  -6    3.88    0.18
   0   1  -6    4.10    0.14
   0  -1   6    4.17    0.17
   0  -1   6    4.02    0.20
   1   1  -7    7.67    0.29
   1   1  -7    7.82    0.22
   1   1  -7    7.81    0.29
   1   1  -7    7.46    0.28
   1   1  -7    8.39    0.22
  -1  -1   7    7.59    0.28
  -1  -1   7    7.99    0.33
   2   1  -8   29.60    0.85
   2   1  -8   29.83    0.92
   2   1  -8   29.74    0.88
  -2  -1   8   30.93    0.91
  -2  -1   8   28.37    0.96
   3   1  -9    6.12    0.27
   3   1  -9    6.62    0.28
   3   1  -9    6.46    0.27
  -3  -1   9    6.76    0.27
  -3  -1   9    6.01    0.33
   4   1 -10    6.48    0.29
   4   1 -10    6.16    0.28
   4   1 -10    6.10    0.27
  -4  -1  10    5.84    0.33
   5   1 -11    3.80    0.22
  -5  -1  11    3.59    0.27
   6   1 -12    0.17    0.08
  -6  -1  12    0.55    0.15
  -9   2   2    5.08    0.29
  -9   2   2    4.80    0.30
   9  -2  -2    4.34    0.29
  -8   2   1    4.33    0.24
  -8   2   1    4.13    0.26
   8  -2  -1    3.78    0.25
  -7   2   0    2.50    0.19
   7  -2   0    2.76    0.12
   7  -2   0    2.38    0.18
  -6   2  -1    1.22    0.13
  -6   2  -1    1.41    0.13
   6  -2   1    1.12    0.08
   6  -2   1    1.30    0.13
  -5   2  -2    1.04    0.11
  -5   2  -2    0.92    0.10
   5  -2   2    0.91    0.08
   5  -2   2    1.12    0.11
  -4   2  -3   22.68    0.68
  -4   2  -3   22.89    0.70
   4  -2   3   23.78    0.75
   4  -2   3   22.63    0.64
   4  -2   3   22.54    0.72
  -3   2  -4  154.08    3.80
  -3   2  -4  145.96    4.02
  -3   2  -4  151.78    3.89
   3  -2   4  148.59    4.12
   3  -2   4  154.23    4.31
   3  -2   4  152.53    4.11
   3  -2   4  147.31    3.81
  -2   2  -5   81.93    2.16
  -2   2  -5   82.82    2.10
  -2   2  -5   81.97    2.24
   2  -2   5   83.32    2.38
   2  -2   5   80.57    2.09
   2  -2   5   82.95    2.28
   2  -2   5   81.17    2.28
  -1   2  -6   16.13    0.46
  -1   2  -6   16.23    0.49
  -1   2  -6   15.47    0.51
  -1   2  -6   16.26    0.52
   1  -2   6   16.64    0.43
   1  -2   6   15.91    0.53
   1  -2   6   16.73    0.43
   1  -2   6   16.27    0.51
   0   2  -7   21.04    0.58
   0   2  -7   21.84    0.66
   0   2  -7   21.32    0.66
   0   2  -7   21.15    0.62
   0  -2   7   21.28    0.69
   0  -2   7   21.40    0.65
   1   2  -8    0.61    0.07
   1   2  -8    0.63    0.08
   1   2  -8    0.61    0.05
   1   2  -8    0.63    0.05
   1   2  -8    0.82    0.10
  -1  -2   8    0.58    0.10
  -1  -2   8    0.50    0.06
   2   2  -9   10.87    0.37
   2   2  -9   10.39    0.37
   2   2  -9   10.28    0.40
  -2  -2   9   10.64    0.37
  -2  -2   9   10.57    0.44
   3   2 -10    0.71    0.09
   3   2 -10    1.08    0.14
  -3  -2  10    0.82    0.14
   4   2 -11    0.71    0.10
   4   2 -11    1.11    0.15
  -4  -2  11    0.88    0.15
   5   2 -12    1.84    0.16
  -5  -2  12    1.48    0.20
  -6  -2  13    0.77    0.17
 -10   3   2    1.04    0.16
  -9   3   1    2.01    0.20
  -9   3   1    2.40    0.19
   9  -3  -1    2.48    0.22
  -8   3   0    1.83    0.17
  -8   3   0    1.67    0.17
   8  -3   0    1.84    0.17
  -7   3  -1    0.30    0.10
  -7   3  -1    0.47    0.10
   7  -3   1    0.48    0.10
   7  -3   1    0.42    0.06
  -6   3  -2    5.67    0.26
  -6   3  -2    5.18    0.25
   6  -3   2    5.38    0.27
   6  -3   2    4.91    0.26
   6  -3   2    5.63    0.21
  -5   3  -3    0.32    0.08
  -5   3  -3    0.32    0.08
   5  -3   3    0.26    0.07
   5  -3   3    0.23    0.05
  -4   3  -4   33.63    1.02
  -4   3  -4   35.06    0.98
  -4   3  -4   34.52    0.91
   4  -3   4   37.34    1.09
   4  -3   4   33.55    0.94
   4  -3   4   33.67    1.05
  -3   3  -5   50.22    1.33
  -3   3  -5   49.43    1.27
  -3   3  -5   47.38    1.38
   3  -3   5   50.11    1.45
   3  -3   5   48.42    1.28
   3  -3   5   46.15    1.41
  -2   3  -6   37.15    0.99
  -2   3  -6   37.13    1.09
  -2   3  -6   37.80    1.03
   2  -3   6   36.94    0.98
   2  -3   6   38.01    1.11
   2  -3   6   36.02    1.09
  -1   3  -7    0.86    0.07
  -1   3  -7    0.85    0.09
  -1   3  -7    0.80    0.10
   1  -3   7    0.71    0.09
   1  -3   7    0.80    0.07
   0   3  -8    3.63    0.15
   0   3  -8    3.70    0.15
   0   3  -8    3.73    0.18
   0   3  -8    3.72    0.21
   0  -3   8    3.74    0.22
   0  -3   8    3.77    0.14
   1   3  -9   19.41    0.60
   1   3  -9   20.44    0.61
   1   3  -9   19.29    0.53
   1   3  -9   20.03    0.65
  -1  -3   9   19.35    0.70
   2   3 -10    7.03    0.28
   2   3 -10    6.81    0.32
  -2  -3  10    6.69    0.35
   3   3 -11    0.26    0.10
   3   3 -11    0.27    0.08
  -3  -3  11    0.06    0.09
   4   3 -12    7.36    0.37
  -4  -3  12    7.78    0.42
  -5  -3  13    0.13    0.12
 -10   4   1    0.09    0.09
 -10   4   1   -0.10    0.10
  -9   4   0    0.27    0.11
  -9   4   0    0.15    0.08
   9  -4   0    0.28    0.11
  -8   4  -1    1.58    0.17
  -8   4  -1    1.53    0.16
   8  -4   1    1.39    0.11
   8  -4   1    1.49    0.17
  -7   4  -2    6.05    0.30
  -7   4  -2    5.93    0.29
   7  -4   2    5.76    0.24
   7  -4   2    6.03    0.31
  -6   4  -3   28.83    0.93
  -6   4  -3   30.63    0.91
   6  -4   3   31.54    1.00
   6  -4   3   30.47    0.98
   6  -4   3   30.13    0.85
  -5   4  -4   19.72    0.63
  -5   4  -4   19.19    0.65
   5  -4   4   20.34    0.68
   5  -4   4   20.28    0.59
   5  -4   4   20.81    0.69
  -4   4  -5    0.08    0.07
  -4   4  -5    0.07    0.06
  -4   4  -5    0.05    0.04
   4  -4   5    0.02    0.07
   4  -4   5   -0.11    0.05
   4  -4   5    0.04    0.04
  -3   4  -6   11.89    0.44
  -3   4  -6   12.32    0.38
  -3   4  -6   11.98    0.41
   3  -4   6   12.68    0.43
   3  -4   6   12.42    0.37
  -2   4  -7    9.05    0.31
  -2   4  -7    9.63    0.38
  -2   4  -7   10.42    0.34
   2  -4   7    9.41    0.28
   2  -4   7    9.64    0.33
  -1   4  -8   22.40    0.65
  -1   4  -8   23.26    0.75
  -1   4  -8   24.05    0.68
   1  -4   8   22.80    0.76
   1  -4   8   23.20    0.68
   0   4  -9    4.35    0.21
   0   4  -9    4.09    0.17
   0   4  -9    4.17    0.24
   0  -4   9    4.41    0.25
   1   4 -10    8.54    0.28
   1   4 -10    8.85    0.32
   1   4 -10    9.02    0.38
  -1  -4  10    8.30    0.39
   2   4 -11    2.40    0.21
  -2  -4  11    2.23    0.21
   3   4 -12    0.40    0.13
  -3  -4  12    0.28    0.13
   4   4 -13    2.40    0.24
  -4  -4  13    3.03    0.27
  -9   5  -1    0.92    0.14
  -9   5  -1    0.86    0.15
   9  -5   1    0.84    0.10
   9  -5   1    0.76    0.15
  -8   5  -2    0.04    0.08
  -8   5  -2    0.00    0.06
   8  -5   2    0.05    0.06
   8  -5   2    0.05    0.09
  -7   5  -3    0.26    0.09
  -7   5  -3    0.24    0.09
   7  -5   3    0.19    0.07
   7  -5   3    0.44    0.11
  -6   5  -4    0.02    0.07
  -6   5  -4    0.05    0.07
   6  -5   4    0.01    0.05
   6  -5   4   -0.04    0.04
   6  -5   4   -0.08    0.06
  -5   5  -5   14.74    0.50
  -5   5  -5   14.30    0.53
   5  -5   5   14.94    0.46
   5  -5   5   13.92    0.55
   5  -5   5   15.91    0.53
  -4   5  -6   17.33    0.56
  -4   5  -6   16.82    0.51
  -4   5  -6   15.97    0.60
   4  -5   6   18.11    0.52
   4  -5   6   17.46    0.58
   4  -5   6   19.12    0.61
  -3   5  -7    9.42    0.39
  -3   5  -7    9.84    0.33
  -3   5  -7    9.63    0.35
   3  -5   7    9.57    0.33
   3  -5   7    9.36    0.30
  -2   5  -8    5.86    0.23
  -2   5  -8    6.18    0.25
  -2   5  -8    5.50    0.29
  -1   5  -9   49.70    1.34
  -1   5  -9   50.29    1.47
  -1   5  -9   47.57    1.31
   0   5 -10    8.89    0.40
   0   5 -10    8.98    0.31
   1   5 -11    0.65    0.15
   1   5 -11    0.95    0.08
   2   5 -12    4.33    0.28
   3   5 -13    0.71    0.17
  -9   6  -2    0.72    0.15
  -9   6  -2    0.76    0.14
  -8   6  -3    3.62    0.25
  -8   6  -3    3.89    0.24
   8  -6   3    4.14    0.29
   8  -6   3    4.01    0.21
  -7   6  -4    5.17    0.28
  -7   6  -4    4.62    0.27
   7  -6   4    4.96    0.23
   7  -6   4    4.99    0.31
  -6   6  -5    0.03    0.08
  -6   6  -5    0.07    0.08
   6  -6   5   -0.05    0.07
   6  -6   5   -0.03    0.05
   6  -6   5   -0.01    0.05
  -5   6  -6    1.04    0.12
  -5   6  -6    1.02    0.14
  -5   6  -6    0.90    0.08
   5  -6   6    0.97    0.10
   5  -6   6    0.56    0.08
  -4   6  -7   36.38    1.04
  -4   6  -7   36.93    1.01
  -4   6  -7   36.13    1.14
   4  -6   7   36.85    1.00
  -3   6  -8   17.49    0.65
  -3   6  -8   18.06    0.56
  -3   6  -8   18.40    0.56
  -2   6  -9   -0.02    0.08
  -2   6  -9   -0.01    0.06
  -2   6  -9   -0.01    0.05
  -1   6 -10    0.26    0.07
  -1   6 -10    0.70    0.15
   0   6 -11    1.98    0.13
   0   6 -11    2.36    0.23
   1   6 -12    0.94    0.10
   1   6 -12    0.86    0.17
   2   6 -13    3.17    0.26
  -9   7  -3   -0.03    0.07
  -9   7  -3   -0.04    0.10
  -8   7  -4    0.27    0.11
  -8   7  -4    0.33    0.11
   8  -7   4    0.20    0.11
  -7   7  -5    1.48    0.18
  -7   7  -5    0.95    0.13
   7  -7   5    1.30    0.12
   7  -7   5    1.04    0.17
  -6   7  -6    2.41    0.22
  -6   7  -6    2.14    0.18
   6  -7   6    2.08    0.15
  -5   7  -7    1.57    0.19
  -5   7  -7    1.61    0.12
  -5   7  -7    1.80    0.15
   5  -7   7    1.56    0.12
  -4   7  -8    1.46    0.19
  -4   7  -8    1.03    0.10
  -4   7  -8    1.14    0.12
  -3   7  -9    5.27    0.24
  -3   7  -9    5.28    0.31
  -2   7 -10    1.85    0.21
  -1   7 -11    0.02    0.06
  -1   7 -11   -0.07    0.09
   0   7 -12    1.07    0.19
   0   7 -12    0.70    0.10
   1   7 -13    1.76    0.24
  -8   8  -5    0.17    0.10
  -8   8  -5    0.16    0.11
  -7   8  -6    0.46    0.12
  -7   8  -6    0.58    0.14
  -6   8  -7    5.22    0.32
  -6   8  -7    5.73    0.29
   6  -8   7    5.63    0.25
  -5   8  -8    2.28    0.23
  -4   8  -9    1.49    0.13
  -4   8  -9    1.40    0.20
  -3   8 -10    1.14    0.19
  -2   8 -11    0.29    0.13
  -1   8 -12    0.30    0.14
  -7   9  -7    0.03    0.11
  -6   9  -8    0.13    0.12
  -5   9  -9    3.35    0.28
  -4   9 -10    0.58    0.17
  -3   9 -11    0.75    0.18
   0  10  -4    3.29    0.28
  -1  10  -3    0.50    0.16
  -1  10  -3    0.33    0.15
  -2  10  -2    0.34    0.14
  -2  10  -2    0.12    0.07
  -3  10  -1    1.10    0.19
   4 -10   0    0.97    0.11
  -4  10   0    1.18    0.20
  -5  10   1    0.35    0.14
   2   9  -5    1.95    0.25
   1   9  -4    0.17    0.14
   0   9  -3   -0.03    0.11
  -1   9  -2    2.68    0.22
  -1   9  -2    2.61    0.17
  -1   9  -2    2.46    0.24
  -2   9  -1    0.31    0.12
  -2   9  -1    0.21    0.07
   3  -9   0    8.09    0.31
  -3   9   0    8.46    0.44
   4  -9  -1   10.73    0.38
  -4   9   1   10.20    0.51
   5  -9  -2    3.30    0.21
  -5   9   2    3.18    0.27
  -5   9   2    3.19    0.25
   6  -9  -3    0.91    0.14
  -6   9   3    0.96    0.18
  -6   9   3    1.00    0.18
   3   8  -5    4.96    0.34
   2   8  -4   -0.01    0.11
   2   8  -4    0.13    0.07
   1   8  -3    0.67    0.15
   1   8  -3    0.38    0.08
   0   8  -2    0.39    0.08
   0   8  -2    0.32    0.13
   1  -8   1    3.31    0.23
  -1   8  -1    3.09    0.25
  -1   8  -1    3.50    0.19
  -1   8  -1    3.32    0.22
   2  -8   0    6.11    0.24
   2  -8   0    5.93    0.33
  -2   8   0    5.70    0.34
  -2   8   0    6.25    0.26
   3  -8  -1    7.58    0.29
  -3   8   1    6.87    0.38
   4  -8  -2   22.43    0.67
   4  -8  -2   22.01    0.70
  -4   8   2   22.00    0.83
   5  -8  -3   -0.04    0.05
   5  -8  -3    0.06    0.07
  -5   8   3    0.09    0.11
  -5   8   3   -0.05    0.09
   6  -8  -4    0.32    0.10
  -6   8   4    0.49    0.15
  -6   8   4    0.58    0.15
   7  -8  -5    1.76    0.19
  -7   8   5    1.12    0.21
  -7   8   5    2.13    0.24
   4   7  -5    1.15    0.11
   4   7  -5    1.26    0.21
   3   7  -4    0.67    0.09
   3   7  -4    0.65    0.15
   2   7  -3    1.57    0.19
   2   7  -3    1.36    0.11
  -1  -7   2   30.14    0.97
   1   7  -2   29.09    0.85
   1   7  -2   29.38    0.95
   0  -7   1    1.48    0.15
   0   7  -1    1.89    0.18
   0   7  -1    1.60    0.12
   1  -7   0    0.19    0.10
   1  -7   0    0.33    0.06
  -1   7   0    0.34    0.11
  -1   7   0    0.25    0.11
  -1   7   0    0.35    0.07
   2  -7  -1  115.97    3.36
   2  -7  -1  113.76    2.97
   2  -7  -1  112.42    2.92
  -2   7   1  114.78    2.92
  -2   7   1  115.61    3.08
  -2   7   1  109.62    3.27
   3  -7  -2    7.87    0.29
   3  -7  -2    8.27    0.32
   3  -7  -2    7.97    0.38
  -3   7   2    7.44    0.39
   4  -7  -3    0.13    0.06
   4  -7  -3    0.11    0.06
  -4   7   3    0.27    0.11
  -4   7   3    0.08    0.09
   5  -7  -4    0.04    0.07
   5  -7  -4    0.08    0.06
  -5   7   4    0.10    0.10
  -5   7   4   -0.18    0.10
   6  -7  -5    0.46    0.08
   6  -7  -5    0.34    0.10
  -6   7   5    0.38    0.14
  -6   7   5    0.27    0.14
   7  -7  -6    0.03    0.07
  -7   7   6    0.04    0.11
  -7   7   6   -0.23    0.11
  -5  -6   5    0.93    0.15
   5   6  -5    1.00    0.19
  -4  -6   4    1.68    0.18
   4   6  -4    1.80    0.12
   4   6  -4    1.99    0.22
   3   6  -3   10.09    0.44
   3   6  -3   10.20    0.34
  -2  -6   2    0.84    0.12
   2   6  -2    1.03    0.16
   2   6  -2    1.13    0.09
  -1  -6   1    0.29    0.10
   1   6  -1    0.50    0.12
   1   6  -1    0.61    0.08
   0  -6   0   47.26    1.22
   0  -6   0   43.64    1.40
   0  -6   0   46.31    1.18
   0   6   0   45.13    1.40
   0   6   0   44.34    1.30
   0   6   0   44.18    1.22
   1  -6  -1   11.60    0.46
   1  -6  -1   11.86    0.38
   1  -6  -1   11.40    0.36
  -1   6   1   10.80    0.47
  -1   6   1   11.07    0.37
  -1   6   1   11.70    0.41
   2  -6  -2    3.43    0.17
   2  -6  -2    3.36    0.18
   2  -6  -2    3.69    0.23
  -2   6   2    3.85    0.18
  -2   6   2    3.45    0.24
   3  -6  -3    0.26    0.09
   3  -6  -3    0.21    0.07
   3  -6  -3    0.25    0.06
  -3   6   3    0.20    0.11
   4  -6  -4    1.18    0.10
   4  -6  -4    1.24    0.12
  -4   6   4    1.46    0.17
  -4   6   4    1.46    0.17
   5  -6  -5    8.63    0.31
   5  -6  -5    9.36    0.38
  -5   6   5    8.93    0.44
  -5   6   5    8.86    0.42
   6  -6  -6    3.15    0.16
   6  -6  -6    3.15    0.21
  -6   6   6    2.95    0.25
  -6   6   6    2.55    0.24
   7  -6  -7    0.82    0.14
  -7   6   7    0.88    0.18
  -7   6   7    0.88    0.18
  -6  -5   5    0.27    0.11
   6   5  -5    0.28    0.13
  -5  -5   4    1.11    0.15
   5   5  -4    1.43    0.19
   5   5  -4    1.45    0.16
  -4  -5   3    3.98    0.23
   4   5  -3    3.95    0.26
   4   5  -3    3.71    0.16
  -3  -5   2   15.37    0.55
   3   5  -2   15.46    0.46
   3   5  -2   15.59    0.57
  -2  -5   1    0.01    0.04
  -2  -5   1    0.02    0.08
   2   5  -1    0.13    0.09
   2   5  -1    0.02    0.04
  -1  -5   0    4.71    0.26
  -1  -5   0    5.03    0.22
  -1  -5   0    5.15    0.20
   1   5   0    4.71    0.20
   1   5   0    5.12    0.24
   0  -5  -1   65.62    1.96
   0  -5  -1   65.03    1.68
   0  -5  -1   66.88    1.72
   0   5   1   63.63    1.70
   0   5   1   65.22    1.80
   0   5   1   64.65    1.91
   1  -5  -2   40.33    1.27
   1  -5  -2   40.06    1.08
   1  -5  -2   41.44    1.11
  -1   5   2   38.76    1.24
  -1   5   2   41.31    1.13
  -1   5   2   40.52    1.08
   2  -5  -3    1.92    0.16
   2  -5  -3    1.87    0.13
   2  -5  -3    1.73    0.11
  -2   5   3    1.57    0.16
  -2   5   3    1.86    0.09
  -2   5   3    1.72    0.10
   3  -5  -4    0.06    0.06
   3  -5  -4    0.05    0.04
   3  -5  -4   -0.05    0.04
  -3   5   4   -0.02    0.08
   4  -5  -5   27.65    0.77
   4  -5  -5   27.30    0.84
   4  -5  -5   27.47    0.94
  -4   5   5   27.82    0.88
  -4   5   5   27.87    0.95
   5  -5  -6    7.39    0.25
   5  -5  -6    6.61    0.31
  -5   5   6    7.05    0.37
  -5   5   6    7.22    0.38
   6  -5  -7   -0.02    0.06
   6  -5  -7    0.00    0.04
  -6   5   7    0.09    0.10
  -6   5   7    0.04    0.12
   7  -5  -8    0.05    0.08
  -7   5   8    0.09    0.14
  -7   5   8   -0.01    0.10
  -7  -4   5    2.30    0.23
   7   4  -5    1.98    0.24
  -6  -4   4   -0.03    0.06
   6   4  -4   -0.02    0.05
   6   4  -4    0.04    0.10
  -5  -4   3    0.70    0.12
   5   4  -3    0.95    0.15
   5   4  -3    0.62    0.11
  -4  -4   2    1.97    0.15
   4   4  -2    2.06    0.18
   4   4  -2    2.04    0.16
   4   4  -2    2.12    0.11
  -3  -4   1    0.21    0.07
  -3  -4   1    0.23    0.06
  -3  -4   1    0.08    0.08
   3   4  -1    0.18    0.04
   3   4  -1    0.14    0.08
  -2  -4   0   18.78    0.55
  -2  -4   0   19.62    0.61
  -2  -4   0   19.57    0.66
   2   4   0   19.25    0.55
   2   4   0   19.04    0.62
  -1  -4  -1    3.24    0.16
  -1  -4  -1    2.96    0.19
  -1  -4  -1    3.25    0.12
  -1  -4  -1    3.26    0.16
   1   4   1    3.01    0.19
   1   4   1    3.42    0.20
   1   4   1    3.31    0.17
   1   4   1    3.13    0.14
   0  -4  -2    1.15    0.12
   0  -4  -2    1.31    0.10
   0  -4  -2    1.19    0.08
   0  -4  -2    1.15    0.08
   0   4   2    1.20    0.12
   0   4   2    1.16    0.09
   0   4   2    1.21    0.11
   0   4   2    1.09    0.09
   1  -4  -3   34.09    0.93
   1  -4  -3   33.62    1.10
   1  -4  -3   36.13    0.97
  -1   4   3   35.46    0.96
  -1   4   3   35.05    0.93
  -1   4   3   34.06    1.08
   2  -4  -4    3.76    0.18
   2  -4  -4    3.63    0.21
   2  -4  -4    3.73    0.15
  -2   4   4    3.85    0.15
  -2   4   4    3.55    0.23
   3  -4  -5    0.17    0.06
   3  -4  -5    0.21    0.05
   3  -4  -5    0.28    0.08
  -3   4   5    0.31    0.10
   4  -4  -6   12.90    0.38
   4  -4  -6   12.53    0.51
   4  -4  -6   13.07    0.46
  -4   4   6   12.19    0.52
  -4   4   6   13.13    0.51
   5  -4  -7    3.04    0.20
   5  -4  -7    3.13    0.13
  -5   4   7    3.20    0.24
  -5   4   7    2.65    0.24
   6  -4  -8    0.13    0.07
  -6   4   8    0.21    0.12
  -6   4   8    0.02    0.09
   7  -4  -9    6.04    0.33
  -7   4   9    5.84    0.37
  -7   4   9    6.02    0.39
  -8  -3   5    0.84    0.16
   8   3  -5    0.83    0.18
  -7  -3   4    0.45    0.11
   7   3  -4    0.58    0.15
   7   3  -4    0.64    0.13
  -6  -3   3    3.15    0.21
   6   3  -3    3.12    0.22
  -5  -3   2   31.53    0.87
  -5  -3   2   29.52    0.94
   5   3  -2   29.34    0.97
  -4  -3   1   19.57    0.57
  -4  -3   1   19.32    0.63
   4   3  -1   18.78    0.65
   4   3  -1   19.58    0.53
  -3  -3   0    0.87    0.11
  -3  -3   0    0.91    0.10
   3   3   0    1.52    0.11
   3   3   0    0.90    0.07
  -2  -3  -1    6.02    0.24
  -2  -3  -1    5.63    0.22
  -2  -3  -1    6.02    0.27
   2   3   1    6.29    0.28
   2   3   1    6.09    0.21
   2   3   1    6.07    0.26
  -1  -3  -2  124.34    3.13
  -1  -3  -2  125.07    3.30
  -1  -3  -2  119.73    3.59
  -1  -3  -2  123.71    3.20
   1   3   2  122.98    3.45
   1   3   2  127.74    3.59
   1   3   2  125.00    3.15
   0  -3  -3    1.06    0.07
   0  -3  -3    0.91    0.10
   0  -3  -3    1.09    0.07
   0  -3  -3    1.17    0.09
   0   3   3    1.12    0.08
   0   3   3    1.07    0.10
   0   3   3    1.12    0.11
   1  -3  -4    4.87    0.24
   1  -3  -4    4.91    0.21
   1  -3  -4    5.25    0.19
   1  -3  -4    5.12    0.16
  -1   3   4    5.36    0.16
  -1   3   4    4.96    0.17
  -1   3   4    5.08    0.24
  -1   3   4    5.40    0.17
  -1   3   4    4.86    0.25
   2  -3  -5   45.93    1.18
   2  -3  -5   45.15    1.40
   2  -3  -5   45.44    1.25
  -2   3   5   44.46    1.37
   3  -3  -6   27.23    0.91
   3  -3  -6   27.14    0.82
   3  -3  -6   28.02    0.74
  -3   3   6   27.77    0.91
   4  -3  -7    0.10    0.07
   4  -3  -7   -0.01    0.05
   4  -3  -7    0.09    0.03
  -4   3   7    0.06    0.09
  -4   3   7    0.25    0.11
   5  -3  -8    8.76    0.36
  -5   3   8    8.49    0.42
  -5   3   8    8.41    0.41
   6  -3  -9    0.13    0.07
  -6   3   9    0.23    0.12
  -6   3   9    0.15    0.12
   7  -3 -10    0.01    0.07
  -7   3  10   -0.24    0.09
  -7   3  10   -0.01    0.10
  -8  -2   4    1.85    0.21
  -7  -2   3    1.75    0.16
  -7  -2   3    2.03    0.19
   7   2  -3    2.01    0.18
  -6  -2   2    6.03    0.27
  -6  -2   2    5.34    0.28
   6   2  -2    5.76    0.30
  -5  -2   1   47.91    1.29
  -5  -2   1   45.03    1.36
   5   2  -1   47.29    1.20
   5   2  -1   47.03    1.41
  -4  -2   0   14.58    0.51
  -4  -2   0   15.09    0.47
   4   2   0   15.15    0.52
   4   2   0   15.71    0.43
   4   2   0   15.37    0.43
  -3  -2  -1    1.48    0.11
  -3  -2  -1    1.66    0.11
  -3  -2  -1    1.57    0.13
   3   2   1    1.56    0.15
   3   2   1    1.57    0.11
   3   2   1    1.59    0.09
   3   2   1    1.62    0.12
  -2  -2  -2    0.82    0.09
  -2  -2  -2    0.96    0.06
  -2  -2  -2    0.70    0.09
  -2  -2  -2    0.97    0.08
  -2  -2  -2    0.91    0.06
   2   2   2    0.94    0.07
   2   2   2    0.90    0.08
   2   2   2    0.84    0.10
   2   2   2    0.98    0.09
  -1  -2  -3    0.86    0.08
  -1  -2  -3    0.56    0.06
  -1  -2  -3    0.51    0.08
  -1  -2  -3    0.71    0.06
   1   2   3    0.73    0.06
   1   2   3    0.54    0.08
   1   2   3    0.66    0.09
   1   2   3    0.72    0.06
   0  -2  -4    0.06    0.06
   0  -2  -4    0.05    0.03
   0  -2  -4    0.04    0.04
   0  -2  -4    0.05    0.02
   0   2   4    0.06    0.02
   0   2   4    0.00    0.04
   0   2   4    0.05    0.03
   0   2   4   -0.01    0.04
   1  -2  -5   29.00    0.84
   1  -2  -5   28.87    0.94
   1  -2  -5   30.46    0.80
   1  -2  -5   30.01    0.79
  -1   2   5   30.92    0.94
  -1   2   5   28.30    0.93
  -1   2   5   29.98    0.80
   2  -2  -6    6.74    0.30
   2  -2  -6    6.95    0.21
   2  -2  -6    6.80    0.27
  -2   2   6    6.59    0.31
  -2   2   6    7.11    0.30
   3  -2  -7    0.16    0.06
   3  -2  -7    0.13    0.06
   3  -2  -7    0.15    0.03
  -3   2   7    0.09    0.09
   4  -2  -8    0.18    0.08
   4  -2  -8    0.27    0.08
  -4   2   8    0.24    0.11
   5  -2  -9    1.00    0.12
  -5   2   9    1.13    0.16
   6  -2 -10    1.25    0.14
  -6   2  10    1.97    0.21
   7  -2 -11    1.22    0.16
  -7   2  11    1.25    0.20
  -9  -1   4    0.72    0.15
  -9  -1   4    0.53    0.15
  -8  -1   3    0.14    0.09
  -8  -1   3    0.28    0.10
   8   1  -3    0.11    0.08
  -7  -1   2   -0.08    0.07
  -7  -1   2   -0.01    0.06
   7   1  -2    0.02    0.06
  -6  -1   1   -0.01    0.08
  -6  -1   1   -0.02    0.05
   6   1  -1    0.02    0.06
  -5  -1   0    2.07    0.14
  -5  -1   0    2.04    0.14
   5   1   0    1.80    0.08
   5   1   0    1.96    0.15
  -4  -1  -1    2.12    0.14
  -4  -1  -1    2.09    0.13
   4   1   1    2.14    0.14
   4   1   1    2.29    0.12
   4   1   1    2.07    0.10
  -3  -1  -2   62.20    1.91
  -3  -1  -2   64.17    1.77
  -3  -1  -2   62.86    1.71
   3   1   2   66.57    1.92
   3   1   2   63.53    1.66
   3   1   2   67.84    1.80
   3   1   2   63.10    1.81
  -2  -1  -3  123.99    3.19
  -2  -1  -3  118.80    3.55
  -2  -1  -3  121.98    3.28
   2   1   3  124.26    3.39
   2   1   3  123.05    3.12
   2   1   3  127.19    3.56
   2   1   3  122.55    3.36
  -1  -1  -4   12.01    0.43
  -1  -1  -4   11.51    0.36
  -1  -1  -4   11.80    0.36
  -1  -1  -4   11.51    0.34
  -1  -1  -4   11.84    0.38
   1   1   4   12.58    0.43
   1   1   4   11.86    0.36
   1   1   4   11.61    0.40
   1   1   4   11.43    0.35
   0  -1  -5    0.03    0.04
   0  -1  -5    0.09    0.03
   0  -1  -5    0.02    0.02
   0  -1  -5    0.01    0.05
   0   1   5    0.04    0.02
   0   1   5    0.04    0.02
   0   1   5    0.02    0.02
   0   1   5    0.03    0.05
   0   1   5    0.07    0.05
   1  -1  -6    0.28    0.06
   1  -1  -6    0.30    0.06
   1  -1  -6    0.38    0.04
   1  -1  -6    0.32    0.04
  -1   1   6    0.37    0.08
  -1   1   6    0.36    0.06
   2  -1  -7   10.12    0.35
   2  -1  -7    9.94    0.30
   2  -1  -7   10.30    0.28
   2  -1  -7    9.81    0.28
   2  -1  -7    9.55    0.38
  -2   1   7    9.10    0.40
  -2   1   7   10.11    0.38
   3  -1  -8    4.63    0.24
   3  -1  -8    4.77    0.18
   3  -1  -8    4.75    0.23
  -3   1   8    4.62    0.27
   4  -1  -9   29.25    0.90
   4  -1  -9   31.40    0.99
  -4   1   9   28.85    1.01
   5  -1 -10    0.28    0.09
   5  -1 -10    0.32    0.10
  -5   1  10    0.31    0.12
   6  -1 -11    0.83    0.13
  -6   1  11    0.82    0.17
   7  -1 -12    0.48    0.12
  -7   1  12    0.48    0.16
  -9   0   3    0.37    0.12
  -9   0   3    0.35    0.12
  -8   0   2    0.38    0.11
  -8   0   2    0.41    0.10
   8   0  -2    0.35    0.10
  -7   0   1   25.01    0.82
  -7   0   1   25.33    0.79
   7   0  -1   24.95    0.85
  -6   0   0    7.95    0.32
  -6   0   0    7.38    0.32
   6   0   0    7.38    0.33
   6   0   0    7.29    0.23
  -5   0  -1    2.70    0.17
  -5   0  -1    2.93    0.17
   5   0   1    2.97    0.18
   5   0   1    3.08    0.12
  -4   0  -2   22.94    0.69
  -4   0  -2   23.56    0.72
   4   0   2   22.64    0.73
   4   0   2   23.51    0.64
   4   0   2   24.61    0.67
  -3   0  -3   33.82    0.96
  -3   0  -3   34.92    0.88
  -3   0  -3   34.11    0.98
  -3   0  -3   33.73    0.88
   3   0   3   35.39    0.97
   3   0   3   34.45    1.07
   3   0   3   33.90    1.00
   3   0   3   33.49    0.91
  -2   0  -4    0.06    0.05
  -2   0  -4    0.03    0.03
  -2   0  -4    0.01    0.03
  -2   0  -4    0.05    0.05
   2   0   4   -0.01    0.04
   2   0   4    0.02    0.05
   2   0   4   -0.01    0.03
   2   0   4    0.09    0.04
  -1   0  -5    0.83    0.06
  -1   0  -5    0.96    0.07
  -1   0  -5    1.00    0.07
  -1   0  -5    0.99    0.09
  -1   0  -5    0.83    0.09
   1   0   5    1.00    0.07
   1   0   5    1.07    0.07
   1   0   5    0.92    0.09
   1   0   5    0.84    0.09
   0   0  -6    4.40    0.15
   0   0  -6    4.35    0.16
   0   0  -6    4.47    0.17
   0   0  -6    4.04    0.20
   0   0  -6    4.43    0.19
   0   0   6    4.38    0.20
   0   0   6    4.70    0.23
   1   0  -7    5.09    0.22
   1   0  -7    5.40    0.17
   1   0  -7    5.40    0.18
   1   0  -7    5.04    0.23
   1   0  -7    5.68    0.18
   1   0  -7    5.42    0.20
  -1   0   7    5.12    0.26
  -1   0   7    5.48    0.23
   2   0  -8   53.51    1.35
   2   0  -8   54.97    1.47
   2   0  -8   52.94    1.46
   2   0  -8   55.97    1.35
   2   0  -8   52.70    1.60
   2   0  -8   51.48    1.46
  -2   0   8   52.85    1.59
  -2   0   8   51.10    1.60
   3   0  -9   33.88    1.00
   3   0  -9   36.17    1.10
   3   0  -9   35.35    0.99
  -3   0   9   32.37    1.12
   4   0 -10   23.41    0.75
   4   0 -10   25.50    0.82
  -4   0  10   22.93    0.86
   5   0 -11    8.44    0.36
  -5   0  11    8.41    0.43
   6   0 -12    4.49    0.27
  -6   0  12    5.14    0.35
  -9   1   2    0.18    0.11
  -9   1   2    0.09    0.09
  -8   1   1    0.16    0.09
  -8   1   1    0.07    0.07
   8  -1  -1    0.09    0.07
  -7   1   0    0.45    0.10
  -7   1   0    0.70    0.12
   7  -1   0    0.59    0.11
  -6   1  -1    3.56    0.21
   6  -1   1    3.34    0.21
   6  -1   1    3.64    0.15
  -5   1  -2    5.12    0.24
  -5   1  -2    4.85    0.23
   5  -1   2    5.05    0.24
   5  -1   2    5.17    0.19
  -4   1  -3    5.30    0.23
  -4   1  -3    5.62    0.24
   4  -1   3    5.23    0.20
   4  -1   3    5.37    0.24
  -3   1  -4    0.09    0.06
  -3   1  -4    0.05    0.02
  -3   1  -4    0.08    0.04
   3  -1   4    0.10    0.06
   3  -1   4    0.10    0.04
   3  -1   4   -0.02    0.03
   3  -1   4    0.11    0.04
  -2   1  -5    0.83    0.09
  -2   1  -5    0.96    0.08
  -2   1  -5    0.97    0.10
  -2   1  -5    0.97    0.07
   2  -1   5    0.76    0.09
   2  -1   5    0.79    0.08
   2  -1   5    0.82    0.07
   2  -1   5    0.87    0.08
  -1   1  -6    0.95    0.09
  -1   1  -6    0.84    0.09
  -1   1  -6    0.90    0.07
  -1   1  -6    0.59    0.08
   1  -1   6    0.74    0.07
   1  -1   6    0.83    0.05
   1  -1   6    0.78    0.08
   1  -1   6    0.92    0.09
   0   1  -7  120.25    3.53
   0   1  -7  123.11    3.20
   0   1  -7  122.86    3.11
   0   1  -7  122.73    3.29
   0  -1   7  123.38    3.44
   0  -1   7  125.09    3.52
   1   1  -8   60.38    1.68
   1   1  -8   63.84    1.73
   1   1  -8   66.45    1.60
   1   1  -8   61.20    1.84
   1   1  -8   61.55    1.60
  -1  -1   8   64.31    1.84
  -1  -1   8   60.39    1.84
   2   1  -9    1.29    0.11
   2   1  -9    0.93    0.10
   2   1  -9    1.14    0.12
   2   1  -9    1.13    0.05
  -2  -1   9    0.97    0.14
  -2  -1   9    1.28    0.11
   3   1 -10    9.91    0.38
   3   1 -10    9.76    0.39
   3   1 -10   10.38    0.38
  -3  -1  10    9.61    0.45
   4   1 -11   23.95    0.75
  -4  -1  11   23.06    0.86
   5   1 -12    1.65    0.16
  -5  -1  12    1.20    0.19
   6   1 -13    0.58    0.12
  -6  -1  13    0.40    0.15
  -9   2   1    1.34    0.17
  -9   2   1    1.57    0.18
   9  -2  -1    1.57    0.18
  -8   2   0    5.18    0.29
  -8   2   0    4.61    0.26
   8  -2   0    4.32    0.27
  -7   2  -1    7.17    0.33
  -7   2  -1    7.43    0.33
   7  -2   1    7.70    0.26
   7  -2   1    7.63    0.35
  -6   2  -2    6.07    0.28
  -6   2  -2    6.24    0.28
   6  -2   2    6.25    0.23
   6  -2   2    5.95    0.29
  -5   2  -3    0.17    0.07
  -5   2  -3    0.40    0.08
   5  -2   3    0.22    0.07
   5  -2   3    0.18    0.05
  -4   2  -4    1.68    0.08
  -4   2  -4    1.78    0.14
  -4   2  -4    1.62    0.12
   4  -2   4    1.78    0.11
   4  -2   4    2.01    0.16
   4  -2   4    1.69    0.13
  -3   2  -5   24.61    0.73
  -3   2  -5   24.20    0.75
  -3   2  -5   24.46    0.67
   3  -2   5   25.79    0.79
   3  -2   5   24.30    0.68
   3  -2   5   23.40    0.76
   3  -2   5   25.71    0.73
  -2   2  -6   11.33    0.40
  -2   2  -6   11.62    0.35
  -2   2  -6   11.90    0.39
   2  -2   6   11.51    0.40
   2  -2   6   11.02    0.39
   2  -2   6   11.01    0.34
   2  -2   6   11.36    0.40
  -1   2  -7    5.06    0.21
  -1   2  -7    5.20    0.23
  -1   2  -7    5.03    0.19
  -1   2  -7    6.07    0.24
   1  -2   7    5.02    0.15
   1  -2   7    5.07    0.24
   1  -2   7    4.83    0.21
   1  -2   7    4.96    0.15
   0   2  -8    1.04    0.09
   0   2  -8    0.96    0.10
   0   2  -8    0.88    0.07
   0   2  -8    1.14    0.12
   0  -2   8    0.94    0.12
   0  -2   8    0.93    0.08
   1   2  -9   16.11    0.53
   1   2  -9   15.67    0.54
   1   2  -9   16.07    0.51
   1   2  -9   15.59    0.44
  -1  -2   9   16.57    0.52
  -1  -2   9   15.49    0.59
   2   2 -10    4.85    0.25
   2   2 -10    4.62    0.23
  -2  -2  10    4.65    0.29
   3   2 -11    5.01    0.27
   3   2 -11    5.52    0.26
  -3  -2  11    4.94    0.31
   4   2 -12    1.34    0.14
  -4  -2  12    1.37    0.19
  -5  -2  13    2.25    0.24
  -9   3   0    0.95    0.14
  -9   3   0    0.98    0.16
   9  -3   0    0.98    0.16
  -8   3  -1    0.00    0.08
  -8   3  -1    0.09    0.07
   8  -3   1    0.22    0.06
   8  -3   1    0.06    0.08
  -7   3  -2   -0.09    0.05
  -7   3  -2    0.03    0.08
   7  -3   2    0.02    0.05
   7  -3   2    0.12    0.07
  -6   3  -3    1.31    0.14
  -6   3  -3    1.37    0.14
   6  -3   3    1.25    0.10
   6  -3   3    1.18    0.13
  -5   3  -4    1.72    0.14
  -5   3  -4    1.73    0.14
   5  -3   4    1.79    0.15
   5  -3   4    1.70    0.11
  -4   3  -5    0.02    0.04
  -4   3  -5    0.03    0.05
  -4   3  -5    0.12    0.07
   4  -3   5   -0.03    0.07
   4  -3   5   -0.01    0.04
   4  -3   5    0.06    0.06
  -3   3  -6    0.03    0.07
  -3   3  -6    0.14    0.07
  -3   3  -6   -0.02    0.04
   3  -3   6   -0.01    0.05
   3  -3   6    0.00    0.04
   3  -3   6    0.05    0.06
  -2   3  -7   31.10    0.87
  -2   3  -7   30.92    0.95
  -2   3  -7   32.26    0.91
   2  -3   7   32.25    0.84
   2  -3   7   31.76    0.96
   2  -3   7   31.95    0.97
  -1   3  -8   44.03    1.19
  -1   3  -8   46.35    1.25
  -1   3  -8   42.99    1.32
  -1   3  -8   43.98    1.31
   1  -3   8   46.31    1.35
   1  -3   8   46.78    1.33
   0   3  -9    3.75    0.20
   0   3  -9    3.69    0.22
   0   3  -9    3.25    0.15
   0   3  -9    3.62    0.16
   0  -3   9    3.66    0.23
   1   3 -10    4.84    0.23
   1   3 -10    4.70    0.17
   1   3 -10    4.85    0.26
  -1  -3  10    4.69    0.28
   2   3 -11   11.44    0.45
   2   3 -11   12.00    0.42
  -2  -3  11   11.20    0.51
   3   3 -12    1.78    0.15
   3   3 -12    2.15    0.20
  -3  -3  12    1.98    0.22
  -4  -3  13    0.35    0.14
  -9   4  -1    0.30    0.12
  -9   4  -1    0.47    0.11
   9  -4   1    0.29    0.11
   9  -4   1    0.34    0.08
  -8   4  -2    2.07    0.19
  -8   4  -2    2.10    0.17
   8  -4   2    2.27    0.21
   8  -4   2    2.31    0.15
  -7   4  -3    0.37    0.10
  -7   4  -3    0.19    0.08
   7  -4   3    0.21    0.06
   7  -4   3    0.25    0.09
  -6   4  -4    2.15    0.16
  -6   4  -4    2.42    0.18
   6  -4   4    2.14    0.14
   6  -4   4    2.46    0.17
   6  -4   4    2.52    0.19
  -5   4  -5    7.40    0.31
  -5   4  -5    7.18    0.32
   5  -4   5    7.63    0.35
   5  -4   5    7.30    0.27
  -4   4  -6    0.30    0.06
  -4   4  -6    0.34    0.09
  -4   4  -6    0.25    0.08
   4  -4   6    0.47    0.10
   4  -4   6    0.30    0.06
   4  -4   6    0.43    0.09
  -3   4  -7    2.81    0.18
  -3   4  -7    2.97    0.15
  -3   4  -7    2.76    0.18
   3  -4   7    2.84    0.14
   3  -4   7    3.32    0.18
  -2   4  -8    3.70    0.20
  -2   4  -8    3.40    0.17
   2  -4   8    3.77    0.13
   2  -4   8    3.62    0.17
  -1   4  -9   26.88    0.77
  -1   4  -9   25.12    0.73
  -1   4  -9   26.24    0.83
   1  -4   9   25.16    0.84
   0   4 -10    0.58    0.10
   0   4 -10    0.90    0.15
   0   4 -10    0.71    0.08
   0  -4  10    0.63    0.12
   1   4 -11    0.20    0.05
   1   4 -11    0.20    0.08
   1   4 -11    0.19    0.11
  -1  -4  11    0.34    0.11
   2   4 -12    4.50    0.27
  -2  -4  12    3.54    0.28
   3   4 -13    1.93    0.21
  -3  -4  13    1.75    0.22
  -4  -4  14   -0.10    0.10
  -9   5  -2    0.16    0.10
  -9   5  -2    0.11    0.09
  -8   5  -3    0.21    0.09
  -8   5  -3    0.14    0.09
   8  -5   3    0.18    0.07
   8  -5   3    0.36    0.12
  -7   5  -4    1.38    0.16
  -7   5  -4    1.24    0.15
   7  -5   4    1.42    0.17
   7  -5   4    1.19    0.11
  -6   5  -5    1.72    0.15
  -6   5  -5    1.89    0.17
   6  -5   5    1.90    0.18
   6  -5   5    1.73    0.13
   6  -5   5    2.04    0.16
  -5   5  -6    3.50    0.15
  -5   5  -6    3.10    0.21
  -5   5  -6    3.32    0.20
   5  -5   6    3.67    0.18
   5  -5   6    3.40    0.23
   5  -5   6    4.19    0.21
  -4   5  -7   68.44    1.80
  -4   5  -7   69.27    1.86
  -4   5  -7   67.08    1.97
   4  -5   7   69.85    1.80
   4  -5   7   69.31    2.03
  -3   5  -8   78.45    2.26
  -3   5  -8   80.70    2.14
   3  -5   8   80.75    2.05
  -2   5  -9    1.96    0.19
  -2   5  -9    2.06    0.13
  -2   5  -9    1.88    0.16
  -1   5 -10    0.12    0.10
  -1   5 -10    0.10    0.06
  -1   5 -10    0.04    0.07
   0   5 -11   24.50    0.71
   0   5 -11   24.98    0.84
   1   5 -12    2.57    0.22
   1   5 -12    2.74    0.15
   2   5 -13    0.52    0.15
   3   5 -14    0.07    0.13
  -9   6  -3    0.72    0.14
  -9   6  -3    0.34    0.12
  -8   6  -4    3.31    0.24
  -8   6  -4    3.69    0.24
   8  -6   4    3.22    0.27
  -7   6  -5    3.45    0.23
  -7   6  -5    3.90    0.24
   7  -6   5    3.69    0.27
   7  -6   5    3.60    0.20
  -6   6  -6    7.39    0.34
  -6   6  -6    7.95    0.37
   6  -6   6    7.65    0.39
   6  -6   6    7.98    0.31
  -5   6  -7    8.83    0.31
  -5   6  -7    8.64    0.36
  -5   6  -7    9.09    0.41
   5  -6   7    9.28    0.33
  -4   6  -8    0.82    0.14
  -4   6  -8    0.70    0.09
  -4   6  -8    0.79    0.11
   4  -6   8    0.82    0.08
  -3   6  -9    1.99    0.14
  -3   6  -9    1.86    0.15
  -3   6  -9    1.87    0.19
  -2   6 -10    6.50    0.27
  -2   6 -10    6.84    0.35
  -1   6 -11    0.16    0.06
  -1   6 -11    0.19    0.11
   0   6 -12    0.53    0.15
   0   6 -12    0.49    0.08
   1   6 -13    2.69    0.16
   1   6 -13    2.80    0.26
   2   6 -14    0.33    0.15
  -8   7  -5    0.13    0.09
  -8   7  -5    0.19    0.10
  -7   7  -6   -0.01    0.08
  -7   7  -6   -0.05    0.07
  -6   7  -7    4.87    0.27
  -6   7  -7    5.42    0.31
   6  -7   7    5.24    0.24
  -5   7  -8    0.27    0.07
  -5   7  -8    0.18    0.09
  -5   7  -8    0.15    0.11
   5  -7   8    0.10    0.06
  -4   7  -9    4.08    0.27
  -4   7  -9    4.33    0.23
  -4   7  -9    4.25    0.21
  -3   7 -10    0.48    0.13
  -3   7 -10    0.46    0.09
  -2   7 -11    1.00    0.17
  -2   7 -11    0.93    0.11
  -1   7 -12    7.32    0.40
   0   7 -13    0.62    0.17
  -8   8  -6    0.57    0.15
  -7   8  -7   -0.02    0.10
  -7   8  -7   -0.15    0.07
  -6   8  -8    0.44    0.14
  -6   8  -8    0.37    0.10
  -5   8  -9    0.55    0.15
  -4   8 -10    0.37    0.14
  -4   8 -10    0.34    0.09
  -3   8 -11    2.18    0.24
  -2   8 -12    0.56    0.17
   0  10  -3   -0.11    0.10
   0  10  -3    0.03    0.13
  -1  10  -2    0.68    0.17
  -2  10  -1    1.20    0.21
  -3  10   0    0.12    0.13
  -4  10   1    3.04    0.29
   2   9  -4    4.43    0.32
   1   9  -3    0.54    0.16
   0   9  -2    4.65    0.30
   0   9  -2    4.22    0.32
  -1   9  -1    1.88    0.15
  -1   9  -1    1.60    0.20
  -2   9   0   12.68    0.43
  -2   9   0   10.95    0.55
   3  -9  -1    4.61    0.22
  -3   9   1    4.01    0.31
  -4   9   2    1.04    0.18
   5  -9  -3    0.34    0.11
  -5   9   3    0.05    0.12
   6  -9  -4    5.54    0.30
  -6   9   4    4.66    0.35
   3   8  -4    0.78    0.19
   2   8  -3    4.83    0.31
   1   8  -2    0.78    0.16
   1   8  -2    0.62    0.09
   0   8  -1    0.93    0.16
   0   8  -1    1.00    0.11
   0   8  -1    0.78    0.14
   1  -8   0    8.69    0.40
  -1   8   0    7.83    0.41
  -1   8   0    7.78    0.35
  -1   8   0    7.77    0.31
   2  -8  -1    0.01    0.06
  -2   8   1    0.03    0.05
  -2   8   1    0.08    0.09
   3  -8  -2    1.81    0.13
   3  -8  -2    1.70    0.15
  -3   8   2    1.63    0.20
   4  -8  -3    7.95    0.33
   4  -8  -3    6.85    0.29
  -4   8   3    7.39    0.41
   5  -8  -4    0.94    0.13
  -5   8   4    0.96    0.18
   6  -8  -5    7.91    0.37
  -6   8   5    6.98    0.40
  -6   8   5    7.21    0.43
   4   7  -4    0.28    0.14
   4   7  -4    0.16    0.07
   3   7  -3    0.66    0.16
   3   7  -3    0.41    0.08
   2   7  -2   10.19    0.37
   2   7  -2   10.40    0.45
  -1  -7   1    3.66    0.24
   1   7  -1    3.47    0.24
   1   7  -1    3.87    0.19
   0  -7   0    5.19    0.29
   0   7   0    4.92    0.30
   0   7   0    4.84    0.26
   0   7   0    5.14    0.23
   1  -7  -1    0.03    0.05
   1  -7  -1    0.05    0.10
  -1   7   1    0.09    0.09
  -1   7   1    0.09    0.08
  -1   7   1    0.17    0.06
   2  -7  -2   12.08    0.50
   2  -7  -2   11.93    0.42
   2  -7  -2   11.69    0.39
  -2   7   2   10.99    0.50
   3  -7  -3    0.36    0.07
   3  -7  -3    0.24    0.08
  -3   7   3    0.40    0.13
   4  -7  -4    7.63    0.33
   4  -7  -4    7.58    0.29
  -4   7   4    6.96    0.39
   5  -7  -5    1.23    0.14
   5  -7  -5    1.09    0.11
  -5   7   5    1.04    0.18
   6  -7  -6    1.66    0.17
  -6   7   6    1.46    0.21
  -6   7   6    1.30    0.20
   7  -7  -7    0.01    0.07
  -7   7   7   -0.01    0.11
  -7   7   7   -0.05    0.13
  -5  -6   4    0.14    0.09
   5   6  -4    0.06    0.11
   5   6  -4    0.16    0.08
  -4  -6   3   10.43    0.45
   4   6  -3   10.40    0.36
   4   6  -3   10.13    0.47
  -3  -6   2    1.09    0.13
  -3  -6   2    0.99    0.13
   3   6  -2    0.94    0.15
   3   6  -2    0.85    0.09
  -2  -6   1    0.79    0.12
  -2  -6   1    0.81    0.11
   2   6  -1    0.87    0.14
   2   6  -1    0.83    0.09
  -1  -6   0    4.85    0.28
   1   6   0    5.23    0.22
   1   6   0    4.52    0.25
   1   6   0    4.93    0.29
   0  -6  -1    1.12    0.15
   0  -6  -1    0.92    0.08
   0  -6  -1    1.19    0.11
   0   6   1    0.88    0.09
   0   6   1    0.88    0.14
   0   6   1    0.90    0.13
   1  -6  -2   56.50    1.65
   1  -6  -2   44.85    1.42
   1  -6  -2   53.57    1.40
  -1   6   2   53.24    1.61
  -1   6   2   53.32    1.41
  -1   6   2   54.83    1.48
   2  -6  -3    5.59    0.30
   2  -6  -3    4.86    0.21
   2  -6  -3    5.04    0.24
  -2   6   3    5.33    0.20
  -2   6   3    4.66    0.30
   3  -6  -4    4.68    0.27
   3  -6  -4    4.56    0.23
   3  -6  -4    4.23    0.19
  -3   6   4    3.65    0.27
   4  -6  -5   22.97    0.73
   4  -6  -5   22.76    0.66
  -4   6   5   22.01    0.83
   5  -6  -6   20.75    0.71
   5  -6  -6   21.44    0.63
  -5   6   6   20.87    0.76
  -5   6   6   21.69    0.82
   6  -6  -7    0.11    0.06
   6  -6  -7    0.16    0.08
  -6   6   7   -0.04    0.10
  -6   6   7   -0.03    0.12
   7  -6  -8    0.70    0.14
  -7   6   8    0.72    0.18
  -7   6   8    0.72    0.18
  -6  -5   4    0.06    0.08
   6   5  -4    0.15    0.12
  -5  -5   3    0.07    0.07
   5   5  -3    0.12    0.07
   5   5  -3    0.02    0.10
  -4  -5   2    6.73    0.32
   4   5  -2    6.96    0.35
   4   5  -2    6.95    0.25
  -3  -5   1   14.91    0.56
  -3  -5   1   14.46    0.53
   3   5  -1   14.98    0.55
   3   5  -1   14.52    0.45
  -2  -5   0    0.58    0.12
  -2  -5   0    0.76    0.09
  -2  -5   0    0.59    0.09
   2   5   0    0.68    0.12
   2   5   0    0.62    0.08
  -1  -5  -1   17.67    0.53
  -1  -5  -1   17.35    0.56
  -1  -5  -1   17.87    0.64
  -1  -5  -1   18.00    0.48
   1   5   1   16.71    0.57
   1   5   1   18.07    0.63
   1   5   1   17.16    0.53
   0  -5  -2   17.40    0.50
   0  -5  -2   17.44    0.53
   0  -5  -2   15.37    0.52
   0  -5  -2   17.85    0.63
   0   5   2   17.63    0.62
   0   5   2   16.87    0.51
   0   5   2   17.35    0.54
   1  -5  -3   33.66    0.96
   1  -5  -3   34.98    1.14
   1  -5  -3   35.27    1.00
  -1   5   3   36.64    1.00
  -1   5   3   35.87    0.96
  -1   5   3   35.51    1.13
   2  -5  -4   37.47    1.17
   2  -5  -4   34.32    0.98
   2  -5  -4   36.70    1.03
  -2   5   4   35.24    1.15
   3  -5  -5   26.52    0.79
   3  -5  -5   25.24    0.72
   3  -5  -5   25.80    0.89
  -3   5   5   24.45    0.89
   4  -5  -6    0.00    0.06
   4  -5  -6    0.03    0.05
  -4   5   6   -0.04    0.08
   5  -5  -7    1.03    0.13
   5  -5  -7    0.98    0.09
  -5   5   7    0.96    0.17
   6  -5  -8    2.64    0.20
  -6   5   8    2.47    0.24
  -6   5   8    2.42    0.24
   7  -5  -9    0.15    0.09
  -7   5   9    0.42    0.16
  -7   5   9    0.48    0.16
  -7  -4   4    0.03    0.08
   7   4  -4    0.20    0.12
  -6  -4   3    7.05    0.35
   6   4  -3    7.38    0.37
  -5  -4   2   17.50    0.63
   5   4  -2   17.95    0.51
   5   4  -2   17.89    0.65
   5   4  -2   17.16    0.65
  -4  -4   1    0.69    0.09
  -4  -4   1    0.49    0.10
   4   4  -1    0.96    0.11
   4   4  -1    0.76    0.14
   4   4  -1    0.76    0.07
  -3  -4   0    7.22    0.33
  -3  -4   0    6.91    0.26
  -3  -4   0    6.95    0.30
   3   4   0    7.06    0.25
  -2  -4  -1   14.71    0.48
  -2  -4  -1   16.06    0.58
  -2  -4  -1   16.39    0.52
   2   4   1   17.04    0.57
   2   4   1   15.79    0.48
  -1  -4  -2    6.39    0.25
  -1  -4  -2    6.47    0.26
  -1  -4  -2    7.06    0.32
  -1  -4  -2    6.81    0.22
   1   4   2    6.70    0.25
   1   4   2    6.60    0.26
   1   4   2    6.57    0.30
   0  -4  -3    0.81    0.11
   0  -4  -3    0.87    0.07
   0  -4  -3    0.96    0.08
   0  -4  -3    0.81    0.09
   0   4   3    0.93    0.12
   0   4   3    1.05    0.09
   0   4   3    0.96    0.08
   1  -4  -4    3.67    0.22
   1  -4  -4    3.14    0.15
   1  -4  -4    3.76    0.18
  -1   4   4    3.46    0.14
  -1   4   4    3.29    0.22
  -1   4   4    3.66    0.14
   2  -4  -5    6.61    0.24
   2  -4  -5    7.02    0.33
   2  -4  -5    6.91    0.28
  -2   4   5    6.70    0.34
   3  -4  -6   12.36    0.49
   3  -4  -6   11.52    0.37
   3  -4  -6   11.93    0.43
  -3   4   6   11.47    0.50
   4  -4  -7   -0.01    0.04
   4  -4  -7   -0.03    0.05
  -4   4   7    0.10    0.10
   5  -4  -8    1.03    0.09
   5  -4  -8    1.05    0.13
  -5   4   8    1.01    0.17
   6  -4  -9    2.58    0.20
  -6   4   9    2.89    0.26
   7  -4 -10    1.98    0.19
  -7   4  10    1.98    0.24
  -7  -3   3    0.17    0.09
   7   3  -3    0.00    0.07
  -6  -3   2    2.15    0.17
   6   3  -2    2.19    0.18
  -5  -3   1    3.61    0.21
  -5  -3   1    2.50    0.16
   5   3  -1    3.39    0.14
   5   3  -1    3.59    0.22
  -4  -3   0    2.65    0.15
  -4  -3   0    2.74    0.17
   4   3   0    2.83    0.18
   4   3   0    2.48    0.12
  -3  -3  -1    2.22    0.18
  -3  -3  -1    2.35    0.14
  -3  -3  -1    2.19    0.14
   3   3   1    2.09    0.14
   3   3   1    1.95    0.11
   3   3   1    2.21    0.15
  -2  -3  -2    0.17    0.08
  -2  -3  -2    0.19    0.07
  -2  -3  -2    0.43    0.07
  -2  -3  -2    0.21    0.03
   2   3   2    0.20    0.05
   2   3   2    0.21    0.07
   2   3   2    0.21    0.05
  -1  -3  -3   70.85    1.88
  -1  -3  -3   70.83    2.12
  -1  -3  -3   72.65    1.92
  -1  -3  -3   71.16    1.82
   1   3   3   70.48    2.03
   1   3   3   68.47    1.83
   0  -3  -4   17.25    0.61
   0  -3  -4   17.79    0.50
   0  -3  -4   17.14    0.54
   0  -3  -4   17.73    0.51
   0   3   4   17.23    0.60
   0   3   4   17.24    0.52
   0   3   4   17.68    0.50
   1  -3  -5   23.08    0.61
   1  -3  -5   21.97    0.62
   1  -3  -5   21.79    0.67
   1  -3  -5   22.08    0.76
  -1   3   5   21.64    0.59
  -1   3   5   22.51    0.76
  -1   3   5   23.12    0.63
  -1   3   5   22.89    0.62
  -1   3   5   22.75    0.62
   2  -3  -6   11.81    0.46
   2  -3  -6   11.58    0.35
   2  -3  -6   11.24    0.41
  -2   3   6   11.77    0.48
   3  -3  -7    2.92    0.20
   3  -3  -7    2.85    0.13
   3  -3  -7    3.09    0.18
  -3   3   7    2.60    0.22
   4  -3  -8    0.01    0.03
   4  -3  -8    0.02    0.07
   4  -3  -8    0.00    0.05
  -4   3   8   -0.20    0.06
   5  -3  -9    0.35    0.09
  -5   3   9    0.53    0.13
   6  -3 -10    0.45    0.11
  -6   3  10    0.54    0.15
   7  -3 -11    0.10    0.09
  -7   3  11    0.17    0.13
  -8  -2   3    1.35    0.18
  -7  -2   2    1.26    0.16
  -7  -2   2    1.22    0.14
   7   2  -2    0.97    0.14
  -6  -2   1    1.00    0.13
  -6  -2   1    0.69    0.10
   6   2  -1    0.54    0.10
  -5  -2   0    0.45    0.09
  -5  -2   0    0.40    0.09
   5   2   0    0.26    0.05
   5   2   0    0.39    0.08
  -4  -2  -1    1.56    0.12
  -4  -2  -1    1.56    0.12
   4   2   1    1.80    0.13
   4   2   1    1.46    0.09
   4   2   1    1.85    0.13
  -3  -2  -2    6.48    0.26
  -3  -2  -2    6.01    0.25
  -3  -2  -2    6.25    0.30
   3   2   2    6.02    0.22
   3   2   2    6.61    0.26
   3   2   2    6.30    0.26
  -2  -2  -3    3.15    0.13
  -2  -2  -3    3.19    0.19
  -2  -2  -3    3.02    0.15
  -2  -2  -3    3.01    0.17
   2   2   3    3.41    0.15
   2   2   3    3.31    0.17
   2   2   3    3.53    0.16
  -1  -2  -4    0.40    0.07
  -1  -2  -4    0.26    0.05
  -1  -2  -4    0.32    0.05
  -1  -2  -4    0.25    0.08
   1   2   4    0.25    0.05
   1   2   4    0.31    0.04
   1   2   4    0.18    0.06
   1   2   4    0.25    0.07
   0  -2  -5    4.03    0.15
   0  -2  -5    3.98    0.21
   0  -2  -5    4.14    0.16
   0  -2  -5    3.67    0.19
   0   2   5    4.12    0.14
   0   2   5    4.32    0.22
   0   2   5    3.79    0.21
   0   2   5    4.10    0.15
   1  -2  -6    0.88    0.05
   1  -2  -6    0.85    0.10
   1  -2  -6    0.91    0.07
   1  -2  -6    1.05    0.10
  -1   2   6    1.01    0.07
  -1   2   6    0.85    0.12
   2  -2  -7   11.16    0.33
   2  -2  -7   10.72    0.39
   2  -2  -7   11.43    0.44
  -2   2   7   10.44    0.45
   3  -2  -8    5.61    0.19
   3  -2  -8    5.59    0.26
   3  -2  -8    5.45    0.28
  -3   2   8    5.79    0.33
   4  -2  -9    2.47    0.18
   4  -2  -9    2.62    0.20
  -4   2   9    2.33    0.22
   5  -2 -10    0.07    0.07
  -5   2  10    0.03    0.09
   6  -2 -11    6.38    0.33
  -6   2  11    6.86    0.41
  -9  -1   3    0.09    0.11
  -8  -1   2    0.12    0.09
  -8  -1   2    0.08    0.08
   8   1  -2    0.01    0.07
  -7  -1   1    3.74    0.23
  -7  -1   1    3.81    0.23
   7   1  -1    3.75    0.24
  -6  -1   0   30.24    0.96
  -6  -1   0   31.17    0.91
   6   1   0   30.29    0.99
   6   1   0   30.82    0.82
  -5  -1  -1    3.42    0.19
  -5  -1  -1    3.27    0.19
   5   1   1    3.05    0.19
   5   1   1    3.34    0.14
  -4  -1  -2    7.04    0.28
  -4  -1  -2    6.42    0.27
   4   1   2    6.96    0.28
   4   1   2    6.85    0.24
   4   1   2    6.32    0.23
  -3  -1  -3  107.48    2.63
  -3  -1  -3  105.09    2.74
  -3  -1  -3  103.14    2.82
  -3  -1  -3  106.24    3.06
   3   1   3  103.18    2.67
   3   1   3  105.70    2.89
   3   1   3  101.61    2.89
  -2  -1  -4   64.35    1.68
  -2  -1  -4   66.12    1.78
  -2  -1  -4   64.32    1.95
  -2  -1  -4   64.10    1.75
   2   1   4   64.94    1.82
   2   1   4   65.74    1.70
   2   1   4   67.60    1.95
   2   1   4   65.45    1.85
  -1  -1  -5   20.85    0.72
  -1  -1  -5   21.94    0.63
  -1  -1  -5   21.79    0.65
  -1  -1  -5   21.87    0.60
   1   1   5   22.09    0.72
   1   1   5   21.14    0.69
   1   1   5   21.26    0.60
   1   1   5   21.80    0.63
   0  -1  -6   12.05    0.36
   0  -1  -6   11.58    0.36
   0  -1  -6   11.87    0.44
   0  -1  -6   11.55    0.40
   0   1   6   11.28    0.44
   0   1   6   12.15    0.43
   0   1   6   12.16    0.32
   0   1   6   11.97    0.35
   0   1   6   11.95    0.32
   1  -1  -7    0.91    0.07
   1  -1  -7    0.93    0.10
   1  -1  -7    0.99    0.11
   1  -1  -7    1.12    0.07
  -1   1   7    0.64    0.11
  -1   1   7    0.91    0.10
   2  -1  -8    0.13    0.04
   2  -1  -8    0.41    0.08
   2  -1  -8    0.08    0.04
   2  -1  -8    0.09    0.07
  -2   1   8    0.22    0.09
   3  -1  -9    1.49    0.14
   3  -1  -9    1.32    0.13
   3  -1  -9    1.59    0.07
  -3   1   9    1.53    0.18
   4  -1 -10    0.28    0.09
   4  -1 -10    0.42    0.09
  -4   1  10    0.44    0.13
   5  -1 -11    0.01    0.06
  -5   1  11    0.05    0.09
   6  -1 -12    0.38    0.11
  -6   1  12    0.09    0.12
  -9   0   2    0.26    0.12
  -9   0   2    0.40    0.12
  -8   0   1    0.17    0.09
  -8   0   1    0.13    0.09
   8   0  -1    0.25    0.09
  -7   0   0   18.70    0.65
  -7   0   0   18.66    0.62
   7   0   0   17.94    0.67
  -6   0  -1   24.98    0.76
  -6   0  -1   24.99    0.80
   6   0   1   24.48    0.82
   6   0   1   24.55    0.68
  -5   0  -2   18.06    0.59
  -5   0  -2   18.01    0.57
   5   0   2   18.06    0.61
   5   0   2   17.48    0.52
  -4   0  -3   19.61    0.61
  -4   0  -3   18.71    0.59
   4   0   3   18.56    0.62
   4   0   3   20.60    0.57
   4   0   3   18.33    0.55
  -3   0  -4   32.09    0.96
  -3   0  -4   32.88    1.05
  -3   0  -4   32.20    0.94
  -3   0  -4   33.71    0.87
   3   0   4   32.18    0.90
   3   0   4   34.21    0.96
   3   0   4   32.70    0.98
   3   0   4   34.41    1.06
  -2   0  -5    3.77    0.19
  -2   0  -5    4.06    0.17
  -2   0  -5    3.75    0.15
  -2   0  -5    3.52    0.20
   2   0   5    3.75    0.18
   2   0   5    3.72    0.15
   2   0   5    3.88    0.21
   2   0   5    3.64    0.17
  -1   0  -6    3.23    0.18
  -1   0  -6    3.51    0.18
  -1   0  -6    3.25    0.14
  -1   0  -6    3.32    0.15
   1   0   6    3.45    0.15
   1   0   6    3.28    0.19
   1   0   6    3.31    0.13
   1   0   6    3.37    0.18
   0   0  -7   73.12    1.94
   0   0  -7   74.33    2.02
   0   0  -7   75.88    2.04
   0   0  -7   73.31    2.23
   0   0  -7   80.10    2.07
   0   0   7   76.87    2.22
   0   0   7   76.18    2.18
   1   0  -8   14.68    0.46
   1   0  -8   14.37    0.52
   1   0  -8   14.70    0.42
   1   0  -8   15.36    0.43
   1   0  -8   14.63    0.49
  -1   0   8   14.08    0.55
  -1   0   8   15.73    0.52
   2   0  -9    0.99    0.11
   2   0  -9    1.11    0.10
   2   0  -9    1.16    0.11
   2   0  -9    0.97    0.07
  -2   0   9    0.92    0.14
   3   0 -10    0.02    0.07
   3   0 -10    0.03    0.06
  -3   0  10    0.17    0.10
   4   0 -11   13.96    0.52
   4   0 -11   15.34    0.56
  -4   0  11   13.80    0.61
   5   0 -12    5.53    0.29
  -5   0  12    5.09    0.34
   6   0 -13    0.09    0.09
  -6   0  13    0.30    0.14
  -9   1   1    0.84    0.15
  -9   1   1    1.02    0.16
  -8   1   0    0.06    0.08
  -8   1   0   -0.01    0.09
   8  -1   0    0.06    0.07
  -7   1  -1    0.11    0.08
  -7   1  -1    0.21    0.08
   7  -1   1    0.23    0.05
   7  -1   1    0.31    0.09
  -6   1  -2   -0.04    0.08
  -6   1  -2    0.10    0.06
   6  -1   2    0.15    0.07
   6  -1   2    0.15    0.05
  -5   1  -3    6.61    0.28
  -5   1  -3    6.17    0.27
   5  -1   3    6.27    0.23
   5  -1   3    6.14    0.28
  -4   1  -4   18.81    0.49
  -4   1  -4   18.52    0.60
  -4   1  -4   19.30    0.49
  -4   1  -4   17.81    0.59
   4  -1   4   18.24    0.55
   4  -1   4   18.24    0.61
   4  -1   4   19.76    0.54
  -3   1  -5    2.38    0.14
  -3   1  -5    2.82    0.17
  -3   1  -5    2.44    0.12
   3  -1   5    2.43    0.13
   3  -1   5    2.63    0.15
   3  -1   5    2.54    0.13
   3  -1   5    2.55    0.17
  -2   1  -6   32.54    0.94
  -2   1  -6   31.32    1.01
  -2   1  -6   32.92    0.88
  -2   1  -6   31.80    0.95
   2  -1   6   33.75    1.02
   2  -1   6   32.80    0.88
   2  -1   6   33.50    0.98
   2  -1   6   32.62    0.96
  -1   1  -7    1.27    0.09
  -1   1  -7    1.31    0.12
  -1   1  -7    1.20    0.11
  -1   1  -7    1.57    0.11
   1  -1   7    1.21    0.12
   1  -1   7    1.26    0.07
   1  -1   7    1.35    0.12
   0   1  -8   17.84    0.57
   0   1  -8   17.88    0.57
   0   1  -8   18.16    0.52
   0   1  -8   18.37    0.61
   0  -1   8   18.25    0.60
   0  -1   8   18.66    0.64
   1   1  -9   19.38    0.59
   1   1  -9   18.48    0.62
   1   1  -9   18.12    0.51
   1   1  -9   18.69    0.59
  -1  -1   9   17.35    0.66
  -1  -1   9   18.71    0.61
   2   1 -10    0.71    0.10
   2   1 -10    0.68    0.06
   2   1 -10    0.62    0.10
   2   1 -10    0.74    0.11
  -2  -1  10    0.80    0.09
  -2  -1  10    0.59    0.13
   3   1 -11    0.84    0.11
  -3  -1  11    0.70    0.14
   4   1 -12    1.12    0.13
  -4  -1  12    0.86    0.16
   5   1 -13    2.24    0.19
  -5  -1  13    2.54    0.26
  -9   2   0    4.15    0.27
  -9   2   0    4.02    0.27
  -8   2  -1    5.21    0.29
   8  -2   1    5.88    0.32
   8  -2   1    5.47    0.22
  -7   2  -2    3.34    0.22
  -7   2  -2    3.75    0.22
   7  -2   2    3.85    0.17
   7  -2   2    3.14    0.22
  -6   2  -3   11.00    0.42
  -6   2  -3   10.88    0.41
   6  -2   3    9.98    0.35
   6  -2   3   10.71    0.43
  -5   2  -4    0.70    0.10
  -5   2  -4    0.58    0.10
   5  -2   4    0.57    0.09
   5  -2   4    0.70    0.08
  -4   2  -5    3.76    0.20
  -4   2  -5    3.74    0.15
  -4   2  -5    3.77    0.21
   4  -2   5    3.73    0.21
   4  -2   5    3.57    0.17
  -3   2  -6    6.17    0.26
  -3   2  -6    6.10    0.26
  -3   2  -6    6.07    0.22
   3  -2   6    5.87    0.28
   3  -2   6    6.00    0.22
   3  -2   6    6.45    0.25
   3  -2   6    6.39    0.27
  -2   2  -7    2.94    0.18
  -2   2  -7    3.33    0.15
  -2   2  -7    3.07    0.17
  -2   2  -7    3.18    0.18
   2  -2   7    3.11    0.18
   2  -2   7    3.16    0.18
   2  -2   7    3.15    0.18
  -1   2  -8    1.98    0.16
  -1   2  -8    2.18    0.12
  -1   2  -8    2.13    0.14
  -1   2  -8    2.22    0.15
   1  -2   8    2.13    0.14
   1  -2   8    2.56    0.17
   0   2  -9    1.02    0.09
   0   2  -9    1.42    0.13
   0   2  -9    1.13    0.11
   0   2  -9    0.99    0.12
   0  -2   9    1.09    0.10
   0  -2   9    1.21    0.14
   1   2 -10    0.02    0.06
   1   2 -10    0.08    0.08
   1   2 -10    0.06    0.04
   1   2 -10    0.07    0.07
  -1  -2  10    0.07    0.08
   2   2 -11   25.08    0.79
   2   2 -11   27.68    0.83
  -2  -2  11   24.68    0.90
   3   2 -12   22.97    0.73
  -3  -2  12   22.32    0.85
   4   2 -13   -0.03    0.08
  -4  -2  13   -0.13    0.08
  -5  -2  14    0.88    0.19
  -9   3  -1   -0.21    0.08
  -9   3  -1    0.13    0.08
   9  -3   1    0.05    0.06
  -8   3  -2    0.04    0.07
  -8   3  -2    0.25    0.10
   8  -3   2    0.14    0.06
   8  -3   2    0.04    0.07
  -7   3  -3    2.45    0.19
  -7   3  -3    2.48    0.18
   7  -3   3    2.65    0.15
   7  -3   3    2.53    0.20
  -6   3  -4    0.50    0.10
  -6   3  -4    0.27    0.09
   6  -3   4    0.43    0.10
   6  -3   4    0.40    0.07
  -5   3  -5    1.97    0.16
  -5   3  -5    1.82    0.15
   5  -3   5    1.99    0.13
   5  -3   5    1.98    0.16
  -4   3  -6    5.85    0.22
  -4   3  -6    6.31    0.28
  -4   3  -6    5.65    0.26
   4  -3   6    5.91    0.28
   4  -3   6    5.83    0.23
  -3   3  -7    1.03    0.12
  -3   3  -7    0.77    0.11
  -3   3  -7    0.84    0.08
   3  -3   7    0.87    0.08
   3  -3   7    0.92    0.11
   3  -3   7    0.96    0.10
   3  -3   7    0.77    0.11
  -2   3  -8   11.15    0.42
  -2   3  -8   11.49    0.37
  -2   3  -8   11.22    0.41
   2  -3   8   11.89    0.33
   2  -3   8   11.58    0.43
   2  -3   8   11.50    0.41
  -1   3  -9    3.42    0.20
  -1   3  -9    3.09    0.15
  -1   3  -9    3.25    0.20
  -1   3  -9    3.34    0.16
   1  -3   9    3.18    0.21
   0   3 -10   17.97    0.57
   0   3 -10   17.60    0.60
   0   3 -10   16.86    0.51
   0  -3  10   17.37    0.64
   1   3 -11   20.11    0.66
   1   3 -11   18.41    0.54
   1   3 -11   19.52    0.62
  -1  -3  11   17.83    0.70
   2   3 -12   -0.05    0.07
   2   3 -12   -0.01    0.09
  -2  -3  12   -0.01    0.08
  -3  -3  13   -0.01    0.09
  -4  -3  14    2.86    0.28
  -9   4  -2    1.92    0.20
  -9   4  -2    2.40    0.20
  -8   4  -3    1.99    0.17
  -8   4  -3    1.45    0.16
   8  -4   3    1.82    0.19
   8  -4   3    1.98    0.14
  -7   4  -4    0.21    0.09
  -7   4  -4    0.25    0.09
   7  -4   4    0.22    0.09
   7  -4   4    0.09    0.06
  -6   4  -5    0.02    0.06
  -6   4  -5   -0.03    0.07
   6  -4   5   -0.06    0.06
   6  -4   5    0.04    0.05
  -5   4  -6   -0.02    0.07
  -5   4  -6    0.06    0.07
   5  -4   6    0.04    0.05
   5  -4   6    0.03    0.07
  -4   4  -7    5.43    0.26
  -4   4  -7    5.10    0.21
  -4   4  -7    5.01    0.26
   4  -4   7    4.88    0.21
   4  -4   7    5.24    0.26
   4  -4   7    5.04    0.28
  -3   4  -8    6.10    0.24
  -3   4  -8    6.55    0.28
  -3   4  -8    6.30    0.30
  -2   4  -9    1.69    0.12
  -2   4  -9    1.80    0.15
  -2   4  -9    2.02    0.18
   2  -4   9    1.64    0.15
  -1   4 -10    3.32    0.22
  -1   4 -10    3.42    0.17
  -1   4 -10    3.65    0.21
   1  -4  10    3.46    0.23
   0   4 -11   29.60    0.85
   0   4 -11   26.81    0.79
   0   4 -11   28.13    0.92
   0  -4  11   28.03    0.95
   1   4 -12    7.51    0.28
   1   4 -12    8.33    0.39
   1   4 -12    8.26    0.34
  -1  -4  12    7.77    0.40
   2   4 -13    2.71    0.23
  -2  -4  13    2.74    0.25
  -3  -4  14    1.55    0.22
  -9   5  -3    0.07    0.09
  -9   5  -3    0.17    0.11
  -8   5  -4    0.40    0.12
  -8   5  -4    0.58    0.13
   8  -5   4    0.37    0.12
  -7   5  -5    5.29    0.29
  -7   5  -5    4.80    0.27
   7  -5   5    5.10    0.24
   7  -5   5    4.94    0.31
  -6   5  -6    0.41    0.10
  -6   5  -6    0.30    0.10
   6  -5   6    0.49    0.08
   6  -5   6    0.46    0.11
   6  -5   6    0.41    0.09
  -5   5  -7    1.02    0.09
  -5   5  -7    1.08    0.15
  -5   5  -7    1.34    0.14
   5  -5   7    1.09    0.14
   5  -5   7    1.02    0.11
   5  -5   7    0.91    0.10
  -4   5  -8    6.03    0.25
  -4   5  -8    5.91    0.28
   4  -5   8    6.08    0.24
  -3   5  -9   11.18    0.39
  -3   5  -9   12.09    0.47
  -3   5  -9   11.06    0.41
  -2   5 -10   21.46    0.66
  -2   5 -10   21.07    0.73
  -2   5 -10   20.95    0.64
  -1   5 -11    2.32    0.17
  -1   5 -11    2.38    0.20
  -1   5 -11    2.23    0.14
   0   5 -12    0.23    0.11
   0   5 -12    0.41    0.08
   0  -5  12    0.28    0.11
   1   5 -13    1.04    0.19
   1   5 -13    1.05    0.10
  -1  -5  13    0.97    0.17
   2   5 -14    0.32    0.14
  -2  -5  14    0.46    0.16
  -9   6  -4    0.76    0.15
  -9   6  -4    1.03    0.17
  -8   6  -5    0.91    0.15
  -8   6  -5    0.87    0.15
  -7   6  -6    2.24    0.19
  -7   6  -6    2.27    0.22
   7  -6   6    2.31    0.23
   7  -6   6    2.51    0.16
  -6   6  -7    1.68    0.18
  -6   6  -7    1.88    0.16
   6  -6   7    1.67    0.19
   6  -6   7    1.72    0.14
  -5   6  -8    0.02    0.08
  -5   6  -8    0.05    0.06
  -5   6  -8    0.03    0.08
   5  -6   8    0.07    0.06
  -4   6  -9    2.89    0.22
  -4   6  -9    3.30    0.18
  -4   6  -9    3.01    0.20
  -3   6 -10   -0.05    0.07
  -3   6 -10   -0.08    0.08
  -2   6 -11    4.98    0.30
  -2   6 -11    4.57    0.22
  -1   6 -12    1.43    0.13
  -1   6 -12    1.76    0.21
   0   6 -13    0.09    0.11
   1   6 -14   -0.01    0.11
  -8   7  -6    0.06    0.09
  -8   7  -6   -0.02    0.09
  -7   7  -7   -0.11    0.08
  -7   7  -7    0.00    0.08
  -6   7  -8    2.50    0.20
  -6   7  -8    2.43    0.23
   6  -7   8    2.32    0.16
  -5   7  -9   12.66    0.55
  -5   7  -9   12.96    0.44
  -5   7  -9   12.86    0.48
  -4   7 -10    2.38    0.18
  -4   7 -10    2.29    0.16
  -4   7 -10    2.38    0.24
  -3   7 -11    0.59    0.15
  -2   7 -12    4.10    0.29
  -1   7 -13    1.63    0.22
  -7   8  -8    0.70    0.14
  -7   8  -8    0.71    0.17
  -6   8  -9    1.55    0.17
  -6   8  -9    1.66    0.22
  -5   8 -10    1.88    0.23
  -4   8 -11   -0.05    0.10
  -3   8 -12    0.00    0.11
  -1  10  -1   -0.19    0.10
  -2  10   0    0.09    0.12
  -3  10   1    0.85    0.20
   2   9  -3    2.22    0.26
   1   9  -2    4.84    0.34
   1   9  -2    4.81    0.32
   0   9  -1    4.42    0.32
  -1   9   0    3.53    0.30
  -1   9   0    3.91    0.21
  -2   9   1    7.73    0.43
   3  -9  -2    0.02    0.06
  -3   9   2    0.09    0.11
  -4   9   3    2.07    0.24
   5  -9  -4    0.73    0.13
  -5   9   4    0.71    0.18
   3   8  -3    1.15    0.21
   2   8  -2    3.00    0.25
   1   8  -1    0.45    0.09
   1   8  -1    0.39    0.13
   1   8  -1    0.37    0.12
   0   8   0    1.90    0.15
   0   8   0    2.40    0.24
   0   8   0    2.33    0.21
  -1   8   1    0.37    0.13
  -1   8   1    0.20    0.08
   2  -8  -2    0.10    0.07
  -2   8   2    0.25    0.12
   3  -8  -3    0.86    0.10
   3  -8  -3    0.93    0.12
  -3   8   3    1.03    0.17
   4  -8  -4    2.96    0.20
  -4   8   4    2.13    0.24
   5  -8  -5    1.92    0.18
  -5   8   5    1.79    0.23
   6  -8  -6    0.08    0.09
  -6   8   6    0.03    0.11
  -4  -7   3    2.10    0.21
   4   7  -3    2.46    0.25
   3   7  -2    8.11    0.40
   3   7  -2    7.82    0.32
   2   7  -1    0.07    0.06
   2   7  -1    0.28    0.11
   2   7  -1    0.15    0.10
  -1  -7   0   -0.02    0.09
   1   7   0    0.11    0.09
   1   7   0    0.14    0.10
   1   7   0    0.11    0.06
   0  -7  -1   14.19    0.57
   0   7   1   13.56    0.50
   0   7   1   14.12    0.58
   0   7   1   13.69    0.46
   1  -7  -2    0.15    0.07
   1  -7  -2    0.30    0.07
  -1   7   2    0.23    0.07
  -1   7   2    0.20    0.11
   2  -7  -3    9.52    0.36
   2  -7  -3    9.32    0.34
  -2   7   3    9.26    0.45
   3  -7  -4    2.77    0.16
   3  -7  -4    2.35    0.17
  -3   7   4    2.25    0.23
   4  -7  -5    1.36    0.15
   4  -7  -5    1.30    0.12
  -4   7   5    1.09    0.18
   5  -7  -6    1.09    0.14
  -5   7   6    0.72    0.17
   6  -7  -7    0.37    0.11
  -6   7   7    0.38    0.15
  -5  -6   3    6.75    0.36
   5   6  -3    6.92    0.39
   5   6  -3    6.64    0.27
  -4  -6   2    9.22    0.41
   4   6  -2    9.06    0.44
   4   6  -2    9.14    0.34
  -3  -6   1    1.68    0.17
  -3  -6   1    1.65    0.16
   3   6  -1    1.61    0.19
   3   6  -1    1.49    0.12
  -2  -6   0    0.04    0.06
  -2  -6   0   -0.08    0.07
   2   6   0   -0.12    0.08
   2   6   0   -0.01    0.07
   2   6   0   -0.01    0.04
  -1  -6  -1    0.66    0.10
  -1  -6  -1    0.49    0.12
   1   6   1    0.47    0.12
   1   6   1    0.55    0.11
   1   6   1    0.58    0.08
   0  -6  -2    6.88    0.30
   0  -6  -2    8.23    0.39
   0  -6  -2    8.46    0.29
   0   6   2    8.56    0.31
   0   6   2    8.82    0.34
   0   6   2    8.57    0.40
   1  -6  -3   21.91    0.77
   1  -6  -3   21.39    0.65
   1  -6  -3   20.50    0.62
  -1   6   3   20.98    0.62
  -1   6   3   20.26    0.76
   2  -6  -4    6.02    0.24
   2  -6  -4    5.82    0.27
  -2   6   4    5.50    0.33
   3  -6  -5    9.08    0.37
   3  -6  -5    9.25    0.33
  -3   6   5    9.12    0.45
   4  -6  -6    0.06    0.07
   4  -6  -6    0.09    0.06
  -4   6   6    0.10    0.10
   5  -6  -7    1.50    0.16
   5  -6  -7    1.57    0.12
  -5   6   7    1.76    0.21
   6  -6  -8    4.22    0.20
   6  -6  -8    4.55    0.28
  -6   6   8    3.65    0.31
  -6  -5   3    0.78    0.15
   6   5  -3    0.74    0.17
  -5  -5   2    2.27    0.19
   5   5  -2    2.11    0.19
   5   5  -2    2.62    0.24
   5   5  -2    2.21    0.14
  -4  -5   1    2.76    0.19
   4   5  -1    2.51    0.19
   4   5  -1    2.41    0.21
   4   5  -1    2.64    0.15
  -3  -5   0    4.43    0.27
  -3  -5   0    4.74    0.24
   3   5   0    4.64    0.26
   3   5   0    4.80    0.27
   3   5   0    4.53    0.20
  -2  -5  -1   23.78    0.69
  -2  -5  -1   23.37    0.74
  -2  -5  -1   23.71    0.82
   2   5   1   23.37    0.80
   2   5   1   23.00    0.68
   2   5   1   23.18    0.76
  -1  -5  -2   21.77    0.59
  -1  -5  -2   21.09    0.66
  -1  -5  -2   21.80    0.76
   1   5   2   20.73    0.67
   1   5   2   20.66    0.73
   1   5   2   20.92    0.63
   0  -5  -3    0.20    0.06
   0  -5  -3    0.26    0.06
   0  -5  -3    0.04    0.07
   0  -5  -3    0.06    0.09
   0   5   3    0.13    0.06
   0   5   3    0.14    0.07
   0   5   3   -0.03    0.08
   1  -5  -4   38.32    1.06
   1  -5  -4   40.42    1.27
   1  -5  -4   40.22    1.12
  -1   5   4   40.13    1.25
  -1   5   4   36.58    1.04
   2  -5  -5    6.12    0.24
   2  -5  -5    6.17    0.33
   2  -5  -5    5.89    0.27
  -2   5   5    6.34    0.34
   3  -5  -6   -0.02    0.06
   3  -5  -6    0.05    0.05
  -3   5   6   -0.01    0.09
   4  -5  -7    0.66    0.08
   4  -5  -7    0.80    0.12
  -4   5   7    0.80    0.16
   5  -5  -8    0.22    0.06
   5  -5  -8    0.16    0.08
  -5   5   8    0.24    0.12
   6  -5  -9    0.40    0.11
  -6   5   9    0.45    0.15
  -7  -4   3    0.32    0.11
   7   4  -3    0.37    0.15
  -6  -4   2    5.70    0.31
   6   4  -2    5.87    0.32
   6   4  -2    5.76    0.34
  -5  -4   1    8.94    0.40
   5   4  -1    9.23    0.32
   5   4  -1    9.53    0.41
  -4  -4   0   -0.10    0.06
  -4  -4   0    0.07    0.06
   4   4   0   -0.04    0.04
   4   4   0    0.01    0.04
   4   4   0   -0.09    0.06
  -3  -4  -1    8.30    0.34
  -3  -4  -1    9.01    0.39
   3   4   1    8.16    0.30
   3   4   1    8.45    0.35
   3   4   1    8.45    0.36
  -2  -4  -2    0.09    0.07
  -2  -4  -2    0.38    0.07
  -2  -4  -2    0.26    0.10
   2   4   2    0.29    0.06
   2   4   2    0.18    0.05
   2   4   2    0.42    0.10
  -1  -4  -3    5.23    0.29
  -1  -4  -3    5.88    0.25
  -1  -4  -3    5.93    0.21
  -1  -4  -3    5.73    0.23
   1   4   3    5.63    0.23
   1   4   3    6.22    0.30
   0  -4  -4   13.67    0.42
   0  -4  -4   13.65    0.53
   0  -4  -4   13.41    0.45
   0  -4  -4   13.42    0.42
   0   4   4   13.58    0.43
   0   4   4   13.17    0.52
   0   4   4   14.14    0.43
   0   4   4   13.17    0.42
   1  -4  -5    1.37    0.13
   1  -4  -5    1.39    0.10
   1  -4  -5    1.41    0.15
  -1   4   5    1.52    0.08
  -1   4   5    1.25    0.16
  -1   4   5    1.37    0.08
   2  -4  -6    2.66    0.20
   2  -4  -6    2.43    0.17
   2  -4  -6    2.82    0.14
  -2   4   6    2.53    0.22
   3  -4  -7   22.07    0.79
   3  -4  -7   21.35    0.62
   3  -4  -7   21.50    0.70
  -3   4   7   21.37    0.79
   4  -4  -8   10.98    0.44
   4  -4  -8   12.01    0.37
  -4   4   8   11.14    0.52
   5  -4  -9    3.27    0.15
   5  -4  -9    2.86    0.21
  -5   4   9    2.62    0.26
   6  -4 -10    0.65    0.13
  -6   4  10    0.70    0.17
  -7  -3   2    2.06    0.21
   7   3  -2    2.30    0.20
  -6  -3   1    0.08    0.06
  -6  -3   1    0.17    0.08
   6   3  -1    0.05    0.06
   6   3  -1    0.09    0.05
  -5  -3   0    1.86    0.15
  -5  -3   0    1.92    0.14
   5   3   0    1.78    0.11
   5   3   0    1.91    0.16
  -4  -3  -1    7.10    0.30
  -4  -3  -1    6.49    0.28
   4   3   1    7.64    0.31
   4   3   1    7.00    0.31
   4   3   1    6.82    0.25
  -3  -3  -2   18.34    0.59
  -3  -3  -2   18.37    0.67
  -3  -3  -2   17.54    0.57
   3   3   2   18.79    0.62
   3   3   2   18.83    0.61
   3   3   2   18.63    0.55
  -2  -3  -3    8.95    0.33
  -2  -3  -3    8.96    0.27
  -2  -3  -3    8.58    0.38
  -2  -3  -3    9.14    0.32
   2   3   3    8.81    0.36
   2   3   3    9.00    0.33
   2   3   3    9.05    0.31
  -1  -3  -4   15.80    0.48
  -1  -3  -4   15.72    0.51
  -1  -3  -4   15.93    0.46
  -1  -3  -4   15.82    0.58
   1   3   4   15.28    0.47
   1   3   4   16.19    0.49
   1   3   4   14.89    0.55
   0  -3  -5    3.26    0.19
   0  -3  -5    3.39    0.14
   0  -3  -5    3.69    0.22
   0  -3  -5    3.34    0.16
   0   3   5    3.56    0.15
   0   3   5    3.66    0.14
   0   3   5    3.56    0.22
   1  -3  -6   12.01    0.42
   1  -3  -6   11.47    0.37
   1  -3  -6   12.30    0.34
   1  -3  -6   11.57    0.47
  -1   3   6   11.36    0.47
   2  -3  -7    2.37    0.18
   2  -3  -7    2.44    0.17
   2  -3  -7    2.02    0.12
  -2   3   7    1.82    0.19
   3  -3  -8    5.77    0.31
   3  -3  -8    5.63    0.27
   3  -3  -8    5.57    0.21
  -3   3   8    5.62    0.33
   4  -3  -9    2.39    0.18
   4  -3  -9    2.25    0.12
  -4   3   9    2.43    0.24
   5  -3 -10    0.47    0.11
  -5   3  10    0.64    0.16
   6  -3 -11    3.08    0.23
  -6   3  11    2.87    0.28
  -8  -2   2    0.65    0.14
  -7  -2   1    8.25    0.35
  -7  -2   1    8.20    0.39
   7   2  -1    8.63    0.41
  -6  -2   0    0.26    0.08
  -6  -2   0    0.39    0.09
   6   2   0    0.36    0.06
   6   2   0    0.38    0.09
  -5  -2  -1    0.10    0.08
  -5  -2  -1    0.09    0.05
   5   2   1    0.00    0.04
   5   2   1   -0.05    0.04
  -4  -2  -2    0.19    0.08
  -4  -2  -2    0.04    0.04
   4   2   2    0.09    0.06
   4   2   2    0.04    0.04
   4   2   2    0.02    0.04
  -3  -2  -3    0.66    0.11
  -3  -2  -3    0.73    0.10
  -3  -2  -3    0.83    0.09
   3   2   3    0.74    0.09
   3   2   3    0.57    0.07
   3   2   3    0.74    0.08
  -2  -2  -4   13.22    0.42
  -2  -2  -4   13.13    0.38
  -2  -2  -4   13.17    0.45
  -2  -2  -4   12.88    0.50
   2   2   4   12.92    0.43
   2   2   4   12.52    0.40
   2   2   4   12.98    0.46
  -1  -2  -5    2.89    0.13
  -1  -2  -5    2.88    0.19
  -1  -2  -5    2.80    0.14
  -1  -2  -5    2.75    0.17
   1   2   5    2.99    0.19
   1   2   5    2.85    0.13
   1   2   5    2.91    0.14
   0  -2  -6    5.34    0.18
   0  -2  -6    5.01    0.26
   0  -2  -6    4.83    0.23
   0  -2  -6    5.09    0.20
   0   2   6    5.29    0.27
   0   2   6    5.22    0.17
   0   2   6    5.03    0.17
   1  -2  -7   10.48    0.33
   1  -2  -7   10.33    0.43
   1  -2  -7   10.43    0.39
   1  -2  -7   10.89    0.31
  -1   2   7   10.69    0.44
   2  -2  -8    3.35    0.22
   2  -2  -8    3.66    0.15
   2  -2  -8    3.62    0.20
  -2   2   8    3.60    0.25
   3  -2  -9    3.34    0.22
   3  -2  -9    2.99    0.20
   3  -2  -9    3.03    0.13
  -3   2   9    3.02    0.25
   4  -2 -10   13.24    0.50
  -4   2  10   13.30    0.59
   5  -2 -11    0.38    0.10
  -5   2  11    0.27    0.12
   6  -2 -12    1.89    0.19
  -6   2  12    1.92    0.25
  -8  -1   1    0.02    0.08
  -8  -1   1    0.00    0.07
   8   1  -1    0.01    0.07
  -7  -1   0    3.11    0.21
  -7  -1   0    3.24    0.21
   7   1   0    2.92    0.22
  -6  -1  -1   51.64    1.51
  -6  -1  -1   51.00    1.44
   6   1   1   51.95    1.37
   6   1   1   51.93    1.56
  -5  -1  -2    4.81    0.24
  -5  -1  -2    4.62    0.24
   5   1   2    4.87    0.25
   5   1   2    4.92    0.20
  -4  -1  -3    0.86    0.11
  -4  -1  -3    1.15    0.11
   4   1   3    0.87    0.09
   4   1   3    0.90    0.08
   4   1   3    0.94    0.10
  -3  -1  -4    9.70    0.35
  -3  -1  -4    9.45    0.36
  -3  -1  -4    9.73    0.41
  -3  -1  -4   10.20    0.29
   3   1   4    9.55    0.35
   3   1   4   10.38    0.36
   3   1   4    9.46    0.32
  -2  -1  -5   10.61    0.36
  -2  -1  -5   10.71    0.33
  -2  -1  -5   10.47    0.42
  -2  -1  -5   10.49    0.38
   2   1   5   11.19    0.39
   2   1   5   10.12    0.34
  -1  -1  -6   32.85    0.90
  -1  -1  -6   32.79    0.96
  -1  -1  -6   33.61    0.94
  -1  -1  -6   33.01    1.06
   1   1   6   34.55    0.95
   1   1   6   33.05    0.89
   1   1   6   32.84    1.02
   0  -1  -7   28.16    0.85
   0  -1  -7   28.20    0.79
   0  -1  -7   29.41    0.81
   0  -1  -7   28.81    0.93
   0   1   7   28.53    0.92
   1  -1  -8    4.95    0.18
   1  -1  -8    4.79    0.26
   1  -1  -8    4.60    0.18
   1  -1  -8    4.71    0.24
  -1   1   8    4.89    0.28
   2  -1  -9   20.96    0.68
   2  -1  -9   21.75    0.75
   2  -1  -9   21.53    0.60
  -2   1   9   21.26    0.77
   3  -1 -10    0.58    0.06
   3  -1 -10    0.47    0.11
   3  -1 -10    0.60    0.10
  -3   1  10    0.53    0.13
   4  -1 -11    0.29    0.09
  -4   1  11    0.30    0.12
   5  -1 -12    0.16    0.09
  -5   1  12    0.12    0.12
  -6   1  13    0.05    0.12
  -9   0   1    3.83    0.27
  -9   0   1    4.25    0.28
  -8   0   0    4.99    0.29
  -8   0   0    5.47    0.30
   8   0   0    4.69    0.29
  -7   0  -1    0.12    0.09
  -7   0  -1    0.33    0.10
   7   0   1    0.13    0.08
   7   0   1    0.22    0.06
  -6   0  -2    3.40    0.21
  -6   0  -2    3.31    0.21
   6   0   2    3.26    0.16
   6   0   2    3.38    0.21
  -5   0  -3   10.42    0.40
  -5   0  -3   10.44    0.39
   5   0   3   10.50    0.35
   5   0   3   10.80    0.41
  -4   0  -4    5.96    0.27
  -4   0  -4    6.14    0.28
   4   0   4    6.28    0.24
   4   0   4    7.13    0.24
   4   0   4    6.56    0.28
  -3   0  -5    4.13    0.17
  -3   0  -5    5.12    0.22
  -3   0  -5    4.97    0.25
  -3   0  -5    5.04    0.24
   3   0   5    5.24    0.23
   3   0   5    4.89    0.20
   3   0   5    5.20    0.22
  -2   0  -6    4.43    0.22
  -2   0  -6    4.19    0.19
  -2   0  -6    3.95    0.17
  -2   0  -6    4.32    0.23
   2   0   6    4.43    0.22
   2   0   6    4.25    0.17
  -1   0  -7    4.19    0.17
  -1   0  -7    4.27    0.22
  -1   0  -7    3.95    0.18
  -1   0  -7    4.02    0.22
   1   0   7    4.28    0.22
   1   0   7    4.05    0.15
   1   0   7    4.03    0.17
   1   0   7    3.92    0.22
   0   0  -8    1.54    0.14
   0   0  -8    1.38    0.10
   0   0  -8    1.41    0.13
   0   0  -8    1.35    0.10
   0   0   8    1.42    0.15
   0   0   8    1.39    0.13
   1   0  -9    8.78    0.37
   1   0  -9    9.13    0.31
   1   0  -9    8.56    0.28
   1   0  -9    9.34    0.36
  -1   0   9    8.26    0.39
   2   0 -10   10.89    0.43
   2   0 -10   11.65    0.34
   2   0 -10   11.54    0.45
  -2   0  10   11.09    0.49
   3   0 -11    3.60    0.23
   3   0 -11    3.80    0.22
  -3   0  11    3.72    0.28
   4   0 -12    0.48    0.11
  -4   0  12    0.70    0.15
   5   0 -13    0.89    0.14
  -5   0  13    1.33    0.20
  -9   1   0    2.40    0.23
  -9   1   0    2.96    0.24
  -8   1  -1    7.77    0.37
  -8   1  -1    7.29    0.35
   8  -1   1    8.16    0.39
   8  -1   1    7.54    0.29
  -7   1  -2    2.96    0.20
  -7   1  -2    3.02    0.22
   7  -1   2    2.80    0.21
   7  -1   2    2.87    0.15
  -6   1  -3    3.64    0.23
  -6   1  -3    3.40    0.20
   6  -1   3    3.64    0.22
   6  -1   3    3.54    0.17
  -5   1  -4    6.62    0.30
  -5   1  -4    6.91    0.30
   5  -1   4    7.13    0.31
   5  -1   4    6.64    0.26
  -4   1  -5   15.94    0.54
  -4   1  -5   16.54    0.55
  -4   1  -5   16.47    0.46
   4  -1   5   15.76    0.55
   4  -1   5   16.81    0.50
   4  -1   5   16.39    0.50
  -3   1  -6   65.00    1.97
  -3   1  -6   65.24    1.83
  -3   1  -6   65.46    1.71
  -3   1  -6   65.83    1.79
   3  -1   6   68.05    1.88
   3  -1   6   64.57    1.72
   3  -1   6   67.34    1.87
  -2   1  -7   16.55    0.59
  -2   1  -7   16.38    0.50
  -2   1  -7   17.58    0.56
  -2   1  -7   17.12    0.55
   2  -1   7   16.97    0.49
   2  -1   7   17.42    0.58
   2  -1   7   17.25    0.59
  -1   1  -8    0.07    0.07
  -1   1  -8    0.20    0.05
  -1   1  -8    0.06    0.07
  -1   1  -8    0.20    0.06
   1  -1   8    0.19    0.07
   1  -1   8    0.15    0.03
   1  -1   8    0.22    0.08
   0   1  -9    8.47    0.31
   0   1  -9    8.33    0.34
   0   1  -9    7.77    0.27
   0   1  -9    8.20    0.33
   0  -1   9    7.58    0.36
   0  -1   9    8.22    0.33
   1   1 -10    1.33    0.13
   1   1 -10    1.42    0.10
   1   1 -10    1.62    0.13
   1   1 -10    1.56    0.14
  -1  -1  10    1.41    0.17
  -1  -1  10    1.58    0.13
   2   1 -11    4.32    0.24
   2   1 -11    4.77    0.18
  -2  -1  11    4.19    0.29
   3   1 -12   14.25    0.51
  -3  -1  12   12.57    0.58
   4   1 -13    0.15    0.10
  -4  -1  13    0.39    0.14
   5   1 -14    0.07    0.09
  -5  -1  14    0.00    0.13
  -9   2  -1    0.89    0.15
  -9   2  -1    0.93    0.16
  -8   2  -2    8.15    0.37
  -8   2  -2    7.67    0.37
   8  -2   2    7.81    0.40
   8  -2   2    8.46    0.31
  -7   2  -3    6.81    0.32
  -7   2  -3    6.43    0.31
   7  -2   3    6.45    0.26
   7  -2   3    6.21    0.33
  -6   2  -4    0.34    0.10
  -6   2  -4    0.30    0.08
   6  -2   4    0.31    0.09
   6  -2   4    0.36    0.07
  -5   2  -5   18.88    0.60
  -5   2  -5   17.74    0.60
   5  -2   5   17.72    0.62
   5  -2   5   16.99    0.54
  -4   2  -6   15.21    0.50
  -4   2  -6   14.12    0.50
   4  -2   6   13.34    0.44
   4  -2   6   14.05    0.51
   4  -2   6   14.41    0.45
  -3   2  -7    3.72    0.20
  -3   2  -7    3.74    0.22
  -3   2  -7    3.93    0.17
   3  -2   7    4.17    0.22
   3  -2   7    3.72    0.19
   3  -2   7    3.52    0.16
  -2   2  -8    3.21    0.20
  -2   2  -8    3.22    0.18
  -2   2  -8    3.09    0.18
  -2   2  -8    2.83    0.15
   2  -2   8    3.28    0.13
   2  -2   8    3.36    0.19
   2  -2   8    2.94    0.19
   2  -2   8    3.10    0.18
  -1   2  -9   24.74    0.78
  -1   2  -9   24.64    0.80
  -1   2  -9   24.08    0.71
  -1   2  -9   25.90    0.77
   1  -2   9   25.59    0.80
   1  -2   9   25.40    0.83
   0   2 -10    5.24    0.26
   0   2 -10    5.65    0.25
   0   2 -10    5.12    0.21
   0   2 -10    5.54    0.26
   0  -2  10    4.96    0.29
   1   2 -11   10.41    0.34
   1   2 -11   10.82    0.41
   1   2 -11   10.90    0.41
  -1  -2  11   10.26    0.47
   2   2 -12    8.85    0.29
   2   2 -12    9.07    0.38
   2   2 -12    9.34    0.39
  -2  -2  12    8.42    0.44
   3   2 -13    7.22    0.34
  -3  -2  13    7.05    0.41
   4   2 -14   11.62    0.47
  -4  -2  14   10.54    0.55
  -9   3  -2    1.15    0.16
  -9   3  -2    1.39    0.18
  -8   3  -3    0.12    0.09
  -8   3  -3    0.24    0.10
   8  -3   3    0.08    0.09
   8  -3   3    0.07    0.06
  -7   3  -4    2.86    0.21
  -7   3  -4    2.68    0.20
   7  -3   4    2.99    0.17
   7  -3   4    2.76    0.22
  -6   3  -5    2.20    0.18
  -6   3  -5    2.22    0.17
   6  -3   5    1.81    0.13
   6  -3   5    1.97    0.18
  -5   3  -6    5.44    0.27
  -5   3  -6    5.78    0.28
   5  -3   6    5.70    0.30
   5  -3   6    5.97    0.24
  -4   3  -7    9.58    0.38
  -4   3  -7    9.84    0.39
  -4   3  -7   10.59    0.34
   4  -3   7    9.52    0.40
   4  -3   7    9.89    0.34
  -3   3  -8    5.04    0.21
  -3   3  -8    4.92    0.25
  -3   3  -8    5.12    0.26
   3  -3   8    4.61    0.25
   3  -3   8    5.59    0.25
   3  -3   8    5.17    0.20
   3  -3   8    5.12    0.26
  -2   3  -9    0.81    0.12
  -2   3  -9    0.67    0.08
  -2   3  -9    0.80    0.12
   2  -3   9    0.46    0.10
  -1   3 -10   10.79    0.40
  -1   3 -10   10.22    0.41
  -1   3 -10    9.89    0.34
   1  -3  10   10.20    0.43
   0   3 -11    3.45    0.17
   0   3 -11    3.41    0.22
   0   3 -11    3.68    0.23
   0  -3  11    3.73    0.25
   1   3 -12    0.10    0.09
   1   3 -12    0.17    0.09
   1   3 -12    0.13    0.06
  -1  -3  12    0.00    0.09
   2   3 -13   23.56    0.78
   2   3 -13   22.16    0.73
  -2  -3  13   21.59    0.85
  -3  -3  14    3.73    0.31
  -9   4  -3    4.57    0.29
  -9   4  -3    4.45    0.29
  -8   4  -4    4.91    0.29
  -8   4  -4    5.28    0.30
   8  -4   4    4.63    0.31
   8  -4   4    5.36    0.25
  -7   4  -5    0.38    0.11
  -7   4  -5    0.38    0.11
   7  -4   5    0.48    0.12
   7  -4   5    0.44    0.08
  -6   4  -6    0.45    0.11
  -6   4  -6    0.46    0.11
   6  -4   6    0.47    0.08
   6  -4   6    0.30    0.10
  -5   4  -7    1.28    0.14
  -5   4  -7    0.87    0.13
   5  -4   7    0.94    0.13
   5  -4   7    1.23    0.11
  -4   4  -8   -0.05    0.05
  -4   4  -8    0.09    0.07
  -4   4  -8   -0.06    0.07
   4  -4   8   -0.08    0.04
   4  -4   8   -0.16    0.06
  -3   4  -9    3.14    0.17
  -3   4  -9    3.10    0.21
  -3   4  -9    3.08    0.20
  -2   4 -10    0.19    0.07
  -2   4 -10    0.20    0.09
  -2   4 -10    0.35    0.10
   2  -4  10    0.15    0.08
  -1   4 -11    0.36    0.07
  -1   4 -11    0.31    0.10
  -1   4 -11    0.46    0.11
   1  -4  11    0.55    0.12
   0   4 -12    0.02    0.08
   0   4 -12   -0.09    0.07
   0   4 -12   -0.05    0.05
   0  -4  12    0.02    0.08
   1   4 -13    3.26    0.24
   1   4 -13    2.52    0.21
   1   4 -13    2.74    0.16
  -1  -4  13    2.51    0.24
   2   4 -14    2.27    0.24
  -2  -4  14    1.96    0.24
  -9   5  -4    0.76    0.15
  -9   5  -4    0.62    0.14
  -8   5  -5    0.40    0.12
  -8   5  -5    0.46    0.12
   8  -5   5    0.28    0.12
  -7   5  -6    0.09    0.09
  -7   5  -6    0.04    0.08
   7  -5   6    0.12    0.06
   7  -5   6   -0.07    0.07
  -6   5  -7    1.17    0.15
  -6   5  -7    1.34    0.15
   6  -5   7    1.33    0.12
   6  -5   7    1.28    0.13
   6  -5   7    1.05    0.16
  -5   5  -8    1.68    0.12
  -5   5  -8    1.43    0.15
   5  -5   8    1.41    0.12
   5  -5   8    1.42    0.17
  -4   5  -9    0.22    0.09
  -4   5  -9    0.12    0.08
  -4   5  -9    0.41    0.08
   4  -5   9    0.16    0.05
  -3   5 -10    2.12    0.20
  -3   5 -10    1.97    0.16
  -3   5 -10    2.07    0.14
  -2   5 -11    1.87    0.20
  -2   5 -11    1.60    0.15
  -2   5 -11    1.68    0.13
  -1   5 -12    2.72    0.20
  -1   5 -12    2.44    0.16
  -1   5 -12    2.40    0.21
   0   5 -13    2.12    0.22
   0   5 -13    2.38    0.16
   0  -5  13    2.27    0.22
   1   5 -14    0.26    0.13
  -1  -5  14    0.04    0.11
  -8   6  -6   -0.04    0.08
  -8   6  -6   -0.06    0.09
  -7   6  -7    0.98    0.16
  -7   6  -7    1.00    0.15
   7  -6   7    0.95    0.17
  -6   6  -8   -0.10    0.07
  -6   6  -8    0.08    0.08
   6  -6   8    0.00    0.06
  -5   6  -9    4.82    0.29
  -5   6  -9    4.97    0.27
  -5   6  -9    4.77    0.22
  -4   6 -10    1.96    0.15
  -4   6 -10    2.06    0.17
  -4   6 -10    2.18    0.22
  -3   6 -11    0.20    0.09
  -3   6 -11    0.10    0.10
  -3   6 -11    0.12    0.07
  -2   6 -12    0.59    0.15
  -1   6 -13    3.82    0.28
   0   6 -14    0.92    0.18
  -7   7  -8    1.23    0.19
  -7   7  -8    1.04    0.15
  -6   7  -9    1.47    0.16
  -6   7  -9    1.81    0.21
  -5   7 -10   11.40    0.44
  -5   7 -10   10.79    0.50
  -4   7 -11    5.70    0.34
  -3   7 -12    0.94    0.18
  -2   7 -13    2.86    0.27
   1   9  -1    0.08    0.11
   0   9   0    3.95    0.32
  -1   9   1    2.22    0.24
  -1   9   1    1.61    0.15
  -2   9   2    0.55    0.16
  -3   9   3    0.12    0.13
  -4   9   4    0.18    0.15
   3   8  -2    1.28    0.21
   3   8  -2    1.38    0.20
   2   8  -1    0.30    0.13
   2   8  -1    0.07    0.12
   1   8   0   -0.16    0.09
   1   8   0    0.02    0.10
   0   8   1    0.13    0.11
   0   8   1    0.03    0.07
  -1   8   2    9.34    0.48
  -1   8   2    9.79    0.36
   2  -8  -3    0.30    0.08
  -2   8   3    0.32    0.14
   3  -8  -4    2.61    0.19
   3  -8  -4    2.40    0.16
  -3   8   4    3.04    0.27
   4  -8  -5    5.01    0.28
  -4   8   5    4.98    0.36
   5  -8  -6    0.88    0.15
  -5   8   6    0.89    0.19
  -4  -7   2    1.64    0.19
   4   7  -2    1.88    0.23
  -3  -7   1    8.98    0.40
   3   7  -1    8.19    0.43
   3   7  -1    8.02    0.41
   2   7   0    0.38    0.08
   2   7   0    0.34    0.12
   2   7   0    0.38    0.13
   1   7   1    4.59    0.23
   1   7   1    4.74    0.31
   1   7   1    4.89    0.27
   0   7   2   13.69    0.59
   0   7   2   14.41    0.48
   1  -7  -3    7.82    0.30
   1  -7  -3    8.48    0.34
  -1   7   3    7.67    0.41
  -1   7   3    7.91    0.30
   2  -7  -4    2.51    0.16
   2  -7  -4    2.41    0.18
  -2   7   4    2.46    0.24
   3  -7  -5    2.84    0.20
   3  -7  -5    2.75    0.17
  -3   7   5    3.04    0.26
   4  -7  -6    0.12    0.09
  -4   7   6    0.04    0.10
   5  -7  -7    0.11    0.08
  -5   7   7    0.07    0.10
  -5  -6   2    5.18    0.31
   5   6  -2    5.23    0.34
  -4  -6   1    1.19    0.16
   4   6  -1    1.00    0.14
   4   6  -1    0.98    0.11
   4   6  -1    0.86    0.15
   4   6  -1    1.11    0.18
  -3  -6   0    1.25    0.14
   3   6   0    1.59    0.18
   3   6   0    1.29    0.12
   3   6   0    1.50    0.17
  -2  -6  -1    0.08    0.06
   2   6   1    0.01    0.05
   2   6   1    0.15    0.10
   2   6   1   -0.01    0.08
  -1  -6  -2    0.54    0.10
  -1  -6  -2    0.67    0.10
   1   6   2    0.41    0.12
   1   6   2    0.59    0.12
   1   6   2    0.45    0.08
   0  -6  -3    1.92    0.15
   0  -6  -3    2.09    0.13
   0   6   3    1.98    0.14
   0   6   3    2.14    0.20
   1  -6  -4    2.12    0.17
   1  -6  -4    2.47    0.14
  -1   6   4    2.25    0.21
   2  -6  -5    4.06    0.20
   2  -6  -5    4.12    0.23
  -2   6   5    4.10    0.29
   3  -6  -6    2.33    0.18
   3  -6  -6    2.16    0.14
  -3   6   6    2.15    0.22
   4  -6  -7    0.24    0.07
   4  -6  -7    0.25    0.10
  -4   6   7    0.16    0.11
   5  -6  -8    3.04    0.22
  -5   6   8    3.16    0.29
   6  -6  -9    0.91    0.15
  -6   6   9    0.95    0.20
  -6  -5   2    0.09    0.09
   6   5  -2    0.09    0.06
   6   5  -2    0.19    0.13
  -5  -5   1   16.59    0.65
   5   5  -1   18.39    0.69
   5   5  -1   17.78    0.68
   5   5  -1   18.43    0.56
  -4  -5   0    0.66    0.12
   4   5   0    0.43    0.11
   4   5   0    0.56    0.13
   4   5   0    0.52    0.08
   4   5   0    0.54    0.10
  -3  -5  -1    0.99    0.12
   3   5   1    0.90    0.13
   3   5   1    0.67    0.09
   3   5   1    0.71    0.11
   3   5   1    1.11    0.15
  -2  -5  -2   21.59    0.70
  -2  -5  -2   22.76    0.80
   2   5   2   22.55    0.78
   2   5   2   21.74    0.67
   2   5   2   21.88    0.72
   2   5   2   22.71    0.73
  -1  -5  -3    4.59    0.21
  -1  -5  -3    4.75    0.29
  -1  -5  -3    4.72    0.24
  -1  -5  -3    4.79    0.19
   1   5   3    4.52    0.21
   1   5   3    4.75    0.23
   1   5   3    4.88    0.29
   0  -5  -4    9.09    0.42
   0  -5  -4    8.66    0.31
   0  -5  -4    8.65    0.31
   0  -5  -4    9.17    0.36
   0   5   4    8.71    0.41
   0   5   4    8.99    0.32
   1  -5  -5    0.07    0.08
   1  -5  -5    0.04    0.10
   1  -5  -5    0.09    0.06
  -1   5   5   -0.01    0.09
   2  -5  -6    0.11    0.07
   2  -5  -6    0.20    0.06
  -2   5   6    0.22    0.11
   3  -5  -7    0.50    0.10
   3  -5  -7    0.54    0.08
  -3   5   7    0.41    0.13
   4  -5  -8    3.81    0.19
   4  -5  -8    3.83    0.24
  -4   5   8    3.62    0.29
   5  -5  -9    0.04    0.05
   5  -5  -9    0.01    0.08
  -5   5   9    0.02    0.10
   6  -5 -10    0.21    0.10
  -6   5  10    0.21    0.13
  -7  -4   2    8.64    0.43
   7   4  -2    8.52    0.46
  -6  -4   1    1.56    0.18
   6   4  -1    1.51    0.12
   6   4  -1    1.73    0.18
  -5  -4   0    1.04    0.14
   5   4   0    0.91    0.13
   5   4   0    0.88    0.09
  -4  -4  -1    0.51    0.10
  -4  -4  -1    0.28    0.08
   4   4   1    0.30    0.07
   4   4   1    0.39    0.10
   4   4   1    0.37    0.09
  -3  -4  -2    3.88    0.26
  -3  -4  -2    3.57    0.20
  -3  -4  -2    3.39    0.19
   3   4   2    3.91    0.23
   3   4   2    3.67    0.18
   3   4   2    3.84    0.21
  -2  -4  -3    0.06    0.04
  -2  -4  -3   -0.05    0.09
  -2  -4  -3    0.04    0.08
   2   4   3    0.02    0.04
   2   4   3    0.07    0.08
   2   4   3    0.02    0.05
  -1  -4  -4    3.30    0.16
  -1  -4  -4    3.21    0.20
  -1  -4  -4    3.18    0.15
  -1  -4  -4    3.26    0.24
   1   4   4    3.44    0.17
   1   4   4    3.41    0.17
   1   4   4    3.32    0.22
   0  -4  -5   73.29    1.98
   0  -4  -5   77.80    2.06
   0  -4  -5   75.39    2.31
   0  -4  -5   76.05    2.05
   0   4   5   77.36    2.10
   0   4   5   77.51    2.06
   0   4   5   74.63    2.23
   0   4   5   75.89    1.97
   1  -4  -6   22.89    0.82
   1  -4  -6   22.75    0.67
   1  -4  -6   23.17    0.72
  -1   4   6   23.12    0.82
   2  -4  -7   13.58    0.48
   2  -4  -7   12.83    0.42
  -2   4   7   13.24    0.56
   3  -4  -8   10.33    0.42
   3  -4  -8   10.66    0.35
  -3   4   8   10.73    0.50
   4  -4  -9   11.91    0.47
   4  -4  -9   11.65    0.38
  -4   4   9   11.12    0.54
   5  -4 -10    2.15    0.20
   5  -4 -10    2.24    0.14
  -5   4  10    2.54    0.26
   6  -4 -11   -0.01    0.08
  -6   4  11    0.15    0.13
  -7  -3   1    5.06    0.30
   7   3  -1    4.75    0.30
  -6  -3   0    1.32    0.14
  -6  -3   0    1.41    0.16
   6   3   0    1.15    0.10
   6   3   0    1.46    0.16
  -5  -3  -1    0.00    0.05
  -5  -3  -1    0.06    0.07
   5   3   1   -0.01    0.05
   5   3   1    0.00    0.04
  -4  -3  -2   10.57    0.46
  -4  -3  -2   10.80    0.39
  -4  -3  -2   11.09    0.42
   4   3   2   10.50    0.37
   4   3   2   11.51    0.42
   4   3   2   11.25    0.43
  -3  -3  -3   12.26    0.43
  -3  -3  -3   12.03    0.43
  -3  -3  -3   11.95    0.50
   3   3   3   11.73    0.40
   3   3   3   11.96    0.44
   3   3   3   12.42    0.45
  -2  -3  -4   24.18    0.75
  -2  -3  -4   24.89    0.67
  -2  -3  -4   24.06    0.84
  -2  -3  -4   24.76    0.74
   2   3   4   24.49    0.75
   2   3   4   24.16    0.80
   2   3   4   23.93    0.71
  -1  -3  -5   22.20    0.77
  -1  -3  -5   21.05    0.67
  -1  -3  -5   22.14    0.64
  -1  -3  -5   21.11    0.61
   1   3   5   21.35    0.62
   1   3   5   21.34    0.65
   1   3   5   20.44    0.73
   0  -3  -6   21.28    0.67
   0  -3  -6   21.55    0.61
   0  -3  -6   20.89    0.75
   0  -3  -6   20.53    0.61
   0   3   6   21.38    0.59
   0   3   6   20.08    0.73
   1  -3  -7    8.90    0.39
   1  -3  -7    8.18    0.34
   1  -3  -7    8.14    0.29
  -1   3   7    8.15    0.40
   2  -3  -8    0.65    0.12
   2  -3  -8    0.53    0.10
   2  -3  -8    0.72    0.08
  -2   3   8    0.68    0.14
   3  -3  -9    3.30    0.16
   3  -3  -9    3.37    0.22
  -3   3   9    3.35    0.26
   4  -3 -10   -0.03    0.04
   4  -3 -10    0.02    0.07
  -4   3  10    0.05    0.11
   5  -3 -11   -0.04    0.07
  -5   3  11   -0.09    0.10
   6  -3 -12    0.44    0.12
  -6   3  12    0.32    0.16
  -8  -2   1    0.60    0.14
  -7  -2   0    2.68    0.21
  -7  -2   0    2.70    0.20
   7   2   0    2.44    0.15
   7   2   0    2.66    0.21
  -6  -2  -1    1.95    0.16
  -6  -2  -1    1.79    0.16
   6   2   1    2.02    0.17
   6   2   1    1.90    0.13
  -5  -2  -2    4.23    0.23
  -5  -2  -2    4.35    0.23
   5   2   2    3.99    0.23
   5   2   2    3.89    0.18
  -4  -2  -3   14.96    0.51
  -4  -2  -3   14.66    0.50
  -4  -2  -3   15.62    0.59
   4   2   3   14.64    0.52
   4   2   3   15.71    0.51
   4   2   3   13.73    0.46
  -3  -2  -4    1.07    0.08
  -3  -2  -4    1.17    0.10
  -3  -2  -4    0.93    0.12
  -3  -2  -4    1.15    0.14
   3   2   4    1.12    0.10
   3   2   4    1.17    0.10
   3   2   4    1.33    0.12
  -2  -2  -5   40.90    1.06
  -2  -2  -5   40.34    1.13
  -2  -2  -5   39.76    1.27
  -2  -2  -5   39.27    1.14
   2   2   5   39.30    1.20
   2   2   5   38.59    1.15
   2   2   5   39.84    1.08
  -1  -2  -6    0.78    0.11
  -1  -2  -6    0.73    0.08
  -1  -2  -6    0.83    0.12
  -1  -2  -6    0.87    0.07
   1   2   6    0.91    0.12
   1   2   6    0.87    0.08
   1   2   6    0.72    0.07
   0  -2  -7   10.22    0.34
   0  -2  -7   10.69    0.33
   0  -2  -7   10.31    0.43
   0  -2  -7    9.98    0.39
   0   2   7   10.48    0.30
   0   2   7   10.13    0.44
   1  -2  -8    1.31    0.15
   1  -2  -8    1.63    0.15
   1  -2  -8    1.36    0.10
  -1   2   8    1.53    0.17
   2  -2  -9    5.32    0.27
   2  -2  -9    5.17    0.20
   2  -2  -9    5.01    0.28
  -2   2   9    4.62    0.30
   3  -2 -10    4.13    0.17
   3  -2 -10    4.22    0.25
  -3   2  10    4.08    0.30
   4  -2 -11    0.24    0.10
  -4   2  11    0.29    0.13
   5  -2 -12    0.86    0.14
  -5   2  12    0.91    0.19
  -8  -1   0    0.04    0.08
  -8  -1   0    0.02    0.09
  -7  -1  -1    4.05    0.24
  -7  -1  -1    3.68    0.24
   7   1   1    4.32    0.27
   7   1   1    4.09    0.19
  -6  -1  -2    0.76    0.11
  -6  -1  -2    0.53    0.11
   6   1   2    0.50    0.08
   6   1   2    0.61    0.11
  -5  -1  -3   27.50    0.85
  -5  -1  -3   29.63    0.89
   5   1   3   27.56    0.80
   5   1   3   27.81    0.90
  -4  -1  -4   23.46    0.73
  -4  -1  -4   23.12    0.72
   4   1   4   23.03    0.75
   4   1   4   22.97    0.68
   4   1   4   23.97    0.72
  -3  -1  -5    4.74    0.26
  -3  -1  -5    4.86    0.22
  -3  -1  -5    4.87    0.19
  -3  -1  -5    5.54    0.28
   3   1   5    5.02    0.24
   3   1   5    5.01    0.21
   3   1   5    5.05    0.23
  -2  -1  -6   35.86    0.99
  -2  -1  -6   37.12    1.05
  -2  -1  -6   35.42    1.06
  -2  -1  -6   36.97    1.17
   2   1   6   37.42    1.12
   2   1   6   36.73    1.00
   2   1   6   36.80    1.07
  -1  -1  -7    3.56    0.22
  -1  -1  -7    3.43    0.16
  -1  -1  -7    3.54    0.21
  -1  -1  -7    3.36    0.16
   1   1   7    3.52    0.16
   1   1   7    3.49    0.22
   1   1   7    3.43    0.14
   0  -1  -8    0.42    0.07
   0  -1  -8    0.45    0.06
   0  -1  -8    0.34    0.09
   0  -1  -8    0.30    0.09
   0   1   8    0.61    0.12
   1  -1  -9   16.52    0.50
   1  -1  -9   16.33    0.57
   1  -1  -9   17.71    0.63
  -1   1   9   16.54    0.64
   2  -1 -10    0.18    0.09
   2  -1 -10    0.10    0.05
   2  -1 -10    0.02    0.08
  -2   1  10    0.22    0.10
   3  -1 -11    0.56    0.07
   3  -1 -11    0.54    0.12
   3  -1 -11    0.50    0.11
  -3   1  11    0.63    0.15
   4  -1 -12    1.60    0.16
  -4   1  12    1.84    0.22
   5  -1 -13    1.78    0.19
  -5   1  13    1.80    0.24
  -9   0   0    0.28    0.12
  -8   0  -1    0.28    0.11
  -8   0  -1    0.53    0.12
   8   0   1    0.49    0.12
   8   0   1    0.51    0.08
  -7   0  -2    3.20    0.22
  -7   0  -2    2.91    0.21
   7   0   2    2.97    0.22
   7   0   2    3.04    0.16
  -6   0  -3    4.16    0.24
  -6   0  -3    3.86    0.23
   6   0   3    3.93    0.24
   6   0   3    4.20    0.19
  -5   0  -4   29.14    0.94
  -5   0  -4   30.30    0.91
   5   0   4   31.09    0.96
   5   0   4   31.15    0.86
  -4   0  -5    3.07    0.21
  -4   0  -5    3.09    0.18
   4   0   5    3.42    0.17
   4   0   5    3.28    0.19
  -3   0  -6    0.21    0.09
  -3   0  -6    0.05    0.05
  -3   0  -6    0.09    0.09
   3   0   6    0.16    0.06
   3   0   6    0.05    0.06
   3   0   6    0.09    0.05
  -2   0  -7   15.29    0.53
  -2   0  -7   14.78    0.47
  -2   0  -7   16.14    0.57
  -2   0  -7   15.87    0.51
   2   0   7   15.68    0.46
   2   0   7   15.69    0.55
   2   0   7   15.13    0.51
  -1   0  -8    5.68    0.27
  -1   0  -8    5.63    0.22
  -1   0  -8    5.64    0.28
  -1   0  -8    5.55    0.23
   1   0   8    5.48    0.22
   1   0   8    5.52    0.18
   1   0   8    5.52    0.29
   0   0  -9    1.19    0.10
   0   0  -9    1.14    0.10
   0   0  -9    1.09    0.13
   0   0  -9    1.25    0.14
   0   0   9    1.45    0.16
   1   0 -10   13.29    0.50
   1   0 -10   13.89    0.43
   1   0 -10   14.23    0.53
  -1   0  10   14.25    0.57
   2   0 -11    4.08    0.24
   2   0 -11    4.20    0.25
   2   0 -11    3.90    0.17
  -2   0  11    4.30    0.29
   3   0 -12    0.75    0.13
  -3   0  12    1.08    0.18
   4   0 -13    3.07    0.23
  -4   0  13    3.25    0.29
  -9   1  -1    0.86    0.16
  -9   1  -1    0.60    0.14
  -8   1  -2    4.48    0.27
   8  -1   2    4.04    0.28
   8  -1   2    4.33    0.21
  -7   1  -3   52.00    1.50
  -7   1  -3   50.92    1.55
   7  -1   3   53.87    1.43
   7  -1   3   52.83    1.61
  -6   1  -4    8.90    0.37
  -6   1  -4    9.39    0.39
   6  -1   4    8.90    0.33
   6  -1   4    9.23    0.40
  -5   1  -5    0.24    0.08
  -5   1  -5    0.24    0.09
   5  -1   5    0.10    0.05
   5  -1   5    0.06    0.06
  -4   1  -6   47.41    1.37
  -4   1  -6   46.86    1.35
   4  -1   6   47.27    1.28
   4  -1   6   47.93    1.41
  -3   1  -7   13.86    0.42
  -3   1  -7   12.93    0.47
  -3   1  -7   14.01    0.49
  -3   1  -7   12.96    0.51
   3  -1   7   13.98    0.48
   3  -1   7   14.06    0.49
   3  -1   7   13.39    0.43
  -2   1  -8    1.50    0.11
  -2   1  -8    1.51    0.15
  -2   1  -8    1.67    0.15
  -2   1  -8    1.40    0.12
   2  -1   8    1.45    0.14
   2  -1   8    1.54    0.10
   2  -1   8    1.40    0.12
  -1   1  -9    3.90    0.20
  -1   1  -9    3.57    0.22
  -1   1  -9    4.26    0.23
  -1   1  -9    3.58    0.17
   1  -1   9    3.88    0.24
   0   1 -10    1.53    0.12
   0   1 -10    1.68    0.15
   0   1 -10    1.45    0.15
   0   1 -10    1.33    0.11
   0  -1  10    1.26    0.16
   1   1 -11   -0.05    0.07
   1   1 -11    0.01    0.07
   1   1 -11    0.09    0.05
   1   1 -11   -0.03    0.06
  -1  -1  11    0.04    0.08
   2   1 -12    0.19    0.05
   2   1 -12    0.23    0.10
  -2  -1  12    0.15    0.10
   3   1 -13    0.89    0.14
  -3  -1  13    0.72    0.16
   4   1 -14    1.62    0.18
  -4  -1  14    1.40    0.22
  -9   2  -2    5.02    0.31
  -9   2  -2    4.72    0.30
  -8   2  -3   11.81    0.49
  -8   2  -3   11.58    0.49
   8  -2   3   12.52    0.53
   8  -2   3   11.78    0.42
  -7   2  -4    0.04    0.08
  -7   2  -4    0.00    0.08
   7  -2   4   -0.13    0.07
   7  -2   4    0.18    0.06
  -6   2  -5    0.39    0.11
  -6   2  -5    0.18    0.08
   6  -2   5    0.30    0.09
   6  -2   5    0.30    0.07
  -5   2  -6    7.71    0.34
  -5   2  -6    7.61    0.34
   5  -2   6    7.69    0.30
   5  -2   6    8.04    0.36
  -4   2  -7    5.57    0.22
  -4   2  -7    5.71    0.28
  -4   2  -7    5.52    0.26
   4  -2   7    5.00    0.27
   4  -2   7    5.36    0.23
  -3   2  -8    0.14    0.07
  -3   2  -8    0.09    0.09
  -3   2  -8    0.12    0.06
   3  -2   8    0.19    0.05
   3  -2   8    0.14    0.07
   3  -2   8    0.03    0.07
  -2   2  -9    0.10    0.07
  -2   2  -9    0.23    0.08
  -2   2  -9    0.26    0.11
  -2   2  -9    0.23    0.07
   2  -2   9    0.11    0.08
  -1   2 -10   17.53    0.59
  -1   2 -10   17.63    0.60
  -1   2 -10   16.71    0.53
  -1   2 -10   16.76    0.58
   1  -2  10   17.53    0.63
   0   2 -11   17.48    0.59
   0   2 -11   17.25    0.53
   0   2 -11   17.79    0.59
   0  -2  11   16.65    0.65
   1   2 -12    1.56    0.12
   1   2 -12    1.92    0.17
   1   2 -12    1.47    0.16
  -1  -2  12    1.87    0.20
   2   2 -13    0.73    0.08
   2   2 -13    0.59    0.12
  -2  -2  13    0.62    0.15
   3   2 -14    7.60    0.37
  -3  -2  14    7.66    0.44
  -9   3  -3    1.71    0.20
  -9   3  -3    1.65    0.19
  -8   3  -4    1.32    0.17
  -8   3  -4    1.32    0.17
   8  -3   4    1.03    0.16
  -7   3  -5   -0.01    0.08
  -7   3  -5    0.14    0.09
   7  -3   5   -0.10    0.06
   7  -3   5    0.01    0.05
  -6   3  -6    0.08    0.09
  -6   3  -6    0.14    0.07
   6  -3   6    0.19    0.06
   6  -3   6    0.19    0.09
  -5   3  -7   10.05    0.41
  -5   3  -7    9.81    0.41
   5  -3   7   11.02    0.45
   5  -3   7   10.33    0.36
  -4   3  -8    5.81    0.29
  -4   3  -8    6.70    0.30
  -4   3  -8    6.45    0.25
   4  -3   8    5.97    0.31
   4  -3   8    6.01    0.24
  -3   3  -9    1.59    0.15
  -3   3  -9    1.71    0.15
  -3   3  -9    1.59    0.12
   3  -3   9    1.87    0.15
   3  -3   9    1.62    0.11
  -2   3 -10    4.33    0.25
  -2   3 -10    5.07    0.22
  -2   3 -10    4.87    0.25
   2  -3  10    4.48    0.26
  -1   3 -11    9.03    0.38
  -1   3 -11    8.81    0.37
  -1   3 -11    8.10    0.31
   1  -3  11    9.08    0.40
   0   3 -12    0.08    0.09
   0   3 -12    0.01    0.05
   0   3 -12    0.06    0.08
   0  -3  12    0.03    0.08
   1   3 -13    2.13    0.19
   1   3 -13    2.46    0.15
   1   3 -13    2.28    0.19
  -1  -3  13    2.34    0.23
   2   3 -14    0.53    0.13
  -2  -3  14    0.81    0.17
  -9   4  -4    0.61    0.14
  -9   4  -4    0.67    0.15
  -8   4  -5    0.00    0.09
  -8   4  -5   -0.05    0.07
   8  -4   5   -0.07    0.08
  -7   4  -6    4.31    0.26
  -7   4  -6    4.24    0.26
   7  -4   6    4.44    0.30
   7  -4   6    4.57    0.23
  -6   4  -7    3.83    0.24
  -6   4  -7    3.73    0.24
   6  -4   7    4.32    0.27
   6  -4   7    3.91    0.20
  -5   4  -8    0.80    0.13
  -5   4  -8    0.63    0.11
   5  -4   8    0.54    0.08
   5  -4   8    0.67    0.13
  -4   4  -9    0.15    0.08
  -4   4  -9    0.15    0.08
   4  -4   9    0.18    0.06
  -3   4 -10    0.95    0.14
  -3   4 -10    0.63    0.12
  -3   4 -10    0.93    0.10
   3  -4  10    0.67    0.11
  -2   4 -11    2.62    0.16
  -2   4 -11    2.26    0.19
  -2   4 -11    2.34    0.18
   2  -4  11    2.60    0.20
  -1   4 -12    2.73    0.17
  -1   4 -12    3.10    0.21
  -1   4 -12    2.98    0.22
   1  -4  12    3.20    0.24
   0   4 -13    1.84    0.18
   0   4 -13    2.24    0.15
   0   4 -13    2.00    0.20
   0  -4  13    2.06    0.21
   1   4 -14    5.86    0.26
   1   4 -14    5.86    0.33
  -1  -4  14    5.80    0.37
  -8   5  -6    0.02    0.09
  -8   5  -6   -0.08    0.07
  -7   5  -7    1.17    0.17
  -7   5  -7    1.32    0.16
   7  -5   7    1.02    0.17
  -6   5  -8    1.58    0.17
  -6   5  -8    1.55    0.18
   6  -5   8    1.73    0.14
   6  -5   8    1.49    0.18
  -5   5  -9    1.77    0.19
  -5   5  -9    1.74    0.16
   5  -5   9    1.75    0.13
  -4   5 -10    0.25    0.10
  -4   5 -10    0.26    0.08
  -4   5 -10    0.23    0.10
  -3   5 -11    3.54    0.23
  -3   5 -11    3.53    0.19
  -3   5 -11    3.69    0.25
  -2   5 -12    0.35    0.11
  -2   5 -12    0.48    0.13
  -2   5 -12    0.58    0.09
  -1   5 -13    0.02    0.09
  -1   5 -13    0.14    0.10
   1  -5  13    0.08    0.10
   0   5 -14    0.90    0.18
   0  -5  14    0.92    0.17
  -8   6  -7    0.27    0.12
  -7   6  -8    0.17    0.10
  -7   6  -8   -0.07    0.08
  -6   6  -9    0.27    0.11
  -6   6  -9    0.37    0.12
   6  -6   9    0.32    0.08
  -5   6 -10    0.71    0.12
  -5   6 -10    0.48    0.13
  -4   6 -11    4.32    0.25
  -4   6 -11    4.30    0.23
  -4   6 -11    3.66    0.27
  -3   6 -12    0.04    0.10
  -3   6 -12    0.21    0.10
  -2   6 -13    0.01    0.10
  -1   6 -14    3.26    0.26
  -6   7 -10    1.31    0.20
  -6   7 -10    1.09    0.15
  -5   7 -11    1.11    0.15
  -5   7 -11    1.07    0.19
  -4   7 -12    1.83    0.23
  -3   7 -13    1.87    0.23
   1   9   0    4.80    0.36
   0   9   1    1.54    0.22
  -1   9   2    2.27    0.26
  -2   9   3    1.42    0.21
  -3   9   4    0.20    0.13
   3   8  -1    0.40    0.15
   3   8  -1    0.47    0.16
   2   8   0    2.11    0.23
   2   8   0    2.23    0.23
   1   8   1    2.39    0.24
   0   8   2    0.16    0.12
   0   8   2    0.35    0.09
  -1   8   3    6.83    0.41
   2  -8  -4    0.16    0.07
  -2   8   4    0.05    0.11
   3  -8  -5    2.57    0.20
  -3   8   5    2.13    0.25
   4  -8  -6    3.95    0.26
  -4   8   6    4.19    0.34
  -4  -7   1    2.97    0.23
   4   7  -1    3.25    0.27
   4   7  -1    3.48    0.28
  -3  -7   0    7.46    0.37
   3   7   0    7.87    0.40
   3   7   0    7.79    0.42
   3   7   0    7.79    0.38
  -2  -7  -1    2.66    0.19
   2   7   1    2.64    0.22
   2   7   1    2.55    0.23
   2   7   1    2.57    0.18
   1   7   2   22.44    0.69
   1   7   2   21.12    0.81
   0   7   3    1.36    0.12
   0   7   3    1.26    0.19
   1  -7  -4    1.17    0.11
   1  -7  -4    1.03    0.14
  -1   7   4    1.25    0.19
   2  -7  -5    0.51    0.09
   2  -7  -5    0.65    0.12
  -2   7   5    0.42    0.15
   3  -7  -6    0.31    0.10
  -3   7   6    0.36    0.15
   4  -7  -7    0.18    0.09
  -4   7   7    0.08    0.11
   5  -7  -8    0.09    0.10
  -5   7   8    0.30    0.14
  -5  -6   1    1.07    0.16
   5   6  -1    1.20    0.20
  -4  -6   0    1.42    0.17
   4   6   0    1.03    0.16
   4   6   0    1.20    0.18
   4   6   0    1.22    0.15
  -3  -6  -1    8.10    0.36
   3   6   1    7.42    0.32
   3   6   1    8.40    0.41
   3   6   1    8.04    0.37
   3   6   1    7.61    0.37
  -2  -6  -2    0.01    0.06
   2   6   2    0.04    0.06
   2   6   2    0.06    0.09
   2   6   2   -0.03    0.08
   2   6   2    0.03    0.05
  -1  -6  -3   14.20    0.49
  -1  -6  -3   14.24    0.49
   1   6   3   13.97    0.58
   1   6   3   13.26    0.47
   0  -6  -4    0.65    0.09
   0  -6  -4    0.87    0.12
   0   6   4    0.64    0.09
   0   6   4    0.78    0.15
   1  -6  -5    1.19    0.11
   1  -6  -5    1.08    0.13
  -1   6   5    1.23    0.18
   2  -6  -6    7.58    0.34
   2  -6  -6    7.36    0.29
  -2   6   6    7.22    0.41
   3  -6  -7    2.55    0.20
   3  -6  -7    2.57    0.16
  -3   6   7    2.65    0.26
   4  -6  -8    1.31    0.16
  -4   6   8    1.38    0.21
   5  -6  -9    1.16    0.17
  -5   6   9    1.49    0.22
  -6  -5   1    9.58    0.45
   6   5  -1    9.39    0.48
  -5  -5   0    5.51    0.31
   5   5   0    6.04    0.33
   5   5   0    5.47    0.33
   5   5   0    5.84    0.26
  -4  -5  -1    1.18    0.14
   4   5   1    1.40    0.18
   4   5   1    1.20    0.14
   4   5   1    1.27    0.16
   4   5   1    1.10    0.12
  -3  -5  -2   16.84    0.58
   3   5   2   16.55    0.53
   3   5   2   15.95    0.59
   3   5   2   16.17    0.59
   3   5   2   16.16    0.62
  -2  -5  -3    0.04    0.08
  -2  -5  -3    0.11    0.06
   2   5   3    0.09    0.08
   2   5   3    0.11    0.05
   2   5   3    0.08    0.08
   2   5   3    0.09    0.06
  -1  -5  -4    0.14    0.05
  -1  -5  -4    0.16    0.05
  -1  -5  -4    0.12    0.09
   1   5   4    0.19    0.06
   1   5   4    0.27    0.08
   1   5   4    0.28    0.10
   1   5   4    0.17    0.06
   0  -5  -5    0.54    0.08
   0  -5  -5    0.56    0.11
   0   5   5    0.39    0.07
   0   5   5    0.75    0.14
   1  -5  -6    1.31    0.14
   1  -5  -6    1.35    0.11
  -1   5   6    1.35    0.18
   2  -5  -7    1.09    0.13
   2  -5  -7    1.11    0.10
  -2   5   7    1.01    0.17
   3  -5  -8    0.58    0.09
   3  -5  -8    0.56    0.12
  -3   5   8    0.53    0.15
   4  -5  -9    2.88    0.22
   4  -5  -9    2.84    0.17
  -4   5   9    2.38    0.25
   5  -5 -10    0.23    0.10
  -5   5  10    0.28    0.15
  -6  -4   0    0.60    0.13
   6   4   0    0.87    0.15
   6   4   0    0.95    0.11
  -5  -4  -1    7.66    0.36
   5   4   1    8.10    0.32
   5   4   1    7.98    0.38
  -4  -4  -2    7.34    0.31
  -4  -4  -2    7.72    0.34
   4   4   2    7.38    0.34
   4   4   2    7.22    0.29
   4   4   2    7.82    0.35
  -3  -4  -3   14.52    0.51
  -3  -4  -3   14.91    0.50
   3   4   3   14.23    0.48
   3   4   3   14.98    0.55
   3   4   3   14.55    0.53
  -2  -4  -4    0.28    0.10
  -2  -4  -4    0.30    0.07
   2   4   4    0.27    0.10
   2   4   4    0.39    0.08
   2   4   4    0.34    0.07
  -1  -4  -5    0.30    0.11
  -1  -4  -5    0.29    0.10
  -1  -4  -5    0.33    0.06
  -1  -4  -5    0.36    0.07
   1   4   5    0.27    0.07
   1   4   5    0.34    0.06
   1   4   5    0.33    0.10
   0  -4  -6   20.69    0.67
   0  -4  -6   19.83    0.61
   0   4   6   20.31    0.59
   0   4   6   20.89    0.75
   1  -4  -7   13.45    0.44
   1  -4  -7   14.44    0.51
  -1   4   7   13.32    0.57
   2  -4  -8    8.11    0.30
   2  -4  -8    8.43    0.36
  -2   4   8    8.27    0.42
   3  -4  -9    0.32    0.10
   3  -4  -9    0.18    0.06
  -3   4   9    0.07    0.11
   4  -4 -10    5.16    0.22
   4  -4 -10    4.41    0.28
  -4   4  10    4.36    0.33
   5  -4 -11    0.98    0.15
   5  -4 -11    1.03    0.11
  -5   4  11    1.30    0.22
  -7  -3   0    0.19    0.09
   7   3   0    0.39    0.08
  -6  -3  -1    8.35    0.38
  -6  -3  -1    8.07    0.34
   6   3   1    7.86    0.31
   6   3   1    7.34    0.38
  -5  -3  -2    9.73    0.38
  -5  -3  -2   10.07    0.41
   5   3   2    9.67    0.35
   5   3   2    9.92    0.42
  -4  -3  -3    5.07    0.26
  -4  -3  -3    5.35    0.26
   4   3   3    5.20    0.23
   4   3   3    5.36    0.26
   4   3   3    5.27    0.26
  -3  -3  -4    2.54    0.16
  -3  -3  -4    2.48    0.18
   3   3   4    2.65    0.16
   3   3   4    2.30    0.18
   3   3   4    2.52    0.15
  -2  -3  -5    0.42    0.07
  -2  -3  -5    0.64    0.12
  -2  -3  -5    0.50    0.13
  -2  -3  -5    0.67    0.09
   2   3   5    0.45    0.07
   2   3   5    0.51    0.08
   2   3   5    0.73    0.12
  -1  -3  -6   13.70    0.50
  -1  -3  -6   14.47    0.45
  -1  -3  -6   14.22    0.57
  -1  -3  -6   13.39    0.44
   1   3   6   13.72    0.54
   1   3   6   14.04    0.44
   0  -3  -7   32.30    0.97
   0  -3  -7   32.54    1.09
   0  -3  -7   31.80    0.90
   0   3   7   31.61    1.06
   1  -3  -8    1.11    0.13
   1  -3  -8    1.01    0.10
  -1   3   8    0.85    0.15
   2  -3  -9    0.29    0.10
   2  -3  -9    0.49    0.08
  -2   3   9    0.48    0.13
   3  -3 -10    2.80    0.21
   3  -3 -10    2.96    0.16
  -3   3  10    2.75    0.26
   4  -3 -11    1.24    0.16
   4  -3 -11    1.48    0.12
  -4   3  11    1.54    0.22
   5  -3 -12    0.22    0.11
  -5   3  12    0.08    0.12
  -8  -2   0    1.01    0.17
  -8  -2   0    0.95    0.15
  -7  -2  -1    4.45    0.27
  -7  -2  -1    4.20    0.25
   7   2   1    4.65    0.21
   7   2   1    3.74    0.27
  -6  -2  -2    0.21    0.09
  -6  -2  -2    0.39    0.10
   6   2   2    0.18    0.07
   6   2   2    0.28    0.09
  -5  -2  -3    3.26    0.21
  -5  -2  -3    3.69    0.22
   5   2   3    3.64    0.22
   5   2   3    3.41    0.18
  -4  -2  -4   -0.05    0.04
  -4  -2  -4    0.05    0.08
   4   2   4    0.01    0.04
   4   2   4    0.03    0.05
  -3  -2  -5   18.31    0.59
  -3  -2  -5   18.51    0.62
  -3  -2  -5   17.91    0.68
   3   2   5   18.36    0.60
   3   2   5   18.07    0.56
   3   2   5   18.40    0.62
  -2  -2  -6    4.51    0.27
  -2  -2  -6    4.08    0.25
  -2  -2  -6    3.97    0.20
  -2  -2  -6    4.42    0.19
   2   2   6    4.40    0.20
   2   2   6    4.53    0.25
   2   2   6    4.55    0.20
  -1  -2  -7   55.08    1.59
  -1  -2  -7   58.57    1.57
  -1  -2  -7   58.73    1.78
  -1  -2  -7   56.36    1.51
   1   2   7   55.88    1.70
   0  -2  -8    0.87    0.13
   0  -2  -8    1.14    0.10
   0  -2  -8    1.13    0.15
   0   2   8    0.97    0.15
   1  -2  -9    3.24    0.24
   1  -2  -9    2.99    0.16
   1  -2  -9    3.22    0.21
  -1   2   9    2.92    0.25
   2  -2 -10   39.42    1.17
   2  -2 -10   39.56    1.07
  -2   2  10   38.05    1.29
   3  -2 -11    1.50    0.16
   3  -2 -11    1.65    0.12
  -3   2  11    1.71    0.21
   4  -2 -12    1.26    0.16
  -4   2  12    1.86    0.23
   5  -2 -13    0.31    0.12
  -5   2  13    0.37    0.16
  -8  -1  -1    0.21    0.10
  -8  -1  -1    0.11    0.08
   8   1   1    0.12    0.07
  -7  -1  -2    0.48    0.11
  -7  -1  -2    0.35    0.10
   7   1   2    0.37    0.10
   7   1   2    0.48    0.08
  -6  -1  -3    4.61    0.25
  -6  -1  -3    4.59    0.26
   6   1   3    4.80    0.27
   6   1   3    4.37    0.21
  -5  -1  -4    2.88    0.20
  -5  -1  -4    2.51    0.18
   5   1   4    2.62    0.16
   5   1   4    2.97    0.19
  -4  -1  -5    3.14    0.21
  -4  -1  -5    3.73    0.25
  -4  -1  -5    3.52    0.20
   4   1   5    3.74    0.21
   4   1   5    3.47    0.18
  -3  -1  -6   69.98    2.11
  -3  -1  -6   68.46    1.90
  -3  -1  -6   68.66    1.91
   3   1   6   65.06    1.81
   3   1   6   70.21    1.96
   3   1   6   70.25    1.98
  -2  -1  -7   16.61    0.62
  -2  -1  -7   16.16    0.53
  -2  -1  -7   16.44    0.57
  -2  -1  -7   16.45    0.50
   2   1   7   16.38    0.50
   2   1   7   16.67    0.59
   2   1   7   16.48    0.53
  -1  -1  -8    7.02    0.27
  -1  -1  -8    7.32    0.27
  -1  -1  -8    7.04    0.32
  -1  -1  -8    7.54    0.36
   1   1   8    7.04    0.35
   0  -1  -9   10.15    0.42
   0  -1  -9   11.14    0.46
   0  -1  -9   10.34    0.35
   0   1   9   10.52    0.46
   1  -1 -10    0.24    0.09
   1  -1 -10    0.10    0.09
   1  -1 -10    0.09    0.05
  -1   1  10    0.08    0.09
   2  -1 -11    0.28    0.06
   2  -1 -11    0.19    0.10
   2  -1 -11    0.16    0.09
  -2   1  11    0.32    0.13
   3  -1 -12    0.32    0.11
   3  -1 -12    0.32    0.07
  -3   1  12    0.22    0.12
   4  -1 -13   -0.03    0.08
  -4   1  13   -0.01    0.11
  -8   0  -2    1.86    0.18
  -8   0  -2    1.99    0.20
   8   0   2    2.21    0.15
  -7   0  -3    7.30    0.34
   7   0   3    6.96    0.29
   7   0   3    7.27    0.36
  -6   0  -4    0.58    0.11
  -6   0  -4    0.48    0.11
   6   0   4    0.57    0.11
   6   0   4    0.63    0.09
  -5   0  -5   17.31    0.60
  -5   0  -5   17.10    0.59
   5   0   5   17.27    0.61
   5   0   5   17.19    0.54
  -4   0  -6    0.08    0.09
  -4   0  -6    0.11    0.06
   4   0   6    0.13    0.07
   4   0   6    0.15    0.06
  -3   0  -7   59.00    1.68
  -3   0  -7   58.99    1.69
  -3   0  -7   62.73    1.86
  -3   0  -7   59.76    1.58
   3   0   7   58.90    1.59
   3   0   7   60.77    1.73
   3   0   7   59.72    1.74
  -2   0  -8    3.53    0.23
  -2   0  -8    3.68    0.19
  -2   0  -8    3.54    0.17
  -2   0  -8    3.54    0.23
   2   0   8    3.49    0.22
   2   0   8    3.24    0.18
  -1   0  -9    1.33    0.15
  -1   0  -9    1.28    0.15
  -1   0  -9    1.31    0.11
  -1   0  -9    1.31    0.11
   1   0   9    1.33    0.15
   0   0 -10   12.16    0.41
   0   0 -10   12.91    0.50
   0   0 -10   12.49    0.47
   0   0 -10   11.48    0.39
   0   0  10   11.80    0.51
   1   0 -11    4.17    0.25
   1   0 -11    4.06    0.19
   1   0 -11    3.96    0.25
  -1   0  11    3.70    0.27
   2   0 -12    0.61    0.12
   2   0 -12    0.62    0.08
  -2   0  12    0.58    0.15
   3   0 -13    2.96    0.22
  -3   0  13    3.20    0.28
   4   0 -14    1.29    0.17
  -4   0  14    1.42    0.22
  -9   1  -2    0.25    0.11
  -8   1  -3    3.99    0.26
  -8   1  -3    4.34    0.27
   8  -1   3    4.23    0.28
  -7   1  -4    7.87    0.37
  -7   1  -4    8.13    0.37
   7  -1   4    8.17    0.39
   7  -1   4    7.72    0.31
  -6   1  -5    2.82    0.21
  -6   1  -5    2.85    0.20
   6  -1   5    2.84    0.20
   6  -1   5    2.81    0.17
  -5   1  -6   14.56    0.53
  -5   1  -6   14.91    0.54
   5  -1   6   15.18    0.55
   5  -1   6   14.43    0.48
  -4   1  -7   23.95    0.77
  -4   1  -7   23.93    0.68
  -4   1  -7   23.62    0.77
   4  -1   7   24.24    0.71
   4  -1   7   24.57    0.79
  -3   1  -8   -0.04    0.05
  -3   1  -8   -0.13    0.08
  -3   1  -8    0.08    0.09
  -3   1  -8    0.01    0.05
   3  -1   8   -0.09    0.05
   3  -1   8    0.00    0.06
   3  -1   8    0.00    0.05
  -2   1  -9    2.18    0.18
  -2   1  -9    2.40    0.20
  -2   1  -9    2.20    0.15
  -2   1  -9    2.15    0.14
   2  -1   9    2.56    0.19
   2  -1   9    2.12    0.15
  -1   1 -10   12.58    0.44
  -1   1 -10   12.20    0.47
  -1   1 -10   11.97    0.41
  -1   1 -10   13.16    0.50
   1  -1  10   12.98    0.52
   0   1 -11    0.41    0.09
   0   1 -11    0.38    0.11
   0   1 -11    0.26    0.07
   0   1 -11    0.28    0.10
   0  -1  11    0.37    0.12
   1   1 -12    0.03    0.08
   1   1 -12    0.08    0.05
  -1  -1  12    0.05    0.10
   2   1 -13    3.38    0.24
   2   1 -13    3.24    0.17
  -2  -1  13    3.55    0.29
   3   1 -14    0.44    0.12
  -3  -1  14    0.31    0.14
  -9   2  -3    0.39    0.12
  -8   2  -4    1.10    0.16
  -8   2  -4    1.26    0.17
   8  -2   4    1.15    0.16
  -7   2  -5    1.14    0.15
  -7   2  -5    1.03    0.15
   7  -2   5    1.39    0.12
   7  -2   5    1.04    0.15
  -6   2  -6    1.87    0.16
  -6   2  -6    1.72    0.17
   6  -2   6    1.86    0.18
   6  -2   6    1.74    0.13
  -5   2  -7   10.60    0.42
  -5   2  -7    9.83    0.41
   5  -2   7   10.03    0.37
   5  -2   7   10.94    0.44
  -4   2  -8    8.08    0.28
  -4   2  -8    7.93    0.34
  -4   2  -8    7.57    0.35
   4  -2   8    7.45    0.35
   4  -2   8    7.46    0.29
  -3   2  -9    1.18    0.13
  -3   2  -9    1.17    0.14
  -3   2  -9    1.22    0.11
   3  -2   9    1.29    0.13
   3  -2   9    1.46    0.14
  -2   2 -10    0.79    0.09
  -2   2 -10    0.77    0.11
  -2   2 -10    0.73    0.13
  -2   2 -10    0.77    0.11
   2  -2  10    0.88    0.13
  -1   2 -11    5.20    0.27
  -1   2 -11    4.81    0.25
  -1   2 -11    4.92    0.22
   1  -2  11    4.84    0.29
   0   2 -12    1.32    0.14
   0   2 -12    1.58    0.17
   0   2 -12    1.09    0.11
   0  -2  12    1.23    0.17
   1   2 -13    0.17    0.06
   1   2 -13    0.04    0.09
  -1  -2  13    0.09    0.09
   2   2 -14    0.03    0.05
   2   2 -14   -0.05    0.09
  -2  -2  14    0.12    0.11
  -9   3  -4    4.62    0.31
  -8   3  -5    0.14    0.10
  -8   3  -5    0.34    0.12
   8  -3   5    0.14    0.10
  -7   3  -6    2.42    0.21
  -7   3  -6    2.39    0.19
   7  -3   6    2.73    0.18
   7  -3   6    2.95    0.23
  -6   3  -7   14.27    0.56
  -6   3  -7   15.10    0.56
   6  -3   7   14.66    0.50
   6  -3   7   15.22    0.59
  -5   3  -8    3.49    0.23
  -5   3  -8    3.62    0.23
   5  -3   8    3.86    0.19
   5  -3   8    3.67    0.25
  -4   3  -9    1.03    0.14
  -4   3  -9    0.72    0.13
  -4   3  -9    1.01    0.10
   4  -3   9    0.91    0.13
   4  -3   9    0.97    0.09
  -3   3 -10    4.72    0.26
  -3   3 -10    5.04    0.22
  -3   3 -10    4.43    0.26
   3  -3  10    4.70    0.26
  -2   3 -11    0.08    0.07
  -2   3 -11   -0.12    0.04
  -2   3 -11   -0.01    0.09
   2  -3  11    0.00    0.08
  -1   3 -12    0.04    0.06
  -1   3 -12   -0.07    0.07
  -1   3 -12   -0.02    0.08
   1  -3  12    0.07    0.09
   0   3 -13    0.01    0.09
   0   3 -13    0.07    0.06
   0   3 -13   -0.07    0.08
   0  -3  13    0.24    0.11
   1   3 -14    2.68    0.22
   1   3 -14    3.00    0.18
  -1  -3  14    2.75    0.27
   2   3 -15    5.10    0.32
  -2  -3  15    4.72    0.35
  -8   4  -6    0.57    0.14
  -8   4  -6    0.66    0.14
  -7   4  -7    0.03    0.08
  -7   4  -7   -0.09    0.07
   7  -4   7   -0.03    0.08
  -6   4  -8    0.82    0.14
  -6   4  -8    0.53    0.12
   6  -4   8    0.66    0.14
   6  -4   8    0.82    0.10
  -5   4  -9    0.46    0.11
  -5   4  -9    0.53    0.12
   5  -4   9    0.32    0.11
   5  -4   9    0.45    0.08
  -4   4 -10    0.67    0.09
  -4   4 -10    0.95    0.15
  -4   4 -10    0.94    0.13
  -3   4 -11    2.66    0.20
  -3   4 -11    2.47    0.16
  -3   4 -11    2.81    0.21
   3  -4  11    2.83    0.20
  -2   4 -12    5.18    0.29
  -2   4 -12    5.71    0.31
  -2   4 -12    5.23    0.25
   2  -4  12    5.55    0.30
  -1   4 -13    3.54    0.24
  -1   4 -13    3.88    0.25
   1  -4  13    3.59    0.26
   0   4 -14    3.49    0.25
   0   4 -14    3.29    0.25
   0  -4  14    3.07    0.26
  -1  -4  15    7.25    0.43
  -8   5  -7    0.58    0.14
  -8   5  -7    0.51    0.13
  -7   5  -8    0.63    0.13
  -7   5  -8    0.80    0.14
   7  -5   8    0.77    0.16
  -6   5  -9    2.18    0.21
  -6   5  -9    1.98    0.19
   6  -5   9    1.95    0.21
   6  -5   9    2.25    0.16
  -5   5 -10    1.40    0.18
  -5   5 -10    1.68    0.17
  -4   5 -11    0.00    0.08
  -4   5 -11    0.01    0.09
  -3   5 -12    2.95    0.22
  -3   5 -12    3.00    0.23
  -2   5 -13    2.81    0.25
  -2   5 -13    2.25    0.20
  -1   5 -14   -0.02    0.09
   1  -5  14   -0.03    0.09
  -7   6  -9    0.14    0.11
  -6   6 -10    0.01    0.09
  -6   6 -10    0.22    0.11
  -5   6 -11    0.44    0.12
  -5   6 -11    0.33    0.12
  -4   6 -12    0.47    0.13
  -4   6 -12    0.27    0.11
  -3   6 -13    1.10    0.15
  -3   6 -13    1.36    0.20
  -2   6 -14    0.58    0.16
  -1   9   3    1.46    0.23
   2   8   1    0.48    0.16
   1   8   2    1.35    0.20
   0   8   3    6.03    0.28
   0   8   3    5.59    0.38
  -1   8   4    0.81    0.18
  -2   8   5    0.59    0.17
   3  -8  -6    5.34    0.31
  -3   8   6    5.23    0.39
  -4  -7   0    3.13    0.24
   4   7   0    3.32    0.28
  -3  -7  -1   -0.04    0.07
   3   7   1   -0.05    0.10
   3   7   1    0.24    0.09
   3   7   1    0.26    0.12
   2   7   2    3.29    0.28
   1   7   3    3.71    0.29
   1   7   3    3.82    0.22
   0   7   4    0.05    0.06
   0   7   4    0.15    0.12
   1  -7  -5    7.93    0.32
   1  -7  -5    8.48    0.38
  -1   7   5    8.03    0.45
   2  -7  -6    1.68    0.14
   2  -7  -6    1.64    0.17
  -2   7   6    1.80    0.23
   3  -7  -7    1.49    0.17
  -3   7   7    1.27    0.21
   4  -7  -8    0.00    0.09
  -4   7   8   -0.02    0.11
  -5  -6   0    0.76    0.15
   5   6   0    0.71    0.17
  -4  -6  -1    1.22    0.16
   4   6   1    1.76    0.21
   4   6   1    1.46    0.17
  -3  -6  -2    0.11    0.07
   3   6   2    0.10    0.11
   3   6   2    0.20    0.08
   3   6   2    0.21    0.11
  -2  -6  -3    2.80    0.19
   2   6   3    2.75    0.18
   2   6   3    2.86    0.25
  -1  -6  -4    0.44    0.12
   1   6   4    0.30    0.08
   1   6   4    0.46    0.13
   0  -6  -5   20.28    0.62
   0  -6  -5   20.76    0.68
   0   6   5   19.35    0.77
   1  -6  -6   10.26    0.41
   1  -6  -6    9.72    0.36
  -1   6   6    9.29    0.48
   2  -6  -7    2.59    0.21
   2  -6  -7    2.60    0.17
  -2   6   7    2.52    0.25
   3  -6  -8    1.33    0.16
  -3   6   8    1.68    0.22
   4  -6  -9    0.48    0.13
  -4   6   9    0.13    0.14
  -6  -5   0    5.38    0.32
   6   5   0    5.30    0.35
  -5  -5  -1    1.78    0.19
   5   5   1    1.98    0.19
   5   5   1    1.90    0.22
  -4  -5  -2    5.67    0.29
   4   5   2    5.30    0.26
   4   5   2    5.75    0.30
   4   5   2    5.88    0.32
  -3  -5  -3    0.87    0.12
  -3  -5  -3    0.78    0.12
   3   5   3    0.87    0.11
   3   5   3    0.87    0.14
   3   5   3    0.89    0.12
  -2  -5  -4   10.82    0.41
  -2  -5  -4   10.41    0.40
   2   5   4   10.60    0.42
   2   5   4    9.69    0.46
   2   5   4   10.81    0.39
  -1  -5  -5   32.36    0.90
  -1  -5  -5   32.50    0.98
   1   5   5   30.85    1.07
   1   5   5   32.43    0.92
   0  -5  -6    0.32    0.08
   0  -5  -6    0.50    0.11
   0   5   6    0.46    0.13
   1  -5  -7    1.09    0.14
   1  -5  -7    1.00    0.11
  -1   5   7    0.95    0.16
   2  -5  -8    0.08    0.06
   2  -5  -8    0.28    0.10
  -2   5   8    0.32    0.13
   3  -5  -9    0.45    0.12
  -3   5   9    0.16    0.12
   4  -5 -10    1.98    0.20
  -4   5  10    1.84    0.24
  -6  -4  -1    0.64    0.13
   6   4   1    0.33    0.10
  -5  -4  -2    0.48    0.11
  -5  -4  -2    0.57    0.12
   5   4   2    0.48    0.11
   5   4   2    0.48    0.09
  -4  -4  -3    0.43    0.10
  -4  -4  -3    0.46    0.10
   4   4   3    0.49    0.10
   4   4   3    0.42    0.08
  -3  -4  -4    0.19    0.09
  -3  -4  -4    0.05    0.06
   3   4   4    0.13    0.06
   3   4   4   -0.05    0.04
   3   4   4    0.03    0.08
  -2  -4  -5    9.04    0.34
  -2  -4  -5    8.25    0.36
   2   4   5    8.11    0.32
   2   4   5    8.42    0.39
  -1  -4  -6    0.49    0.11
  -1  -4  -6    0.52    0.08
   1   4   6    0.55    0.13
   1   4   6    0.64    0.08
   0  -4  -7    0.28    0.10
   0  -4  -7    0.30    0.07
   0   4   7    0.43    0.12
   1  -4  -8    1.00    0.14
   1  -4  -8    1.13    0.11
  -1   4   8    0.89    0.16
   2  -4  -9    1.93    0.18
   2  -4  -9    2.04    0.14
  -2   4   9    1.64    0.21
   3  -4 -10    4.15    0.21
   3  -4 -10    4.16    0.26
  -3   4  10    3.79    0.30
   4  -4 -11    0.77    0.14
  -4   4  11    0.85    0.19
  -7  -3  -1    1.34    0.19
  -6  -3  -2    8.74    0.37
  -6  -3  -2    8.37    0.40
   6   3   2    8.97    0.42
  -5  -3  -3    1.90    0.17
  -5  -3  -3    1.60    0.15
   5   3   3    1.60    0.15
   5   3   3    1.36    0.12
  -4  -3  -4    8.65    0.36
  -4  -3  -4    8.88    0.37
   4   3   4    8.99    0.37
   4   3   4    8.24    0.33
  -3  -3  -5   22.22    0.69
  -3  -3  -5   21.09    0.69
   3   3   5   20.84    0.73
   3   3   5   19.85    0.64
   3   3   5   20.85    0.69
  -2  -3  -6   -0.13    0.08
  -2  -3  -6    0.06    0.05
  -2  -3  -6   -0.03    0.04
   2   3   6    0.00    0.05
   2   3   6    0.05    0.08
  -1  -3  -7   58.83    1.66
  -1  -3  -7   61.00    1.58
   1   3   7   56.27    1.56
   1   3   7   59.81    1.79
   0  -3  -8    0.40    0.08
   0  -3  -8    0.22    0.10
   0   3   8    0.40    0.12
   1  -3  -9    8.92    0.39
   1  -3  -9    8.60    0.32
  -1   3   9    7.93    0.42
   2  -3 -10    6.17    0.32
   2  -3 -10    6.29    0.26
  -2   3  10    5.64    0.36
   3  -3 -11   11.63    0.40
   3  -3 -11   11.44    0.49
  -3   3  11   10.98    0.55
   4  -3 -12    0.20    0.10
  -4   3  12    0.29    0.15
  -7  -2  -2    1.74    0.17
  -7  -2  -2    1.96    0.20
   7   2   2    2.00    0.20
  -6  -2  -3    0.19    0.08
  -6  -2  -3    0.39    0.10
   6   2   3    0.27    0.07
   6   2   3    0.46    0.11
  -5  -2  -4    0.66    0.12
  -5  -2  -4    0.76    0.12
   5   2   4    0.78    0.11
   5   2   4    0.65    0.09
  -4  -2  -5    0.31    0.10
  -4  -2  -5    0.28    0.08
   4   2   5    0.30    0.08
   4   2   5    0.25    0.07
  -3  -2  -6   23.91    0.72
  -3  -2  -6   22.77    0.74
   3   2   6   22.42    0.68
   3   2   6   21.41    0.72
   3   2   6   22.78    0.76
  -2  -2  -7   16.70    0.60
  -2  -2  -7   16.85    0.53
  -2  -2  -7   18.10    0.56
   2   2   7   17.50    0.53
   2   2   7   17.62    0.63
  -1  -2  -8    0.96    0.14
  -1  -2  -8    1.14    0.10
   1   2   8    0.99    0.15
   0  -2  -9   15.10    0.49
   0  -2  -9   15.35    0.56
   0   2   9   15.66    0.62
   1  -2 -10   35.07    1.08
   1  -2 -10   36.63    1.00
  -1   2  10   34.22    1.19
   2  -2 -11    5.61    0.31
   2  -2 -11    5.82    0.25
  -2   2  11    5.95    0.38
   3  -2 -12    1.51    0.12
   3  -2 -12    1.48    0.17
  -3   2  12    1.12    0.19
   4  -2 -13    3.68    0.28
  -4   2  13    3.90    0.33
  -8  -1  -2    3.20    0.24
  -8  -1  -2    3.21    0.24
  -7  -1  -3    4.45    0.27
  -7  -1  -3    4.09    0.26
   7   1   3    3.97    0.26
  -6  -1  -4    1.69    0.17
  -6  -1  -4    2.00    0.17
   6   1   4    2.02    0.17
   6   1   4    1.84    0.14
  -5  -1  -5   10.80    0.43
  -5  -1  -5   10.48    0.43
   5   1   5   11.12    0.44
   5   1   5   11.05    0.39
  -4  -1  -6    4.06    0.22
  -4  -1  -6    4.30    0.26
   4   1   6    4.39    0.23
   4   1   6    4.36    0.21
  -3  -1  -7    2.47    0.16
  -3  -1  -7    2.61    0.20
  -3  -1  -7    2.44    0.14
   3   1   7    2.65    0.19
   3   1   7    2.31    0.15
  -2  -1  -8   13.15    0.43
  -2  -1  -8   13.85    0.46
  -2  -1  -8   12.99    0.50
  -2  -1  -8   13.28    0.54
   2   1   8   13.17    0.52
   2   1   8   13.06    0.42
  -1  -1  -9   30.29    0.97
  -1  -1  -9   32.95    1.08
  -1  -1  -9   32.78    0.93
  -1  -1  -9   30.53    0.90
   1   1   9   31.94    1.05
   0  -1 -10    2.65    0.23
   0  -1 -10    2.60    0.16
   0  -1 -10    2.85    0.21
   0   1  10    2.69    0.23
   1  -1 -11    5.52    0.31
   1  -1 -11    6.44    0.25
  -1   1  11    5.58    0.35
   2  -1 -12    0.32    0.11
   2  -1 -12    0.35    0.07
  -2   1  12    0.09    0.11
   3  -1 -13    0.02    0.09
   3  -1 -13   -0.02    0.05
  -3   1  13   -0.09    0.09
  -8   0  -3    3.14    0.24
  -8   0  -3    3.12    0.24
  -7   0  -4    0.47    0.11
  -7   0  -4    0.39    0.11
   7   0   4    0.45    0.11
  -6   0  -5    0.70    0.12
  -6   0  -5    0.62    0.12
   6   0   5    0.62    0.09
   6   0   5    0.49    0.11
  -5   0  -6    0.04    0.07
  -5   0  -6    0.01    0.09
   5   0   6    0.00    0.06
   5   0   6    0.05    0.05
  -4   0  -7    0.11    0.09
  -4   0  -7    0.29    0.08
   4   0   7    0.46    0.09
   4   0   7    0.32    0.07
  -3   0  -8    6.43    0.25
  -3   0  -8    5.85    0.27
  -3   0  -8    6.29    0.33
  -3   0  -8    5.52    0.30
   3   0   8    5.67    0.24
   3   0   8    6.37    0.30
  -2   0  -9    0.28    0.10
  -2   0  -9    0.14    0.06
  -2   0  -9    0.28    0.08
  -2   0  -9    0.25    0.11
   2   0   9    0.18    0.09
  -1   0 -10   23.07    0.76
  -1   0 -10   23.06    0.81
  -1   0 -10   23.16    0.71
  -1   0 -10   22.49    0.68
   1   0  10   22.41    0.81
   0   0 -11   17.11    0.64
   0   0 -11   16.15    0.52
   0   0 -11   16.21    0.60
   0   0  11   15.90    0.65
   1   0 -12    0.03    0.09
   1   0 -12    0.00    0.05
  -1   0  12   -0.01    0.10
   2   0 -13    1.41    0.17
   2   0 -13    1.41    0.12
  -2   0  13    1.45    0.21
   3   0 -14    3.05    0.25
  -3   0  14    3.11    0.30
  -8   1  -4    0.62    0.14
  -8   1  -4    0.73    0.14
  -7   1  -5    1.34    0.16
  -7   1  -5    0.88    0.14
   7  -1   5    1.01    0.15
  -6   1  -6    0.65    0.12
  -6   1  -6    0.61    0.13
   6  -1   6    0.45    0.11
   6  -1   6    0.38    0.08
  -5   1  -7    4.84    0.28
  -5   1  -7    4.82    0.26
   5  -1   7    4.78    0.27
   5  -1   7    4.89    0.23
  -4   1  -8    0.63    0.11
  -4   1  -8    0.44    0.12
  -4   1  -8    0.44    0.07
   4  -1   8    0.49    0.08
   4  -1   8    0.44    0.10
  -3   1  -9    7.62    0.33
  -3   1  -9    7.75    0.37
  -3   1  -9    8.08    0.30
  -3   1  -9    7.48    0.36
   3  -1   9    8.41    0.36
   3  -1   9    8.14    0.29
  -2   1 -10   13.04    0.50
  -2   1 -10   11.87    0.48
  -2   1 -10   12.14    0.45
  -2   1 -10   11.40    0.41
   2  -1  10   12.26    0.50
  -1   1 -11    0.52    0.09
  -1   1 -11    0.80    0.13
  -1   1 -11    0.75    0.13
  -1   1 -11    0.75    0.11
   1  -1  11    0.86    0.15
   0   1 -12    0.18    0.10
   0   1 -12    0.09    0.06
   0  -1  12    0.10    0.10
   1   1 -13    0.61    0.13
   1   1 -13    0.65    0.09
  -1  -1  13    0.54    0.15
   2   1 -14    0.14    0.10
   2   1 -14    0.32    0.08
  -2  -1  14    0.36    0.14
  -8   2  -5    2.16    0.20
  -8   2  -5    2.48    0.21
  -7   2  -6    0.18    0.09
  -7   2  -6    0.25    0.11
   7  -2   6   -0.05    0.08
  -6   2  -7    1.03    0.14
  -6   2  -7    0.86    0.13
   6  -2   7    0.84    0.14
   6  -2   7    0.81    0.11
  -5   2  -8    6.81    0.32
  -5   2  -8    6.87    0.34
   5  -2   8    6.64    0.28
   5  -2   8    6.33    0.33
  -4   2  -9    0.38    0.07
  -4   2  -9    0.42    0.10
  -4   2  -9    0.35    0.11
   4  -2   9    0.35    0.07
   4  -2   9    0.41    0.10
  -3   2 -10    9.33    0.34
  -3   2 -10    8.84    0.38
  -3   2 -10    8.61    0.39
   3  -2  10    9.20    0.39
   3  -2  10    9.08    0.39
  -2   2 -11    1.75    0.14
  -2   2 -11    1.74    0.17
  -2   2 -11    1.81    0.16
   2  -2  11    1.79    0.18
  -1   2 -12    0.00    0.05
  -1   2 -12   -0.01    0.07
  -1   2 -12    0.22    0.10
   1  -2  12    0.03    0.08
   0   2 -13    2.74    0.22
   0   2 -13    2.60    0.17
   0  -2  13    2.77    0.25
   1   2 -14    2.66    0.22
  -1  -2  14    2.23    0.24
   2   2 -15   -0.03    0.10
  -2  -2  15    0.01    0.12
  -8   3  -6    4.10    0.27
  -7   3  -7    2.33    0.21
  -7   3  -7    2.53    0.20
   7  -3   7    2.57    0.23
  -6   3  -8    3.72    0.24
  -6   3  -8    3.67    0.25
   6  -3   8    3.22    0.19
   6  -3   8    3.59    0.26
  -5   3  -9   13.72    0.54
  -5   3  -9   13.38    0.53
   5  -3   9   13.88    0.57
   5  -3   9   14.33    0.47
  -4   3 -10    2.89    0.21
  -4   3 -10    2.93    0.22
  -4   3 -10    3.15    0.18
   4  -3  10    3.31    0.23
  -3   3 -11    0.02    0.06
  -3   3 -11   -0.04    0.08
  -3   3 -11    0.03    0.08
  -2   3 -12    0.04    0.07
  -2   3 -12   -0.01    0.09
  -2   3 -12   -0.06    0.05
   2  -3  12   -0.09    0.08
  -1   3 -13   -0.05    0.08
  -1   3 -13   -0.06    0.09
   1  -3  13    0.07    0.10
   0   3 -14   -0.06    0.10
   0  -3  14    0.12    0.11
   1   3 -15    0.13    0.12
  -1  -3  15    0.09    0.12
  -8   4  -7    0.28    0.12
  -7   4  -8    0.14    0.11
  -7   4  -8    0.00    0.08
   7  -4   8    0.22    0.11
  -6   4  -9    0.25    0.11
  -6   4  -9    0.17    0.09
   6  -4   9    0.09    0.07
   6  -4   9    0.06    0.10
  -5   4 -10    0.14    0.09
  -5   4 -10    0.01    0.07
   5  -4  10    0.03    0.09
  -4   4 -11    0.10    0.09
  -4   4 -11    0.10    0.08
  -4   4 -11    0.16    0.07
  -3   4 -12    1.80    0.19
  -3   4 -12    1.87    0.15
  -3   4 -12    1.75    0.18
  -2   4 -13    6.17    0.33
  -2   4 -13    5.69    0.32
   2  -4  13    5.99    0.34
  -1   4 -14    0.88    0.15
  -1   4 -14    1.40    0.18
   1  -4  14    1.02    0.17
  -7   5  -9    1.57    0.20
  -7   5  -9    1.21    0.17
  -6   5 -10    1.37    0.17
  -6   5 -10    1.26    0.18
   6  -5  10    1.17    0.20
  -5   5 -11    2.16    0.20
  -5   5 -11    2.25    0.23
  -4   5 -12    0.41    0.12
  -4   5 -12    0.36    0.12
  -3   5 -13    0.02    0.10
  -3   5 -13   -0.09    0.07
  -2   5 -14    0.23    0.12
  -2   5 -14    0.54    0.15
   1   8   3    8.64    0.48
   0   8   4   10.64    0.56
  -1   8   5    3.38    0.32
   2  -8  -6    1.64    0.19
  -2   8   6    1.03    0.21
   3   7   2    1.27    0.20
   2   7   3    0.84    0.17
   1   7   4    1.10    0.19
   1   7   4    0.83    0.12
   0   7   5   -0.07    0.10
   1  -7  -6    0.14    0.11
   1  -7  -6    0.11    0.07
  -1   7   6    0.23    0.13
   2  -7  -7   -0.10    0.09
  -2   7   7    0.06    0.12
   3  -7  -8    0.53    0.14
  -3   7   8    0.47    0.17
  -4  -6  -2    2.28    0.21
   4   6   2    2.15    0.20
   4   6   2    1.92    0.22
  -3  -6  -3    3.90    0.24
   3   6   3    3.83    0.28
   2   6   4    6.78    0.39
   2   6   4    7.57    0.32
  -1  -6  -5    2.01    0.19
   1   6   5    2.25    0.16
   1   6   5    2.04    0.22
   0  -6  -6    3.92    0.26
   0  -6  -6    3.94    0.20
   0   6   6    3.60    0.29
   1  -6  -7    0.07    0.10
   1  -6  -7    0.07    0.06
  -1   6   7    0.00    0.10
   2  -6  -8    9.20    0.41
  -2   6   8    8.84    0.50
   3  -6  -9    7.00    0.37
  -3   6   9    6.93    0.44
  -5  -5  -2    2.30    0.21
   5   5   2    1.88    0.19
  -4  -5  -3    5.50    0.29
   4   5   3    5.53    0.30
  -3  -5  -4    2.29    0.19
  -3  -5  -4    2.70    0.18
   3   5   4    2.38    0.17
   3   5   4    2.67    0.22
  -2  -5  -5    3.42    0.24
   2   5   5    3.72    0.27
   2   5   5    3.64    0.20
  -1  -5  -6    1.77    0.14
  -1  -5  -6    1.78    0.18
   1   5   6    2.05    0.21
   1   5   6    1.88    0.14
   0  -5  -7    3.24    0.23
   0  -5  -7    3.55    0.19
   0   5   7    3.21    0.26
   1  -5  -8    1.04    0.11
   1  -5  -8    0.92    0.15
  -1   5   8    0.98    0.18
   2  -5  -9    0.52    0.13
  -2   5   9    0.49    0.15
   3  -5 -10    6.16    0.34
  -3   5  10    6.12    0.41
  -6  -4  -2    0.68    0.14
  -5  -4  -3    0.55    0.12
  -5  -4  -3    0.44    0.11
   5   4   3    0.59    0.12
  -4  -4  -4    0.12    0.07
  -4  -4  -4    0.38    0.10
   4   4   4    0.15    0.07
   4   4   4    0.21    0.08
  -3  -4  -5   -0.02    0.08
  -3  -4  -5    0.09    0.06
   3   4   5    0.10    0.06
   3   4   5    0.07    0.08
  -2  -4  -6    8.09    0.37
   2   4   6    8.67    0.33
   2   4   6    7.94    0.40
  -1  -4  -7    0.69    0.13
  -1  -4  -7    0.74    0.10
   1   4   7    0.75    0.14
   0  -4  -8    0.74    0.14
   0  -4  -8    0.94    0.11
   0   4   8    1.00    0.16
   1  -4  -9   25.17    0.82
   1  -4  -9   24.04    0.73
  -1   4   9   23.22    0.90
   2  -4 -10    1.32    0.17
  -2   4  10    1.54    0.21
   3  -4 -11    3.64    0.27
  -3   4  11    3.95    0.33
  -7  -3  -2    4.51    0.29
  -6  -3  -3    6.47    0.33
  -6  -3  -3    6.15    0.31
   6   3   3    6.30    0.34
  -5  -3  -4    0.24    0.10
  -5  -3  -4    0.28    0.09
   5   3   4    0.51    0.11
  -4  -3  -5    5.25    0.28
  -4  -3  -5    5.03    0.26
   4   3   5    4.77    0.24
   4   3   5    4.89    0.26
  -3  -3  -6    4.34    0.26
  -3  -3  -6    4.01    0.22
   3   3   6    3.81    0.25
   3   3   6    4.11    0.21
  -2  -3  -7    0.27    0.07
  -2  -3  -7    0.28    0.11
   2   3   7    0.35    0.11
   2   3   7    0.39    0.08
  -1  -3  -8    0.15    0.10
  -1  -3  -8    0.15    0.07
   1   3   8    0.16    0.09
   0  -3  -9    2.76    0.17
   0  -3  -9    2.98    0.22
   0   3   9    2.08    0.22
   1  -3 -10    9.34    0.35
   1  -3 -10    9.62    0.43
  -1   3  10    9.32    0.47
   2  -3 -11   -0.10    0.08
  -2   3  11    0.04    0.12
   3  -3 -12   -0.03    0.08
  -3   3  12    0.08    0.12
  -7  -2  -3    0.24    0.10
  -7  -2  -3    0.07    0.08
  -6  -2  -4    0.04    0.09
  -6  -2  -4    0.04    0.07
   6   2   4   -0.01    0.06
  -5  -2  -5    1.19    0.14
  -5  -2  -5    0.97    0.14
   5   2   5    0.91    0.12
   5   2   5    1.07    0.12
  -4  -2  -6    6.61    0.33
  -4  -2  -6    6.60    0.30
   4   2   6    6.42    0.28
   4   2   6    6.49    0.30
  -3  -2  -7    1.67    0.14
  -3  -2  -7    2.12    0.19
   3   2   7    2.06    0.18
   3   2   7    1.71    0.13
  -2  -2  -8   10.15    0.38
  -2  -2  -8   10.70    0.37
  -2  -2  -8   10.26    0.44
   2   2   8   10.23    0.45
   2   2   8   10.34    0.36
  -1  -2  -9   32.04    0.91
  -1  -2  -9   30.02    0.98
   1   2   9   32.67    1.07
   0  -2 -10    2.19    0.15
   0  -2 -10    1.80    0.19
   0   2  10    2.30    0.23
   1  -2 -11    0.08    0.09
   1  -2 -11    0.01    0.06
  -1   2  11    0.01    0.10
   2  -2 -12    0.63    0.13
  -2   2  12    0.44    0.15
   3  -2 -13    5.56    0.33
  -3   2  13    5.89    0.40
  -7  -1  -4    2.18    0.21
  -7  -1  -4    1.79    0.18
   7   1   4    2.03    0.20
  -6  -1  -5    2.15    0.19
  -6  -1  -5    2.34    0.19
   6   1   5    2.36    0.20
  -5  -1  -6    6.96    0.34
  -5  -1  -6    7.77    0.35
   5   1   6    7.44    0.35
   5   1   6    7.46    0.31
  -4  -1  -7   10.29    0.44
  -4  -1  -7   10.58    0.41
   4   1   7   11.02    0.42
   4   1   7   10.40    0.38
  -3  -1  -8    0.52    0.08
  -3  -1  -8    0.56    0.09
  -3  -1  -8    0.22    0.11
   3   1   8    0.53    0.08
   3   1   8    0.38    0.10
  -2  -1  -9    0.69    0.14
  -2  -1  -9    0.97    0.10
  -2  -1  -9    0.88    0.11
   2   1   9    0.86    0.14
  -1  -1 -10    2.25    0.20
  -1  -1 -10    2.56    0.16
   1   1  10    2.45    0.22
   0  -1 -11    0.79    0.14
   0  -1 -11    1.05    0.11
   0   1  11    0.68    0.15
   1  -1 -12    1.90    0.19
   1  -1 -12    1.68    0.14
  -1   1  12    1.91    0.22
   2  -1 -13    0.05    0.10
  -2   1  13    0.15    0.12
   3  -1 -14    4.32    0.29
  -3   1  14    3.79    0.33
  -8   0  -4    0.63    0.14
  -7   0  -5    0.20    0.10
  -7   0  -5    0.12    0.10
   7   0   5    0.13    0.09
  -6   0  -6    0.08    0.09
  -6   0  -6    0.04    0.06
   6   0   6    0.03    0.06
  -5   0  -7    0.92    0.13
  -5   0  -7    0.84    0.14
   5   0   7    0.86    0.11
   5   0   7    0.70    0.11
  -4   0  -8    7.41    0.33
  -4   0  -8    7.54    0.37
   4   0   8    7.88    0.31
   4   0   8    7.53    0.34
  -3   0  -9    6.24    0.29
  -3   0  -9    6.34    0.34
  -3   0  -9    6.59    0.26
   3   0   9    5.99    0.25
  -2   0 -10    3.31    0.18
  -2   0 -10    3.68    0.20
  -2   0 -10    2.71    0.23
   2   0  10    3.00    0.23
  -1   0 -11    4.47    0.28
  -1   0 -11    4.98    0.23
   1   0  11    3.88    0.28
   0   0 -12    2.21    0.21
   0   0 -12    1.97    0.15
   0   0  12    2.33    0.23
   1   0 -13   15.69    0.61
  -1   0  13   15.95    0.68
   2   0 -14    2.22    0.22
  -2   0  14    2.42    0.27
  -8   1  -5    0.08    0.10
  -8   1  -5    0.10    0.08
  -7   1  -6    0.79    0.15
  -7   1  -6    0.79    0.14
   7  -1   6    0.65    0.14
  -6   1  -7    4.25    0.26
  -6   1  -7    3.94    0.25
   6  -1   7    4.03    0.22
   6  -1   7    4.05    0.26
  -5   1  -8    1.27    0.15
  -5   1  -8    1.01    0.15
   5  -1   8    1.17    0.12
   5  -1   8    1.06    0.14
  -4   1  -9    0.24    0.08
  -4   1  -9    0.70    0.13
   4  -1   9    0.22    0.07
   4  -1   9    0.30    0.09
  -3   1 -10    3.57    0.20
  -3   1 -10    3.70    0.25
  -3   1 -10    3.51    0.21
  -2   1 -11    0.11    0.06
  -2   1 -11    0.15    0.10
  -2   1 -11    0.06    0.06
   2  -1  11    0.04    0.09
  -1   1 -12    1.14    0.12
  -1   1 -12    0.77    0.14
   1  -1  12    1.08    0.16
   0   1 -13   -0.05    0.09
   0  -1  13   -0.04    0.10
   1   1 -14    2.08    0.21
  -1  -1  14    1.80    0.23
  -8   2  -6    1.86    0.20
  -7   2  -7    0.00    0.07
  -7   2  -7    0.03    0.09
   7  -2   7   -0.01    0.08
  -6   2  -8    0.67    0.13
  -6   2  -8    0.68    0.14
   6  -2   8    0.78    0.11
   6  -2   8    0.64    0.13
  -5   2  -9    4.31    0.28
  -5   2  -9    4.69    0.27
   5  -2   9    4.62    0.23
   5  -2   9    4.76    0.28
  -4   2 -10    3.79    0.20
  -4   2 -10    4.33    0.27
  -4   2 -10    3.91    0.24
  -3   2 -11    2.36    0.18
  -3   2 -11    2.18    0.20
  -3   2 -11    2.76    0.17
  -2   2 -12    3.17    0.19
  -2   2 -12    3.09    0.21
  -2   2 -12    2.78    0.23
   2  -2  12    3.04    0.24
  -1   2 -13    4.58    0.30
   1  -2  13    4.66    0.31
   0   2 -14    0.88    0.16
   0  -2  14    1.09    0.19
  -1  -2  15    0.93    0.19
  -7   3  -8    2.36    0.22
  -7   3  -8    1.78    0.19
   7  -3   8    2.05    0.21
  -6   3  -9    0.35    0.11
  -6   3  -9    0.08    0.10
   6  -3   9    0.34    0.09
   6  -3   9    0.32    0.12
  -5   3 -10    2.87    0.21
  -5   3 -10    2.53    0.22
   5  -3  10    2.57    0.23
  -4   3 -11    0.95    0.11
  -4   3 -11    1.22    0.16
  -4   3 -11    0.91    0.15
  -3   3 -12    1.64    0.18
  -3   3 -12    1.18    0.16
  -3   3 -12    1.48    0.14
  -2   3 -13    0.31    0.11
  -2   3 -13    0.33    0.13
   2  -3  13    0.28    0.11
  -1   3 -14    0.00    0.10
   1  -3  14    0.08    0.10
  -7   4  -9    0.47    0.14
  -6   4 -10    1.59    0.19
  -6   4 -10    1.35    0.18
   6  -4  10    1.09    0.18
  -5   4 -11    0.71    0.15
  -5   4 -11    0.95    0.15
  -4   4 -12    0.10    0.10
  -4   4 -12    0.04    0.07
  -4   4 -12   -0.08    0.08
  -3   4 -13   -0.07    0.08
  -3   4 -13   -0.02    0.09
  -2   4 -14    1.29    0.18
  -2   4 -14    1.11    0.17
   2  -4  14    1.31    0.18
   2   7   4    0.17    0.12
   1   7   5    0.27    0.14
   0  -7  -6    0.01    0.11
   0   7   6    0.16    0.13
   1  -7  -7   -0.13    0.10
  -1   7   7    0.17    0.13
   2   6   5    9.49    0.48
  -1  -6  -6    3.38    0.25
   1   6   6    3.66    0.30
   0  -6  -7    5.32    0.25
   0  -6  -7    5.41    0.31
   0   6   7    5.00    0.35
   1  -6  -8    0.20    0.11
  -1   6   8    0.07    0.12
   2  -6  -9    2.07    0.21
  -2   6   9    1.74    0.24
  -5  -5  -3    1.77    0.19
  -4  -5  -4    2.24    0.19
  -3  -5  -5    0.74    0.14
  -2  -5  -6    0.70    0.14
   2   5   6    0.81    0.11
   2   5   6    0.96    0.16
  -1  -5  -7    2.38    0.22
   1   5   7    3.11    0.26
   0  -5  -8    0.56    0.14
   0  -5  -8    0.48    0.10
   0   5   8    0.56    0.15
   1  -5  -9    1.69    0.20
  -1   5   9    1.99    0.24
   2  -5 -10    1.04    0.16
  -2   5  10    1.14    0.21
  -5  -4  -4    3.28    0.23
  -5  -4  -4    3.80    0.24
   5   4   4    4.02    0.26
  -4  -4  -5    0.26    0.11
  -4  -4  -5    0.15    0.08
  -3  -4  -6    9.27    0.41
   3   4   6    9.16    0.37
  -2  -4  -7    7.34    0.37
   2   4   7    7.51    0.39
   2   4   7    7.56    0.31
  -1  -4  -8    2.24    0.21
  -1  -4  -8    2.48    0.16
   1   4   8    2.30    0.23
   0  -4  -9    4.67    0.30
   0  -4  -9    4.82    0.24
   0   4   9    5.05    0.34
   1  -4 -10    1.69    0.19
  -1   4  10    1.38    0.20
   2  -4 -11    3.63    0.27
  -2   4  11    2.95    0.30
  -6  -3  -4    0.79    0.14
  -6  -3  -4    0.94    0.15
   6   3   4    0.73    0.14
  -5  -3  -5    2.10    0.18
  -5  -3  -5    1.85    0.18
   5   3   5    1.83    0.17
  -4  -3  -6    1.99    0.17
  -4  -3  -6    2.65    0.22
   4   3   6    2.06    0.16
  -3  -3  -7    0.31    0.12
   3   3   7    0.17    0.07
  -2  -3  -8   11.03    0.38
  -2  -3  -8   10.23    0.45
   2   3   8    9.66    0.46
  -1  -3  -9    0.03    0.10
  -1  -3  -9    0.12    0.07
   1   3   9    0.11    0.10
   0  -3 -10   -0.06    0.09
   0  -3 -10    0.12    0.07
   0   3  10    0.14    0.10
   1  -3 -11    0.00    0.11
  -1   3  11    0.00    0.10
   2  -3 -12    2.06    0.22
  -2   3  12    1.73    0.24
  -6  -2  -5    0.22    0.11
  -6  -2  -5    0.31    0.10
   6   2   5    0.13    0.09
  -5  -2  -6    2.83    0.20
  -5  -2  -6    2.66    0.22
   5   2   6    3.05    0.21
  -4  -2  -7    2.63    0.21
  -4  -2  -7    2.27    0.17
   4   2   7    2.17    0.16
  -3  -2  -8    0.79    0.11
  -3  -2  -8    0.92    0.15
   3   2   8    1.09    0.11
  -2  -2  -9    1.64    0.13
  -2  -2  -9    1.36    0.18
   2   2   9    1.92    0.20
  -1  -2 -10    2.15    0.21
  -1  -2 -10    2.43    0.16
   1   2  10    2.43    0.22
   0  -2 -11    6.11    0.35
   0   2  11    6.32    0.38
   1  -2 -12    0.07    0.10
  -1   2  12    0.06    0.11
   2  -2 -13   -0.09    0.09
  -2   2  13   -0.05    0.10
  -7  -1  -5    2.55    0.21
  -7  -1  -5    2.22    0.21
  -6  -1  -6    0.04    0.09
  -6  -1  -6    0.31    0.10
   6   1   6    0.06    0.08
  -5  -1  -7    2.67    0.20
  -5  -1  -7    2.80    0.23
   5   1   7    3.02    0.21
   5   1   7    2.98    0.19
  -4  -1  -8    2.26    0.20
  -4  -1  -8    1.87    0.16
   4   1   8    1.87    0.15
  -3  -1  -9    3.48    0.26
  -3  -1  -9    3.24    0.20
  -3  -1  -9    3.08    0.18
  -2  -1 -10    3.91    0.21
  -2  -1 -10    3.81    0.26
   2   1  10    3.73    0.27
  -1  -1 -11    1.58    0.14
  -1  -1 -11    1.63    0.19
   1   1  11    1.53    0.19
   0  -1 -12    3.06    0.25
   0   1  12    3.49    0.28
   1  -1 -13    3.89    0.28
  -1   1  13    4.28    0.33
  -2   1  14    2.87    0.30
  -7   0  -6    0.89    0.16
  -7   0  -6    0.88    0.15
   7   0   6    0.83    0.15
  -6   0  -7    0.18    0.11
  -6   0  -7    0.34    0.10
   6   0   7    0.27    0.10
  -5   0  -8    2.94    0.20
  -5   0  -8    2.90    0.24
   5   0   8    3.15    0.19
   5   0   8    3.13    0.22
  -4   0  -9    3.02    0.25
  -4   0  -9    3.18    0.21
   4   0   9    3.20    0.18
  -3   0 -10   11.67    0.50
  -3   0 -10   12.54    0.47
  -3   0 -10   12.35    0.43
  -2   0 -11   14.22    0.57
  -2   0 -11   14.56    0.49
   2   0  11   15.05    0.60
  -1   0 -12    4.71    0.30
   1   0  12    5.28    0.33
   0   0 -13    2.48    0.23
   0   0  13    2.55    0.25
   1   0 -14    2.53    0.24
  -1   0  14    2.96    0.29
  -7   1  -7    1.68    0.19
  -7   1  -7    1.51    0.18
   7  -1   7    1.24    0.17
  -6   1  -8    4.12    0.27
  -6   1  -8    4.33    0.27
   6  -1   8    4.04    0.28
  -5   1  -9    0.10    0.11
  -5   1  -9    0.09    0.08
   5  -1   9    0.31    0.08
  -4   1 -10    0.36    0.10
  -4   1 -10    0.24    0.11
  -3   1 -11    3.15    0.21
  -3   1 -11    3.35    0.20
  -3   1 -11    3.22    0.26
  -2   1 -12   -0.06    0.09
   2  -1  12    0.00    0.08
  -1   1 -13    0.04    0.11
   1  -1  13    0.27    0.12
   0   1 -14    0.51    0.14
   0  -1  14    0.36    0.14
  -7   2  -8    0.30    0.11
  -7   2  -8    0.35    0.12
  -6   2  -9    0.13    0.11
  -6   2  -9   -0.14    0.06
   6  -2   9   -0.06    0.08
  -5   2 -10    2.01    0.19
  -5   2 -10    1.35    0.18
  -4   2 -11    6.81    0.36
  -4   2 -11    7.34    0.35
  -3   2 -12    1.26    0.18
  -3   2 -12    1.39    0.16
  -2   2 -13    2.47    0.22
  -1   2 -14    4.23    0.30
   1  -2  14    4.01    0.31
  -6   3 -10    1.42    0.18
  -6   3 -10    1.55    0.19
   6  -3  10    1.17    0.18
  -5   3 -11    0.42    0.12
  -5   3 -11    0.47    0.14
  -4   3 -12   -0.09    0.08
  -4   3 -12   -0.03    0.09
  -4   3 -12    0.01    0.07
  -3   3 -13    0.47    0.14
  -3   3 -13    0.76    0.15
  -2   3 -14    0.13    0.12
  -2  -6  -6    7.65    0.38
   2   6   6    7.34    0.43
  -1  -6  -7    9.07    0.44
   1   6   7    9.83    0.50
   0  -6  -8    3.71    0.28
   0   6   8    3.42    0.31
  -3  -5  -6    0.75    0.15
  -2  -5  -7   -0.12    0.10
   2   5   7    0.02    0.11
  -1  -5  -8    0.24    0.13
   1   5   8    0.14    0.12
   0  -5  -9   -0.13    0.09
   0   5   9    0.06    0.11
   1  -5 -10    5.00    0.32
  -1   5  10    4.97    0.37
  -4  -4  -6    7.27    0.37
  -3  -4  -7    7.74    0.39
   3   4   7    7.52    0.33
  -2  -4  -8    2.73    0.24
   2   4   8    3.19    0.26
  -1  -4  -9    5.82    0.34
  -1  -4  -9    6.63    0.28
   1   4   9    5.82    0.37
   0  -4 -10    0.57    0.15
   0   4  10    0.85    0.17
   1  -4 -11    2.88    0.25
  -1   4  11    2.41    0.27
  -5  -3  -6    2.19    0.21
  -5  -3  -6    2.28    0.19
  -4  -3  -7    0.84    0.15
  -3  -3  -8    0.53    0.14
   3   3   8    0.17    0.07
  -2  -3  -9    0.42    0.14
   2   3   9    0.49    0.13
  -1  -3 -10    0.02    0.11
  -1  -3 -10   -0.12    0.06
   1   3  10    0.30    0.12
   0  -3 -11    0.63    0.15
   0   3  11    0.63    0.17
   1  -3 -12    1.26    0.19
  -1   3  12    1.40    0.22
  -6  -2  -6    0.39    0.12
  -6  -2  -6    0.30    0.12
  -5  -2  -7    0.09    0.08
  -5  -2  -7    0.01    0.10
  -4  -2  -8    3.96    0.27
  -4  -2  -8    3.86    0.23
   4   2   8    3.79    0.22
  -3  -2  -9    4.24    0.29
  -2  -2 -10    0.96    0.17
  -2  -2 -10    0.92    0.11
   2   2  10    0.71    0.15
  -1  -2 -11    1.52    0.20
   1   2  11    1.56    0.20
   0  -2 -12    2.66    0.24
   0   2  12    2.44    0.26
   1  -2 -13    0.29    0.13
  -1   2  13    0.33    0.15
  -6  -1  -7    0.35    0.11
  -6  -1  -7    0.42    0.13
  -5  -1  -8    1.77    0.18
  -5  -1  -8    1.75    0.20
  -4  -1  -9    0.01    0.06
  -4  -1  -9    0.04    0.11
   4   1   9    0.12    0.07
  -3  -1 -10    0.02    0.10
  -2  -1 -11    1.43    0.19
  -2  -1 -11    1.91    0.15
   2   1  11    1.64    0.19
  -1  -1 -12    1.75    0.20
   1   1  12    2.03    0.22
   0  -1 -13    0.39    0.14
   0   1  13    0.35    0.14
  -6   0  -8    5.12    0.32
  -6   0  -8    5.49    0.31
  -5   0  -9    4.46    0.30
  -5   0  -9    4.62    0.27
  -4   0 -10   -0.08    0.06
  -4   0 -10    0.06    0.10
  -3   0 -11    5.05    0.33
  -3   0 -11    5.51    0.26
  -2   0 -12    5.23    0.32
  -1   0 -13    0.58    0.15
   1   0  13    0.62    0.16
  -6   1  -9    0.39    0.12
  -6   1  -9    0.30    0.13
  -5   1 -10    0.66    0.15
  -5   1 -10    0.50    0.12
  -4   1 -11    1.29    0.16
  -4   1 -11    1.27    0.18
  -3   1 -12    0.13    0.12
  -2   1 -13   -0.02    0.10
  -1   1 -14    1.57    0.21
   1  -1  14    1.95    0.23
  -5   2 -11    2.81    0.25
  -5   2 -11    2.57    0.22
  -4   2 -12    2.54    0.23
  -4   2 -12    2.10    0.21
  -3   2 -13    1.28    0.19
  -3  -4  -8    8.84    0.44
  -2  -4  -9    2.29    0.24
  -1  -4 -10    1.94    0.22
   1   4  10    1.96    0.23
  -4  -3  -8    0.36    0.14
  -3  -3  -9    1.04    0.18
  -2  -3 -10    0.17    0.13
  -1  -3 -11    0.08    0.12
   1   3  11   -0.02    0.10
  -4  -2  -9    3.17    0.26
  -3  -2 -10    4.18    0.31
  -2  -2 -11    3.31    0.28
  -1  -2 -12    2.33    0.23
   1   2  12    1.86    0.23
  -4  -1 -10    0.98    0.18
  -3  -1 -11    1.64    0.21
  -2  -1 -12    1.08    0.18
  -4   0 -11    0.44    0.15
  -3   0 -12    0.28    0.14
   0   0   0    0.00    0.00
;
_shelx_hkl_checksum              42859
_shelx_res_file
;
TITL bns_t_s6_20 in P -1
 shelx.res created by SHELXL-2016/4 at 16:47:02 on 10-May-2017
CELL  0.71073   8.0140   8.7240  12.0680  106.561   97.888  110.461
ZERR     2.00   0.0050   0.0050   0.0050    0.005    0.005    0.005
LATT   1
SFAC  C    H    N    O    S
UNIT  26 30 10 4 2
MERG   2
FMAP   2
PLAN   25
SIZE     0.200   0.250   0.300
ACTA
BOND   $H
CONF
L.S.  15
WGHT    0.082000    0.326100
FVAR       0.30761
C1    1    0.272082    0.776465    0.759501    11.00000    0.05301    0.03394 =
         0.03913    0.01131    0.01458    0.02025
C2    1    0.428532    0.830262    0.720678    11.00000    0.04763    0.02760 =
         0.04270    0.00812    0.01047    0.01178
AFIX  43
H2    2    0.517868    0.944735    0.755617    11.00000   -1.20000
AFIX   0
C3    1    0.448066    0.706576    0.626914    11.00000    0.04127    0.03077 =
         0.03566    0.01060    0.00901    0.01216
C4    1    0.171375    0.505384    0.619659    11.00000    0.03641    0.03228 =
         0.03230    0.01128    0.00457    0.01301
C5    1   -0.154355    0.262537    0.636755    11.00000    0.03015    0.04912 =
         0.04659    0.00869    0.00577    0.00494
AFIX  23
H5A   2   -0.175956    0.368379    0.661775    11.00000   -1.20000
H5B   2   -0.271283    0.165803    0.589640    11.00000   -1.20000
AFIX   0
C6    1   -0.083141    0.229456    0.746246    11.00000    0.03588    0.04074 =
         0.04533    0.01031    0.01449    0.00315
C7    1    0.142873    0.394395    0.946832    11.00000    0.04215    0.03632 =
         0.03764    0.01149    0.01634    0.01508
C8    1    0.119535    0.257329    0.989584    11.00000    0.05983    0.03650 =
         0.05510    0.01868    0.01525    0.01120
AFIX  43
H8    2    0.029765    0.145119    0.945410    11.00000   -1.20000
AFIX   0
C9    1    0.232384    0.292214    1.098484    11.00000    0.07235    0.04846 =
         0.06725    0.03479    0.01544    0.02032
AFIX  43
H9    2    0.217277    0.201394    1.127299    11.00000   -1.20000
AFIX   0
C10   1    0.366954    0.456555    1.166520    11.00000    0.05927    0.05221 =
         0.04996    0.02482    0.01038    0.02548
AFIX  43
H10   2    0.441229    0.476596    1.239984    11.00000   -1.20000
AFIX   0
C11   1    0.389219    0.591493    1.123022    11.00000    0.04593    0.03739 =
         0.04168    0.01186    0.01106    0.02009
C12   1    0.277552    0.559896    1.013758    11.00000    0.04719    0.03299 =
         0.03972    0.01389    0.01271    0.01634
AFIX  43
H12   2    0.293260    0.650900    0.985061    11.00000   -1.20000
AFIX   0
C13   1    0.642353    0.797762    1.290135    11.00000    0.06041    0.06121 =
         0.05346    0.01708   -0.00851    0.02002
AFIX 137
H13A  2    0.576735    0.780929    1.349543    11.00000   -1.50000
H13B  2    0.731248    0.917131    1.317583    11.00000   -1.50000
H13C  2    0.704699    0.720780    1.276837    11.00000   -1.50000
AFIX   0
N4    3    0.139649    0.610188    0.709778    11.00000    0.04335    0.03546 =
         0.03959    0.01172    0.01327    0.01615
N3    3    0.316043    0.540404    0.574263    11.00000    0.03823    0.03146 =
         0.03487    0.00824    0.00903    0.01085
N2    3    0.241672    0.884713    0.852992    11.00000    0.07768    0.03955 =
         0.06517    0.00520    0.03751    0.01911
AFIX  93
H2A   2    0.143870    0.846000    0.876513    11.00000   -1.20000
H2B   2    0.320263    0.991812    0.888534    11.00000   -1.20000
AFIX   0
N1    3    0.597315    0.745222    0.584402    11.00000    0.05040    0.03394 =
         0.05682    0.00367    0.02411    0.00455
AFIX  93
H1A   2    0.606000    0.666365    0.526465    11.00000   -1.20000
H1B   2    0.684496    0.848902    0.615032    11.00000   -1.20000
AFIX   0
N5    3    0.035586    0.376025    0.837264    11.00000    0.04731    0.03365 =
         0.03911    0.01082    0.01174    0.00978
AFIX  43
H5    2    0.047786    0.472628    0.827087    11.00000   -1.20000
AFIX   0
O1    4   -0.127536    0.081452    0.748763    11.00000    0.07209    0.03830 =
         0.05925    0.01285    0.00680   -0.00683
O2    4    0.515885    0.760020    1.181488    11.00000    0.06700    0.03900 =
         0.05128    0.01177   -0.01226    0.01525
S1    5    0.006909    0.286022    0.544689    11.00000    0.03838    0.03723 =
         0.03412    0.00617    0.00462    0.00654
HKLF 4
REM  bns_t_s6_20 in P -1
REM R1 =  0.0365 for    2616 Fo > 4sig(Fo)  and  0.0417 for all    2991 data
REM    191 parameters refined using      0 restraints
END
WGHT      0.0555      0.1925
REM Highest difference peak  0.169,  deepest hole -0.271,  1-sigma level  0.055
Q1    1   0.0829  0.3993  0.5808  11.00000  0.05    0.17
Q2    1   0.1011  0.8517  0.8224  11.00000  0.05    0.16
Q3    1  -0.0778  0.2674  0.5932  11.00000  0.05    0.15
Q4    1  -0.0800  0.3495  0.4966  11.00000  0.05    0.14
Q5    1   0.1890  0.4921  1.0032  11.00000  0.05    0.14
Q6    1   0.0993  0.3391  0.9868  11.00000  0.05    0.14
Q7    1   0.7878  0.8812  1.2586  11.00000  0.05    0.14
Q8    1   0.2417  0.4588  0.9668  11.00000  0.05    0.14
Q9    1   0.8948  0.9016  1.2398  11.00000  0.05    0.14
Q10   1   0.4444  0.7654  0.6868  11.00000  0.05    0.14
Q11   1   0.3839  0.1093  1.0985  11.00000  0.05    0.13
Q12   1   0.9450  0.8013  0.6871  11.00000  0.05    0.13
Q13   1   0.0972  0.3793  0.8938  11.00000  0.05    0.13
Q14   1   0.1050  0.0452  0.7978  11.00000  0.05    0.13
Q15   1   0.6394  0.9193  0.8685  11.00000  0.05    0.13
Q16   1   0.6525  0.6552  0.5652  11.00000  0.05    0.13
Q17   1   0.2559  0.8469  1.0182  11.00000  0.05    0.12
Q18   1   0.2667  0.9514  1.0635  11.00000  0.05    0.12
Q19   1   0.9281  1.1306  1.3008  11.00000  0.05    0.12
Q20   1   0.0483  0.9381  0.7596  11.00000  0.05    0.12
Q21   1   0.7923  0.8082  1.2600  11.00000  0.05    0.12
Q22   1   0.7151  0.8196  0.6433  11.00000  0.05    0.12
Q23   1   0.9749  1.0369  1.3056  11.00000  0.05    0.12
Q24   1   0.4335  0.7465  1.2133  11.00000  0.05    0.12
Q25   1   0.3166  0.9135  1.0272  11.00000  0.05    0.12
;
_shelx_res_checksum              82509
loop_
_space_group_symop_operation_xyz
'x, y, z'
'-x, -y, -z'
loop_
_atom_site_type_symbol
_atom_site_label
_atom_site_fract_x
_atom_site_fract_y
_atom_site_fract_z
_atom_site_U_iso_or_equiv
_atom_site_adp_type
_atom_site_calc_flag
_atom_site_occupancy
C C1 0.2721(2) 0.7765(2) 0.75950(14) 0.0415(4) Uani d 1
C C2 0.4285(2) 0.8303(2) 0.72068(14) 0.0416(4) Uani d 1
H H2 0.517868 0.944735 0.755617 0.050 Uiso calc 1
C C3 0.4481(2) 0.70658(19) 0.62691(13) 0.0371(3) Uani d 1
C C4 0.1714(2) 0.50538(19) 0.61966(13) 0.0345(3) Uani d 1
C C5 -0.1544(2) 0.2625(2) 0.63675(15) 0.0478(4) Uani d 1
H H5A -0.175956 0.368379 0.661775 0.057 Uiso calc 1
H H5B -0.271283 0.165803 0.589640 0.057 Uiso calc 1
C C6 -0.0831(2) 0.2295(2) 0.74625(15) 0.0451(4) Uani d 1
C C7 0.1429(2) 0.3944(2) 0.94683(13) 0.0388(3) Uani d 1
C C8 0.1195(3) 0.2573(2) 0.98958(17) 0.0524(4) Uani d 1
H H8 0.029765 0.145119 0.945410 0.063 Uiso calc 1
C C9 0.2324(3) 0.2922(3) 1.09848(19) 0.0610(5) Uani d 1
H H9 0.217277 0.201394 1.127299 0.073 Uiso calc 1
C C10 0.3670(3) 0.4566(2) 1.16652(17) 0.0519(4) Uani d 1
H H10 0.441229 0.476596 1.239984 0.062 Uiso calc 1
C C11 0.3892(2) 0.5915(2) 1.12302(14) 0.0414(4) Uani d 1
C C12 0.2776(2) 0.5599(2) 1.01376(14) 0.0397(3) Uani d 1
H H12 0.293260 0.650900 0.985061 0.048 Uiso calc 1
C C13 0.6424(3) 0.7978(3) 1.29014(18) 0.0632(5) Uani d 1
H H13A 0.576735 0.780929 1.349543 0.095 Uiso calc 1
H H13B 0.731248 0.917131 1.317583 0.095 Uiso calc 1
H H13C 0.704699 0.720780 1.276837 0.095 Uiso calc 1
N N4 0.13965(18) 0.61019(17) 0.70978(11) 0.0396(3) Uani d 1
N N3 0.31604(17) 0.54040(16) 0.57426(11) 0.0368(3) Uani d 1
N N2 0.2417(3) 0.8847(2) 0.85299(15) 0.0634(5) Uani d 1
H H2A 0.143870 0.846000 0.876513 0.076 Uiso calc 1
H H2B 0.320263 0.991812 0.888534 0.076 Uiso calc 1
N N1 0.5973(2) 0.74522(19) 0.58440(14) 0.0527(4) Uani d 1
H H1A 0.606000 0.666365 0.526465 0.063 Uiso calc 1
H H1B 0.684496 0.848902 0.615032 0.063 Uiso calc 1
N N5 0.03559(19) 0.37602(17) 0.83726(12) 0.0425(3) Uani d 1
H H5 0.047786 0.472628 0.827087 0.051 Uiso calc 1
O O1 -0.1275(2) 0.08145(17) 0.74876(13) 0.0675(4) Uani d 1
O O2 0.51589(19) 0.76002(16) 1.18149(11) 0.0584(4) Uani d 1
S S1 0.00691(5) 0.28602(5) 0.54469(3) 0.04131(14) Uani d 1
loop_
_atom_site_aniso_label
_atom_site_aniso_U_11
_atom_site_aniso_U_22
_atom_site_aniso_U_33
_atom_site_aniso_U_12
_atom_site_aniso_U_13
_atom_site_aniso_U_23
C1 0.0530(9) 0.0339(8) 0.0391(8) 0.0203(7) 0.0146(7) 0.0113(6)
C2 0.0476(9) 0.0276(7) 0.0427(8) 0.0118(6) 0.0105(7) 0.0081(6)
C3 0.0413(8) 0.0308(7) 0.0357(7) 0.0122(6) 0.0090(6) 0.0106(6)
C4 0.0364(7) 0.0323(7) 0.0323(7) 0.0130(6) 0.0046(6) 0.0113(6)
C5 0.0302(7) 0.0491(10) 0.0466(9) 0.0049(7) 0.0058(6) 0.0087(7)
C6 0.0359(8) 0.0407(9) 0.0453(9) 0.0031(7) 0.0145(7) 0.0103(7)
C7 0.0421(8) 0.0363(8) 0.0376(8) 0.0151(6) 0.0163(6) 0.0115(6)
C8 0.0598(10) 0.0365(9) 0.0551(10) 0.0112(8) 0.0152(8) 0.0187(8)
C9 0.0724(13) 0.0485(10) 0.0673(12) 0.0203(9) 0.0154(10) 0.0348(9)
C10 0.0593(10) 0.0522(10) 0.0500(10) 0.0255(9) 0.0104(8) 0.0248(8)
C11 0.0459(8) 0.0374(8) 0.0417(8) 0.0201(7) 0.0111(7) 0.0119(7)
C12 0.0472(8) 0.0330(8) 0.0397(8) 0.0163(7) 0.0127(7) 0.0139(6)
C13 0.0604(11) 0.0612(12) 0.0535(11) 0.0200(10) -0.0085(9) 0.0171(9)
N4 0.0433(7) 0.0355(7) 0.0396(7) 0.0161(6) 0.0133(5) 0.0117(5)
N3 0.0382(6) 0.0315(6) 0.0349(6) 0.0108(5) 0.0090(5) 0.0082(5)
N2 0.0777(11) 0.0396(8) 0.0652(10) 0.0191(8) 0.0375(9) 0.0052(7)
N1 0.0504(8) 0.0339(7) 0.0568(9) 0.0046(6) 0.0241(7) 0.0037(6)
N5 0.0473(7) 0.0336(7) 0.0391(7) 0.0098(6) 0.0117(6) 0.0108(5)
O1 0.0721(9) 0.0383(7) 0.0593(8) -0.0068(6) 0.0068(7) 0.0129(6)
O2 0.0670(8) 0.0390(7) 0.0513(7) 0.0153(6) -0.0123(6) 0.0118(5)
S1 0.0384(2) 0.0372(2) 0.0341(2) 0.00654(16) 0.00462(15) 0.00617(16)
loop_
_atom_type_symbol
_atom_type_description
_atom_type_scat_dispersion_real
_atom_type_scat_dispersion_imag
_atom_type_scat_source
C C 0.0033 0.0016 'International Tables Vol C Tables 4.2.6.8 and 6.1.1.4'
H H 0.0000 0.0000 'International Tables Vol C Tables 4.2.6.8 and 6.1.1.4'
N N 0.0061 0.0033 'International Tables Vol C Tables 4.2.6.8 and 6.1.1.4'
O O 0.0106 0.0060 'International Tables Vol C Tables 4.2.6.8 and 6.1.1.4'
S S 0.1246 0.1234 'International Tables Vol C Tables 4.2.6.8 and 6.1.1.4'
loop_
_geom_angle_atom_site_label_1
_geom_angle_atom_site_label_2
_geom_angle_atom_site_label_3
_geom_angle
N4 C1 C2 122.38(14)
N4 C1 N2 115.28(15)
C2 C1 N2 122.31(16)
C1 C2 C3 117.36(14)
C1 C2 H2 121.3
C3 C2 H2 121.3
N1 C3 N3 116.77(14)
N1 C3 C2 121.86(14)
N3 C3 C2 121.37(14)
N4 C4 N3 128.70(14)
N4 C4 S1 119.42(12)
N3 C4 S1 111.88(11)
C6 C5 S1 111.79(12)
C6 C5 H5A 109.3
S1 C5 H5A 109.3
C6 C5 H5B 109.3
S1 C5 H5B 109.3
H5A C5 H5B 107.9
O1 C6 N5 124.17(17)
O1 C6 C5 122.10(15)
N5 C6 C5 113.70(15)
C12 C7 C8 119.78(15)
C12 C7 N5 116.25(14)
C8 C7 N5 123.97(15)
C9 C8 C7 118.46(17)
C9 C8 H8 120.8
C7 C8 H8 120.8
C10 C9 C8 122.51(17)
C10 C9 H9 118.7
C8 C9 H9 118.7
C9 C10 C11 118.53(17)
C9 C10 H10 120.7
C11 C10 H10 120.7
O2 C11 C12 115.38(14)
O2 C11 C10 124.50(15)
C12 C11 C10 120.12(16)
C7 C12 C11 120.61(15)
C7 C12 H12 119.7
C11 C12 H12 119.7
O2 C13 H13A 109.5
O2 C13 H13B 109.5
H13A C13 H13B 109.5
O2 C13 H13C 109.5
H13A C13 H13C 109.5
H13B C13 H13C 109.5
C4 N4 C1 114.83(14)
C4 N3 C3 115.33(13)
C1 N2 H2A 120.0
C1 N2 H2B 120.0
H2A N2 H2B 120.0
C3 N1 H1A 120.0
C3 N1 H1B 120.0
H1A N1 H1B 120.0
C6 N5 C7 129.44(15)
C6 N5 H5 115.3
C7 N5 H5 115.3
C11 O2 C13 117.88(14)
C4 S1 C5 103.05(8)
loop_
_geom_bond_atom_site_label_1
_geom_bond_atom_site_label_2
_geom_bond_distance
C1 N4 1.358(2)
C1 C2 1.374(2)
C1 N2 1.361(2)
C2 C3 1.393(2)
C2 H2 0.9300
C3 N1 1.339(2)
C3 N3 1.357(2)
C4 N4 1.325(2)
C4 N3 1.327(2)
C4 S1 1.7721(17)
C5 C6 1.510(3)
C5 S1 1.8126(18)
C5 H5A 0.9700
C5 H5B 0.9700
C6 O1 1.224(2)
C6 N5 1.345(2)
C7 C12 1.381(2)
C7 C8 1.397(2)
C7 N5 1.409(2)
C8 C9 1.375(3)
C8 H8 0.9300
C9 C10 1.378(3)
C9 H9 0.9300
C10 C11 1.387(3)
C10 H10 0.9300
C11 O2 1.363(2)
C11 C12 1.383(2)
C12 H12 0.9300
C13 O2 1.418(2)
C13 H13A 0.9600
C13 H13B 0.9600
C13 H13C 0.9600
N2 H2A 0.8600
N2 H2B 0.8600
N1 H1A 0.8600
N1 H1B 0.8600
N5 H5 0.8600
loop_
_geom_hbond_atom_site_label_D
_geom_hbond_atom_site_label_H
_geom_hbond_atom_site_label_A
_geom_hbond_site_symmetry_A
_geom_hbond_distance_DH
_geom_hbond_distance_HA
_geom_hbond_distance_DA
_geom_hbond_angle_DHA
N5 H5 N4 ----- 0.86 2.15 2.861(3) 140
C8 H8 O1 ----- 0.93 2.34 2.911(3) 120
N1 H1A N3 2_666 0.86 2.21 3.035(3) 162
N1 H1B O1 1_665 0.86 2.08 2.891(3) 157
N2 H2B O2 2_677 0.86 2.55 3.210(3) 135
C2 H2 O2 2_677 0.93 2.59 3.272(3) 130
loop_
_geom_torsion_atom_site_label_1
_geom_torsion_atom_site_label_2
_geom_torsion_atom_site_label_3
_geom_torsion_atom_site_label_4
_geom_torsion
N4 C1 C2 C3 -0.1(2)
N2 C1 C2 C3 177.81(16)
C1 C2 C3 N1 -178.60(15)
C1 C2 C3 N3 1.3(2)
S1 C5 C6 O1 -95.98(18)
S1 C5 C6 N5 82.23(16)
C12 C7 C8 C9 0.2(3)
N5 C7 C8 C9 -179.56(17)
C7 C8 C9 C10 0.0(3)
C8 C9 C10 C11 -0.1(3)
C9 C10 C11 O2 179.53(18)
C9 C10 C11 C12 0.1(3)
C8 C7 C12 C11 -0.2(2)
N5 C7 C12 C11 179.57(14)
O2 C11 C12 C7 -179.39(14)
C10 C11 C12 C7 0.1(2)
N3 C4 N4 C1 1.8(2)
S1 C4 N4 C1 -178.68(11)
C2 C1 N4 C4 -1.3(2)
N2 C1 N4 C4 -179.36(14)
N4 C4 N3 C3 -0.6(2)
S1 C4 N3 C3 179.78(10)
N1 C3 N3 C4 178.93(14)
C2 C3 N3 C4 -1.0(2)
O1 C6 N5 C7 5.5(3)
C5 C6 N5 C7 -172.71(14)
C12 C7 N5 C6 168.50(15)
C8 C7 N5 C6 -11.7(3)
C12 C11 O2 C13 -175.89(16)
C10 C11 O2 C13 4.7(3)
N4 C4 S1 C5 -8.27(14)
N3 C4 S1 C5 171.36(11)
C6 C5 S1 C4 -80.14(14)

_cod_database_fobs_code 2242249
