#------------------------------------------------------------------------------
#$Date: 2017-07-25 12:30:33 +0300 (Tue, 25 Jul 2017) $
#$Revision: 199132 $
#$URL: file:///home/coder/svn-repositories/cod/cif/2/24/21/2242160.cif $
#------------------------------------------------------------------------------
#
# This file is available in the Crystallography Open Database (COD),
# http://www.crystallography.net/. The original data for this entry
# were provided by IUCr Journals, http://journals.iucr.org/.
#
# The file may be used within the scientific community so long as
# proper attribution is given to the journal article from which the
# data were obtained.
#
data_2242160
loop_
_publ_author_name
'Amenta, Donna S.'
'Liebing, Phil'
'Biero, Julia E.'
'Sherman, Robert J.'
'Gilje, John W.'
'Edelmann, Frank T.'
_publ_section_title
;
 Synthesis and crystal structures of three new benzotriazolylpropanamides
;
_journal_issue                   6
_journal_name_full               'Acta Crystallographica Section E'
_journal_page_first              880
_journal_page_last               885
_journal_paper_doi               10.1107/S2056989017007472
_journal_volume                  73
_journal_year                    2017
_chemical_formula_moiety         'C10 H12 N4 O'
_chemical_formula_sum            'C10 H12 N4 O'
_chemical_formula_weight         204.24
_chemical_name_systematic
;
3-(2<i>H</i>-Benzotriazol-2-yl)-2-methylpropanamide
;
_space_group_crystal_system      triclinic
_space_group_IT_number           2
_space_group_name_Hall           '-P 1'
_space_group_name_H-M_alt        'P -1'
_symmetry_space_group_name_Hall  '-P 1'
_symmetry_space_group_name_H-M   'P -1'
_atom_sites_solution_hydrogens   geom
_atom_sites_solution_primary     direct
_atom_sites_solution_secondary   difmap
_audit_creation_method           SHELXL-2016/4
_cell_angle_alpha                109.83(3)
_cell_angle_beta                 90.93(3)
_cell_angle_gamma                97.14(3)
_cell_formula_units_Z            2
_cell_length_a                   5.5961(11)
_cell_length_b                   9.3462(19)
_cell_length_c                   10.472(2)
_cell_measurement_reflns_used    5587
_cell_measurement_temperature    133(2)
_cell_measurement_theta_max      29.15
_cell_measurement_theta_min      2.07
_cell_volume                     510.2(2)
_computing_cell_refinement
;
X-AREA (Stoe & Cie, 2002)
;
_computing_data_collection
;
X-AREA (Stoe & Cie, 2002)
;
_computing_data_reduction
;
X-AREA and X-RED (Stoe & Cie, 2002)
;
_computing_molecular_graphics
;
DIAMOND (Brandenburg, 1999)
;
_computing_publication_material
;
SHELXL2016 (Sheldrick, 2015)
;
_computing_structure_refinement
;
SHELXL2016 (Sheldrick, 2015)
;
_computing_structure_solution
;
SHELXS97 (Sheldrick, 2008)
;
_diffrn_ambient_temperature      133(2)
_diffrn_detector_area_resol_mean 6.67
_diffrn_measured_fraction_theta_full 0.983
_diffrn_measured_fraction_theta_max 0.983
_diffrn_measurement_device_type  'Stoe IPDS 2T'
_diffrn_measurement_method       'area detector'
_diffrn_radiation_type           MoK\a
_diffrn_radiation_wavelength     0.71073
_diffrn_reflns_av_R_equivalents  0.0556
_diffrn_reflns_limit_h_max       6
_diffrn_reflns_limit_h_min       -6
_diffrn_reflns_limit_k_max       11
_diffrn_reflns_limit_k_min       -11
_diffrn_reflns_limit_l_max       12
_diffrn_reflns_limit_l_min       -12
_diffrn_reflns_number            3731
_diffrn_reflns_theta_full        24.999
_diffrn_reflns_theta_max         24.999
_diffrn_reflns_theta_min         2.071
_exptl_absorpt_coefficient_mu    0.091
_exptl_absorpt_correction_type   none
_exptl_crystal_colour            colorless
_exptl_crystal_density_diffrn    1.329
_exptl_crystal_description       prism
_exptl_crystal_F_000             216
_exptl_crystal_size_max          0.480
_exptl_crystal_size_mid          0.330
_exptl_crystal_size_min          0.250
_refine_diff_density_max         0.247
_refine_diff_density_min         -0.182
_refine_ls_extinction_coef       0.11(2)
_refine_ls_extinction_expression Fc^*^=kFc[1+0.001xFc^2^\l^3^/sin(2\q)]^-1/4^
_refine_ls_extinction_method
;
SHELXL2016 (Sheldrick, 2015)
;
_refine_ls_goodness_of_fit_ref   1.085
_refine_ls_hydrogen_treatment    constr
_refine_ls_matrix_type           full
_refine_ls_number_parameters     138
_refine_ls_number_reflns         1774
_refine_ls_number_restraints     0
_refine_ls_restrained_S_all      1.085
_refine_ls_R_factor_all          0.0400
_refine_ls_R_factor_gt           0.0369
_refine_ls_shift/su_max          0.000
_refine_ls_shift/su_mean         0.000
_refine_ls_structure_factor_coef Fsqd
_refine_ls_weighting_details
'w=1/[\s^2^(Fo^2^)+(0.0280P)^2^+0.1900P] where P=(Fo^2^+2Fc^2^)/3'
_refine_ls_weighting_scheme      calc
_refine_ls_wR_factor_gt          0.0852
_refine_ls_wR_factor_ref         0.0869
_reflns_number_gt                1653
_reflns_number_total             1774
_reflns_threshold_expression     'I > 2\s(I)'
_cod_data_source_file            zl2702sup1.cif
_cod_data_source_block           2
_cod_database_code               2242160
_shelx_space_group_comment
;
The symmetry employed for this shelxl refinement is uniquely defined
by the following loop, which should always be used as a source of
symmetry information in preference to the above space-group names.
They are only intended as comments.
;
_shelx_estimated_absorpt_t_min   0.957
_shelx_estimated_absorpt_t_max   0.977
_shelx_hkl_file
;
  -5   4  -7   24.52    0.46
  -5   7  -4    6.35    0.33
  -5   8  -4   21.31    0.42
  -5   9  -4   11.31    0.37
  -5  10  -4    1.47    0.38
  -4   6  -2   92.02    0.48
  -4   9  -2    0.44    0.36
  -2  10   0    5.08    0.38
  -1   3   1  535.33    1.20
  -1   9   1  108.17    0.58
   3  -3  -4    6.76    0.28
   4  -3  -5   61.82    0.43
   5  -2  -4    9.91    0.31
   6  -2  -8    0.42    0.39
   6  -1  -4   40.38    0.44
   7   1  -4    5.15    0.43
  -4   3  -4   18.51    0.35
  -4   4  -3   78.22    0.43
  -4   7  -2    1.04    0.29
  -4   8  -2   48.10    0.40
  -3   4  -1   14.84    0.32
  -3  10  -1   44.36    0.43
  -3  12  -2    0.55    0.45
  -2   3   0  273.85    0.77
  -2  12  -1    1.06    0.44
  -1  11   0   16.09    0.48
   1  -3  -4    3.42    0.31
   4  -1  -1  131.25    0.51
   4   2   1    8.91    0.39
   5  -3  -9   15.14    0.46
   5  -3  -8    6.71    0.41
   5  -1  -2    2.32    0.32
   5   0  -1   40.34    0.41
   6  -2  -7    9.21    0.39
   7   0  -5    5.41    0.40
   7   2  -3    4.19    0.43
  -5   4  -9    0.62    0.45
  -5   4  -8   15.56    0.43
  -5   5  -6   71.18    0.50
  -5   6  -5   16.55    0.35
  -4   2  -6    2.18    0.36
  -4  11  -3    1.10    0.42
  -1   8   1    2.42    0.36
   4  -3  -4   29.66    0.38
   4  -2  -2    0.49    0.29
   4   0   0   53.21    0.42
   5  -3  -7    8.56    0.35
   5  -3  -6    0.54    0.36
   6  -2  -6    4.26    0.36
   6   2  -1    9.46    0.39
  -5   7  -5   42.16    0.41
  -5  10  -5    0.41    0.38
  -3   9  -1   24.66    0.37
  -2   9   0    3.55    0.35
   2  -3  -3  168.41    0.61
   3  -3  -3   18.11    0.33
   5  -2  -3    2.88    0.29
   6  -2  -5    1.03    0.34
   6  -1  -3    0.34    0.35
   6   0  -2   15.39    0.38
   7   0  -4    3.94    0.43
   7   1  -3    7.52    0.43
   7   3  -2   18.49    0.49
  -5   8  -5    5.76    0.35
  -5   9  -5    4.74    0.37
  -4   5  -3   10.72    0.29
  -4  10  -3    1.89    0.35
  -3   5  -1  137.13    0.52
   5  -3  -5    2.86    0.32
  -6  -6   4    0.14    0.47
  -5  -6   1   72.91    0.52
  -5  -4   2    2.05    0.38
  -4  -8  -1   18.36    0.44
  -4  -7  -1   14.40    0.40
  -4  -2  12   23.31    0.77
  -3  -9  -2    0.34    0.38
  -3  -5  -2   24.68    0.36
  -3  -3  -1   21.43    0.31
  -3  -1   1    2.66    0.34
  -2  -9  -3   18.96    0.40
  -2  -5  -3    4.86    0.31
  -2  -1  13    0.71    0.49
   0   1   8   31.68    0.38
   1 -10  -4    1.44    0.43
   1  -5  -4    2.69    0.30
   1   1   7    0.46    0.29
   2 -10  -4    6.95    0.49
   2  -1  13   11.33    0.42
   3  -4  -3   20.97    0.58
   3   0   3  147.38    0.56
   3   0   8    1.57    0.30
   4  -1   9    1.28    0.36
   5  -6  -2   -0.01    0.16
   5  -2   9    3.33    0.36
  -6  -4   6    5.18    0.57
  -5  -3   3   46.63    0.49
  -5  -2   5   11.43    0.55
  -4  -6  -1    3.63    0.32
  -1  -8  -4    4.85    0.37
  -1  -7  -4   14.92    0.37
  -1   1   7    0.75    0.29
   0 -10  -4    5.27    0.45
   0  -5  -4   10.66    0.30
   1   0  11   67.61    0.48
   1   1   5   65.83    0.43
   1   1   6   36.85    0.36
   2  -3  -3  184.79    0.94
   2   0  10    3.63    0.32
   3  -9  -4    1.65    0.49
   3  -8  -4    5.70    0.46
   3  -7  -4    6.36    0.47
   3  -2  -1   31.00    0.68
   3   0   4    1.24    0.28
   3   0   7   40.16    0.40
   4  -1   3   36.68    0.39
   5  -4   0    2.49    0.51
   5  -2   4   16.60    0.37
   5  -2   8    2.39    0.38
   6  -7   0    2.35    0.82
   6  -4   3   23.09    0.49
   7  -6   4    4.44    0.55
  -6  -5   4    2.82    0.50
  -5  -5   1   20.32    0.41
  -4  -5  -1   31.82    0.40
  -2   0  10   49.14    0.53
  -1  -9  -4    6.01    0.42
  -1  -6  -4   22.84    0.34
  -1  -3  -3    5.03    0.29
  -1   0  11   20.02    0.41
  -1   1   5   21.83    0.36
  -1   1   6    8.86    0.33
   0   0  11   19.18    0.40
   0   1   7   27.05    0.36
   2  -5  -4  237.94    0.84
   3  -1  11    0.70    0.35
   3   0   5   10.64    0.29
   3   0   6    5.86    0.28
   4  -1   8    0.50    0.31
   5  -2   5   12.76    0.37
   5  -2   6   18.42    0.38
   5  -2   7    1.19    0.36
  -6  -6   3    2.03    0.48
  -4  -3   0    7.08    0.32
  -4  -1   3   45.54    0.59
  -4  -1   8   45.29    0.89
  -3  -4  -2    6.91    0.28
  -3   0   3  145.89    1.46
  -3   0   7  105.53    0.85
  -2  -4  -3    0.37    0.28
  -1  -5  -4    0.86    0.30
   0   1   4   27.65    0.36
   0   1   6    1.00    0.27
   1  -1  13   -0.28    0.38
   2  -1  12   59.90    0.47
   2   0   9    1.03    0.30
   4  -2  11    4.30    0.38
   4  -1   4    6.49    0.32
   4  -1   5   36.38    0.39
   4  -1   6   29.26    0.38
   4  -1   7   15.26    0.33
  -6  -4   5    0.27    0.50
  -5  -7   0    1.19    0.37
  -5  -6   0    7.95    0.40
  -4  -2   1    0.37    0.32
  -3  -8  -3    0.50    0.40
  -3  -7  -3    0.12    0.33
  -3  -1  11    0.61    0.51
  -1  -1  13   89.57    0.61
   0  -4  -4   71.65    0.44
   0  -1  13    7.08    0.43
   0   1   5  253.41    0.74
   1  -4  -4   79.20    0.49
   1   0  10   14.47    0.34
   3  -6  -4   10.96    0.48
   3  -1  10    0.16    0.32
   6  -4   4    0.26    0.41
  -5  -4   1    6.27    0.36
  -5  -3   2   20.00    0.42
  -5  -2   4   22.58    0.54
  -4  -8  -2    2.48    0.38
  -4  -7  -2   32.87    0.42
  -4  -4  -1   17.43    0.33
  -3  -9  -3    6.07    0.40
  -3  -6  -3    4.80    0.31
  -3   0   5   16.13    0.72
  -3   0   6   12.15    0.58
  -2  -8  -4   31.26    0.41
  -2  -7  -4   23.71    0.37
  -2   0   1  181.90    1.12
  -1   0  10    1.44    0.37
   2   0   8   31.65    0.35
   3  -1   1   68.28    0.54
   4  -2   1   33.01    0.45
   4  -2  10   19.80    0.42
   5  -3   2  134.28    0.69
   5  -3  10    0.48    0.37
   6  -5   2    0.61    0.47
   6  -4   5   26.40    0.48
   6  -4   7    3.33    0.42
   6  -4   8   23.41    0.44
  -6  -5   3    7.31    0.43
  -5  -5   0   11.93    0.38
  -4  -6  -2    4.57    0.33
  -3  -5  -3   31.43    0.38
  -3  -2  -1   10.08    0.28
  -2  -9  -4    0.35    0.38
  -2  -6  -4    6.45    0.31
  -2  -2  -2  122.53    0.52
  -2  -1  12    3.69    0.43
  -1  -4  -4    1.43    0.29
   0  -8  -5    3.67    0.39
   0  -7  -5   31.75    0.41
   0   0  10   15.43    0.37
   1  -9  -5    3.93    0.42
   1  -8  -5   12.50    0.41
   1  -7  -5   28.42    0.42
   1  -1  12   25.16    0.43
   2  -1  11    4.09    0.37
   2   0   2  530.17    1.12
   3  -2  12   11.26    0.40
   3  -1   9    1.16    0.34
   5  -3   9   13.85    0.43
   6  -4   6    1.18    0.40
  -6  -6   2    1.67    0.44
  -6  -4   4    1.31    0.47
  -4  -5  -2   35.38    0.41
  -3  -3  -2    4.28    0.26
  -2  -5  -4   24.42    0.37
  -2  -3  -3   47.39    0.36
  -2  -1  -1  443.96    1.05
   0  -9  -5   17.98    0.41
   0  -6  -5   49.86    0.43
   1  -6  -5   38.59    0.42
   1   0   9    1.83    0.28
   2  -9  -5   13.34    0.49
   2  -8  -5    1.63    0.43
   2  -2  13   21.03    0.43
   2   0   7   57.46    0.39
   4  -2   9   14.56    0.38
   6  -6   1   13.06    0.61
  -5  -7  -1    0.55    0.38
  -4  -2  11    0.47    0.63
  -3  -1   0    0.39    0.30
  -1  -8  -5    7.53    0.36
  -1  -7  -5    0.26    0.36
  -1  -2  14    7.91    0.48
  -1  -1  12    2.54    0.43
   0  -2  -3   54.39    0.42
   0  -2  14    2.95    0.45
   0  -1  12    0.40    0.38
   2  -7  -5  127.70    0.65
   2  -4  -4  164.92    0.76
   2   0   3    4.04    0.29
   2   0   6   25.72    0.35
   3  -1   8    1.52    0.32
   5  -3   3   20.83    0.41
   5  -3   8    0.51    0.34
  -6  -5   2   25.31    0.51
  -5  -6  -1    0.74    0.35
  -5  -4   0    6.64    0.37
  -5  -3   1   25.61    0.43
  -5  -2   3   51.15    0.57
  -4  -3  -1  113.32    0.53
  -4  -2   0   20.53    0.38
  -4  -1   2   37.95    0.51
  -3  -4  -3    0.02    0.28
  -1  -9  -5    7.47    0.40
  -1  -6  -5    0.42    0.29
  -1  -2  -3  567.82    1.06
  -1   0   9    2.60    0.35
   0  -5  -5    8.42    0.33
   0  -3  -4  131.12    0.56
   0   0   9   61.55    0.44
   1   0   8   61.04    0.42
   2  -1  10    1.70    0.34
   2   0   4  725.31    1.14
   2   0   5  203.95    0.63
   3  -2  11    0.28    0.35
   4  -9  -4   25.00    0.68
   4  -3  11    3.19    0.41
   4  -2   2   10.16    0.37
   4  -2   8    0.56    0.33
   5  -3   7   27.41    0.41
   6  -5   3   63.41    0.60
  -6  -6   1   15.49    0.47
  -6  -4   3   51.38    0.56
  -4  -8  -3   33.66    0.46
  -4  -7  -3    4.48    0.41
  -4  -4  -2    5.83    0.33
  -3  -8  -4   10.06    0.39
  -3  -7  -4    8.69    0.36
  -3  -1  10    9.73    0.50
  -2  -4  -4    7.94    0.28
   1  -5  -5    8.22    0.33
   1  -2  -3   57.51    0.54
   1  -2  13   11.34    0.43
   1  -1  11    9.51    0.34
   2  -6  -5    1.29    0.37
   2  -2  12    0.37    0.38
   3  -5  -4  235.55    1.03
   3  -1   2    4.01    0.31
   3  -1   7    0.34    0.31
   4  -8  -4    0.23    0.57
   5  -3   4    8.51    0.35
   5  -3   5    9.06    0.36
   5  -3   6    9.97    0.37
   6  -5   8    9.42    0.46
  -6  -3   6    2.63    0.66
  -6  -3   7    2.63    0.82
  -5  -5  -1    0.45    0.33
  -4  -6  -3   13.06    0.37
  -3  -6  -4    6.83    0.33
  -2  -8  -5    0.44    0.36
  -2  -7  -5    2.17    0.38
  -2  -2  13   14.21    0.49
  -2  -1  11    1.90    0.40
  -1  -5  -5   29.11    0.34
  -1  -3  -4  296.97    0.72
  -1   0   0   62.62    0.76
   1  -3  -4    3.62    0.31
   1   0   1  545.10    1.55
   4  -2   7   11.79    0.32
   5  -4   1   46.19    0.55
   5  -4  10    0.69    0.38
   6  -5   4    6.21    0.43
   6  -5   7   19.93    0.46
  -6  -5   1   47.87    0.55
  -6  -3   5    1.89    0.56
  -5  -7  -2   19.08    0.47
  -3  -5  -4    8.77    0.32
  -3  -2  -2   94.93    0.48
  -2  -6  -5    6.77    0.32
   0  -2  13    7.60    0.42
   0  -1  11    2.46    0.36
   0   0   8   43.79    0.40
   1   0   7   88.45    0.44
   2  -1   9    1.49    0.29
   3  -9  -5    0.68    0.53
   3  -8  -5   14.60    0.51
   3  -2  10    0.75    0.32
   3  -1   3  178.91    0.64
   3  -1   6    1.25    0.27
   4  -3  10    2.95    0.34
   4  -2   3   18.83    0.35
   4  -2   6    2.09    0.31
   6  -5   5   35.00    0.50
   6  -5   6    4.04    0.41
  -6  -4   2    1.24    0.44
  -5  -6  -2    0.04    0.40
  -5  -2   2   49.04    0.52
  -4  -5  -3   46.22    0.41
  -4  -1   7    0.32    0.71
  -3  -3  -3   10.68    0.29
  -2  -2  -3    9.53    0.31
  -1  -2  13   36.08    0.49
  -1  -1  11    0.61    0.36
  -1   0   8   18.04    0.38
   0  -9  -6   13.81    0.47
   0  -8  -6   22.29    0.45
   0  -4  -5   71.38    0.45
   1  -8  -6   24.14    0.49
   1  -3  14   20.48    0.49
   1  -1  10   61.86    0.44
   3  -7  -5   20.66    0.55
   3  -3  12   19.98    0.40
   3  -1   4   42.24    0.38
   3  -1   5   10.73    0.28
   4  -7  -4   13.89    0.66
   4  -4  12    3.41    0.40
   4  -3   0    0.47    0.41
   4  -2   4   17.90    0.34
   4  -2   5  121.02    0.53
   5  -4   9    1.00    0.35
   6  -6   2    2.92    0.52
  -6  -6   0    0.36    0.44
  -6  -3   4    8.44    0.51
  -5  -4  -1   10.10    0.34
  -5  -3   0   14.07    0.37
  -4  -3  -2   86.99    0.48
  -4  -1   1   25.71    0.43
  -3   0   2   19.80    0.56
  -2  -5  -5    1.32    0.30
  -2  -3  -4    0.34    0.26
  -1  -8  -6    0.33    0.41
  -1  -4  -5   38.85    0.35
   0  -7  -6    0.79    0.33
   1  -9  -6    9.52    0.47
   1  -7  -6    2.89    0.41
   1  -4  -5   79.36    0.51
   1  -2  12    4.60    0.39
   1   0   6    5.84    0.26
   2  -5  -5   12.68    0.41
   2  -3  13    1.52    0.38
   2  -2  11    0.05    0.32
   3  -2   9   31.71    0.40
  -5  -5  -2    1.65    0.39
  -4  -7  -4   24.30    0.43
  -4  -4  -3    3.17    0.33
  -4  -2  -1    9.90    0.32
  -3  -7  -5    3.46    0.41
  -3  -4  -4   57.83    0.40
  -3  -1  -1   47.81    0.42
  -1  -7  -6    0.84    0.34
   0  -6  -6   50.30    0.45
   0  -3  14    0.03    0.44
   0   0   7    4.93    0.29
   2  -1   8  144.84    0.53
   3  -4  13    6.12    0.44
   4  -3   9    0.60    0.31
   5  -4   2   85.89    0.60
   5  -4   8   17.09    0.38
   6  -8   0   25.99    0.89
  -6  -5   0    0.14    0.42
  -6  -4   1   44.94    0.53
  -6  -3   3    4.94    0.46
  -4  -6  -4   11.83    0.37
  -3  -6  -5   23.09    0.38
  -2  -4  -5    1.86    0.32
  -2  -1  10    0.56    0.35
  -1  -6  -6   25.19    0.37
  -1  -3  14    2.03    0.44
   0  -1  10    3.39    0.33
   1  -6  -6   11.89    0.38
   1   0   5   76.90    0.44
   2  -8  -6    5.21    0.46
   3  -3  11    7.36    0.35
   4  -4  11    2.57    0.36
   5  -5  10    3.18    0.43
   5  -4   7   27.91    0.42
   6  -7   1    2.38    0.61
   6  -6   8   22.65    0.49
  -5  -2   1   26.35    0.43
  -4  -2  10    1.80    0.60
  -3  -1   9   35.81    0.54
  -2  -8  -6    0.22    0.39
  -2  -7  -6   19.92    0.43
  -2  -2  12    8.54    0.45
  -1  -1  10   11.12    0.39
  -1   0   7  104.81    0.54
   0  -5  -6   15.62    0.36
   0  -2  12   29.59    0.43
   1  -1   9    4.84    0.29
   1   0   4  303.65    0.81
   2  -7  -6   18.48    0.46
   2  -2  10   54.05    0.44
   2  -1   0   74.75    0.70
   2  -1   7   70.69    0.44
   3  -6  -5   30.63    0.55
   3  -2   8    0.73    0.28
   4  -3   8   33.54    0.38
   5  -5   0   13.64    0.58
   5  -4   6    0.48    0.35
   6  -6   3   12.05    0.49
   6  -6   7    1.11    0.43
  -6  -3   2   11.48    0.47
  -5  -6  -3   15.83    0.41
  -5  -4  -2    9.83    0.35
  -5  -3  -1    3.08    0.35
  -4  -5  -4    2.05    0.32
  -4  -3  12   -0.03    0.58
  -3  -5  -5    3.39    0.32
  -3  -3  -4   18.85    0.34
  -3  -2  -3   36.00    0.37
  -2  -6  -6    0.73    0.33
  -2   0   0   53.81    0.54
  -1  -5  -6   18.65    0.34
  -1  -3  -5   40.21    0.38
  -1  -2  -4  253.62    0.70
  -1  -2  12    0.64    0.38
   0  -3  -5   12.53    0.32
   0  -2  -4  164.10    0.63
   0   0   6    2.62    0.27
   1  -3  13   36.24    0.43
   1  -2  11   14.79    0.38
   1   0   3  255.28    0.81
   2  -3  12    0.47    0.34
   4  -5  12    1.30    0.44
   5  -4   3  124.30    0.63
   5  -4   4   13.61    0.40
   5  -4   5    0.97    0.34
   6  -6   4    2.19    0.43
   6  -6   5    0.23    0.44
   6  -6   6    4.43    0.42
  -6  -4   0    2.21    0.44
  -5  -5  -3    3.27    0.40
  -4  -3  -3    2.30    0.29
  -4  -1   0   19.66    0.38
  -2   0   6    1.74    0.36
   1  -5  -6    0.46    0.32
   2  -3  -4   62.19    0.59
   3  -4  12    0.78    0.36
   3  -3  10   56.18    0.42
   3  -2   7   24.90    0.35
   4  -4  10    7.39    0.35
   4  -3   7    9.91    0.31
   5  -5   9   37.13    0.44
  -6  -5  -1   11.37    0.41
  -5  -3  10   30.60    0.94
  -5  -2   0    0.02    0.35
  -4  -4  -4    3.93    0.31
  -4  -2  -2    0.98    0.27
  -3  -4  -5   57.17    0.41
  -2  -5  -6    6.10    0.32
  -2  -3  -5   25.31    0.36
  -2  -2  -4  742.91    1.09
  -1  -1  -3    8.68    0.31
   0  -8  -7    6.88    0.45
   0  -3  13   41.78    0.48
   0  -1   9   78.06    0.47
   1  -4  14   13.33    0.47
   1  -1  -2  147.09    1.08
   1  -1   8   69.05    0.43
   2  -6  -6   20.98    0.44
   2  -4  -5   52.44    0.53
   2  -4  13    0.53    0.41
   2  -1   6   32.10    0.33
   3  -2   0    0.78    0.36
   4  -3   1    2.28    0.35
  -6  -3   1    0.43    0.41
  -4  -6  -5    8.25    0.38
  -3  -7  -6   12.14    0.41
  -3  -6  -6    6.03    0.41
  -3  -1  -2  294.71    0.78
  -2  -3  13   -0.08    0.46
  -1  -7  -7   14.24    0.43
  -1  -4  -6   32.55    0.35
  -1   0   6  281.70    0.85
   0  -7  -7    2.14    0.40
   0  -4  -6   20.94    0.36
   0  -2  11    0.38    0.34
   0   0   5    0.48    0.26
   1  -8  -7   28.64    0.51
   2  -2   9   80.10    0.44
   3  -5  13    0.55    0.39
   4  -6  -4    6.31    0.74
   4  -4   9    6.82    0.37
   4  -3   6   60.69    0.42
   5  -6  -1   12.32    0.73
   5  -5   8   63.16    0.50
   6  -7   2    4.20    0.55
  -5  -6  -4   10.66    0.41
  -5  -4  -3   16.60    0.40
  -5  -3  -2    9.54    0.37
  -4  -5  -5    2.47    0.39
  -2  -4  -6    3.28    0.32
  -2  -1  -3   88.34    0.49
  -2  -1   9   20.72    0.40
  -1  -6  -7    4.37    0.38
  -1  -3  13    3.72    0.41
  -1  -1   9   63.17    0.48
   0  -6  -7    1.68    0.36
   1  -7  -7   41.67    0.48
   1  -3  -5    0.50    0.31
   1  -3  12    0.48    0.37
   1  -2  10   18.04    0.37
   2  -3  11   16.01    0.35
   2  -1   5  185.49    0.59
   3  -8  -6    1.31    0.54
   3  -4  -4    0.45    0.51
   3  -3   9    0.15    0.34
   3  -2   6    2.72    0.27
   4  -5  11   17.91    0.40
   4  -3   5    0.22    0.31
   5  -6  10    7.41    0.40
   6  -7   7   -0.07    0.47
  -6  -5  -2   16.24    0.47
  -6  -4  -1    0.31    0.40
  -4  -1  -1    4.09    0.33
  -3  -5  -6   10.02    0.35
  -2  -7  -7   -0.13    0.38
  -2  -2  11   42.03    0.49
  -1  -2  11  116.64    0.60
   0  -4  14   14.81    0.46
   1  -4  -6    0.56    0.34
   1  -2  -4  531.29    1.24
   3  -4  11   26.31    0.38
   4  -8  -5   16.61    0.75
   4  -3   2  236.16    0.80
   4  -3   3    0.20    0.32
   4  -3   4   20.86    0.35
   5  -5   1   16.52    0.50
   5  -5   7    6.43    0.38
  -6  -3   0   30.99    0.49
  -5  -5  -4    8.68    0.38
  -5  -2  -1    5.26    0.34
  -5  -1   3    4.33    0.49
  -5  -1   4    2.21    0.60
  -4  -3  -4    7.13    0.31
  -4  -2  -3    0.50    0.31
  -3  -3  -5   76.44    0.43
  -3  -2  -4    0.82    0.27
  -3  -1   8    4.20    0.44
  -2  -6  -7    0.46    0.35
  -1  -5  -7   71.92    0.48
  -1  -4  14    0.83    0.43
   0  -5  -7    4.52    0.36
   0   0   4  646.11    1.28
   1  -6  -7    0.85    0.36
   1  -1   7   11.13    0.28
   2  -5  -6    5.75    0.41
   2  -2   8   31.68    0.37
   2  -1   1   24.01    0.41
   2  -1   4   39.20    0.36
   3  -5  -5    9.97    0.53
   3  -2   5   25.56    0.31
   4  -4   8    6.55    0.35
   5  -6   9    0.70    0.41
   5  -5   6   82.06    0.54
   6  -7   3    2.29    0.48
   6  -7   4    1.55    0.48
   6  -7   5    0.00    0.45
   6  -7   6    5.13    0.44
  -5  -1   2  111.41    0.74
  -4  -4  -5    2.96    0.32
  -3  -4  -6   12.17    0.37
  -2   0  -1    5.49    0.29
  -2   0   5   45.66    0.56
  -1  -3  -6    1.21    0.30
  -1  -2  -5  124.03    0.50
  -1   0   5    0.91    0.27
   0  -3  12    1.50    0.37
   0  -1   8    1.03    0.27
   1  -4  13   12.06    0.38
   2  -8  -7    6.53    0.51
   2  -4  12    5.47    0.35
   2  -1   3   11.11    0.31
   3  -7  -6   10.30    0.52
   3  -5  12   36.75    0.43
   3  -3   8    8.85    0.34
   3  -2   1  206.06    0.84
   3  -2   4    2.96    0.28
   4  -5  10   21.26    0.38
   6  -8   1    0.23    0.63
  -6  -4  -2    2.56    0.42
  -6  -2   3    2.91    0.50
  -6  -2   4    4.95    0.57
  -5  -4  -4   12.72    0.41
  -5  -3  -3   13.13    0.35
  -4  -6  -6    4.39    0.40
  -3  -1  -3    1.59    0.25
  -3   0   0   12.52    0.36
  -2  -5  -7   10.71    0.35
  -2  -3  -6  114.22    0.51
  -2  -2  -5  145.88    0.53
   0  -3  -6    8.53    0.32
   0  -2  -5    8.02    0.29
   0  -2  10    2.68    0.33
   1  -5  14   15.13    0.46
   2  -7  -7    1.10    0.48
   2  -3  10   71.11    0.43
   2  -2  -3   22.36    0.59
   2  -1   2   63.71    0.47
   3  -4  10   33.79    0.41
   3  -2   3  248.45    0.74
   4  -4  -1   36.71    0.68
   5  -5   2    2.07    0.40
   5  -5   5    4.03    0.36
  -6  -3  -1   32.31    0.46
  -6  -2   2   10.49    0.49
  -6  -2   5    0.30    0.70
  -5  -2  -2    1.06    0.34
  -5  -1   1   21.91    0.45
  -4  -5  -6   14.40    0.38
  -4  -3  11    4.25    0.56
  -4  -1  -2    8.42    0.32
  -3  -6  -7    0.17    0.37
  -1  -7  -8    0.15    0.44
  -1  -4  -7    2.13    0.34
  -1  -3  12    0.58    0.41
   0  -7  -8   21.97    0.48
   0   0   3  244.51    0.91
   1  -5  -7    0.27    0.37
   1  -3  11   20.91    0.35
   1  -2   9  121.78    0.49
   1  -1   6    8.40    0.30
   2  -5  13   15.82    0.40
   3  -2   2    1.74    0.28
   4  -6  11   38.28    0.48
   4  -4   7    0.55    0.30
   5  -7  10   20.20    0.44
   5  -6   8   10.08    0.40
   5  -5   3    0.50    0.37
   5  -5   4   32.98    0.45
  -6  -2   1   10.85    0.46
  -5  -5  -5    2.96    0.38
  -4  -3  -5   42.78    0.42
  -4  -2  -4    0.24    0.31
  -4  -2   9   44.15    0.69
  -3  -5  -7    0.47    0.36
  -2  -4  -7    0.72    0.34
  -2  -3  12    0.89    0.42
  -2  -1  -4  973.36    1.27
  -1  -6  -8   16.79    0.43
  -1  -1   8   14.27    0.34
   0  -4  -7   94.52    0.51
   0  -4  13    3.66    0.40
   2  -2   7    0.29    0.27
   4  -5   9    0.17    0.32
  -6  -4  -3    5.07    0.43
  -5  -1   0   28.48    0.44
  -4  -4  -6    9.72    0.40
  -3  -4  13    2.55    0.52
  -3  -3  -6   38.94    0.38
  -3  -2  -5   50.38    0.39
  -3   0  -1   90.39    0.55
  -2  -6  -8    0.12    0.42
  -1  -2  10   93.76    0.52
   0  -6  -8    0.88    0.40
   0  -1   7  131.27    0.55
   1  -7  -8   16.31    0.51
   2  -6  -7   36.31    0.50
   2  -4  11    7.35    0.33
   3  -6  -6    6.17    0.51
   3  -5  11    7.27    0.35
   3  -3   7   22.74    0.32
   4  -7  -5    3.19    0.68
   4  -4   6   26.02    0.37
   5  -6   7   45.08    0.47
   6  -8   2    0.56    0.53
   6  -8   6   26.13    0.50
  -6  -3  -2    0.05    0.39
  -6  -2   0   22.70    0.49
  -5  -4  -5    2.78    0.41
  -5  -3  -4   29.55    0.40
  -3  -4  -7    6.53    0.38
  -2  -2  10   35.88    0.45
  -2   0  -2  528.93    1.13
  -1  -5  -8    6.27    0.39
  -1  -4  13    2.80    0.40
   0  -5  14    2.69    0.39
   1  -4  12   52.09    0.44
   1  -3  -6   88.58    0.53
   2  -3   9   26.80    0.35
   3  -4   9    6.14    0.31
   5  -7   9    0.26    0.38
   6  -8   3   22.70    0.56
   6  -8   4    0.68    0.50
   6  -8   5    4.90    0.49
  -7  -3   3    9.03    0.63
  -5  -2  -3   17.50    0.35
  -4  -1  -3    0.27    0.31
  -3  -1  -4   96.43    0.46
  -2  -5  -8    0.66    0.39
  -2  -4  13    0.63    0.42
  -2  -2  -6 1000.00    1.22
  -1  -3  -7    7.47    0.33
  -1  -2  -6    6.00    0.30
   0  -5  -8    1.13    0.37
   0  -3  11    1.64    0.30
   0  -1  -4   27.56    0.37
   1  -6  -8    1.50    0.44
   1  -5  13   13.09    0.43
   1  -3  10   25.62    0.37
   1  -2   8   10.72    0.31
   1  -1   5    3.94    0.29
   2  -5  12    9.86    0.40
   2  -4  -6   53.11    0.52
   2  -2   6    4.58    0.29
   3  -6  12    7.45    0.37
   4  -6  10   28.17    0.40
   4  -5   8   20.29    0.39
   4  -4   5  125.01    0.55
   5  -6   6   25.70    0.42
  -7  -3   2   20.65    0.59
  -7  -3   4    1.14    0.63
  -5  -1  -1   98.82    0.55
  -4  -5  -7    3.27    0.40
  -4  -4  12    0.09    0.56
  -4  -1   6   67.91    0.99
  -4   0   1   58.07    0.59
  -4   0   2    3.98    0.46
  -2  -3  -7   11.84    0.32
  -1  -5  14    8.11    0.46
   0  -2   9    1.01    0.29
   1  -6  14    1.92    0.45
   1  -4  -7    0.95    0.33
   2  -3  -5  245.91    0.94
   3  -3   6   23.79    0.32
   4  -7  11   20.63    0.46
   5  -7   8    0.06    0.40
   5  -6   0    9.90    0.55
  -7  -3   1    6.11    0.53
  -6  -4  -4    2.95    0.40
  -6  -3  -3    8.36    0.42
  -6  -2  -1   -0.07    0.37
  -5  -3  -5    5.04    0.39
  -4  -3  -6    0.47    0.32
  -4  -2  -5    0.34    0.29
  -4   0   0   57.85    0.52
  -3  -5  -8    7.52    0.39
  -3  -2  -6   65.82    0.44
  -3  -1   7   94.35    0.73
  -3   0  -2  126.43    0.57
  -2  -1  -5    2.65    0.27
  -2   0   4   96.78    0.84
  -1  -4  -8    9.86    0.37
   0  -3  -7    5.31    0.32
   0  -2  -6  115.49    0.53
   1  -2  -5   12.15    0.34
   2  -6  13    2.32    0.38
   2  -5  -7   50.90    0.54
   2  -4  10   15.53    0.37
   3  -5  10    0.26    0.32
   4  -4   4    4.09    0.35
   5  -6   5   18.36    0.43
  -5  -4  -6    9.89    0.41
  -5  -2  -4    1.06    0.35
  -5  -1  -2   15.44    0.40
  -4  -4  -7    0.40    0.36
  -3  -3  -7   45.31    0.40
  -2  -4  -8   37.03    0.41
  -1  -6  -9    4.74    0.44
  -1  -3  11   71.43    0.49
  -1  -1  -5   64.69    0.41
  -1  -1   7    6.67    0.31
   0  -4  12   62.25    0.45
   1  -5  -8    5.62    0.42
   2  -7  -8   10.51    0.53
   2  -3   8  132.40    0.50
   3  -4   8   66.73    0.41
   4  -6   9   13.47    0.40
   4  -5   7    2.51    0.33
   4  -4   0   16.21    0.48
   5  -8   9    1.18    0.43
  -7  -3   0    0.06    0.48
  -6  -2  -2   14.10    0.41
  -4  -1  -4   32.32    0.36
  -4   0  -1   83.52    0.53
  -4   0   3   47.29    0.95
  -3  -4  -8    0.91    0.39
  -3  -1  -5   43.81    0.37
  -2  -3  11   22.88    0.45
  -2   0  -3    4.31    0.26
  -1  -2   9    1.25    0.31
   0  -6  -9    2.76    0.43
   0  -5  13    6.42    0.41
   0  -4  -8   45.70    0.44
   0  -1   6   58.76    0.41
   1  -4  11    3.63    0.31
   1  -1  -3  187.32    0.95
   1  -1   4    9.28    0.30
   2  -2   5  113.46    0.49
   3  -7  -7    4.44    0.54
   3  -6  11   23.69    0.39
   3  -3   5    1.35    0.25
   4  -4   3   86.00    0.53
   5  -7   7    2.83    0.40
   5  -6   1  112.37    0.73
   5  -6   4    2.26    0.35
   6  -9   2   12.37    0.64
   6  -9   4    8.38    0.55
  -6  -3  -4    1.57    0.42
  -3  -2   9    8.85    0.43
  -3   0  -3  147.00    0.57
  -2  -5  -9   24.01    0.47
  -2  -2  -7   18.36    0.36
  -1  -5  -9   -0.01    0.40
  -1  -4  12    0.39    0.40
   0  -6  14    1.12    0.44
   0  -3  10    1.01    0.32
   1  -3   9   56.11    0.42
   1  -2   7    0.54    0.25
   2  -5  11    0.55    0.32
   3  -7  12    3.87    0.38
   3  -5  -6   51.98    0.67
   4  -7  10    4.13    0.36
   4  -4   1    9.11    0.41
   4  -4   2    9.81    0.36
   5  -6   2    7.25    0.46
   5  -6   3   31.40    0.46
   6  -9   3    0.57    0.53
  -5  -3  -6    0.35    0.36
  -5  -2  -5    6.71    0.38
  -5  -2   7   20.17    0.89
  -5  -1  -3    9.14    0.36
  -4  -3  -7    7.60    0.36
  -4  -3  10    3.08    0.52
  -4  -2  -6   19.34    0.35
  -3  -4  12    7.80    0.46
  -2  -3  -8   10.12    0.33
  -2  -2   9   70.50    0.51
  -1  -3  -8   40.07    0.41
  -1  -2  -7    0.55    0.27
  -1   0  -3  254.19    0.81
   0  -2   8   38.75    0.38
   1  -5  12  139.93    0.56
   2  -6  -8   18.78    0.49
   2  -6  12    0.67    0.38
   3  -5   9   43.32    0.38
   3  -4  -5  137.65    0.96
   3  -4   7    8.11    0.32
   4  -8  11    1.41    0.39
   4  -5   6   57.15    0.44
   5  -8   8    0.38    0.41
   5  -7   6   44.78    0.50
  -6  -2  -3    3.40    0.39
  -5  -3   9    3.73    0.69
  -4  -4  -8    3.35    0.38
  -4  -1  -5    0.77    0.32
  -4   0  -2   10.16    0.33
  -3  -3  -8  203.61    0.66
  -3  -2  -7    4.22    0.32
  -2  -4  12    2.88    0.39
  -2  -1  -6   30.79    0.35
  -1  -5  13    3.70    0.41
   0  -5  -9   26.27    0.41
   0  -1  -5  251.49    0.74
   1  -6  -9   14.90    0.51
   1  -6  13    2.68    0.36
   1  -3  -7   26.21    0.38
   2  -7  13   -0.16    0.37
   2  -4   9    0.69    0.29
   2  -3   7   49.20    0.37
   3  -3  -2  127.55    1.40
   3  -3   4   25.79    0.32
   4  -6   8   80.23    0.47
  -6  -3  -5    1.76    0.44
  -6  -1   0   92.79    0.63
  -6  -1   1   20.56    0.49
  -3  -5  13    2.63    0.49
  -3  -1  -6  554.24    0.92
  -2  -5  13    6.72    0.48
  -2  -4  -9    0.41    0.36
  -2   0  -4  715.91    1.13
  -1  -6  14   13.04    0.47
  -1  -4  -9    8.87    0.36
  -1  -1  -6   35.82    0.34
   0  -4  11    8.20    0.36
   0  -3  -8    0.55    0.33
   1  -4  -8    6.33    0.36
   2  -2   4   46.70    0.38
   3  -6  -7  106.74    0.81
   3  -6  10   32.92    0.42
  -6  -2  -4    3.23    0.41
  -6  -1  -1    4.00    0.41
  -6  -1   2    4.85    0.50
  -5  -1  -4    2.63    0.31
  -4  -2   8   31.82    0.65
  -4   0  -3   10.96    0.33
  -3  -4  -9   11.53    0.40
  -3   0  -4    0.88    0.25
  -1  -3  10    0.30    0.33
   0  -2  -7    3.19    0.28
   1  -4  10  113.87    0.48
   1  -2  -6    0.69    0.31
   1  -1   3    0.23    0.23
   2  -4  -7    2.82    0.40
   3  -7  11   18.68    0.42
   3  -3   3   18.91    0.35
   4  -7   9   25.25    0.39
   4  -5   5    7.47    0.34
   5  -8   7   19.51    0.44
   5  -7  -1    0.04    0.60
   5  -7   5   47.70    0.47
  -7  -2   0    5.67    0.52
  -7  -2   1   -0.08    0.50
  -7  -2   2   11.99    0.61
  -5  -3  -7    0.29    0.38
  -5  -2  -6    8.96    0.36
  -4  -3  -8   42.73    0.44
  -4  -2  -7    0.56    0.33
  -2  -2  -8   41.60    0.38
  -1  -1   6   80.28    0.52
  -1   0  -4  298.41    0.80
   0  -5  12    8.48    0.39
   0  -4  -9    1.48    0.37
   0  -1   5    3.41    0.25
   0   0  -1   16.09    0.46
   1  -5  -9    1.73    0.44
   1  -2   6   78.30    0.43
   2  -5  -8   83.34    0.63
   2  -5  10    0.48    0.30
   2  -3  -6    3.93    0.39
   2  -2  -4   15.34    0.47
   3  -8  12    1.41    0.38
   3  -5   8   89.33    0.47
   3  -4   6   25.16    0.35
   4  -8  10    1.84    0.37
   4  -6   7   37.67    0.42
  -7  -2  -1    2.81    0.48
  -7  -2   3    4.42    0.65
  -6  -1  -2   45.05    0.48
  -6  -1   3    3.88    0.60
  -5   0  -1   67.93    0.54
  -5   0   0   58.08    0.54
  -5   0   1   43.21    0.56
  -4  -4  11    1.49    0.52
  -4  -1  -6    3.90    0.30
  -3  -2  -8  140.04    0.54
  -2  -3  -9   50.49    0.43
  -2  -3  10    5.21    0.38
  -2  -1  -7   15.32    0.35
  -2   0  -5  199.32    0.63
  -1  -5 -10   10.59    0.42
  -1  -3  -9    8.49    0.38
  -1  -2  -8    6.10    0.30
  -1  -2   8   20.93    0.35
   0  -6  13    0.71    0.36
   0  -3   9  121.09    0.53
   1  -5  11    1.56    0.31
   1  -3   8   15.61    0.30
   1  -1  -4  134.85    0.74
   2  -6  11   -0.48    0.32
   4  -7  -6   14.65    0.86
   5  -9   8    3.18    0.44
   5  -7   4    5.74    0.42
  -6  -2  -5    7.48    0.43
  -5  -1  -5    6.56    0.33
  -5   0  -2    3.23    0.36
  -4   0  -4   95.29    0.48
  -3  -3  -9    0.78    0.36
  -3  -1  -7   51.11    0.39
  -3   0  -5   11.72    0.29
  -1  -4  11    2.13    0.35
   0  -2   7    3.05    0.28
   0  -1  -6    2.16    0.28
   1  -7  13    2.80    0.42
   1  -6  12    0.18    0.34
   2  -8  13    7.15    0.40
   2  -7  12   -0.18    0.36
   2  -4   8   22.78    0.32
   2  -3   6   14.00    0.29
   2  -2   3    8.93    0.27
   3  -3   2   54.29    0.46
   4  -5   4    0.39    0.31
   5  -8   6   12.24    0.41
  -7  -2  -2   22.66    0.50
  -6  -1  -3   65.05    0.52
  -5  -2  -7   12.75    0.43
  -4  -2  -8   74.33    0.51
  -2  -4 -10    1.69    0.39
  -1  -4 -10   35.32    0.47
  -1  -1  -7    0.28    0.26
   0  -5 -10    1.05    0.43
   1  -3  -8    1.01    0.36
   2  -6  -9   -0.07    0.51
   3  -6   9   50.55    0.39
   4  -7   8   15.09    0.36
   5  -7   3   12.17    0.43
  -5  -4  10    2.20    0.64
  -5  -1  -6   19.94    0.41
  -5   0  -3   32.05    0.41
  -5   0   2  145.29    0.97
  -4  -3  -9    2.37    0.40
  -4  -1  -7    7.02    0.36
  -4   0  -5    0.36    0.31
  -3  -4  11    0.49    0.43
  -2  -4  11   13.30    0.42
  -2  -2   8    3.77    0.32
  -1  -6  13    0.40    0.41
  -1  -5  12    3.07    0.34
  -1   0  -5   76.88    0.44
   0  -4  10    3.44    0.33
   0  -3  -9   34.78    0.42
   0  -2  -8    2.59    0.32
   1  -4  -9   28.82    0.47
   1  -4   9   31.07    0.37
   3  -8  11    8.67    0.42
   3  -7  10   15.62    0.36
   3  -5   7   23.79    0.35
   3  -4   5    0.78    0.28
   4  -9  10   -0.05    0.42
   4  -8   9    2.56    0.36
   4  -6   6   98.14    0.49
   5  -9   7   18.82    0.45
   5  -7   0    1.34    0.49
   5  -7   1    0.27    0.45
   5  -7   2    0.09    0.42
  -6  -2  -6    0.82    0.44
  -6  -1  -4    2.06    0.39
  -3  -2  -9    9.22    0.40
  -3  -2   8    0.50    0.38
  -3  -1   6   11.41    0.46
  -3   0  -6    5.95    0.28
  -2  -5  12    7.96    0.44
  -2  -2  -9   21.03    0.36
  -2   0  -6   25.83    0.32
   0  -4 -10    2.77    0.44
   0   0  -3  243.09    0.92
   1  -2  -7   94.75    0.55
   2  -5   9    0.85    0.28
   3  -5  -7    2.47    0.54
   3  -3   1   85.12    0.57
   4  -5   3   10.51    0.34
   5  -8   5    7.42    0.40
  -7  -2   4    8.52    0.83
  -5   0  -4    0.22    0.34
  -3  -5  12    9.81    0.48
  -3  -3 -10   40.81    0.50
  -3  -1  -8   35.34    0.37
  -2  -6  13    5.11    0.44
  -2  -3 -10    9.00    0.38
  -2  -1  -8    1.03    0.28
  -1  -3 -10    0.04    0.38
  -1  -3   9   28.53    0.38
  -1  -2  -9    2.35    0.34
   0  -5  11   64.32    0.47
   1  -3   7   52.03    0.40
   1  -2   5  193.88    0.64
   2  -6  10   12.62    0.33
   2  -4  -8   22.05    0.47
   2  -2   2  482.85    1.15
   4  -7   7    0.67    0.35
   5  -8  -2    5.00    0.77
  -6  -1  -5   37.40    0.48
  -5  -2  -8    1.21    0.39
  -4  -2  -9    2.75    0.41
  -4   0  -6   -0.06    0.28
  -1  -1  -8    0.52    0.31
   0  -7  13   28.11    0.42
   0  -6  12   29.30    0.40
   0  -1  -7   26.48    0.36
   0  -1   4  274.70    0.87
   1  -8  13    0.10    0.38
   1  -5 -10    4.56    0.44
   1  -5  10    5.48    0.30
   1  -1  -5  129.87    0.65
   2  -8  12    3.06    0.37
   2  -7  11    3.97    0.34
   2  -4   7    4.07    0.28
   2  -3  -7   44.70    0.52
   2  -3   5   19.18    0.30
   3  -6   8    1.12    0.30
   3  -3  -1  163.62    1.07
   3  -3   0    2.56    0.35
   4  -6   5  108.03    0.53
   4  -5  -2    0.20    0.60
   4  -5   2   28.65    0.42
   5 -10   7    5.17    0.46
   5  -9   6    0.57    0.41
   5  -8   4   24.95    0.47
  -5  -1  -7    2.83    0.35
  -5   0  -5   19.22    0.39
  -4  -3   9    3.22    0.49
  -4  -1  -8   11.28    0.35
  -3   0  -7   40.41    0.40
  -3   1  -2    3.65    0.28
  -3   1  -1   63.76    0.53
  -1   0  -6    5.86    0.27
   0  -3   8  112.76    0.49
   0   0  -4  636.79    1.28
   1  -7  12    3.60    0.35
   1  -6  11   77.97    0.45
   2  -5  -9   40.70    0.58
   2  -2  -5   13.40    0.43
   3  -9  11    3.67    0.43
   3  -7   9    9.57    0.37
   3  -6  -8    1.12    0.56
   3  -4  -6   18.03    0.56
   3  -4   4   38.03    0.38
   4  -9   9    7.16    0.38
   4  -8   8    0.27    0.34
  -7  -1  -2   26.21    0.54
  -7  -1  -1   19.19    0.52
  -7  -1   0    4.62    0.50
  -6   0  -2   14.36    0.44
  -6   0  -1   80.46    0.61
  -3   1  -3  175.63    0.62
  -2  -3   9  113.53    0.59
  -2  -2 -10   13.51    0.40
  -2   0  -7   56.31    0.39
  -1  -4  10   22.92    0.38
  -1  -2   7  289.75    0.80
  -1  -1   5    8.39    0.32
   0  -3 -10    0.39    0.37
   0  -2  -9    0.32    0.33
   3  -8  10   -0.07    0.34
   3  -5   6    1.80    0.27
   4  -5   1  165.76    0.77
   5  -9   5    5.59    0.46
   5  -8   3    1.58    0.41
  -7  -1  -3   26.23    0.55
  -7  -1   1   16.38    0.61
  -6  -1  -6    5.60    0.39
  -6   0  -3   16.17    0.43
  -6   0   0    2.06    0.46
  -5   0  -6    0.83    0.36
  -4   0  -7    6.13    0.31
  -4   1  -3   36.40    0.39
  -4   1  -2  155.40    0.65
  -4   1  -1   86.68    0.58
  -3  -2 -10   11.78    0.38
  -3  -1  -9    6.10    0.34
  -3   1  -4   42.39    0.36
  -2  -3 -11    4.28    0.44
  -2  -1  -9   23.19    0.35
  -2   0   3   42.08    0.78
  -2   1  -3   10.58    0.31
  -2   1  -2   63.24    0.48
  -1  -7  13    9.97    0.43
  -1  -5  11    0.25    0.35
   0  -2   6    8.47    0.27
   1  -4 -10    1.75    0.44
   1  -4   8  128.12    0.52
   1  -3  -9   16.11    0.39
   2  -5   8    5.32    0.29
   4  -7   6    2.41    0.35
   4  -6   4  432.24    0.94
   4  -5   0   29.94    0.53
   5 -10   6    3.05    0.45
  -6   0  -4    3.05    0.42
  -5  -1  -8    1.23    0.37
  -4  -4  10   -0.10    0.48
  -4  -1  -9    2.52    0.40
  -4   1  -4    7.02    0.32
  -3   1  -5    9.67    0.31
  -2   1  -4   39.15    0.38
  -2   1  -1   22.70    0.40
  -1  -6  12   15.90    0.38
  -1  -3 -11   12.58    0.44
  -1  -2 -10   10.89    0.35
  -1  -1  -9    4.23    0.33
  -1   0  -7   87.53    0.46
   0  -4 -11    0.65    0.44
   0  -4   9   70.10    0.45
   0   0  -5    0.93    0.27
   1  -2  -8   11.48    0.38
   2  -9  12    1.71    0.38
   2  -6   9   51.67    0.42
   4  -8   7    0.60    0.36
   4  -5  -1   13.09    0.54
   5  -8  -1    2.54    0.62
   5  -8   2    6.67    0.46
  -6   0   1  130.65    0.86
  -3   0  -8    1.65    0.30
  -2  -7  13    0.29    0.44
  -2  -4  10    0.01    0.37
  -2   0  -8   32.36    0.35
   0  -8  13   25.26    0.43
   0  -1  -8   32.70    0.36
   1  -5   9   98.02    0.48
   1  -1  -6    8.96    0.34
   2  -8  11    0.82    0.34
   2  -7  10   34.75    0.38
   2  -4   6  326.94    0.74
   2  -3   4    3.85    0.28
   2  -2   1  339.36    1.11
   3  -6   7   20.66    0.33
   3  -4   3   55.28    0.45
   4 -10   9    9.13    0.40
   4  -9   8    1.76    0.39
   5  -9   4   13.46    0.47
   5  -8   0    2.26    0.55
   5  -8   1    3.62    0.49
  -7  -1   2    0.52    0.61
  -6   0  -5    0.08    0.39
  -5   0  -7   11.94    0.36
  -4   0  -8    9.61    0.34
  -4   1  -5   35.60    0.37
  -4   1   0    5.10    0.39
  -3  -4  10   -0.24    0.40
  -3  -1 -10    7.08    0.40
  -3   1  -6    1.17    0.30
  -2  -6  12   51.82    0.51
  -2  -5  11    1.15    0.37
  -2   1  -5  179.55    0.59
  -1   0   2   99.06    1.01
   0  -7  12   18.59    0.38
   0  -6  11    6.92    0.36
   0  -5  10  294.12    0.71
   1  -8  12    6.82    0.37
   1  -7  11   11.01    0.38
   1  -6  10    4.67    0.34
   1  -3   6  327.25    0.76
   1  -2   4   94.02    0.49
   2  -4  -9   25.62    0.51
   3  -9  10    2.13    0.36
   3  -8   9   95.98    0.52
   3  -7   8   21.87    0.35
   3  -5   5   13.09    0.32
   5 -10   5    1.11    0.47
  -5  -3   8   22.73    0.68
  -5  -1  -9    7.00    0.41
  -5   1  -4   62.72    0.49
  -5   1  -3    0.12    0.32
  -5   1  -2    0.46    0.35
  -4  -2   7  104.74    0.83
  -4   1  -6   29.68    0.38
  -3  -6  12    4.27    0.47
  -3  -5  11    0.72    0.42
  -2  -2 -11    2.47    0.37
  -2  -2   7   -0.15    0.28
  -2  -1 -10   26.41    0.38
  -1  -3   8  170.35    0.62
   0  -2 -10   19.93    0.40
   0   0  -6    2.59    0.28
   2  -3  -8    9.39    0.43
   2  -2  -6   84.75    0.63
   3  -5  -8    6.94    0.55
   4  -7   5    4.82    0.35
   4  -6   3    1.11    0.36
   5  -9   3   14.53    0.50
  -6  -3   7    2.59    0.87
  -6   0  -6   14.24    0.44
  -5   0  -8    0.49    0.40
  -5   1  -1    5.93    0.39
  -4  -1 -10    0.31    0.38
  -3   0  -9    8.54    0.33
  -2   0  -9    1.03    0.33
  -2   1  -6   30.97    0.33
  -1  -8  13   31.25    0.50
  -1  -2 -11    0.45    0.40
  -1   0  -8   61.50    0.40
   0  -3 -11    8.75    0.43
   0  -3   7    2.08    0.28
   1  -3 -10    2.03    0.42
   2  -5 -10   15.26    0.51
   2  -5   7    6.95    0.31
   4 -10   8    1.06    0.42
   4  -8   6   26.98    0.41
  -5   1  -5   32.23    0.38
  -4   0  -9    1.94    0.34
  -3  -2   7    3.85    0.42
  -3   1  -7    0.01    0.28
  -1  -1 -10    4.58    0.32
   0  -1  -9    4.60    0.33
   1  -4 -11   29.35    0.56
   1  -2  -9   44.91    0.47
   1  -1  -7    0.75    0.32
   2  -9  11    7.93    0.37
   3 -10  10    0.88    0.42
   3  -6  -9   36.70    0.73
   3  -6   6   30.90    0.38
   3  -4  -7   39.92    0.65
   4  -9   7   12.14    0.41
   5 -10   4    1.29    0.47
   5  -9   2   11.06    0.50
  -7   0  -3    7.74    0.48
  -7   0  -2    5.75    0.51
  -6   0  -7    0.28    0.38
  -5   1  -6    0.30    0.35
  -4   1  -7   14.43    0.33
  -3  -1 -11    1.98    0.38
  -2   1  -7   70.48    0.42
  -1  -7  12   26.84    0.41
  -1  -4   9    6.07    0.33
  -1   1  -4    9.38    0.28
  -1   1  -3    0.20    0.23
   0  -1   3  135.44    0.71
   0   0  -7    4.77    0.30
   1  -9  12   16.30    0.40
   1  -4   7    8.33    0.28
   2  -8  10    3.76    0.33
   2  -7   9   67.98    0.45
   2  -6   8    0.45    0.29
   3  -4   2   15.37    0.35
   4  -6   2  103.47    0.60
   5  -9  -2   22.13    0.82
  -7   0  -4   -0.17    0.44
  -7   0  -1    9.58    0.52
  -6   0   2   16.75    0.66
  -5  -4   9    4.70    0.59
  -5   0  -9   13.57    0.40
  -5   1   0   71.06    0.61
  -3   0 -10    7.05    0.34
  -3   1  -8    1.53    0.29
  -2  -1 -11    2.71    0.36
  -2   1   0   72.41    0.69
  -1  -6  11    0.37    0.32
  -1  -5  10   51.67    0.44
  -1  -2   6  344.37    0.90
  -1   0  -9    1.60    0.28
  -1   1  -5    3.75    0.26
   0  -8  12    0.95    0.36
   0  -4   8   50.01    0.40
   0  -2   5   89.06    0.50
   1  -8  11    1.29    0.38
   2  -4   5    3.81    0.29
   3  -9   9    0.25    0.34
   3  -8   8    4.22    0.35
   3  -7   7   18.91    0.33
   4  -7   4   22.37    0.38
   5 -10   3    3.07    0.52
   5  -9   1    4.94    0.52
  -6   1  -4    7.79    0.39
  -6   1  -3   10.19    0.43
  -5  -5  10    0.27    0.56
  -5   1  -7   27.31    0.39
  -4   0 -10    3.14    0.37
  -4   1  -8    0.61    0.31
  -2  -7  12   12.12    0.48
  -2  -3   8    4.38    0.35
  -2   0 -10    3.58    0.32
  -2   1  -8  143.04    0.54
  -1   1  -6    8.87    0.27
   0  -7  11    5.30    0.37
   0  -2 -11    7.59    0.40
   1  -7  10   13.33    0.36
   1  -5   8   21.22    0.32
   2 -10  11   12.49    0.44
   2  -4 -10    0.78    0.48
   2  -3  -9   32.48    0.51
   2  -3   3  121.05    0.55
   2  -2  -7  120.67    0.67
   2  -2   0  253.43    1.16
   3  -5   4  112.01    0.51
   4  -8   5   19.82    0.42
   5  -9  -1    2.67    0.63
   5  -9   0    5.42    0.57
  -7  -1   3    7.80    0.88
  -7   0   0    5.34    0.56
  -6   1  -5    0.04    0.38
  -6   1  -2   12.98    0.43
  -4   1   1  142.17    0.91
  -1  -2 -12   21.39    0.43
  -1  -1 -11    0.06    0.34
   0  -6  10  131.26    0.52
   0  -5   9   20.78    0.33
   0  -1 -10    0.51    0.35
   0   0  -8   42.42    0.40
   1 -10  12    1.09    0.43
   1  -6   9   63.89    0.41
   1  -3 -11   40.23    0.54
   1  -3   5   75.17    0.45
   1  -1  -8   18.00    0.38
   3  -3  -5   25.24    0.78
   4 -10   7    2.06    0.37
   4  -9   6   31.33    0.44
  -6   1  -6    1.49    0.40
  -5   1  -8    8.85    0.36
  -4  -3   8   58.70    0.60
  -4   1  -9    1.17    0.33
  -3  -7  12   10.14    0.46
  -3   0 -11    1.26    0.40
  -3   1  -9    1.00    0.30
  -3   1   1    1.11    0.44
  -2  -6  11    3.75    0.38
  -2  -5  10    3.42    0.38
  -2  -4   9   20.55    0.38
  -2  -1 -12   14.78    0.46
  -1   0 -10   14.43    0.37
  -1   1  -7   10.46    0.28
   1  -2 -10   57.29    0.49
   1  -2   3  131.03    0.62
   2  -9  10    2.12    0.34
   2  -5   6   83.55    0.45
   3 -10   9    0.44    0.40
   3  -5  -9    0.31    0.59
   4  -6   1    3.35    0.38
   5 -10   2   14.74    0.51
  -6   1  -7    3.51    0.42
  -6   1  -1   66.76    0.60
  -4  -6  11    0.28    0.46
  -4  -1   5  128.65    1.09
  -4   0 -11    2.77    0.40
  -4   2  -5  116.27    0.54
  -4   2  -4   17.49    0.34
  -3  -6  11    5.04    0.44
  -3   2  -5   24.82    0.34
  -2   0 -11   11.91    0.40
  -2   1  -9    1.55    0.29
  -1  -8  12   18.59    0.44
   0  -9  12   37.94    0.44
   1  -9  11   11.24    0.41
   2  -8   9    4.13    0.36
   3  -9   8    4.21    0.37
   3  -6   5    0.60    0.27
   4 -11   7    0.02    0.43
   4  -7   3   21.01    0.39
   5 -10   1   20.06    0.60
  -6  -4   8    4.91    0.73
  -5   1  -9    0.76    0.37
  -4   2  -6    2.52    0.31
  -4   2  -3   18.17    0.37
  -3  -5  10   10.74    0.44
  -3  -4   9    1.26    0.36
  -3  -1   5    3.95    0.44
  -3   1 -10   -0.15    0.36
  -3   2  -6    2.49    0.27
  -3   2  -4    2.62    0.25
  -1  -3   7  112.28    0.53
  -1   1  -8   68.24    0.41
   0  -2 -12    8.66    0.44
   0   0  -9   62.31    0.44
   2  -7   8   79.42    0.43
   2  -6   7   24.66    0.32
   2  -2  -8   13.28    0.45
   3  -8   7   23.26    0.39
   3  -7   6   72.49    0.43
   3  -4  -8   62.79    0.73
   3  -4   1   15.71    0.38
   4 -10   6    6.59    0.41
   4  -8   4    0.33    0.38
  -7   0   1    0.25    0.60
  -6   1  -8   12.15    0.47
  -5   1   1   92.63    0.80
  -5   2  -5   12.20    0.37
  -5   2  -4   16.52    0.40
  -4   1 -10    1.68    0.35
  -4   2  -7   11.31    0.32
  -3   2  -7   24.64    0.33
  -3   2  -3  240.96    0.74
  -1  -7  11    2.20    0.33
  -1  -1 -12    0.20    0.37
   0  -8  11    8.24    0.35
   0  -3   6  200.87    0.63
   0  -1 -11    4.97    0.38
   1  -8  10    0.39    0.36
   1  -4   6   21.93    0.31
   1  -1  -9    0.80    0.33
   3 -11   9    0.39    0.39
   3  -5   3  187.08    0.66
   4  -9   5    0.74    0.37
   4  -6   0    1.80    0.41
   5 -10   0   24.69    0.64
  -7   1  -5    1.29    0.49
  -7   1  -4    1.23    0.48
  -6   1   0   33.07    0.58
  -5   1 -10    0.93    0.44
  -5   2  -6   16.88    0.35
  -5   2  -3    5.13    0.37
  -4   2  -8    0.84    0.34
  -3   0 -12    0.45    0.40
  -2  -8  12    2.67    0.43
  -2   1 -10    1.78    0.31
  -1  -6  10    1.35    0.34
  -1  -4   8    2.75    0.30
  -1   0 -11   68.91    0.46
  -1   1  -9    3.97    0.32
   0 -10  12   10.11    0.46
   1  -2 -11   -0.06    0.43
   2 -10  10   12.60    0.38
   2  -4 -11   33.28    0.61
   2  -4   4  224.65    0.67
   2  -3 -10   19.30    0.51
   3  -3  -6   35.14    0.72
  -7   1  -3   12.37    0.50
  -5   2  -7    1.33    0.33
  -4   1 -11   -0.14    0.42
  -4   2  -2    9.59    0.35
  -3   1 -11    1.26    0.36
  -3   2  -8    0.63    0.29
  -2   0 -12    0.62    0.37
  -2   2  -7    0.30    0.30
  -2   2  -6    4.29    0.26
  -2   2  -5  110.02    0.49
  -2   2  -4   44.90    0.39
  -1  -9  12   28.19    0.48
  -1  -5   9    8.29    0.31
   0  -7  10   10.47    0.33
   0  -4   7   74.32    0.44
   1 -10  11   45.34    0.45
   1  -7   9    0.22    0.29
   1  -6   8    5.39    0.28
   1  -5   7    4.88    0.27
   1   0  -5    3.72    0.34
   2  -9   9   11.54    0.38
   2  -3   2   64.95    0.49
   3 -10   8   10.05    0.37
   4 -11   6    8.71    0.44
   4  -7   2    0.71    0.36
  -7   1  -2    0.71    0.49
  -5  -2   6   16.75    0.70
  -5   2  -8    2.80    0.34
  -4   2  -9   14.02    0.38
  -3   2  -9   30.90    0.40
  -3   2  -2    0.48    0.31
  -2  -7  11    8.90    0.40
   0  -6   9    2.74    0.29
   0  -5   8  106.23    0.49
   0   0 -10   14.62    0.33
   1   0  -6  270.74    0.84
   2 -11  10    0.44    0.38
   3  -9   7    2.37    0.36
   3  -6   4   11.03    0.33
   4 -10   5   -0.11    0.39
   4  -8   3   36.18    0.46
  -6   2  -6    0.73    0.39
  -6   2  -5    0.36    0.38
  -6   2  -4   13.55    0.44
  -5   2  -2   11.70    0.39
  -2   1 -11    3.79    0.34
  -2   2  -8   30.79    0.34
  -1   0 -12    6.45    0.41
  -1   1 -10   62.00    0.45
   0  -9  11   12.61    0.40
   0  -1 -12   20.84    0.45
   0   1  -6   55.71    0.42
   0   1  -5    3.08    0.28
   1 -11  11    3.57    0.44
   1  -9  10    1.08    0.37
   1  -1 -10   11.55    0.38
   1   0  -7  101.75    0.56
   1   0  -4  350.15    1.13
   2  -8   8   19.82    0.34
   2  -5   5   51.90    0.38
   2  -2  -9   50.74    0.54
   3 -11   8    5.13    0.43
   3  -8   6    1.12    0.34
   3  -7   5  194.93    0.63
   4  -9   4   51.25    0.47
   4  -6  -1  101.67    0.75
  -6   2  -7    0.11    0.41
  -5   2  -9    3.54    0.37
  -4  -7  11   38.60    0.58
  -4   2 -10   20.33    0.42
  -3  -7  11   12.06    0.44
  -3   1 -12    6.78    0.39
  -3   2 -10    1.23    0.36
  -2  -9  12    1.04    0.44
  -2  -6  10    1.75    0.35
  -2   2  -9   81.79    0.47
  -2   2  -3    8.67    0.30
  -1  -8  11   16.05    0.38
   0  -2   4   34.57    0.39
   0   1  -7  125.93    0.53
   1  -3   4   12.02    0.28
   2  -7   7  101.34    0.46
   2  -6   6    5.97    0.28
   3  -4  -9    0.17    0.56
   3  -4   0   52.38    0.56
  -7   1  -1    1.75    0.52
  -6   2  -8    0.52    0.38
  -6   2  -3    0.44    0.40
  -5   2 -10    0.96    0.43
  -4   2  -1   31.29    0.45
  -2  -5   9    7.64    0.35
  -2  -3   7  107.89    0.57
  -2   1 -12   62.07    0.51
  -1  -2   5  420.70    1.03
   0   0 -11   18.74    0.40
   0   1  -8    1.09    0.30
   0   1  -4  266.88    0.85
   1  -8   9    1.49    0.34
   1  -2 -12    3.55    0.48
   1   0  -8   18.34    0.38
   2 -10   9    0.20    0.34
   2  -3 -11    8.83    0.52
   3 -10   7   19.32    0.41
   3  -5   2   12.13    0.35
   3  -3  -7   58.98    0.75
   4 -11   5   16.81    0.46
   4  -7   1   82.62    0.56
  -5  -5   9    1.18    0.53
  -4  -6  10   16.93    0.51
  -4   2 -11    5.36    0.43
  -3  -6  10   13.03    0.44
  -3  -2   6   57.34    0.57
  -3   0   3  143.04    1.45
  -2  -4   8    7.82    0.33
  -2   2 -10   55.21    0.44
  -1  -7  10    1.20    0.35
  -1   1 -11    9.12    0.34
   0 -10  11    5.19    0.42
   0  -8  10    7.95    0.33
   1 -10  10   20.54    0.43
   1  -1 -11    1.92    0.42
   4 -10   4    0.64    0.39
   4  -6  -2   43.60    0.68
  -6   2  -2   34.35    0.51
  -5  -4   8    6.65    0.54
  -5  -3   7    8.79    0.57
  -5   2  -1  139.16    0.72
  -4   3  -7    9.67    0.35
  -4   3  -6   58.40    0.44
  -3   2 -11    0.82    0.34
  -2  -8  11    2.40    0.40
  -1   0 -13   53.90    0.54
  -1   2  -8   10.97    0.32
  -1   2  -7    0.77    0.25
  -1   2  -6   76.46    0.43
   0  -1 -13    0.67    0.44
   0   1  -9   76.48    0.47
   1  -7   8   28.55    0.35
   1  -4   5   55.47    0.41
   2 -11   9    6.15    0.38
   2  -9   8    0.28    0.32
   2  -2 -10   60.73    0.58
   2  -1  -6    2.64    0.38
   2  -1  -5   50.52    0.59
   3  -9   6   33.79    0.42
   4  -9   3    8.06    0.42
   4  -8   2   54.78    0.50
  -7   2  -5    8.42    0.46
  -6   1   1   20.41    0.64
  -5   3  -7   25.41    0.41
  -5   3  -6   10.17    0.38
  -4  -2   6    0.80    0.48
  -4   3  -8   33.05    0.37
  -4   3  -5    0.37    0.31
  -3  -5   9    1.15    0.38
  -3   2  -1  194.49    0.83
  -3   3  -7   22.22    0.35
  -1  -9  11    0.22    0.36
  -1  -6   9   49.54    0.42
  -1   2  -5  181.54    0.62
   0  -7   9  100.08    0.47
   0   0 -12   19.19    0.43
   1  -6   7   71.24    0.42
   1  -5   6   94.11    0.47
   1  -2   2   52.04    0.47
   1   0  -9    2.77    0.33
   1   0  -3  299.18    1.25
   2  -4   3   63.80    0.42
   2  -1  -7    0.67    0.38
   3 -11   7   29.11    0.42
   3  -8   5   57.29    0.44
   3  -6   3    1.16    0.30
   4 -11   4   17.89    0.50
   4  -7   0    0.34    0.42
   4  -6  -4    5.72    0.77
   4  -6  -3   17.89    0.68
  -7   0   2    7.69    0.83
  -7   2  -4   33.94    0.56
  -5   3  -8    0.47    0.34
  -5   3  -5    8.53    0.36
  -4  -5   9    7.75    0.43
  -4   3  -9    0.25    0.32
  -3  -8  11    1.14    0.43
  -3  -4   8    3.68    0.37
  -3   2 -12   11.74    0.39
  -3   3  -8    8.83    0.30
  -3   3  -6   22.68    0.32
  -2   1 -13   11.49    0.42
  -2   2 -11    0.09    0.32
  -2   2  -2  472.55    1.14
  -1  -5   8  201.89    0.64
  -1  -3   6    8.65    0.30
  -1   1 -12   24.97    0.40
  -1   2  -9  116.98    0.49
   0  -9  10    0.67    0.37
   0  -6   8   96.92    0.48
   0  -3   5   33.30    0.35
   0  -1   2   13.21    0.37
   0   1 -10    3.58    0.33
   0   1  -3  133.34    0.71
   1 -11  10    2.76    0.38
   1  -9   9    5.57    0.37
   2  -8   7   88.38    0.45
   3 -12   7   34.19    0.50
   3  -7   4   16.68    0.36
  -7   1   0    0.65    0.54
  -7   2  -3   31.10    0.58
  -5   3  -9   13.95    0.38
  -4  -3   7   15.81    0.50
  -4   3 -10    2.73    0.38
  -4   3  -4   19.39    0.36
  -3   3  -9    0.44    0.30
  -3   3  -5    1.51    0.25
  -2  -7  10   17.91    0.39
  -1  -4   7   19.86    0.34
  -1   2 -10   17.57    0.37
  -1   2  -4   91.35    0.49
   0  -5   7   70.80    0.43
   0  -4   6  167.26    0.58
   1  -1 -12    1.44    0.45
   1   0 -10    1.53    0.37
   2 -10   8    8.03    0.35
   2  -7   6   42.51    0.38
   2  -5   4   33.92    0.36
   2  -1  -8   54.16    0.52
   3 -10   6    6.46    0.39
   3  -4 -10    4.43    0.62
   3  -3  -8    4.30    0.55
   4 -10   3    2.58    0.43
   4  -8   1    0.21    0.41
  -6   2  -1    1.94    0.45
  -6   3  -8    2.11    0.43
  -6   3  -7    4.66    0.42
  -6   3  -6   12.52    0.41
  -5   3 -10    0.29    0.43
  -5   3  -4    7.96    0.36
  -3   3 -10   55.14    0.42
  -2  -9  11    1.12    0.41
  -2  -1   4  274.17    1.09
  -2   2 -12    0.23    0.34
  -1 -10  11    2.28    0.38
  -1  -8  10    0.81    0.32
   0   1 -11    1.96    0.35
   2  -6   5    5.30    0.27
   2  -3   1   84.07    0.58
   2  -2 -11    3.85    0.49
   2  -1  -4    0.33    0.42
   3  -5   1  144.10    0.67
   4  -9   2    0.69    0.40
  -6   3  -5   17.14    0.43
  -4   3 -11    3.50    0.36
  -3  -7  10   13.16    0.46
  -3   3  -4   25.19    0.34
  -2   3  -9   25.64    0.37
  -2   3  -8  123.98    0.50
  -2   3  -7   46.34    0.37
  -2   3  -6   12.83    0.32
  -1   1 -13    0.65    0.38
  -1   2 -11   16.06    0.38
   0 -10  10    0.19    0.39
   0  -8   9    2.52    0.34
   0   0 -13   27.43    0.48
   1 -10   9    2.08    0.34
   1  -8   8   18.74    0.33
   2 -11   8   27.07    0.41
   2  -9   7   51.22    0.43
   2  -1  -9   12.63    0.43
   3 -11   6    4.41    0.40
   3  -9   5    0.08    0.34
   3  -4  -1  110.64    0.78
   4 -11   3    1.47    0.43
  -7   2  -2   14.94    0.56
  -6   3  -4    0.59    0.41
  -5   3  -3   19.77    0.41
  -4  -7  10   10.99    0.49
  -4   3  -3    0.30    0.32
  -3   3 -11    7.00    0.35
  -2  -6   9    8.04    0.36
  -2   2 -13   21.82    0.47
   1   0 -11   19.73    0.44
   2 -12   8    0.44    0.43
   3  -3  -9  107.23    0.86
   4  -7  -1  101.05    0.71
  -4   2   0   97.43    0.73
  -2   3 -10   71.00    0.43
  -2   3  -5   19.10    0.32
  -1  -9  10   23.32    0.42
  -1  -7   9    3.97    0.31
   0   1 -12    0.33    0.38
   1 -11   9    0.84    0.40
   1  -7   7   34.46    0.35
   1  -1 -13    6.56    0.51
   3 -12   6    3.37    0.40
   3  -8   4    1.93    0.33
   3  -6   2   80.60    0.51
   4 -10   2   11.97    0.46
  -5   2   0   21.93    0.51
  -3   3 -12   19.04    0.40
  -2  -8  10    0.27    0.34
  -2  -5   8    0.30    0.32
  -2   3 -11   15.30    0.35
  -1   2 -12    4.95    0.35
  -1   2  -3  130.68    0.62
   0 -11  10    0.39    0.37
   0  -7   8   15.72    0.32
   1  -9   8    3.08    0.34
   1  -3   3  224.01    0.74
   2 -10   7   15.64    0.39
   2  -8   6    1.46    0.29
   2  -1 -10   16.72    0.46
   3 -10   5   92.82    0.53
   3  -7   3  159.76    0.61
   4 -11   2    3.89    0.47
   4  -9   1   19.48    0.46
   4  -8   0    2.52    0.42
  -7   3  -5   10.25    0.51
  -6  -4   7    1.07    0.63
  -6   3  -3    4.16    0.44
  -5   4  -8   15.97    0.42
  -4  -6   9    0.96    0.43
  -4   4  -9    6.08    0.37
  -4   4  -8    5.69    0.32
  -4   4  -7    0.37    0.34
  -3  -6   9    5.86    0.38
  -3   3  -3   18.56    0.33
  -1  -6   8  155.37    0.57
   0  -9   9    2.49    0.32
   0   2  -9    0.63    0.31
   0   2  -8   37.34    0.35
   0   2  -7    3.23    0.25
   1 -12   9   24.15    0.44
   1  -6   6   18.21    0.31
   1   0 -12   22.68    0.49
   2  -2 -12   12.16    0.51
  -5   4 -10    1.68    0.42
  -5   4  -9    1.07    0.36
  -5   4  -7   26.15    0.39
  -4  -8  10    4.88    0.50
  -4   4 -10    6.83    0.35
  -4   4  -6   24.01    0.38
  -3  -8  10   54.62    0.52
  -2  -4   7   24.21    0.37
  -2   3 -12    0.13    0.34
  -1 -10  10    2.71    0.41
  -1   2 -13   11.76    0.43
  -1   3  -8   14.18    0.33
   0  -6   7    4.17    0.31
   0   1 -13    7.69    0.43
   0   2 -10    2.10    0.33
   0   2  -6    8.23    0.30
   1  -5   5  208.24    0.62
   1  -4   4   14.46    0.29
   1   1  -9   61.30    0.48
   1   1  -8   13.70    0.34
   1   1  -7    6.32    0.31
   2 -11   7    0.75    0.39
   2  -7   5    1.70    0.27
   2  -4   2   47.22    0.42
   3 -11   5    9.31    0.42
   3  -9   4   39.86    0.43
   4 -10   1    7.66    0.46
   4  -7  -2   15.25    0.55
  -7   3  -4    3.25    0.47
  -6   4  -8   20.79    0.48
  -5   3  -2  127.51    0.68
  -5   4  -6    0.43    0.31
  -4   3  -2  225.06    0.80
  -4   4 -11    2.34    0.37
  -3   4 -10   33.14    0.38
  -3   4  -9    5.90    0.31
  -3   4  -8   62.26    0.41
  -3   4  -7    7.76    0.29
  -2  -9  10    1.09    0.40
  -2  -7   9    7.00    0.36
  -2  -3   6   15.47    0.33
  -2   3  -4    3.42    0.25
  -1  -8   9    0.06    0.34
  -1   3 -10   24.95    0.37
  -1   3  -9   54.20    0.39
  -1   3  -7   50.46    0.37
   0 -10   9  105.28    0.54
   1 -10   8    2.26    0.33
   1  -8   7    6.59    0.33
   1   1  -6   75.65    0.51
   2 -12   7    7.45    0.43
   2  -9   6   53.49    0.43
   2  -6   4    1.23    0.28
   2  -5   3   42.86    0.39
   2  -1 -11    4.75    0.47
   3 -12   5    1.97    0.39
   3  -3 -10   10.18    0.61
   4 -11   1   11.93    0.54
   4  -9   0   10.97    0.47
  -7   1   1    0.36    0.72
  -7   2  -1    8.51    0.55
  -6  -3   6    2.86    0.64
  -6  -2   5    0.33    0.72
  -6   2   0    3.59    0.52
  -6   4  -7    3.00    0.38
  -6   4  -6    0.62    0.44
  -5   4  -5    0.43    0.37
  -4   4 -12    2.31    0.44
  -4   4  -5  117.68    0.54
  -3  -5   8    0.45    0.34
  -3   4 -11   24.82    0.38
  -2   2  -1  324.84    1.10
  -2   3 -13    1.39    0.38
  -1 -11  10    4.50    0.39
  -1  -5   7  149.90    0.54
  -1   3 -11   20.50    0.38
   0  -8   8    6.17    0.34
   0  -5   6    0.33    0.28
   0  -2   3  288.84    0.92
   0   2 -11    0.02    0.31
   1   0 -13    0.53    0.47
   1   1 -10   10.68    0.36
   3  -8   3    0.64    0.32
   3  -5   0   84.04    0.60
   4  -8  -1   10.97    0.48
  -4  -5   8    0.26    0.38
  -3  -9  10   14.55    0.46
  -3   4 -12    0.10    0.41
  -3   4  -6   24.56    0.33
  -2 -10  10    0.54    0.42
  -1   3  -6  309.32    0.74
   0 -11   9    1.11    0.36
   0   2 -12   29.26    0.43
   0   2  -5   84.10    0.49
   1 -11   8   54.23    0.44
   1   1 -11    0.40    0.39
   3 -10   4   10.00    0.39
  -7   3  -3    1.14    0.49
  -6   3  -2    1.16    0.43
  -6   4  -5   25.33    0.48
  -3  -7   9    5.37    0.38
  -3  -4   7  223.42    0.76
  -3   2   0    0.78    0.36
  -2   4 -10   16.73    0.34
  -2   4  -9    0.74    0.29
  -2   4  -8   22.16    0.33
  -1  -9   9    2.33    0.37
  -1  -4   6    0.19    0.24
  -1  -2   4  199.07    0.77
  -1   3 -12    0.27    0.33
   0  -4   5   97.41    0.47
   0  -3   4   34.92    0.37
   0   1  -2   13.14    0.36
   1 -12   8   22.69    0.42
   1  -7   6  225.51    0.61
   2 -10   6    2.60    0.32
   2  -8   5  120.54    0.52
   2  -1 -12   22.72    0.55
   3 -11   4    5.29    0.40
   3  -7   2  250.25    0.74
   3  -6   1    7.51    0.35
   4 -10   0   10.64    0.48
   4  -7  -3   44.10    0.68
  -5  -4   7    0.43    0.47
  -5   4  -4   12.66    0.40
  -4  -7   9    1.04    0.45
  -3   3  -2   51.49    0.45
  -3   4 -13    7.44    0.40
  -3   4  -5    0.70    0.29
  -2  -8   9    4.44    0.37
  -2  -6   8   94.63    0.50
  -2   1   1  118.16    1.39
  -2   4 -11    7.02    0.33
  -2   4  -7    4.20    0.31
  -1  -7   8   34.55    0.37
  -1  -3   5    8.03    0.27
   0  -9   8    9.56    0.36
   1  -9   7   15.29    0.33
   1   1 -12    2.90    0.43
   1   1  -5    7.77    0.33
   2 -11   6   11.28    0.41
   2   0  -8    1.79    0.37
   3 -12   4    0.24    0.43
   3  -9   3    1.06    0.37
   3  -3 -11   28.40    0.72
   4 -11   0   15.25    0.54
   4  -9  -1    4.19    0.50
   4  -7  -7    2.07    1.05
  -4   4  -4    3.95    0.32
  -2   3  -3  118.54    0.56
  -2   4 -12    4.90    0.35
  -1 -10   9    0.56    0.38
  -1   3 -13   37.06    0.43
  -1   3  -5   71.77    0.43
   0  -7   7   48.84    0.38
   0   2 -13    7.41    0.38
   2 -12   6    0.86    0.37
   2   0  -9    0.43    0.35
   2   0  -7    0.81    0.38
   3  -4  -2    0.13    0.44
   3  -2  -8  108.60    0.86
   3  -2  -7   23.56    0.66
   4  -8  -2    2.92    0.47
  -6   4  -4    0.29    0.41
  -5   5 -10    3.16    0.39
  -5   5  -9   34.53    0.43
  -5   5  -8   57.67    0.49
  -4   5 -11   17.77    0.44
  -4   5 -10   20.65    0.38
  -4   5  -9    0.38    0.32
  -4   5  -8   19.24    0.39
  -3  -1   4   87.04    0.75
  -2   4 -13    0.46    0.41
  -2   4  -6  314.73    0.75
   1 -10   7    5.41    0.33
   1  -6   5  128.65    0.50
   2  -9   5   52.52    0.43
   2  -7   4   40.80    0.36
   2   0 -10   47.62    0.50
   3 -10   3    0.83    0.37
   4 -10  -1   13.89    0.54
   4  -7  -4   13.49    0.66
  -7   4  -5    9.17    0.50
  -5  -3   6   11.96    0.55
  -5   5  -7    6.24    0.38
  -4   5 -12    1.38    0.39
  -3  -8   9    1.09    0.39
  -3  -6   8    8.61    0.40
  -3  -2   5   18.02    0.44
  -3   5 -10   -0.04    0.36
  -2  -9   9    0.71    0.38
  -2  -5   7   54.16    0.43
  -1 -11   9   14.48    0.40
  -1  -8   8   13.30    0.36
  -1  -6   7   15.14    0.34
  -1   2  -2   51.01    0.47
  -1   3 -14   22.19    0.44
   0 -10   8    2.70    0.33
   0   2 -14    3.35    0.45
   0   3 -10    0.55    0.32
   0   3  -9  116.14    0.52
   1 -11   7    6.44    0.35
   1  -8   6   33.53    0.35
   1   1 -13   90.38    0.60
   2  -3   0  286.32    1.07
   3 -12   3   10.83    0.46
   3 -11   3   26.93    0.45
   3  -8   2    0.65    0.33
   3  -2  -9    5.14    0.53
   4  -9  -2    0.42    0.51
  -7   3  -2    2.98    0.53
  -6   5  -8    8.54    0.41
  -5  -6   8    6.52    0.47
  -5   3  -1   19.67    0.48
  -4  -8   9   -0.10    0.42
  -4   5  -7    1.75    0.30
  -3   4  -4   36.94    0.38
  -3   5 -12   35.93    0.46
  -3   5 -11    7.65    0.36
  -3   5  -9   40.18    0.38
  -3   5  -8   85.08    0.47
  -1   4 -10  107.69    0.50
  -1   4  -9   29.73    0.36
   0 -12   8    1.51    0.43
   0 -11   8    1.82    0.35
   0  -6   6   24.61    0.32
   0   2  -4   33.47    0.37
   0   3 -11    1.00    0.34
   0   3  -8  107.22    0.50
   1 -12   7    0.13    0.37
   1  -5   4  348.33    0.79
   2 -10   5    2.40    0.32
   2  -6   3   36.77    0.35
   2   0 -11   17.47    0.45
   2   0  -6    1.79    0.37
   3  -2  -6  126.24    1.20
   4 -10  -2    2.93    0.56
   4  -8  -3    3.99    0.56
   4  -7  -5    2.93    0.72
  -7   2   0    1.20    0.68
  -6  -5   7    4.58    0.57
  -6   5  -7   18.08    0.46
  -5   4  -3  118.13    0.62
  -5   5  -6   74.42    0.50
  -4  -6   8   12.96    0.45
  -4  -3   6    3.85    0.42
  -4   3  -1    2.17    0.38
  -2 -10   9    0.49    0.41
  -2  -7   8    9.39    0.32
  -1   4 -12   49.82    0.46
  -1   4 -11    3.77    0.32
  -1   4  -8  120.53    0.51
   0  -8   7    1.99    0.28
   0   3 -12    1.26    0.37
   1   2 -10   86.78    0.53
   1   2  -9    0.98    0.34
   2 -12   5   37.34    0.48
   2 -11   5    3.06    0.38
   2  -8   4  188.89    0.61
   2  -5   2   50.64    0.42
   3  -7   1    8.31    0.37
   3  -2 -10   11.72    0.58
  -7   4  -4    2.85    0.51
  -6   3  -1   64.86    0.67
  -6   5  -6    3.80    0.44
  -4   4  -3   82.29    0.53
  -4   5  -6   55.72    0.44
  -3  -9   9    0.26    0.37
  -3   5 -13   -0.12    0.39
  -3   5  -7   21.90    0.35
  -2 -11   9   25.88    0.50
  -2   4  -5    3.81    0.26
  -1  -9   8   21.18    0.39
  -1   3  -4   11.57    0.29
   0   3  -7    2.30    0.28
   1  -9   6    1.91    0.30
   1  -4   3   97.36    0.49
   1  -3   2   53.51    0.46
   1   0  -2   93.31    1.00
   1   2 -11  110.92    0.56
   1   2  -8   19.81    0.35
   2  -4   1  187.98    0.73
   2   0 -12    1.11    0.48
   3  -9   2   43.43    0.44
   3  -6   0   21.14    0.42
   3  -5  -1   24.46    0.46
   4  -9  -3    1.78    0.56
   4  -7  -6   13.15    0.86
  -6   4  -3   21.27    0.47
  -5  -2   5   10.96    0.57
  -3 -10   9    4.95    0.45
  -2  -4   6   72.99    0.47
  -2   5 -12    9.91    0.40
  -2   5 -11    0.72    0.32
  -2   5 -10    0.85    0.30
  -2   5  -9    1.15    0.32
  -1  -5   6   20.09    0.33
  -1   4 -13   12.12    0.39
  -1   4  -7    8.37    0.31
   0  -9   7    1.85    0.30
   0  -5   5  137.70    0.54
   0   3 -13   41.29    0.48
   1  -7   5  129.20    0.50
   1   1  -4   11.32    0.37
   1   2 -12    0.71    0.41
   3 -12   2    0.63    0.44
   3 -11   2   36.50    0.52
   3 -10   2    6.78    0.39
   3  -2 -11    4.29    0.60
   4  -8  -4    0.26    0.57
  -5  -7   8    0.73    0.47
  -5   5  -5    4.61    0.36
  -4  -2   5    2.13    0.42
  -4   0   3   46.00    0.94
  -3  -7   8   16.03    0.39
  -3  -5   7    0.63    0.32
  -2  -8   8    0.72    0.34
  -2   5 -13   15.42    0.44
  -1 -10   8    1.42    0.34
  -1  -7   7   87.74    0.45
  -1   4 -14   13.99    0.46
   1 -12   6    2.09    0.41
   1 -11   6    2.40    0.38
   1 -10   6   -0.03    0.31
   1   2  -7  272.46    0.79
   2  -9   4    6.95    0.34
   2   0 -13   22.14    0.58
  -6   5  -5   32.41    0.50
  -5  -1   4    2.19    0.62
  -5   2   1   34.29    0.74
  -5   6 -10    6.61    0.40
  -5   6  -9    0.53    0.41
  -4  -7   8   21.38    0.48
  -4   5  -5    7.54    0.34
  -4   6 -11   37.24    0.44
  -4   6 -10   27.00    0.40
  -3   5  -6    4.28    0.28
  -2  -6   7    1.08    0.32
  -2   5  -8    5.08    0.29
  -1 -11   8   13.62    0.39
   0 -10   7    8.05    0.34
   0  -7   6   11.92    0.30
   0   3 -14    0.35    0.43
   0   3  -6  189.91    0.63
   1   2 -13   34.77    0.48
   2 -10   4    0.11    0.35
   2  -7   3    7.97    0.32
   3  -8   1   71.66    0.49
   4  -9  -4   23.76    0.67
   4  -8  -5   15.29    0.72
  -5   6  -8    9.10    0.41
  -4  -5   7    6.57    0.39
  -4  -1   4   19.63    0.57
  -4   6  -9   14.16    0.36
  -3   4  -3   52.97    0.43
  -2  -9   8    4.75    0.38
  -2  -3   5   85.10    0.53
  -2   3  -2   62.31    0.47
  -1   4  -6   21.27    0.34
   0 -12   7    2.35    0.38
   0 -11   7    9.12    0.36
   1  -8   5   68.35    0.41
   1  -6   4   98.43    0.48
   2 -12   4    0.16    0.37
   2 -11   4    0.23    0.33
  -7  -2   4    8.29    0.85
  -7   4  -3    3.00    0.54
  -6  -4   6    4.85    0.54
  -6   6  -8   21.58    0.49
  -4   6  -8   72.16    0.48
  -3  -8   8    4.90    0.38
  -3   6 -12    6.11    0.38
  -3   6 -11   22.30    0.39
  -3   6 -10   31.43    0.38
  -2   4  -4  218.61    0.67
  -2   5  -7    7.01    0.28
  -1  -8   7   10.94    0.34
  -1  -4   5  103.08    0.50
   0  -4   4  288.98    0.77
   1   2 -14    8.84    0.52
   2   0  -5   42.17    0.55
   2   1 -10   21.44    0.46
   2   1  -9   48.39    0.50
   3 -11   1   10.29    0.48
   3 -10   1   49.31    0.52
   3  -9   1   27.13    0.42
  -5   4  -2   80.55    0.59
  -5   5  -4   30.66    0.44
  -5   6  -7   40.34    0.46
  -4  -8   8   48.65    0.51
  -4   2   1    2.91    0.54
  -3  -4   6   11.94    0.38
  -3   3  -1   79.67    0.58
  -3   5  -5   10.73    0.32
  -3   6 -13    0.10    0.39
  -3   6  -9   47.06    0.40
  -2 -11   8    4.61    0.43
  -2 -10   8    0.72    0.35
  -1   5 -12  129.02    0.57
  -1   5 -11    1.86    0.35
   0  -8   6   49.29    0.38
   0   4 -12   58.98    0.47
   0   4 -11    7.47    0.33
   0   4 -10    2.35    0.34
   1  -9   5   58.37    0.43
   1   2  -6  323.96    0.87
   2  -8   3    1.76    0.32
   2  -6   2   31.18    0.37
   2   1 -11   79.06    0.57
   3  -7   0   93.79    0.56
  -7   3  -1   14.45    0.64
  -7   5  -5    2.46    0.50
  -6   2   1    2.71    0.75
  -6   6  -7    1.45    0.43
  -4   6  -7   35.51    0.42
  -3  -9   8    6.27    0.41
  -3  -6   7    3.65    0.34
  -2  -7   7   12.81    0.35
  -1  -9   7    1.92    0.34
  -1  -6   6  188.83    0.58
  -1   5 -13   12.34    0.38
  -1   5 -10    4.75    0.31
   0  -6   5    0.82    0.26
   0   4 -13    4.09    0.40
   0   4  -9   66.40    0.44
   1 -12   5    3.20    0.41
   1 -10   5   21.78    0.38
   2   1 -12   15.40    0.47
   2   1  -8  104.74    0.62
  -6   4  -2   20.64    0.50
  -6   5  -4    5.32    0.43
  -5  -6   7    4.36    0.44
  -4  -9   8    0.66    0.43
  -4   4  -2    9.34    0.36
  -4   5  -4    0.70    0.32
  -3 -10   8    1.19    0.42
  -3   6  -8    0.60    0.29
  -2  -5   6    3.19    0.31
  -2   5  -6   81.21    0.43
  -2   6 -12    0.75    0.38
  -2   6 -11    0.21    0.36
  -1 -12   7   19.29    0.47
  -1 -10   7   13.00    0.39
  -1   3  -3  225.22    0.76
  -1   5 -14   14.49    0.46
  -1   5  -9   92.20    0.45
   0  -9   6    0.25    0.30
   0  -3   3  119.74    0.57
   0   2  -3  286.32    0.93
   0   3  -5   31.77    0.37
   0   4 -14   14.74    0.46
   1 -11   5    1.31    0.33
   1  -5   3   95.12    0.49
   1   3 -12    0.86    0.41
   1   3 -11   67.38    0.48
   1   3 -10    1.35    0.33
   2 -12   3   10.47    0.44
   2 -11   3    6.17    0.40
   2 -10   3   11.74    0.38
   2  -9   3    4.18    0.34
   3  -8   0    0.55    0.37
   3  -6  -1   14.65    0.40
   3  -1 -10    0.41    0.52
   3  -1  -9    1.95    0.53
  -5   6  -6   22.91    0.43
  -4  -6   7    3.55    0.40
  -2   6 -13    2.06    0.38
  -2   6 -10   11.39    0.33
  -1 -11   7   15.64    0.38
  -1  -3   4  525.81    1.09
  -1   4  -5   54.60    0.39
  -1   5  -8   19.61    0.34
   0 -12   6   -0.36    0.37
   0 -11   6   16.66    0.37
   0 -10   6    1.24    0.32
   0   4  -8   46.81    0.37
   1  -7   4   45.41    0.36
   1   3 -13    3.44    0.45
   1   3  -9   26.65    0.38
   2  -5   1  157.05    0.65
   2   1 -13    1.27    0.47
   3 -11   0   -0.08    0.46
   3  -4  -3   19.83    0.58
   3  -1 -11   26.88    0.64
  -6   6  -6    3.97    0.42
  -5   7 -10   18.63    0.44
  -4   6  -6   89.92    0.51
  -4   7 -11   20.89    0.42
  -3   6  -7   20.18    0.33
  -2  -8   7    8.38    0.35
  -2   6  -9   48.62    0.39
  -1  -7   6  132.72    0.53
   2  -7   2   91.62    0.49
   2   1  -7   65.70    0.54
   3 -10   0   23.62    0.44
   3  -9   0   41.09    0.48
   3  -5  -2    1.77    0.40
   3  -1  -8   85.47    0.80
  -7   5  -4    4.95    0.54
  -6  -3   5    1.68    0.55
  -5   3   0  118.03    0.84
  -5   7  -9    0.69    0.42
  -4   7 -10    3.97    0.37
  -3  -7   7   -0.27    0.35
  -2  -9   7   45.23    0.43
  -2  -1   3    5.24    0.40
   0  -7   5    6.92    0.29
   0  -2   2  295.66    1.03
   1  -8   4   23.75    0.35
   1   3 -14    2.03    0.44
   1   3  -8  159.23    0.61
   3  -1 -12    9.92    0.65
  -7   4  -2    1.27    0.56
  -5  -7   7    3.45    0.43
  -4  -7   7    2.14    0.42
  -4   7  -9   22.72    0.39
  -3   5  -4  108.72    0.52
  -3   7 -12    3.98    0.38
  -3   7 -11   17.83    0.38
  -2 -11   7   12.25    0.44
  -2 -10   7   19.88    0.42
  -2   6  -8    0.80    0.28
  -1  -5   5   62.66    0.40
  -1   5  -7    4.94    0.28
   0  -5   4  448.63    0.89
   0   4  -7   71.57    0.42
   1 -12   4    3.99    0.37
   1  -4   2  126.39    0.58
   2 -12   2   11.02    0.45
   2  -4   0  130.98    0.69
   3 -11  -1    7.81    0.50
   3  -7  -1    0.55    0.38
  -7  -1   3    7.90    0.89
  -5   5  -3    0.41    0.37
  -5   6  -5   17.45    0.40
  -5   7  -8    0.59    0.36
  -3  -8   7   17.15    0.40
  -3  -5   6    0.94    0.35
  -3   4  -2   14.62    0.35
  -3   6  -6   29.65    0.37
  -3   7 -10   13.66    0.35
  -2  -6   6  286.16    0.74
  -2   2   0  241.58    1.14
  -2   4  -3   60.14    0.42
  -2   5  -5   49.18    0.37
  -1  -8   6    0.43    0.29
  -1  -2   3    1.88    0.28
  -1   6 -13    2.25    0.41
  -1   6 -12    0.28    0.38
   0  -8   5   27.30    0.37
   0   5 -12    8.50    0.39
   1 -11   4    1.18    0.34
   1 -10   4    0.69    0.31
   1  -9   4    4.07    0.29
   1   2  -5  405.89    1.01
   2 -11   2   10.48    0.40
   2  -8   2   19.21    0.36
  -6   3   0    4.24    0.60
  -6   5  -3   60.62    0.60
  -6   6  -5    0.19    0.44
  -5  -8   7    0.43    0.44
  -4  -8   7    2.61    0.41
  -4   3   0    0.13    0.43
  -4   5  -3   10.80    0.37
  -4   6  -5  101.56    0.53
  -4   7  -8   13.61    0.35
  -3 -10   7   14.20    0.44
  -3  -9   7   21.41    0.43
  -3   7  -9    8.84    0.37
  -2  -4   5    0.65    0.28
  -1 -12   6   19.14    0.41
  -1 -11   6   13.02    0.41
  -1 -10   6    5.06    0.36
  -1  -9   6    0.69    0.34
  -1   6 -14    2.44    0.40
  -1   6 -11   74.85    0.45
   0 -12   5   12.18    0.39
   0 -11   5    1.80    0.38
   0  -1   1  383.57    1.63
   0   5 -14    3.19    0.44
   0   5 -13    6.18    0.36
   0   5 -11   62.13    0.43
   0   5 -10  270.99    0.70
   1  -6   3   39.51    0.35
   2 -10   2    0.08    0.35
   2  -9   2   37.51    0.41
   2   2 -12    8.68    0.45
   2   2 -11   38.87    0.49
   2   2 -10   33.38    0.46
   3 -10  -1    0.46    0.44
   3  -9  -1    6.91    0.45
   3  -8  -1   33.25    0.45
  -5  -5   6   -0.07    0.40
  -5  -3   5    5.38    0.48
  -5   7  -7    2.38    0.39
  -4  -9   7    4.40    0.43
  -4  -5   6    2.04    0.38
  -2   6  -7   23.67    0.32
  -2   7 -13    0.79    0.38
  -2   7 -12    0.06    0.35
  -1   6 -10    3.88    0.31
   0 -10   5    2.38    0.31
   0  -9   5   18.43    0.33
   1   3  -7  105.43    0.52
   1   4 -12    0.38    0.41
   2 -12   1    1.41    0.43
   2  -6   1    7.96    0.32
   2  -3  -1    0.59    0.37
   2   2 -13   15.06    0.49
   3  -1  -7  148.00    1.05
  -6  -6   6    1.25    0.49
  -6   7  -7   -0.06    0.43
  -4   7  -7   -0.09    0.36
  -3   7  -8   19.55    0.38
  -2  -7   6   34.88    0.39
  -2   0   2    6.76    0.57
  -2   7 -11    3.81    0.34
  -1  -6   5    3.11    0.30
  -1   4  -4   13.55    0.29
  -1   5  -6   91.54    0.46
  -1   6  -9   61.66    0.43
   0   3  -4   34.49    0.39
   0   4  -6  160.45    0.58
   0   5  -9   19.59    0.35
   1 -12   3    4.32    0.42
   1   1  -3    0.94    0.30
   1   4 -13    2.67    0.40
   1   4 -11    2.25    0.35
   2   1  -6   45.00    0.49
   2   2  -9  100.86    0.58
   3  -6  -2   45.32    0.53
  -7   5  -3    2.60    0.58
  -5   4  -1   43.89    0.56
  -4   8 -11    1.38    0.39
  -3  -6   6    6.40    0.34
  -2   7 -10   31.80    0.38
   0  -6   4   10.20    0.28
   1  -7   3   53.07    0.38
   1  -3   1   30.36    0.40
   1   4 -14    0.23    0.43
   1   4 -10   21.94    0.38
   2 -11   1    7.02    0.41
   3 -10  -2    3.53    0.46
   3   0 -11    6.91    0.54
  -6   4  -1   22.68    0.59
  -5   6  -4    2.41    0.39
  -4   8 -10    1.54    0.37
  -3   6  -5    0.45    0.30
  -3   8 -12    1.16    0.43
  -2 -11   6    7.25    0.38
  -2  -8   6   19.28    0.34
  -1 -12   5    7.40    0.43
  -1  -4   4  375.64    0.87
   0 -12   4    3.47    0.41
   0  -4   3  164.62    0.61
   1 -11   3    0.55    0.33
   1  -8   3  164.32    0.56
   2  -7   1    6.54    0.32
   2   2  -8   77.09    0.55
   3   0 -12   14.46    0.61
   3   0 -10    0.49    0.49
  -6  -4   5    0.15    0.50
  -6  -2   4    5.16    0.57
  -6   6  -4    1.88    0.46
  -6   7  -6    4.97    0.47
  -5  -6   6    9.53    0.42
  -5   7  -6   40.37    0.46
  -5   8  -9    0.63    0.38
  -4  -6   6    3.20    0.36
  -3   5  -3  183.05    0.67
  -3   8 -11    7.86    0.37
  -2 -10   6    0.41    0.34
  -2  -9   6    1.55    0.31
  -2   3  -1   82.35    0.58
  -2   5  -4   33.43    0.34
  -2   6  -6    5.48    0.28
  -2   7  -9   65.60    0.42
  -1  -7   5    0.56    0.27
  -1   6  -8    5.25    0.28
   0   5  -8  102.66    0.47
   1 -10   3   63.46    0.42
   1  -9   3    1.12    0.30
   1  -5   2  113.56    0.53
   1   4  -9    5.58    0.30
   2 -10   1    7.53    0.34
   2  -9   1   15.84    0.37
   2  -8   1   68.05    0.47
   3  -9  -2    1.57    0.42
   3  -8  -2    2.96    0.42
   3  -7  -2    4.73    0.40
   3   0  -9   43.99    0.64
  -7  -3   4    0.90    0.64
  -4   4  -1    8.60    0.38
  -4   6  -4  409.22    0.91
  -4   7  -6    2.07    0.35
  -4   8  -9    2.35    0.35
  -3  -7   6   23.33    0.36
  -3  -4   5   42.92    0.44
  -3   7  -7   16.95    0.33
  -3   8 -10    0.60    0.38
  -2  -5   5   33.80    0.35
  -1 -11   5    4.05    0.35
  -1   7 -13    3.30    0.37
  -1   7 -12    3.82    0.35
   0 -11   4    3.80    0.33
   0  -7   4   44.17    0.36
   0   6 -14    1.47    0.44
   0   6 -13    0.68    0.41
   0   6 -12   25.82    0.42
   1 -12   2    0.45    0.41
   1   3  -6    8.89    0.30
   2  -5   0  162.59    0.68
   2   0  -4   89.48    0.82
   3  -5  -3   42.12    0.58
  -5  -8   6   11.06    0.51
  -5  -7   6   10.95    0.44
  -5   5  -2    1.68    0.40
  -5   8  -8   -0.21    0.42
  -4  -7   6    0.67    0.36
  -3 -10   6   31.78    0.43
  -3  -9   6    4.05    0.39
  -3  -8   6   28.49    0.41
  -2  -3   4    9.11    0.31
  -2   7  -8   76.14    0.43
  -2   8 -13    6.98    0.44
  -1 -10   5    0.76    0.32
  -1  -9   5    5.10    0.31
  -1  -8   5   75.42    0.42
  -1   3  -2   54.83    0.46
  -1   7 -11    9.40    0.34
   0 -10   4   13.88    0.33
   0  -9   4   41.15    0.37
   0  -8   4   23.91    0.33
   0   6 -11    6.38    0.33
   2 -11   0   14.14    0.43
   2   3 -13    0.42    0.45
   2   3 -12    1.08    0.42
   2   3 -11   22.00    0.45
   3 -10  -3    0.90    0.46
  -7   3   0    2.14    0.85
  -7   6  -4    4.33    0.55
  -6   5  -2    0.73    0.47
  -4  -9   6   10.78    0.43
  -4  -8   6   30.44    0.46
  -4   8  -8    0.29    0.38
  -3   8  -9   86.71    0.51
  -2   8 -12    1.72    0.37
  -1   5  -5  199.08    0.61
  -1   6  -7   69.07    0.43
  -1   7 -10   13.35    0.36
   0   1  -1  396.55    1.67
   0   4  -5   92.36    0.48
   0   5  -7   67.49    0.42
   0   6 -10  122.48    0.54
   1 -11   2    0.46    0.38
   1   4  -8    2.52    0.28
   1   5 -13    3.40    0.41
   1   5 -12    3.19    0.37
  -5   7  -5   45.28    0.49
  -4  -4   5    3.52    0.35
  -3   7  -6   68.38    0.45
  -2 -11   5   23.70    0.45
  -2  -6   5   76.77    0.46
  -2   4  -2   47.58    0.44
  -2   8 -11    0.38    0.34
  -1 -12   4    7.77    0.39
  -1  -5   4  146.83    0.56
   0 -12   3    1.46    0.37
   0  -5   3    6.01    0.30
   1  -6   2    8.19    0.27
   1   2  -4  192.77    0.76
   1   5 -14    8.28    0.46
   1   5 -11    0.41    0.36
   2 -10   0    5.61    0.38
   2   2  -7   12.23    0.38
   2   3 -10    5.91    0.39
   3  -9  -3    0.15    0.43
   3   0  -8   77.55    0.73
  -7   4  -1    0.21    0.67
  -6   7  -5   -0.10    0.45
  -5  -2   4   21.67    0.55
  -5   8  -7   17.27    0.44
  -4  -2   4   41.57    0.53
  -4   5  -2   27.32    0.43
  -3   2   1   28.96    0.68
  -3   6  -4   11.48    0.33
  -2 -10   5    7.97    0.38
  -2   6  -5    4.95    0.30
  -2   7  -7   95.68    0.48
  -2   8 -10    3.63    0.37
   0   2  -2  300.45    1.05
   1 -12   1   12.88    0.45
   1 -10   2    0.78    0.31
   2  -6   0  175.91    0.65
   3  -8  -3   17.58    0.47
   3  -6  -3  197.83    0.85
  -6  -6   5    0.33    0.52
  -4   7  -5    4.39    0.35
  -4   8  -7    0.20    0.36
  -4   9 -10   -0.03    0.42
  -3 -11   5    2.92    0.44
  -3  -5   5   54.27    0.44
  -3   3   0    2.54    0.36
  -3   8  -8    3.70    0.32
  -2  -9   5    5.78    0.35
  -2  -8   5   28.86    0.38
  -2  -7   5  206.23    0.61
  -1 -11   4    9.29    0.36
  -1   4  -3   95.71    0.51
  -1   7  -9    0.06    0.30
   0 -11   3    2.24    0.34
   0   6  -9    2.46    0.29
   1  -9   2   20.74    0.33
   1  -8   2   12.32    0.33
   1  -7   2  204.16    0.61
   1   5 -10   48.87    0.44
   2 -11  -1    5.25    0.43
   2  -9   0    4.25    0.35
   2  -8   0  126.61    0.56
   2  -7   0   91.52    0.53
   2   3  -9  107.08    0.57
   3  -7  -3    7.18    0.42
   3  -4  -4    0.49    0.51
   3  -1  -6   51.16    0.95
   3   1 -12    0.50    0.52
   3   1 -11    0.94    0.51
  -6   6  -3   11.26    0.49
  -5  -5   5   27.28    0.49
  -5   6  -3   28.61    0.46
  -3   9 -11    3.26    0.38
  -1 -10   4    0.81    0.36
  -1  -6   4  172.07    0.58
  -1   8 -13    0.47    0.43
   0 -10   3    7.63    0.36
   0  -6   3   34.63    0.37
   0   7 -13   26.42    0.46
   1 -11   1    1.16    0.38
   1  -4   1   37.68    0.40
   1   4  -7   18.72    0.34
   2   1  -5  134.34    0.76
   3  -9  -4    1.69    0.49
  -7   5  -2    1.60    0.60
  -4  -5   5   13.23    0.40
  -4   9  -9    6.75    0.42
  -3 -10   5    5.47    0.37
  -3  -6   5   11.30    0.35
  -3   4  -1   15.18    0.37
  -2   5  -3   42.00    0.38
  -2   8  -9    3.65    0.32
  -1 -12   3    0.98    0.42
  -1  -9   4    0.32    0.33
  -1   6  -6   17.43    0.31
  -1   8 -12    6.55    0.37
   0 -12   2    3.33    0.38
   0  -9   3  232.62    0.64
   0   5  -6    0.53    0.28
   0   7 -12   18.14    0.42
   1 -12   0    0.60    0.45
   1   3  -5    7.91    0.30
   1   5  -9    8.35    0.34
   2 -10  -1   -0.43    0.42
   2  -4  -1  336.53    1.05
   2   4 -13    0.10    0.45
   3   1 -10    8.98    0.48
  -6  -3   4    8.18    0.50
  -5  -6   5    0.95    0.43
  -5   8  -6   10.70    0.42
  -4   6  -3    0.70    0.33
  -3  -9   5   -0.07    0.37
  -3  -8   5    6.07    0.36
  -3  -7   5    1.29    0.34
  -3   8  -7   21.85    0.38
  -3   9 -10    1.39    0.36
  -2 -11   4    0.54    0.40
  -2  -4   4    5.67    0.29
  -1  -8   4   48.51    0.38
  -1  -7   4    4.05    0.28
  -1   7  -8   27.28    0.34
  -1   8 -11    1.55    0.34
   0  -8   3   36.10    0.36
   0  -7   3   12.01    0.29
   0   3  -3  117.77    0.57
   0   6  -8   92.18    0.45
   0   7 -11    4.97    0.37
   2 -11  -2    7.58    0.46
   2   4 -12    2.71    0.39
   3  -9  -5    0.68    0.56
   3  -8  -4    5.57    0.49
  -6   8  -6   24.12    0.50
  -5  -8   5    1.04    0.44
  -5  -7   5    0.04    0.40
  -5   7  -4    5.26    0.41
  -5   9  -8    2.64    0.44
  -4  -9   5    2.08    0.37
  -4  -8   5    0.36    0.39
  -4  -6   5    8.05    0.36
  -3  -3   4    0.49    0.29
  -3  -1   3   38.37    0.54
  -3   5  -2   12.67    0.36
  -3   7  -5  187.80    0.62
  -2   7  -6   41.91    0.36
  -2   9 -12    0.92    0.38
  -1   5  -4  346.06    0.80
   0 -11   2    1.25    0.38
   1 -10   1    1.15    0.31
   1   6 -14   12.77    0.43
   1   6 -13    0.59    0.41
   1   6 -12   15.23    0.41
   2  -9  -1    0.35    0.39
   2   3  -8    4.29    0.35
   2   4 -11   12.59    0.39
  -7  -2   3    4.11    0.65
  -7   0   2    7.89    0.82
  -7   6  -3    0.21    0.56
  -6  -1   3    3.86    0.60
  -6   7  -4    1.57    0.48
  -4  -7   5    0.40    0.36
  -4   8  -6   23.01    0.41
  -4   9  -8    2.39    0.39
  -3 -11   4    7.58    0.46
  -3   9  -9    0.15    0.38
  -2 -10   4    7.48    0.38
  -2   8  -8   18.65    0.34
  -2   9 -11    7.21    0.37
  -1 -11   3    1.53    0.34
  -1   8 -10    0.46    0.32
   0 -12   1   13.40    0.46
   0   7 -10   10.92    0.36
   1 -11   0   17.81    0.43
   1  -9   1   10.73    0.35
   2   2  -6  144.53    0.68
   3  -7  -4    6.04    0.46
   3  -5  -4  217.91    0.99
   3   1  -9   33.90    0.53
  -4   7  -4   20.63    0.41
  -2  -5   4  123.03    0.53
  -2   6  -4    0.92    0.28
  -1 -12   2    0.95    0.43
   0 -10   2   12.34    0.37
   0   4  -4  286.17    0.77
   1  -5   1   34.49    0.35
   1   4  -6   -0.04    0.27
   1   5  -8  198.62    0.61
   1   6 -11    0.87    0.32
   2 -10  -2    2.04    0.40
   2  -8  -1  150.27    0.63
   2  -5  -1    0.25    0.30
   2   4 -10    0.08    0.34
   3  -6  -4   11.23    0.48
   3   0  -7  101.80    0.85
  -3 -10   4    0.49    0.40
  -3   6  -3    0.99    0.30
  -2  -9   4   18.47    0.34
  -2   9 -10    1.46    0.34
  -1 -10   3   16.40    0.35
  -1  -4   3  316.40    0.81
  -1   7  -7   32.73    0.35
   0  -4   2    2.42    0.25
   0   6  -7    4.41    0.28
   1  -8   1   11.44    0.31
   1  -6   1   42.76    0.38
   2  -7  -1    5.48    0.36
   3  -8  -5   13.99    0.52
   3   2 -13   -0.05    0.52
   3   2 -12    0.83    0.48
   3   2 -11   10.60    0.50
  -5   8  -5    6.63    0.44
  -5   9  -7   17.03    0.46
  -3   8  -6    1.45    0.34
  -3   9  -8    4.09    0.37
  -2 -11   3    0.04    0.36
  -2  -8   4  151.39    0.54
  -2  -7   4  213.67    0.64
  -2  -6   4    5.35    0.28
  -2   8  -7   82.27    0.46
  -1   6  -5  124.70    0.50
  -1   8  -9    1.36    0.31
   0 -11   1   43.22    0.47
   0  -9   2   10.55    0.35
   0   7  -9   95.90    0.46
   0   8 -13   24.09    0.43
   1 -10   0   18.04    0.40
   1  -7   1   41.68    0.36
   1   6 -10    1.82    0.30
   2  -6  -1  102.28    0.54
  -6  -6   4    0.05    0.47
  -6  -5   4   -0.28    0.44
  -6   8  -5    4.13    0.48
  -5   4   0    2.45    0.52
  -5   5  -1   15.53    0.49
  -4   9  -7   11.56    0.40
  -3  -9   4    3.81    0.37
  -3  -4   4   70.31    0.47
  -2   9  -9   11.12    0.38
  -1 -11   2    0.01    0.39
  -1  -9   3    0.35    0.30
  -1   9 -12   13.98    0.40
   0   5  -5  134.84    0.52
   0   8 -12    0.60    0.35
   1 -11  -1    8.32    0.43
   2 -10  -3    4.81    0.46
   2  -9  -2   13.50    0.39
   2   3  -7  102.50    0.56
   2   4  -9   19.07    0.37
   2   5 -13    6.17    0.43
   2   5 -12    7.39    0.44
   3  -3  -5   23.81    0.76
   3   1  -8    4.10    0.47
  -7  -3   3    8.39    0.62
  -6   5  -1   13.92    0.59
  -5  -4   4    0.40    0.40
  -5   6  -2    6.88    0.43
  -4  -9   4    0.22    0.36
  -4   8  -5   19.15    0.39
  -4  10  -9    8.61    0.45
  -3   7  -4   17.59    0.36
  -3  10 -10    1.12    0.38
  -2   7  -5    1.35    0.27
  -1  -8   3    0.32    0.29
  -1  -5   3   45.95    0.37
  -1   9 -11   11.08    0.37
   0  -8   2   11.53    0.30
   0  -5   2  428.44    0.89
   0   8 -11    7.57    0.38
   1   5  -7  144.49    0.56
   1   6  -9   47.48    0.42
   1   7 -13    9.58    0.43
   3  -8  -6    1.29    0.51
   3  -7  -5   18.89    0.52
   3   2 -10    9.11    0.47
  -6   4   0    6.15    0.68
  -6   6  -2    2.60    0.52
  -5  -8   4    4.72    0.39
  -5  -1   3    4.18    0.49
  -4  -8   4    1.86    0.39
  -4  -4   4    7.42    0.37
  -4  -1   3   43.53    0.59
  -3  -8   4    0.10    0.31
  -3  -7   4  127.03    0.54
  -3  -5   4   88.67    0.50
  -2 -10   3    1.51    0.33
  -1  -7   3  128.68    0.50
  -1  -6   3    3.89    0.26
  -1   7  -6  216.39    0.62
  -1   8  -8   17.79    0.34
   0 -10   1   49.16    0.44
   0  -7   2    0.79    0.26
   0  -6   2  191.14    0.59
   0   7  -8   14.92    0.35
   1  -9   0   75.60    0.48
   1   7 -12   24.33    0.43
   2   5 -11    1.14    0.37
  -5  -7   4    0.77    0.40
  -5  -6   4    0.49    0.42
  -5  -5   4    0.46    0.41
  -5   7  -3   11.87    0.45
  -5   9  -6    0.15    0.41
  -4   4   0   15.23    0.48
  -4   5  -1  156.00    0.74
  -4   6  -2   98.68    0.59
  -3  -6   4  144.34    0.58
  -3   9  -7    2.30    0.36
  -2 -11   2    2.15    0.42
  -2  10 -11   10.65    0.40
  -1 -10   2    8.59    0.34
  -1   9 -10    1.40    0.37
   0 -11   0   21.75    0.44
   0  -2   1  565.51    1.51
   0   6  -6   23.85    0.34
   0   8 -10    7.49    0.37
   1 -11  -2    1.68    0.43
   1 -10  -1   10.23    0.39
   1  -3   0   14.95    0.34
   1   7 -11    2.45    0.37
   2 -10  -4    6.48    0.46
   2  -8  -2  152.32    0.63
   2  -3  -2   10.44    0.42
   3  -6  -5   28.30    0.54
   3   3 -13    1.46    0.57
  -6   7  -3    2.27    0.48
  -4  -7   4    3.19    0.33
  -4  -6   4    1.97    0.34
  -4  -5   4    1.36    0.33
  -4   9  -6   30.15    0.47
  -4  10  -8    0.63    0.42
  -3 -10   3    2.04    0.36
  -3   8  -5   54.52    0.44
  -3  10  -9    0.71    0.36
  -2  -9   3   26.77    0.36
  -2  -3   3  605.91    1.19
  -2   4  -1  186.42    0.74
  -2   5  -2   50.32    0.43
  -2   8  -6    1.46    0.32
  -2   9  -8    0.56    0.31
  -1 -11   1    2.44    0.40
  -1   4  -2  126.26    0.57
   1  -8   0    3.73    0.33
   1   2  -3    2.27    0.28
   1   3  -4  517.24    1.09
   2  -9  -3    6.05    0.40
   2   4  -8    7.44    0.33
   2   5 -10    3.02    0.35
   3   2  -9    8.05    0.45
   3   3 -12    0.57    0.48
  -6  -2   3    2.60    0.50
  -4   7  -3   21.03    0.41
  -2  10 -10   11.77    0.38
  -1  -9   2   56.73    0.44
  -1   3  -1   30.46    0.40
  -1   5  -3   92.87    0.47
   0  -9   1   39.68    0.37
   1   4  -5   99.86    0.50
   1   6  -8  151.89    0.57
   2  -7  -2    4.20    0.36
   2   6 -13    5.31    0.47
   3  -7  -6    9.69    0.52
   3  -5  -5    9.37    0.52
   3  -4  -5  127.88    0.95
   3   3 -11    1.40    0.44
  -6   8  -4    0.74    0.51
  -5   8  -4   23.43    0.47
  -4  -9   3    1.64    0.41
  -3  -9   3    5.13    0.34
  -2 -10   2    0.67    0.38
  -2  -8   3   16.46    0.32
  -2   6  -3   34.80    0.35
  -1   0   1   59.47    1.12
  -1   6  -4   97.01    0.47
  -1   8  -7    6.84    0.30
  -1   9  -9    4.48    0.33
  -1  10 -12    0.92    0.39
   0   7  -7   47.06    0.40
   0   8  -9    2.27    0.34
   0   9 -12   37.62    0.48
   1  -7   0   72.84    0.45
   1   7 -10    1.38    0.31
   2   2  -5  183.86    0.77
  -7   5  -1    1.33    0.80
  -7   6  -2    1.02    0.66
  -5  10  -7    4.25    0.45
  -4   8  -4   -0.02    0.38
  -3  10  -8   10.11    0.41
  -2 -11   1    0.02    0.42
  -2  -7   3   60.02    0.43
  -2  -4   3  105.45    0.52
  -2   7  -4   39.56    0.38
   0 -11  -1   40.79    0.45
   0 -10   0   54.99    0.43
   0  -8   1   37.07    0.38
   1 -10  -2   13.61    0.42
   1  -9  -1  115.42    0.53
   1  -6   0   58.03    0.42
   1  -4   0   57.96    0.45
   1   5  -6   19.56    0.33
   1   8 -13   29.02    0.49
   2  -9  -4   11.23    0.46
   2  -8  -3    8.92    0.40
   2  -6  -2   32.70    0.42
   2  -4  -2   48.14    0.52
   2   3  -6   15.48    0.36
   2   5  -9    6.57    0.38
   2   6 -12   50.26    0.51
  -7  -1   2   -0.07    0.62
  -6  -6   3    2.28    0.47
  -5  -8   3    3.64    0.43
  -4  10  -7    2.17    0.41
  -3 -10   2    2.02    0.41
  -3  -8   3   86.88    0.50
  -3   6  -2   80.17    0.52
  -3   9  -6   32.75    0.38
  -2  -6   3  249.44    0.68
  -2  -5   3  165.50    0.59
  -2   3   0  283.42    1.07
  -2   9  -7   50.04    0.40
  -2  10  -9    0.52    0.34
  -1 -11   0    3.41    0.37
  -1 -10   1   20.12    0.36
  -1  -8   2   29.84    0.35
  -1   7  -5  123.79    0.51
  -1  10 -11   42.03    0.44
   0   4  -3  162.67    0.61
   0   5  -4  446.47    0.89
   0   9 -11   12.08    0.37
   1  -5   0    9.13    0.30
   1   8 -12   17.77    0.44
   2  -5  -2   51.38    0.49
   2   1  -4  261.46    1.07
   2   6 -11    3.13    0.41
   3  -7  -7    3.86    0.54
   3   3 -10    2.18    0.42
  -6  -5   3    6.41    0.47
  -6  -4   3   31.73    0.53
  -5   9  -5    4.60    0.42
  -4  -8   3    5.06    0.35
  -3   5  -1  142.67    0.66
  -3   7  -3  157.24    0.63
  -2  -9   2    1.02    0.35
   0 -11  -2    1.00    0.43
   1   1  -2  130.50    0.86
   1   7  -9    3.81    0.31
   2   4  -7   23.38    0.37
   3  -6  -6    5.36    0.51
   3   1  -7   88.12    0.69
   3   4 -13    2.50    0.48
  -5  -7   3    0.15    0.40
  -5  -2   3   49.97    0.57
  -4   3   1    1.08    0.56
  -4   9  -5    0.33    0.37
  -3  -7   3    8.64    0.35
  -2   8  -5  118.23    0.49
  -1  -7   2    2.78    0.28
  -1  -3   2  280.37    0.84
  -1   9  -8    2.73    0.31
  -1  10 -10   19.30    0.43
   0 -10  -1   12.69    0.40
   0  -9   0    9.51    0.32
   0  -7   1    7.24    0.28
   0  -3   1  109.88    0.61
   0   6  -5    0.78    0.26
   0   8  -8    6.39    0.30
   0   9 -10    0.72    0.37
   1 -10  -3    1.25    0.41
   1  -8  -1    2.74    0.33
   1   6  -7   14.43    0.31
   1   8 -11   14.52    0.41
   2  -9  -5   13.03    0.49
   3   0  -6   11.56    0.58
   3   2  -8    0.82    0.38
   3   4 -12    9.50    0.47
  -5  -6   3   34.02    0.48
  -4  -7   3    8.93    0.37
  -3  -9   2    6.29    0.39
  -3  -3   3   95.88    0.55
  -3   8  -4    1.03    0.33
  -3  10  -7   17.26    0.41
  -3  11  -9    0.53    0.38
  -2 -11   0    5.65    0.40
  -2 -10   1   15.72    0.37
  -2  10  -8    7.69    0.39
  -1 -11  -1    6.53    0.43
  -1  -9   1   99.71    0.48
  -1  -6   2  133.24    0.53
  -1   8  -6   34.72    0.35
   0  -6   1    0.69    0.28
   1  -9  -2    5.30    0.37
   2  -8  -4   47.90    0.51
   2  -7  -3   52.93    0.48
   2   6 -10    1.83    0.35
   2   7 -13    0.07    0.44
  -7  -2   2   11.80    0.61
  -6   0   2   16.54    0.64
  -5  10  -6    3.37    0.44
  -4  -9   2    0.04    0.37
  -3  -6   3    1.22    0.28
  -3   4   0   50.63    0.54
  -2  -8   2    3.22    0.30
  -2   9  -6   53.27    0.43
  -2  11 -10    0.51    0.38
  -1 -10   0   46.22    0.43
  -1  -5   2   33.64    0.36
  -1  -4   2   69.50    0.44
   0  -5   1  127.68    0.55
   0  -4   1  102.76    0.54
   0   7  -6   10.87    0.30
   0  10 -12    8.76    0.45
   1 -10  -4    1.60    0.48
   1   8 -10    0.90    0.36
   2   5  -8    0.17    0.32
   3  -6  -7   98.60    0.80
   3  -5  -6   47.48    0.66
   3   3  -9  111.28    0.65
   3   4 -11    0.65    0.42
  -5  -8   2    0.98    0.43
  -5  -5   3   76.49    0.53
  -5  -4   3   34.74    0.47
  -5   7  -2    0.28    0.42
  -4  -6   3    0.12    0.33
  -4  -3   3    0.12    0.33
  -4  10  -6    5.68    0.41
  -3 -10   1   11.21    0.40
  -3  -5   3    1.65    0.28
  -3  -4   3   63.32    0.45
  -3   9  -5    0.25    0.34
  -1  10  -9    1.49    0.34
   0  -8   0    8.35    0.33
   0   9  -9    2.54    0.36
   1  -7  -1    1.14    0.31
   1   7  -8   32.78    0.36
   2   7 -12   10.85    0.43
  -5   6  -1  105.41    0.73
  -5   8  -3    1.63    0.42
  -4  -5   3   73.86    0.49
  -4  -4   3   69.22    0.51
  -3  -8   2   90.84    0.50
  -3  11  -8    4.96    0.43
  -2  -9   1   18.40    0.39
  -1  -8   1   47.45    0.38
  -1   9  -7   14.40    0.33
  -1  11 -11    2.72    0.44
   0 -10  -2   62.12    0.50
   0  -9  -1    9.30    0.36
   0   8  -7    2.09    0.32
   0  10 -11    4.42    0.41
   1  -9  -3   83.32    0.56
   1   5  -5   61.45    0.42
   1   9 -12   28.10    0.47
   2  -6  -3   56.94    0.50
   2   6  -9    7.96    0.35
   3   4 -10    0.64    0.42
   3   5 -13    2.25    0.50
  -6  -6   2    2.07    0.48
  -6   7  -2    3.89    0.52
  -6   8  -3   21.03    0.56
  -4  -8   2   59.76    0.46
  -4   7  -2    0.72    0.36
  -2 -10   0    8.82    0.37
  -2  -7   2   38.64    0.37
  -2  10  -7   15.36    0.39
  -2  11  -9    6.66    0.38
  -1 -10  -1   34.48    0.45
  -1   6  -3   39.68    0.35
   0   2  -1  566.95    1.52
   1  -8  -2   20.47    0.38
   1   4  -4  372.54    0.86
   1   6  -6  181.70    0.60
   2  -8  -5    1.56    0.42
   2   7 -11    7.99    0.37
   3   5 -12    9.35    0.47
  -7   1   1    0.00    0.75
  -6   6  -1   11.81    0.61
  -6   9  -4    7.71    0.55
  -5  -7   2   12.50    0.43
  -5   9  -4   12.52    0.43
  -4  -9   1   15.09    0.45
  -4   6  -1    3.18    0.38
  -4   8  -3   35.89    0.43
  -4  11  -7    0.10    0.43
  -3 -10   0    2.95    0.43
  -3  -9   1   22.48    0.42
  -3   0   2   19.19    0.56
  -3  10  -6    6.35    0.35
  -2   6  -2   31.38    0.37
  -2   7  -3    7.83    0.28
  -1  -9   0   20.66    0.35
  -1   5  -2  115.52    0.53
  -1   7  -4   43.67    0.36
   1  -6  -1   52.30    0.42
   1   8  -9    0.36    0.31
   1   9 -11    0.35    0.40
   2  -7  -4    0.96    0.37
   2   3  -5   84.69    0.52
   2   4  -6   71.67    0.46
   3  -6  -8    0.80    0.56
  -5  10  -5    0.80    0.48
  -4   9  -4   49.47    0.47
  -3  -7   2  138.17    0.56
  -2  -6   2    7.14    0.29
  -2   8  -4  184.84    0.59
  -1  -7   1    8.24    0.29
  -1   8  -5   67.99    0.41
  -1  10  -8    2.73    0.33
  -1  11 -10    3.03    0.38
   0 -10  -3    1.83    0.37
   0  -7   0   82.67    0.43
   0   6  -4   10.33    0.30
   0   9  -8    9.53    0.32
   0  10 -10    0.16    0.35
   1  -9  -4   91.46    0.58
   1   7  -7   85.61    0.46
   2  -8  -6    5.02    0.46
   2   5  -7   53.58    0.43
   2   7 -10   16.88    0.40
   3  -4  -6   16.50    0.58
   3   2  -7    3.50    0.40
   3   3  -8    6.61    0.40
   3   5 -11    0.66    0.42
  -6  -5   2   22.63    0.47
  -5  -8   1    0.12    0.43
  -5   5   0   12.96    0.57
  -4  -7   2    6.37    0.33
  -4  10  -5    0.56    0.43
  -3  11  -7   26.89    0.45
  -2 -10  -1   24.58    0.45
  -2  -8   1    0.46    0.30
  -2   5  -1  156.77    0.65
  -2   9  -5   50.59    0.43
  -2  11  -8   27.74    0.45
   0  -9  -2    2.94    0.36
   0   5  -3    6.07    0.28
   0   7  -5    6.84    0.28
   2  -5  -3   51.51    0.48
   2   6  -8   92.77    0.50
   2   8 -12    2.81    0.42
   3  -5  -7    2.19    0.52
   3   4  -9   34.28    0.45
  -6  -4   2    1.29    0.44
  -6  -1   2    4.96    0.50
  -5  -6   2    4.08    0.38
  -3   7  -2  249.19    0.76
  -3   8  -3    0.71    0.32
  -2  -9   0    3.06    0.33
  -2  -5   2  174.28    0.58
  -1 -10  -2    0.29    0.35
  -1  -8   0   40.20    0.40
  -1   4  -1   37.42    0.40
  -1   9  -6    1.95    0.29
   0 -10  -4    4.92    0.44
   0  -8  -1   64.91    0.42
   0   8  -6   48.68    0.41
   1  -8  -3    5.21    0.36
   1  -7  -2  222.17    0.68
   1  -5  -1  114.91    0.55
   1   8  -8   12.94    0.35
   1   9 -10   23.13    0.38
   2  -8  -7    6.65    0.50
  -6  -3   2   11.12    0.47
  -4  -9   0   13.69    0.42
  -4  -8   1   18.81    0.39
  -4  -6   2    1.35    0.34
  -4   5   0   28.28    0.51
  -3  -9   0    1.26    0.39
  -3  -8   1    9.99    0.34
  -3  -6   2    0.56    0.28
  -3   9  -4   40.02    0.43
  -2  -4   2  136.04    0.57
  -2  -2   2   37.11    0.42
  -2  10  -6    2.07    0.36
  -1  -9  -1   87.70    0.47
  -1  -6   1   14.25    0.30
  -1  11  -9    0.70    0.36
   0  -6   0  126.84    0.51
   0  10  -9   98.50    0.50
   1  -9  -5    3.96    0.42
   2  -7  -5  122.03    0.64
   2   0  -3   40.04    0.79
   2   2  -4    7.43    0.35
   2   7  -9    6.99    0.36
   2   8 -11    2.63    0.40
   3   1  -6   11.02    0.48
   3   5 -10   10.86    0.43
   3   6 -12    4.31    0.47
   4   1 -12    6.30    0.83
  -5  -5   2   12.45    0.39
  -5   0   2  141.06    0.94
  -4  11  -6    8.01    0.44
  -3   6  -1    7.27    0.35
  -3  10  -5   89.96    0.52
  -2 -10  -2    4.47    0.39
  -2  -7   1   82.95    0.47
  -2  -3   2    3.71    0.29
  -1 -10  -3   21.53    0.42
  -1  10  -7    5.54    0.33
   0   4  -2    2.42    0.26
   0   9  -7    1.20    0.34
   1  -4  -1    2.62    0.28
   2  -6  -4    4.71    0.36
   2  -4  -3    2.77    0.34
  -6  -6   1   15.06    0.47
  -6   5   0    8.12    0.79
  -5  -7   1    0.81    0.36
  -3  -5   2   50.01    0.41
  -2  11  -7    0.31    0.39
   0  -9  -3    5.90    0.34
   1  -9  -6    8.96    0.46
   1   6  -5    3.02    0.30
   1   9  -9    1.87    0.33
   1  10 -11    1.57    0.42
   3  -5  -8    6.93    0.57
   3  -3  -6   32.65    0.70
   3   6 -11    4.33    0.45
   4   1 -11    1.58    0.75
  -7  -3   1    5.66    0.53
  -7   0   1    0.25    0.60
  -5  -4   2    2.13    0.38
  -4  -7   1    0.20    0.36
  -4  -5   2    2.84    0.33
  -4   0   2    3.69    0.47
  -3  -7   1   13.73    0.36
  -3   3   1  156.86    1.04
  -3  11  -6    4.12    0.41
  -2  -9  -1    3.53    0.34
  -2  -8   0   57.71    0.41
  -1  -9  -2   31.74    0.43
  -1  -7   0    5.62    0.32
  -1  -5   1   95.05    0.47
   0  -8  -2   14.67    0.36
   0  -7  -1    0.66    0.27
   0  -5   0   17.93    0.30
   0  11 -10    0.08    0.37
   1  -8  -4    7.30    0.38
   1  -6  -2   17.39    0.34
   1  -3  -1  552.01    1.34
   1  -2  -1   67.68    0.65
   1   5  -4  144.71    0.54
   1   7  -6  128.46    0.50
   2  -7  -6   17.07    0.46
   2   5  -6    3.30    0.31
   2   6  -7    0.86    0.33
   2   8 -10    0.28    0.38
   3   3  -7  145.63    0.69
   3   4  -8    7.36    0.37
   4   2 -12   23.56    0.78
  -7  -1   1   15.72    0.61
  -6  -5   1   46.34    0.56
  -6   2   1    2.82    0.77
  -5  -3   2   16.50    0.43
  -5  -1   2  108.13    0.73
  -5   8  -2    6.45    0.46
  -5   9  -3   14.27    0.47
  -5  10  -4    1.25    0.46
  -4  -8   0   64.27    0.51
  -3  -9  -1    1.18    0.36
  -3  -8   0   71.24    0.48
  -3  -4   2   90.60    0.50
  -2   4   0  132.15    0.68
  -1  -8  -1    3.77    0.30
  -1   7  -3   51.56    0.37
  -1   8  -4   23.03    0.33
  -1   9  -5   59.46    0.42
  -1  11  -8   51.31    0.44
   0  -9  -4    8.43    0.41
   0  10  -8    3.31    0.33
   1  -7  -3  116.71    0.55
   1   8  -7   10.02    0.31
   2  -3  -3  175.56    0.91
   2   4  -5    0.34    0.29
   2   9 -12    0.77    0.40
   3  -5  -9   -0.01    0.59
   3   5  -9    0.81    0.38
  -7   6  -1   16.85    0.96
  -6   9  -3    0.46    0.53
  -5  -6   1   70.64    0.52
  -4  -4   2   75.37    0.48
  -4   8  -2   51.68    0.50
  -4   9  -3    7.63    0.39
  -4  10  -4    0.63    0.39
  -2  -6   1    1.98    0.27
  -2   7  -2   91.47    0.49
  -2   8  -3    0.88    0.28
  -2   9  -4    6.19    0.30
  -2  12  -8   -0.35    0.38
  -1  -4   1   17.21    0.31
  -1   6  -2    8.00    0.29
   0   7  -4   44.10    0.36
   0   8  -5   26.90    0.37
   1  -8  -5   12.45    0.44
   1  10 -10    2.53    0.36
   2  -7  -7    0.73    0.47
   2  -6  -5    1.16    0.40
   2   7  -8    9.39    0.32
   3  -4  -7   37.02    0.64
   3   6 -10   12.42    0.44
   3   7 -12    9.83    0.50
   4   2 -11    0.66    0.63
  -6   8  -2   -0.04    0.53
  -5  -7   0    0.96    0.41
  -5   7  -1    0.20    0.45
  -4  11  -5   16.30    0.46
  -3  -3   2   -0.04    0.28
  -3  -2   2    1.02    0.30
  -3   5   0   84.35    0.59
  -3  12  -7   32.72    0.46
  -2  -9  -2   10.32    0.36
  -2  10  -5    2.52    0.32
  -1  -9  -3    2.78    0.39
  -1  10  -6    0.12    0.31
  -1  12  -9   24.21    0.48
   0  -9  -5   16.72    0.45
   0  -4   0   74.01    0.46
   0   6  -3   35.58    0.37
   0   9  -6    0.40    0.34
   0  11  -9    0.65    0.36
   1   4  -3  313.57    0.81
   1   9  -8   20.85    0.36
   2  -5  -4  225.80    0.80
   2   8  -9    4.32    0.37
   2   9 -11    0.87    0.42
   3   2  -6   55.35    0.57
   4   1 -10   14.33    0.79
   4   3 -12    0.12    0.62
  -6  -6   0   -0.04    0.44
  -6  -4   1   43.13    0.53
  -4  -6   1   28.74    0.40
  -4  -3   2   13.25    0.37
  -4  -1   2   36.09    0.52
  -4   7  -1   79.91    0.58
  -3  -9  -2    0.88    0.38
  -3  -6   1   29.97    0.35
  -3   9  -3    0.33    0.38
  -2  -8  -1    9.60    0.36
  -2  -7   0   34.16    0.36
  -2  11  -6   11.98    0.40
  -1  -6   0   60.91    0.42
  -1  -3   1   11.95    0.32
   0  -8  -3    8.31    0.33
   0  -6  -1    2.91    0.29
   1  -8  -6   22.42    0.49
   2  -7  -8    9.71    0.50
   2  -2  -3   21.20    0.58
   3   7 -11   11.91    0.48
  -5  -5   1   19.95    0.41
  -4  -8  -1   18.06    0.40
  -4  -7   0   12.36    0.39
  -3  -8  -1    0.86    0.37
  -3   8  -2    0.27    0.36
  -3  10  -4   10.66    0.39
  -2  -5   1    1.21    0.28
  -2   6  -1    7.99    0.32
  -1  -8  -2   18.08    0.37
  -1  11  -7    7.40    0.36
   0  -9  -6   14.06    0.47
   0  -7  -2    8.55    0.33
   0   3  -1  109.29    0.59
   0  10  -7    7.42    0.34
   1  -7  -4   48.13    0.44
   1  -5  -2    1.78    0.29
   1  10  -9    0.51    0.34
   2   3  -4    8.88    0.31
   2   9 -10    0.89    0.39
   3   5  -8    0.93    0.37
  -6   7  -1    2.40    0.61
  -3  -9  -3    6.72    0.45
  -3  -7   0    0.67    0.30
  -3  11  -5    9.43    0.42
  -2  -9  -3   20.02    0.40
  -2  12  -7    7.94    0.43
  -1  -9  -4    6.23    0.38
  -1  -7  -1   33.40    0.35
  -1   3   0   14.47    0.34
  -1   5  -1   34.19    0.37
   0  -3   0  401.14    1.04
   0   5  -2  431.99    0.92
   1  -8  -7   28.77    0.49
   1  -6  -3    0.34    0.33
   1   7  -5    0.42    0.27
   1   8  -6    1.13    0.29
   2  -6  -6   19.76    0.47
   2   6  -6  285.26    0.73
   2   7  -7   13.19    0.35
   3  -2  -6  126.14    1.19
   3   4  -7  236.34    0.78
   3   6  -9    6.09    0.38
   4   2 -10    1.53    0.60
   4   3 -11    4.11    0.55
  -6  -5   0    0.25    0.46
  -6  -3   1    0.72    0.41
  -5  -6   0    8.54    0.40
  -4  -5   1   29.62    0.39
  -3  12  -6    3.66    0.44
  -1  -9  -5    6.67    0.44
  -1  12  -8   20.97    0.42
   0  -8  -4   62.24    0.47
   0  11  -8    1.69    0.35
   1   6  -4  171.43    0.56
   1   9  -7    1.41    0.31
   1  11 -10    4.42    0.44
   2   5  -5   32.81    0.38
   2   8  -8    0.97    0.35
   3  -4  -8   59.59    0.73
   3   7 -10   13.48    0.45
   4   4 -12    0.20    0.56
  -7  -3   0   -0.05    0.48
  -5  -7  -1    0.83    0.38
  -4  -8  -2    3.19    0.43
  -3  -5   1   53.33    0.39
  -3   7  -1    8.09    0.34
  -2  -9  -4    0.75    0.37
  -2  -8  -2    4.05    0.33
  -1   8  -3  164.78    0.56
  -1   9  -4    3.84    0.29
  -1  10  -5   21.64    0.38
   1  -7  -5   28.22    0.44
   1  10  -8    1.69    0.38
   2  -4  -4  157.43    0.76
   2   1  -3    5.38    0.38
  -5  -4   1    6.02    0.36
  -5   6   0    9.47    0.55
  -5  10  -3    3.13    0.48
  -4   4   1   34.65    0.68
  -4   6   0    1.31    0.41
  -3  -8  -2    5.70    0.36
  -2  -7  -1   18.82    0.33
  -2  -6   0   82.41    0.44
  -2  -4   1   45.60    0.37
  -2   9  -3    4.58    0.35
  -2  10  -4    0.41    0.31
  -2  11  -5    2.53    0.39
  -1  -8  -3    0.22    0.31
  -1  -5   0  320.36    0.75
  -1  11  -6    2.95    0.38
   0  -8  -5    3.15    0.38
   0  -7  -3    6.85    0.34
   0  -5  -1   36.98    0.35
   0  -2   0    7.84    0.32
   0   8  -4   23.25    0.33
   0   9  -5   19.91    0.33
   0  12  -9    0.53    0.39
   1   3  -2  286.57    0.86
   2  -6  -7   34.11    0.52
   2  -5  -5   11.82    0.41
   2   9  -9    0.31    0.34
   3   3  -6   37.98    0.47
   3   8 -11    0.86    0.47
   4   3 -10    3.10    0.52
   4   4 -11    1.51    0.52
  -7   3   0    2.33    0.83
  -5   9  -2   10.50    0.50
  -4  -7  -1   14.43    0.36
  -4  -6   0    6.63    0.33
  -4   9  -2    0.88    0.40
  -4  10  -3    2.75    0.40
  -4  11  -4   18.35    0.46
  -3  -7  -1   10.58    0.36
  -3  -6   0    1.19    0.32
  -2   8  -2   19.23    0.36
  -1   7  -2  206.16    0.62
   0  -6  -2   57.88    0.42
   0   7  -3   12.00    0.29
   0  10  -6    1.79    0.32
   1  -4  -2   24.10    0.37
   1   5  -3   45.56    0.37
   1  11  -9   14.76    0.44
   3  -4  -9    0.35    0.56
   3   0  -5   15.18    0.76
   3   6  -8    8.98    0.40
   4   1  -9   11.04    0.75
   4   5 -12   13.32    0.58
  -7  -2   0    5.42    0.48
  -6  -4   0    2.05    0.40
  -6  -1   1   19.99    0.48
  -6   1   1   20.52    0.63
  -5  -7  -2   19.45    0.44
  -4  -8  -3   34.91    0.46
  -4  -4   1   25.29    0.37
  -2  -8  -3    1.11    0.33
  -2   5   0  167.47    0.69
  -2  12  -6    0.91    0.38
  -1  -8  -4    4.48    0.38
  -1  -7  -2   46.27    0.38
  -1  -6  -1   65.78    0.41
  -1  12  -7    0.16    0.38
   0  -8  -6   22.22    0.45
   0  11  -7    9.11    0.35
   1  -7  -6    3.24    0.38
   1  -6  -4   36.24    0.43
   2  -6  -8   18.37    0.49
   2   4  -4    5.79    0.29
   2  10 -10    0.91    0.38
   3  -4 -10    4.07    0.62
   3  -3  -7   55.63    0.73
   3   5  -7    0.45    0.32
   3   7  -9    6.18    0.38
  -6  -5  -1   11.69    0.45
  -6   0   1  129.83    0.83
  -5  -6  -1    0.15    0.39
  -5  -5   0   11.53    0.35
  -5  -3   1   24.80    0.40
  -3  -8  -3    0.74    0.35
  -3  -4   1   49.64    0.38
  -3  10  -3    0.78    0.37
  -3  11  -4    5.07    0.40
   0  -8  -7    6.58    0.44
   1  -5  -3   42.50    0.42
   1   8  -5   73.68    0.42
   1   9  -6    0.46    0.30
   2  -6  -9    0.32    0.47
   2   7  -6   35.35    0.36
   2   8  -7    8.41    0.32
   3   8 -10   54.85    0.51
   4   2  -9   42.38    0.70
  -6   9  -2   10.66    0.61
  -5   8  -1    3.33    0.48
  -4  -7  -2   31.74    0.45
  -4   8  -1    0.05    0.41
  -3   6   0   21.81    0.40
  -3   9  -2   43.42    0.44
  -3  12  -5    2.03    0.39
  -2  -8  -4   30.05    0.44
  -2  -7  -2   53.15    0.43
  -2  -5   0   11.10    0.32
  -2  -3   1    5.73    0.26
  -2   7  -1    6.49    0.32
  -1  -8  -5    7.49    0.41
   0  -7  -4    0.76    0.34
   0   4  -1  102.54    0.52
   0   6  -2  192.86    0.60
   0  12  -8    1.84    0.38
   1  -7  -8   15.87    0.50
   1  -7  -7   40.92    0.48
   1   7  -4    4.31    0.28
   1  10  -7   12.88    0.35
   2  -5  -6    5.55    0.41
   2   2  -3  174.12    0.78
   2   6  -5   77.23    0.45
   2   9  -8    4.80    0.34
   3   1  -5    3.87    0.44
   3   4  -6   12.12    0.38
   4   4 -10    0.28    0.46
   4   5 -11   16.53    0.54
  -4  -6  -1    3.13    0.35
  -4  -5   0    5.70    0.33
  -3  -8  -4   10.81    0.39
  -3  -7  -2    2.05    0.32
  -3   4   1  110.50    0.78
  -2  -6  -1   64.03    0.43
  -1  -7  -3    1.08    0.32
  -1  -4   0  366.04    0.84
  -1   4   0   58.17    0.47
  -1   6  -1   42.90    0.36
  -1  10  -4    0.96    0.35
  -1  11  -5    0.88    0.37
   0  -4  -1   34.18    0.37
   1  11  -8   13.25    0.39
   2  10  -9    0.28    0.36
   4   3  -9    3.03    0.49
  -7   0   0    5.30    0.53
  -6  -3   0   30.18    0.46
  -6   6   0    2.35    0.81
  -5  -2   1    2.09    0.34
  -4  -3   1   88.72    0.51
  -3  -6  -1   14.41    0.35
  -3  -5   0   35.32    0.35
  -3   8  -1   73.14    0.51
  -2  -8  -5   -0.19    0.41
  -2  11  -4    0.16    0.38
  -1  -8  -6    0.42    0.37
  -1   9  -3    1.42    0.29
  -1  12  -6    2.07    0.41
   0  -6  -3   20.28    0.36
   0   9  -4   41.98    0.37
   0  10  -5    1.90    0.31
   0  11  -6   17.26    0.41
   1  -6  -5   37.72    0.44
   1   4  -2   70.11    0.44
   1   6  -3    3.73    0.29
   3   2  -5   17.58    0.43
   3   6  -7    3.73    0.38
   3   7  -8   16.62    0.39
   3   8  -9    1.47    0.39
  -7   1   0    0.44    0.57
  -7   2   0    1.23    0.63
  -6  -5  -2   16.75    0.48
  -5  -6  -2    0.43    0.36
  -5  -4   0    6.88    0.36
  -4  -7  -3    4.00    0.41
  -3  -3   1   67.48    0.46
  -2   3   1    0.94    0.38
  -2  10  -3   10.79    0.34
  -2  12  -5   39.47    0.44
  -1  -6  -2   10.16    0.32
  -1  -5  -1   64.32    0.42
   0  -7  -5   31.66    0.38
   0  -5  -2    5.05    0.29
   0   8  -3   37.31    0.38
   0  12  -7    1.96    0.42
   2   5  -4  122.76    0.51
   3   9 -10   14.24    0.45
   4   5 -10    0.57    0.47
   4   6 -11    0.96    0.47
  -6  -4  -1    0.29    0.40
  -6   8  -1    0.17    0.63
  -5  -5  -1    0.82    0.33
  -4  11  -3    1.44    0.43
  -3  -7  -3    0.51    0.37
  -2  -8  -6   -0.02    0.39
  -2  -7  -3    3.46    0.31
  -2  -2   1   17.54    0.34
  -2   9  -2   38.84    0.41
  -1  -7  -4   15.28    0.37
  -1   8  -2   10.91    0.30
   1  -3  -2   80.81    0.56
   1   9  -5    4.89    0.35
   1  10  -6    4.78    0.37
   2  -5  -7   49.26    0.54
   2  -4  -5   49.10    0.50
   2  -3  -4   60.02    0.57
   2   8  -6   18.66    0.34
   2   9  -7   45.29    0.40
   2  10  -8    0.18    0.39
   3  -3  -8    4.14    0.56
   3   5  -6    1.37    0.35
   4   4  -9    1.89    0.44
  -7  -2  -1    2.60    0.48
  -6  -2   0   21.53    0.46
  -5  10  -2   13.83    0.54
  -4  -7  -4   24.88    0.47
  -4  -6  -2    4.27    0.37
  -4   7   0    0.56    0.42
  -4  10  -2   11.41    0.46
   0  -7  -6    0.44    0.33
   0   5  -1  130.37    0.55
   1  -6  -6   10.86    0.38
   1  -5  -4    2.24    0.33
   1   8  -4   48.94    0.41
   1  11  -7   16.21    0.38
   2   7  -5  208.90    0.61
   3   3  -5    2.73    0.35
  -5  -6  -3   16.23    0.41
  -5   7   0    1.33    0.51
  -4  -5  -1   30.47    0.40
  -4  -4   0    6.29    0.33
  -4  -2   1    0.48    0.32
  -3  11  -3   28.40    0.45
  -3  12  -4    0.40    0.39
  -2  -7  -4   23.77    0.40
  -2  -6  -2   66.44    0.41
  -2  -4   0   67.92    0.41
  -2   6   0  181.87    0.66
  -1  -3   0  134.48    0.59
   0  -7  -8   22.55    0.47
   0  -7  -7    1.77    0.40
   0   7  -2    0.96    0.26
   1  12  -8    1.94    0.44
   2  -5  -8   78.48    0.62
   2  11  -9   27.47    0.45
   3   7  -7    0.42    0.34
   3   8  -8    4.92    0.38
   4   2  -8   31.30    0.65
   4   5  -9    7.79    0.46
   4   6 -10   20.73    0.49
   4   7 -11   38.66    0.57
  -5  -3   0   13.85    0.37
  -4   5   1   12.93    0.55
  -3  -7  -4    7.79    0.35
  -3  -6  -2   76.88    0.44
  -3  -4   0  119.20    0.52
  -3  -2   1  126.27    0.62
  -3   7   0   96.34    0.59
  -3  10  -2    6.88    0.39
  -2  -5  -1    0.40    0.27
  -2   8  -1   68.68    0.46
  -1  -7  -5    0.30    0.32
  -1   7  -1   41.96    0.38
  -1  11  -4    1.64    0.37
  -1  12  -5    3.46    0.41
   0  -6  -4   14.30    0.32
   0  11  -5    1.85    0.38
   1  -6  -7    0.92    0.37
   1  -4  -3  204.42    0.72
   1   5  -2   34.19    0.34
   1   7  -3  127.80    0.52
   2  -5 -10   14.87    0.55
   2  -5  -9   38.45    0.57
   2   6  -4    5.83    0.31
   3   9  -9    0.21    0.41
   4   1  -8   44.98    0.92
   4   3  -8   57.26    0.62
  -7  -1  -1   11.46    0.53
  -6  -4  -2    2.83    0.42
  -6  -3  -1   31.63    0.46
  -5  -6  -4   10.12    0.46
  -5  -5  -2    1.93    0.35
  -5  -4  -1   10.71    0.38
  -5   0   1   43.18    0.55
  -5   9  -1    5.33    0.52
  -4   9  -1   19.40    0.45
  -3  -7  -5    3.66    0.41
  -3  -5  -1   13.15    0.30
  -2  -7  -5    2.03    0.38
  -1  -7  -6    0.59    0.38
  -1  -6  -3    6.60    0.29
  -1   5   0    9.24    0.30
  -1  10  -3   64.61    0.43
   0  -3  -1  369.69    0.97
   0  10  -4   14.50    0.33
   0  12  -6    0.07    0.37
   1  -6  -9   15.26    0.50
   1  -6  -8    1.78    0.40
   2   4  -3  108.30    0.52
   2   9  -6    1.08    0.35
   3  -3  -9  102.62    0.84
   3   4  -5   42.81    0.44
   3   6  -6    6.21    0.34
  -6  -1   0   92.99    0.64
  -4  -6  -3   14.28    0.36
  -3   9  -1   27.51    0.44
  -2  11  -3    5.65    0.39
  -2  12  -4    0.65    0.38
  -1  -7  -7   13.90    0.43
  -1   9  -2   21.24    0.36
   0  -6  -5   47.79    0.42
   0  -5  -3   61.03    0.42
   0   2   0    8.25    0.31
   0   9  -3  237.03    0.62
   1  10  -5    0.65    0.35
   1  11  -6   12.61    0.41
   2  -4  -6   51.20    0.51
   2   8  -5   29.32    0.38
   2  10  -7   20.57    0.39
   2  11  -8    4.06    0.44
   3  -3 -11   28.40    0.72
   3  -3 -10   10.05    0.61
   4   4  -8   17.73    0.46
   4   6  -9    1.11    0.46
   4   7 -10   10.69    0.49
  -7  -2  -2   22.19    0.54
  -5   1   1   93.42    0.79
  -3  -7  -6   12.00    0.41
  -3  -6  -3    4.90    0.31
  -3   5   1   25.48    0.46
  -2  -7  -6   19.15    0.39
  -2  -6  -3    4.43    0.30
  -2   4   1  339.84    1.06
  -2  10  -2    0.22    0.35
  -1  -7  -8    0.60    0.39
  -1  -5  -2   51.82    0.38
  -1  -4  -1   36.31    0.35
   0   6  -1    0.60    0.28
   1  -5  -5    6.78    0.32
   1   9  -4    0.52    0.33
   1  12  -7   20.86    0.47
   3   8  -7   17.47    0.40
   3   9  -8    6.11    0.41
  -5  -5  -3    3.16    0.40
  -5   2   1   35.26    0.75
  -4  -6  -4   12.03    0.37
  -4  -5  -2   33.69    0.38
  -4  -3   0    6.53    0.33
  -2  -7  -7    0.15    0.38
  -1  -6  -4   22.42    0.34
   0  -4  -2   19.63    0.30
   0   8  -2   11.04    0.30
   1   6  -2  134.59    0.53
   2   5  -3  160.57    0.59
   2   7  -4  216.28    0.63
   3  -2  -7   23.83    0.65
   3   5  -5   54.04    0.44
   3  10  -9    5.29    0.45
   4   5  -8    3.20    0.40
  -6  -4  -3    5.09    0.38
  -6  -2  -1    0.26    0.41
  -5  -2   0    0.10    0.32
  -4  -4  -1   17.60    0.36
  -4  11  -2    3.31    0.47
  -3  12  -3   10.42    0.46
  -2  -5  -2    9.59    0.33
  -2  -3   0  118.19    0.53
  -2   7   0   92.88    0.51
  -1   8  -1   11.74    0.34
   0  -6  -6   49.54    0.45
   0   3   0  401.67    1.04
   1   3  -1   12.40    0.32
   1   8  -3    0.60    0.29
   3   7  -6   24.43    0.39
   4   7  -9    1.01    0.44
   4   8 -10    5.24    0.49
  -6  -3  -2    0.20    0.39
  -5  -4  -2    9.23    0.38
  -5  -3  -1    3.15    0.38
  -4  -6  -5    9.44    0.38
  -4   8   0    2.30    0.42
  -3  -6  -4    7.67    0.33
  -3  -5  -2   24.67    0.34
  -3  -3   0   23.10    0.32
  -3  11  -2   36.05    0.48
  -2  -6  -4    6.43    0.32
  -2  -4  -1    7.88    0.30
  -2   9  -1   15.95    0.37
  -1  -6  -5    0.54    0.33
  -1   6   0   59.62    0.43
  -1  11  -3    1.15    0.37
  -1  12  -4    4.12    0.37
   0  -6  -7    1.55    0.36
   0  11  -4    4.41    0.34
   0  12  -5   12.58    0.39
   1  -5  -6    0.69    0.33
   2  -4  -7    2.64    0.39
   2  10  -6    0.13    0.34
   2  11  -7   14.11    0.44
   4   6  -8   13.55    0.44
  -6  -4  -4    3.02    0.45
  -5  -5  -4    8.74    0.38
  -4  -6  -6    5.23    0.40
  -4  -5  -3   46.57    0.44
  -3  -4  -1   55.57    0.38
  -3   8   0    0.58    0.37
  -1  -2   0   11.94    0.31
   0  -6  -9    3.18    0.43
   0  -6  -8    0.93    0.39
   0  -5  -4   10.23    0.32
   0  10  -3    7.55    0.32
   1  -4  -4   76.02    0.48
   1  -2  -2   56.87    0.57
   1  11  -5    3.22    0.39
   1  12  -6   19.52    0.46
   2  -3  -5  234.21    0.92
   2   9  -5    5.56    0.32
   3   6  -5   11.82    0.35
   3   9  -7   22.02    0.43
   3  10  -8    0.83    0.43
   4   3  -7   15.94    0.47
  -7  -1  -2   25.99    0.54
  -7   1  -1    1.68    0.52
  -5   8   0    2.47    0.52
  -4   0   1   58.08    0.57
  -4   6   1  101.14    0.75
  -4  10  -1    7.99    0.46
  -3  -6  -5   22.19    0.38
  -3  10  -1   50.96    0.52
  -2  -6  -5    7.11    0.32
  -2   5   1    0.11    0.33
  -2  12  -3   11.72    0.40
  -1  -6  -6   26.03    0.40
  -1  -5  -3  103.43    0.46
  -1  10  -2    0.76    0.31
   0   4   0   75.25    0.46
   0   7  -1    7.07    0.28
   1  -5  -7    0.61    0.34
   1   4  -1   18.01    0.31
   1   7  -2    2.97    0.31
   1  10  -4    1.12    0.32
   2  -4 -11   32.26    0.61
   2  -4  -8   20.77    0.47
   2   6  -3  250.98    0.66
   2   8  -4  154.40    0.56
   3   2  -4   83.53    0.61
   3   3  -4    1.90    0.34
   3   8  -6   28.32    0.41
   4   2  -7  105.06    0.83
   4   4  -7   34.59    0.49
  -5  -5  -5    2.81    0.38
  -5  10  -1   19.93    0.57
  -4  -2   0   20.74    0.38
  -3  -6  -6    6.76    0.37
  -3  -5  -3   29.92    0.38
  -3   6   1   14.54    0.41
  -2  -6  -6    0.77    0.37
  -2   0   1  178.66    1.11
  -2  11  -2   10.23    0.40
  -1  -6  -7    4.11    0.39
   0   9  -2   12.10    0.32
   1  -5 -10    3.87    0.48
   1  -5  -9    1.44    0.44
   1  -5  -8    5.64    0.41
   1  -3  -3  141.31    0.68
   1   0  -1   58.92    1.11
   2  -4 -10    0.79    0.48
   2  -4  -9   23.89    0.51
   2  -2  -4   14.00    0.47
   4   5  -7    7.86    0.40
   4   7  -8   21.33    0.48
   4   8  -9    0.37    0.43
  -6  -3  -3    7.87    0.42
  -6  -1  -1    3.54    0.42
  -6   1   0   33.47    0.56
  -5  -4  -3   16.60    0.37
  -5  -1   0    1.60    0.34
  -4  -5  -4    2.50    0.33
  -4  -4  -2    5.38    0.30
  -3  -6  -7    0.17    0.37
  -2  -6  -7    1.16    0.39
  -2  -5  -3    4.47    0.28
  -2   8   0  127.67    0.57
  -1  -6  -9    4.60    0.40
  -1  -6  -8   16.83    0.39
  -1  -4  -2   14.86    0.29
  -1   9  -1   10.94    0.35
   0  -5  -5    8.26    0.33
   1   9  -3    0.23    0.30
   2   2  -2   38.00    0.44
   2   3  -2    1.17    0.28
   2  11  -6    7.69    0.42
   3   4  -4   71.63    0.47
   3   7  -5    1.52    0.34
  -6  -2  -2   13.63    0.42
  -4  -3  -1  113.05    0.53
  -2  -6  -8    0.52    0.38
  -2  10  -1    7.60    0.38
  -1  -5  -4    1.01    0.30
  -1  -3  -1    0.89    0.25
  -1   2   1   69.93    0.66
  -1   7   0   74.04    0.43
   0  -4  -3    0.19    0.24
   0  -2  -1  593.47    1.41
   0   5   0   18.26    0.30
   0  12  -4    4.38    0.38
   1   5  -1   94.93    0.47
   2   7  -3   60.74    0.42
   2  10  -5    8.30    0.35
   3  -2  -8  108.04    0.87
   3   1  -4   88.45    0.75
   3   5  -4   92.37    0.52
   3  10  -7   14.10    0.44
   4   6  -7    3.36    0.40
  -7  -1  -3   27.17    0.55
  -7   0  -2    0.13    0.44
  -7   2  -1    9.05    0.58
  -5  -4  -4   11.60    0.41
  -5  -3  -2    9.14    0.34
  -5  -2  -1    4.77    0.34
  -4  -5  -5    2.52    0.35
  -4   9   0   12.14    0.48
  -3  -5  -4    9.02    0.32
  -3  -4  -2    6.94    0.28
  -3  -2   0  251.53    0.78
  -3   0   1  394.37    1.31
  -3   9   0   41.84    0.48
  -3  12  -2    0.42    0.44
  -2  -4  -2    2.78    0.29
  -2  -2   0   29.60    0.37
  -1  12  -3    4.19    0.38
   0  -5  -6   14.75    0.36
   0   8  -1   38.64    0.38
   0  11  -3    2.21    0.34
   1  -4  -5   77.32    0.49
   1   8  -2   30.88    0.38
   1  11  -4   10.30    0.40
   1  12  -5    7.40    0.39
   2   4  -2  136.60    0.55
   2   9  -4   19.64    0.34
   3   9  -6    3.49    0.34
   4   8  -8   49.28    0.52
  -6  -3  -4    1.34    0.42
  -4  -5  -6   14.43    0.43
  -4  -4  -3    2.63    0.34
  -3  -3  -1   21.31    0.34
  -2  -5  -4   23.67    0.34
  -2   6   1  106.60    0.56
  -1   4   1    2.86    0.28
  -1  11  -2    0.27    0.34
   0  -3  -2   42.83    0.40
   0  10  -2   12.77    0.37
   1   6  -1   14.54    0.32
   2  -3  -6    3.48    0.39
   2   1  -2  115.75    0.78
   2   5  -2  177.57    0.60
   3   8  -5    6.68    0.36
   4   7  -7    2.32    0.42
  -6   2   0    3.76    0.52
  -5  -4  -5    3.04    0.41
  -5   9   0    5.89    0.57
  -4  -5  -7    3.53    0.39
  -4   7   1  103.70    0.72
  -4  11  -1   12.63    0.51
  -3  -5  -5    3.75    0.32
  -3   7   1    0.51    0.38
  -3  11  -1   10.19    0.47
  -2  -3  -1   22.35    0.31
  -2  12  -2   11.65    0.45
  -1  -5  -5   28.11    0.34
   0  -5 -10    0.42    0.43
   0  -5  -9   26.38    0.44
   0  -5  -8    1.08    0.37
   0  -5  -7    4.67    0.36
   0   6   0  129.11    0.52
   1  10  -3   16.29    0.35
   2   8  -3   17.56    0.36
   3  -2 -11    4.17    0.60
   3   6  -4  151.68    0.58
   4   3  -6    3.93    0.42
   4   4  -6   13.80    0.43
  -6  -3  -5    1.08    0.39
  -6  -2  -3    2.75    0.39
  -6   0  -1   62.72    0.56
  -5  -3  -3   13.34    0.38
  -2  -5  -5    1.50    0.29
  -2   9   0    3.58    0.35
  -1   5   1  117.47    0.56
  -1   8   0    4.01    0.29
  -1  10  -1    1.32    0.36
   1  -4  -6    0.25    0.34
   2  11  -5   23.30    0.41
   3  10  -6   31.03    0.47
   4   5  -6    1.98    0.38
   4   9  -8    0.26    0.43
  -6  -1  -2   44.57    0.51
  -5  -4  -6   10.73    0.41
  -4  -4  -4    4.33    0.35
  -4  -3  -2   85.21    0.48
  -4  -1   0   20.39    0.38
  -3  -5  -7    0.38    0.40
  -3  -5  -6    9.67    0.35
  -3  -4  -3    0.07    0.27
  -2  -5  -6    5.90    0.35
  -2  11  -1    6.23    0.40
  -1  -5 -10    9.53    0.46
  -1  -5  -6   18.52    0.34
  -1  -4  -3  176.32    0.57
   0  -4  -4   70.57    0.43
   0   9  -1   40.89    0.40
   0  12  -3    1.36    0.41
   1  -4 -11   29.39    0.56
   1   7  -1    8.40    0.32
   1   9  -2   59.06    0.41
   2   6  -2    7.06    0.28
   2  10  -4    7.54    0.34
   3   7  -4  132.53    0.55
   4   6  -6    3.59    0.39
   4   8  -7    2.75    0.41
  -7   0  -3    8.32    0.48
  -4  -2  -1    9.37    0.35
  -3  -5  -8    7.20    0.38
  -2  -5  -9   23.72    0.47
  -2  -5  -7   11.15    0.38
  -2  -4  -3    0.38    0.27
  -2   7   1    5.36    0.33
  -1  -5  -9    0.36    0.41
  -1  -5  -8    5.86    0.39
  -1  -5  -7   71.77    0.45
   0   7   0   84.18    0.45
   1  -4 -10    1.36    0.44
   1  -4  -7    1.81    0.36
   1  -3  -4    3.28    0.31
   1  12  -4    7.08    0.39
   2  -3  -7   43.03    0.50
   3   9  -5    0.20    0.33
  -6  -2  -4    3.85    0.41
  -5  -3  -4   30.10    0.43
  -5  -2  -2    1.18    0.34
  -5  -1  -1   99.97    0.57
  -4  -4  -5    3.23    0.36
  -4  10   0   11.02    0.48
  -3  10   0   24.30    0.44
  -2  -5  -8    0.17    0.35
  -1   6   1   54.60    0.42
  -1  12  -2    0.73    0.37
   0  11  -2    1.28    0.34
   1  -4  -9   28.52    0.47
   1  -4  -8    6.20    0.39
   1  11  -3    2.42    0.35
   2   7  -2   39.20    0.39
   2   9  -3   26.10    0.36
   3   4  -3   63.90    0.45
   4   7  -6    0.69    0.37
  -3  -4  -4   56.81    0.40
  -3  -3  -2    4.71    0.29
  -1  -3  -2   70.26    0.45
  -1   9   0   79.37    0.45
   0  -4  -5   67.88    0.44
   3   3  -3   97.14    0.54
   3   5  -3    1.62    0.31
   3   8  -4    0.67    0.32
   4   9  -7    4.27    0.44
  -4  -4  -6    9.60    0.36
  -1  -4  -4    1.73    0.26
  -1  11  -1    1.16    0.35
   1   8  -1   47.37    0.38
   1  10  -2    9.19    0.34
   2  11  -4    0.41    0.36
   3  10  -5    5.85    0.37
  -1 -11   8   14.38    0.39
  -1 -10   8    1.93    0.35
  -1  -9  -4    6.41    0.52
  -1  -9   8   24.99    0.38
  -1  -6  -5    0.30    0.56
   0 -10  11    5.49    0.38
   0  -7  10   13.06    0.39
   1  -3  -9   19.75    0.64
   1  -1  -8   21.63    0.48
   1   0  -7  128.01    0.68
   2   0  -9    0.55    0.36
   2   1  -8  131.69    0.59
   2   2  -6  184.39    0.63
   3   2  -8    1.36    0.33
   3   3  -5    3.16    0.32
   3   3  -1   82.91    0.48
   4   0 -11   11.47    0.49
   4   2  -9   51.29    0.47
   4   3  -7   19.98    0.34
   5   3   1    3.43    0.39
  -1 -12   8    1.36    0.40
  -1  -8   8   15.58    0.34
  -1  -7  -5    0.17    0.55
  -1  -6   7   18.55    0.36
  -1  -5  -5   35.67    0.72
  -1  -5   6   24.89    0.33
   0  -9  11   12.66    0.39
   0  -1  -5  308.56    1.47
   1   1  -5   10.41    0.35
   2  -7  13    0.30    0.48
   2  -3  10   83.75    0.76
   2   2   1   16.02    0.35
   4   1 -10   18.37    0.43
   5   3  -7   10.65    0.35
   6   2  -9   12.56    0.47
   6   3  -7    3.52    0.37
   7   3  -1    6.34    0.42
  -1 -11   9   15.65    0.41
  -1 -10   9    0.40    0.35
  -1  -7   8   41.03    0.41
  -1  -4   5  129.84    0.53
   0  -8  11    9.58    0.40
   0  -5   9   23.66    0.39
   0  -4   8   59.57    0.46
   1  -7  12    4.69    0.41
   2  -4  11    7.79    0.52
   2  -2 -10   73.57    0.66
   2  -2   9   96.35    0.92
   3  -2 -11    5.69    0.51
   3   0 -10    0.76    0.37
   3   1  -9   44.73    0.44
   3   3  -4    2.47    0.28
   3   3  -3  121.56    0.51
   3   3  -2    0.57    0.26
   4   3  -6    4.64    0.31
   4   3   0    7.84    0.34
   5   2  -9    9.40    0.37
   6   3  -6    3.54    0.40
   6   3   0   35.63    0.46
   7   3  -4    0.95    0.40
   7   3  -3   10.49    0.42
   7   3  -2   24.47    0.45
  -2  -9   2    1.62    0.35
  -2  -9   3   30.85    0.42
  -2  -8   2    3.96    0.35
  -1  -9   9    2.73    0.33
  -1  -8  -5    8.42    0.63
   0  -6  10  155.53    0.63
   0  -3   7    2.56    0.31
   2   2  -5  234.75    0.70
   5   1 -10    0.75    0.38
   5   3  -6   14.28    0.35
   5   3   0   16.32    0.38
   6   0   7    0.24    0.59
   6   2   3    3.30    0.44
   6   3  -5    1.99    0.39
   6   3  -1    0.74    0.38
   7   2   2   24.37    0.56
  -2 -10   2    1.23    0.39
  -2 -10   3    2.20    0.39
  -2  -9   1   24.66    0.42
  -2  -9   4   23.19    0.37
  -2  -8   1    0.24    0.31
  -2  -8   3   19.94    0.35
  -2  -8   4  191.43    0.62
  -2  -7   1  107.10    0.54
  -2  -7   2   49.46    0.40
  -2  -7   3   77.42    0.47
  -1  -8   9    0.36    0.31
  -1  -2  -1  273.88    1.13
  -1  -2   0   16.31    0.37
   0 -10  12    9.99    0.46
   0  -2  -6  142.00    1.15
   1  -4  -9   34.34    0.78
   1  -4  10  132.13    0.68
   1  -3   9   67.47    0.59
   2  -5  12   11.55    0.54
   3   2  -7    4.43    0.28
   4  -1 -11   58.89    0.60
   4   0   7    6.60    0.65
   4   2  -8   38.56    0.40
   4   3  -5  160.21    0.56
   4   3  -1  110.81    0.53
   5   3  -5    7.37    0.36
   6   2  -8    4.16    0.39
   6   3  -4    9.21    0.40
   6   3  -3    6.39    0.39
   6   3  -2   13.54    0.41
  -2 -11   3    0.90    0.42
  -2 -10   1   18.66    0.45
  -2 -10   4    8.80    0.36
  -2 -10   5    9.78    0.40
  -2  -9   0    3.41    0.42
  -2  -9   5    7.01    0.33
  -2  -8   0   72.11    0.50
  -2  -7   0   44.67    0.44
  -2  -7   4  262.92    0.70
  -2  -6   1    7.53    0.33
  -1 -11  10    5.59    0.40
  -1 -10  10    3.34    0.41
  -1  -6   8  184.76    0.62
  -1  -5   7  183.46    0.60
   0  -9  12   40.46    0.50
   0  -7  11    5.62    0.38
   1  -8  13    0.63    0.48
   1  -5  11    2.35    0.40
   2   1  -7   86.67    0.50
   2   2  -4   10.82    0.33
   2   2   0   37.41    0.41
   3  -4  12    0.54    0.67
   3  -3 -11   36.12    0.63
   3  -3  11    8.30    0.77
   4   1  -9   14.45    0.39
   4   3  -4  165.38    0.56
   4   3  -3   11.69    0.34
   4   3  -2   16.61    0.35
   5   2  -8    2.49    0.34
   5   2   3    0.13    0.36
   5   3  -4   29.96    0.40
   5   3  -1   31.44    0.38
   7   2   1    3.55    0.49
  -2 -11   2    2.33    0.43
  -2 -11   4    0.23    0.37
  -2 -11   5   26.96    0.47
  -2 -10   0   10.35    0.47
  -2 -10   6    0.13    0.38
  -2  -8  -1   12.43    0.42
  -2  -8   5   37.14    0.38
  -2  -7  -1   23.67    0.45
  -2  -6   0  104.45    0.56
  -2  -6   2    9.62    0.30
  -2  -6   3  319.81    0.76
  -1  -9  -5    7.05    0.69
  -1  -9  10   25.66    0.44
  -1  -7   9    4.69    0.34
  -1  -4   6    0.59    0.28
  -1  -3  -4  367.56    1.78
   0  -2   6   10.02    0.38
   1  -6  12    0.04    0.46
   1   1  -4   14.51    0.34
   2  -6  13    2.15    0.54
   2  -3 -10   22.76    0.57
   2  -1  -9   15.74    0.46
   3  -1 -10    0.59    0.42
   4   0 -10    6.47    0.40
   5   0   7   13.63    0.63
   5   3  -3   56.44    0.42
   5   3  -2   24.76    0.36
   6   1  -9    2.06    0.40
   6   2  -7    9.77    0.42
  -2 -11   1    0.41    0.43
  -2 -11   6    8.37    0.39
  -2  -9  -1    5.30    0.43
  -2  -9   6    0.86    0.32
  -2  -8   6   23.96    0.39
  -2  -7   5  271.98    0.68
  -1  -2  -2  179.60    1.08
   1  -6  -9   18.19    0.94
   1  -5  -9    1.77    0.73
   1  -2   8   12.19    0.46
   2   0  -8    2.22    0.35
   2   2  -3  218.97    0.70
   2   2  -1   22.98    0.36
   3  -5  13    0.34    0.67
   3   1  -8    5.81    0.34
   3   2  -6   71.62    0.42
   4  -2 -11    1.16    0.50
   4   1   5    0.71    0.44
   4   2  -7  131.34    0.52
   5   0 -10   16.99    0.45
   5   1  -9    1.49    0.35
   5   1   5    7.28    0.48
   5   2  -7   24.35    0.41
   6   2   2   15.90    0.44
   7   2  -5    2.63    0.44
   7   2   0    6.31    0.44
  -2 -11   0    5.77    0.51
  -2 -11   7   14.66    0.45
  -2 -10   7   24.37    0.39
  -2  -9   7   53.53    0.46
  -2  -6  -1   82.21    0.54
  -2  -6   4    6.64    0.30
  -2  -5   1    2.23    0.31
  -1  -8  10    1.34    0.36
  -1  -4  -5   47.92    0.93
   0  -8  12    0.91    0.40
   0  -5  10  344.00    0.89
   1  -2  -8   13.33    0.48
   1   0  -6  347.27    0.99
   2   2  -2   46.87    0.40
   3   0  -9   54.83    0.47
   6   2  -6   -0.17    0.39
   7   2  -4   10.25    0.45
   7   2  -1    0.06    0.42
  -2 -10  -1   28.69    0.54
  -2  -8  -2    5.93    0.44
  -2  -7   6   44.35    0.38
  -2  -5   0   13.70    0.34
  -2  -5   2  219.52    0.65
  -1 -10  11    1.83    0.39
  -1  -3   5    9.60    0.31
   0  -6  11    9.66    0.42
   0  -4  -7  114.11    1.29
   0  -4   9   82.90    0.52
   1  -7  13    3.81    0.47
   2  -4 -10    0.41    0.56
   4   2  -6    1.24    0.32
   4   2   2    0.85    0.34
   5   2   2    1.20    0.38
   6   1  -8    1.14    0.37
   6   2   1    0.05    0.38
   7   2  -3    4.76    0.39
   7   2  -2   14.24    0.41
  -2 -11   8    5.51    0.38
  -2 -10   8    0.33    0.36
  -2  -8   7   10.39    0.33
  -2  -7  -2   67.90    0.54
  -2  -6   5   97.74    0.47
  -2  -5   3  203.26    0.62
  -1  -9  11    0.26    0.40
  -1  -6   9   60.46    0.42
  -1  -5   8  252.10    0.69
   1  -1  -7    0.68    0.38
   1   1  -3    1.29    0.24
   2   1  -6   58.49    0.43
   3  -2 -10   15.19    0.50
   3   2  -5   23.15    0.32
   3   2   1   12.15    0.35
   4  -1 -10    7.88    0.42
   4   1  -8   54.79    0.42
   5   1  -8   77.44    0.51
   5   2  -6   21.62    0.35
   6  -1   8   12.78    0.70
   6   1   4   -0.04    0.44
   6   2  -5   -0.08    0.33
   7   1   3   27.64    0.54
  -2  -9  -2   12.37    0.47
  -2  -9   8    5.36    0.34
  -2  -6  -2   82.97    0.59
  -2  -5  -1    0.30    0.32
  -2  -5   4  157.40    0.57
  -1  -7  10    1.41    0.32
  -1  -4   7   25.04    0.35
   0  -9  13    2.76    0.41
   0  -7  12   21.12    0.44
   0  -3   8  135.44    0.63
   2  -5 -10   17.34    0.68
   3   1  -7  114.63    0.53
   4   0  -9    1.75    0.37
   5  -1 -10   10.32    0.46
   5   0  -9    1.37    0.40
   6   2  -4    5.86    0.38
   6   2   0   26.74    0.43
  -2 -11   9   28.62    0.46
  -2 -10  -2    5.64    0.53
  -2 -10   9    0.26    0.41
  -2  -8   8    0.50    0.35
  -2  -7   7   16.06    0.33
  -2  -6   6  365.35    0.76
  -1  -8  11   16.81    0.42
  -1  -2   3    2.63    0.26
   1   1  -2  174.26    0.79
   2  -2  -9   63.30    0.58
   3   2  -4  106.24    0.48
   4   2  -5    3.02    0.28
   5   2  -5   14.72    0.33
   5   2   1    5.91    0.35
   6   0   6   15.21    0.58
   6   1  -7   23.16    0.40
   6   2  -3    3.03    0.33
   6   2  -2   12.32    0.39
   6   2  -1   12.30    0.39
   7   1   2   31.06    0.55
  -2  -9   9    0.33    0.38
  -2  -5   5   40.91    0.39
  -1  -7  -6    0.76    0.78
   0  -8  13   26.10    0.50
   1  -5  12  155.29    0.80
   1  -4  11    4.71    0.46
   2   0  -7    0.53    0.33
   2   1   3  106.17    0.81
   3  -1  -9    3.06    0.40
   3   0  -8  100.60    0.53
   3   1   4  117.28    0.78
   3   2  -3   35.38    0.37
   3   2   0  308.20    0.82
   4   1  -7    0.66    0.33
   4   2   1   12.13    0.34
   5   1  -7    4.67    0.36
   5   2  -4   26.61    0.36
   7   1  -5    2.49    0.39
  -2  -8  -3    1.49    0.48
  -2  -7  -3    4.37    0.46
  -2  -7   8   12.05    0.36
  -2  -5  -2   12.27    0.40
  -2  -4   0   85.15    0.52
  -2  -4   1   58.36    0.41
  -2  -4   2  168.98    0.60
  -1  -9  12   31.74    0.49
  -1  -3   6   10.72    0.31
   2  -1  -8   66.53    0.52
   2   1  -5  178.20    0.64
   3  -3 -10   13.43    0.52
   3   2  -2   44.65    0.39
   3   2  -1  160.68    0.60
   4  -2 -10    2.68    0.42
   4   2  -4   52.62    0.38
   5   2  -3   62.28    0.44
   5   2  -1   32.85    0.40
   5   2   0    0.11    0.30
   6   0  -8   15.82    0.41
   6   1  -6   17.92    0.42
   6   1   3   74.90    0.60
   7   1  -4    7.35    0.44
   7   1   1   22.59    0.48
  -2 -10  10    1.05    0.38
  -2  -9  -3   21.48    0.59
  -2  -8   9    5.04    0.33
  -2  -6   7    1.48    0.29
  -2  -4   3  135.45    0.53
  -1  -8  -6    0.34    0.81
  -1  -7  11    2.69    0.37
  -1  -6  10    1.77    0.31
  -1  -5   9   10.00    0.32
   0  -2   7    3.95    0.35
   1  -6  13    2.78    0.46
   1  -3  10   29.50    0.52
   2  -5  13   15.85    0.63
   2  -4  12    5.44    0.57
   3   1  -6   13.37    0.33
   4   2  -3    2.70    0.28
   4   2   0   25.33    0.36
   5   0  -8    5.45    0.38
   5   2  -2   59.54    0.42
   7   1  -3   10.50    0.44
   7   1   0    4.88    0.43
  -2  -9  10    0.99    0.40
  -2  -6  -3    5.43    0.44
  -2  -5   6    4.38    0.28
  -2  -4  -1    9.77    0.34
  -1  -4   8    3.49    0.32
  -1  -2   4  248.76    0.79
   0  -6  12   30.80    0.46
   0  -5  11   74.64    0.53
   0  -4  10    3.23    0.38
   1  -3  -8    1.09    0.47
   1   0  -5    4.75    0.31
   4  -1  -9    1.34    0.38
   4   0  -8   36.29    0.39
   4   2  -2   43.41    0.37
   4   2  -1    0.33    0.26
   5  -1  -9    4.10    0.41
   5  -1   8    9.89    0.66
   5   1  -6    1.27    0.35
   6   1  -5   41.51    0.45
   7   0   4    0.11    0.48
   7   1  -2    0.58    0.37
   7   1  -1   19.35    0.45
  -3 -10   3    1.81    0.42
  -3 -10   4   -0.06    0.41
  -3 -10   5    7.23    0.42
  -3  -9   3    6.76    0.39
  -3  -9   4    4.98    0.38
  -2  -4   4    6.92    0.28
  -1  -8  12   21.29    0.42
   0  -7  13   30.30    0.53
   0  -1   5    3.72    0.35
   1  -1   7   12.89    0.52
   2  -3  -9   38.28    0.54
   2  -3  11   17.60    0.65
   3  -4 -10    6.15    0.52
   4  -3 -10   47.04    0.59
   4   1  -6   82.02    0.44
   5   0   6    0.62    0.49
   6   0  -7    1.29    0.36
   6   1   2   53.57    0.53
  -3 -11   4    8.92    0.42
  -3 -11   5    4.31    0.41
  -3 -10   2    1.68    0.42
  -3 -10   6   36.06    0.44
  -3  -9   2    6.76    0.40
  -3  -9   5    0.15    0.34
  -3  -8   3  110.48    0.55
  -3  -8   4    0.10    0.35
  -2  -8  10    0.57    0.38
  -2  -7   9    8.28    0.33
  -2  -6   8  119.08    0.50
   0  -3   9  145.28    0.69
   2   1  -4  331.33    0.84
   3  -2  -9    6.54    0.42
   3   0  -7  126.44    0.55
   5   1   3   10.78    0.40
   6  -1  -8   26.57    0.48
   6   0   5   -0.08    0.46
   6   1  -4    5.78    0.34
   7   0  -5    7.02    0.44
  -3 -10   7   15.56    0.40
  -3  -9   1   27.09    0.44
  -3  -9   6    3.46    0.35
  -3  -8   2  114.38    0.54
  -3  -8   5    7.80    0.33
  -2  -9  11    1.05    0.42
  -2  -5   7   68.01    0.41
  -2  -4   5    0.53    0.26
  -1  -3   7  136.40    0.58
   0  -1  -4   33.23    0.66
   2   0  -6    2.12    0.32
   3  -1  -8  108.22    0.57
   3   1  -5    5.06    0.27
   5   0  -7    0.28    0.35
   5   1  -5   14.21    0.33
   6   1  -3    5.06    0.37
   6   1   1    4.44    0.38
   7   0   3    9.44    0.49
  -3 -10   1   14.36    0.45
  -3  -9   7   26.51    0.40
  -3  -8   1   13.72    0.40
  -3  -8   6   35.71    0.39
  -3  -7   2  179.88    0.63
  -3  -7   3   11.33    0.32
  -3  -7   4  163.31    0.57
  -2  -5  -3    6.13    0.42
  -2  -4  -2    5.02    0.38
  -1  -7  12   28.13    0.45
  -1  -6  11    0.90    0.36
  -1  -5  10   60.91    0.47
   1  -2   9  140.13    0.87
   1  -1  -6   10.94    0.38
   4  -2  -9   14.61    0.42
   4   0  -7    1.05    0.30
   4   1  -5  155.87    0.54
   5  -2  -9    0.08    0.42
   5  -1  -8    8.27    0.40
   6  -1   7    4.44    0.55
   6   0  -6   12.78    0.37
   6   1  -2    6.52    0.37
   6   1  -1   24.93    0.41
   6   1   0  112.28    0.57
   7   0  -4    5.54    0.42
  -3 -10   8    1.44    0.38
  -3  -9   0    0.89    0.44
  -3  -8   0   86.66    0.58
  -3  -8   7   19.82    0.40
  -3  -7   1   16.84    0.38
  -3  -7   5    1.46    0.30
  -2  -8  -4   35.03    0.65
  -2  -7  -4   28.96    0.61
  -2  -7  10   20.51    0.40
  -2  -6   9    9.27    0.35
  -2  -3   1    6.78    0.29
  -2  -3   2    7.71    0.32
  -1  -8  13   32.66    0.50
  -1  -4   9    7.77    0.34
   1  -2  -7  112.61    0.70
   2  -4  -9   29.80    0.56
   2  -2  -8   16.66    0.41
   3  -1   8    1.82    0.76
   3   0   6    6.94    0.55
   4  -1  -8    9.30    0.37
   4   0   6    0.30    0.47
   4   1   3   -0.17    0.32
   5   1  -4    2.54    0.30
   5   1   2   17.87    0.41
   7   0   2    7.40    0.44
  -3 -10   0    3.21    0.50
  -3 -10   9    6.53    0.45
  -3  -9   8    6.66    0.37
  -3  -7   6   29.95    0.37
  -3  -6   2    1.25    0.32
  -3  -6   3    1.16    0.32
  -3  -6   4  179.40    0.59
  -2  -9  -4    0.64    0.58
  -2  -8  11    3.01    0.36
  -2  -5   8    1.13    0.31
  -2  -4   6   88.39    0.44
   0  -5  12   11.12    0.48
   1  -5  13   13.72    0.56
   2  -1  -7    0.61    0.34
   2   1  -3    6.50    0.28
   3   1  -4  106.44    0.48
   4  -1   8    0.64    0.60
   4   1  -4   23.10    0.36
   6  -2  -8    0.13    0.44
   6  -1  -7    0.97    0.36
   6   0  -5    2.51    0.38
   6   0   4    3.76    0.44
   7   0  -3    0.30    0.36
   7   0   1   11.00    0.44
  -3  -8   8    6.67    0.38
  -3  -7   0    1.25    0.34
  -3  -6   1   37.96    0.41
  -3  -6   5   15.01    0.36
  -2  -9  12    0.53    0.39
  -2  -3   0  142.76    0.63
   0  -6  13    0.95    0.42
   1  -6  14    2.22    0.54
   1  -4  -8    7.09    0.54
   1  -4  12   58.04    0.67
   1   0  -4  435.44    1.14
   2  -2  10   62.53    1.08
   3  -3  -9  129.62    0.66
   3   0  -6   14.32    0.33
   5  -3  -9   22.02    0.48
   5   0  -6   41.80    0.39
   5   1  -3    5.35    0.30
   5   1   1  119.19    0.56
   7  -1   5    1.30    0.50
   7   0  -2    9.66    0.38
   7   0  -1    0.28    0.35
   7   0   0    6.27    0.42
  -3  -9  -1    1.10    0.45
  -3  -9   9   -0.23    0.36
  -3  -7   7   -0.01    0.31
  -2  -6  -4    8.12    0.51
  -2  -3   4   11.38    0.29
   0  -4  11    8.38    0.41
   0  -2   8   45.82    0.49
   2   1  -2  142.17    0.61
   4  -3  -9    3.20    0.40
   4   0  -6   62.99    0.41
   5  -1  -7   29.31    0.42
   5   1  -2  132.52    0.52
   5   1  -1   25.37    0.38
   5   1   0   33.88    0.40
   7  -1  -5    1.28    0.38
  -3  -8  -1    0.38    0.41
  -3  -6   0    1.31    0.36
  -3  -6   6    8.02    0.31
  -2  -7  11    9.50    0.37
  -2  -6  10    2.34    0.35
  -2  -4   7   30.91    0.34
  -2  -3  -1   26.77    0.42
  -1  -7  13   11.41    0.49
  -1  -6  12   17.16    0.43
  -1  -5  11    0.04    0.39
  -1  -3   8  200.50    0.68
  -1  -2   6  404.65    0.96
   0   0   1   43.83    1.02
   2  -5  -9   47.45    0.65
   2   0  -5   54.65    0.42
   3  -2  -8  133.04    0.62
   3   1  -3   49.13    0.38
   4   1  -3   54.98    0.39
   4   1   2   10.03    0.33
   5  -2  -8    6.77    0.36
   5   0  -5    2.40    0.34
   6  -1  -6   49.79    0.44
   6   0  -4    0.04    0.32
   6   0   3   18.73    0.45
  -3  -9  10   15.44    0.41
  -3  -8   9    1.81    0.34
  -3  -7  -1   13.12    0.42
  -3  -7   8   20.40    0.35
  -3  -5   2   60.37    0.43
  -3  -5   3    2.41    0.28
  -3  -5   4  108.69    0.50
  -2  -8  12    3.40    0.38
  -2  -5   9    8.48    0.35
  -2  -3   5  103.40    0.49
  -1  -1   1  498.75    1.40
   0  -5  -7    4.81    0.78
   0  -1   6   67.71    0.59
   1  -3  11   24.19    0.58
   2   1  -1   24.04    0.36
   3  -4  -9    0.15    0.47
   3  -1  -7  183.04    0.64
   3   1   2  271.02    0.85
   4  -2  -8    9.57    0.38
   4  -1  -7   26.52    0.39
   4   1  -2   43.67    0.36
   4   1   1    5.14    0.34
   6  -2  -7   10.93    0.43
   6   0  -3   34.23    0.42
   7  -1  -4    1.81    0.38
   7  -1   4    1.98    0.44
  -3  -6   7    4.33    0.31
  -3  -5   1   65.56    0.45
  -3  -5   5   65.38    0.43
  -2  -4  -3    0.35    0.40
  -1  -4  10   25.98    0.40
  -1  -1   2  165.98    0.77
   0  -3  -6    9.90    0.60
   0  -3  10    0.49    0.36
   2  -6  -9    0.39    0.58
   2  -3  -8   10.84    0.43
   2   1   0  125.37    0.63
   3   1  -2  313.57    0.76
   4  -4  -9    0.10    0.46
   4   1  -1   31.06    0.36
   4   1   0   23.67    0.35
   5  -2   9    3.70    0.62
   5  -1   7   31.15    0.60
   6  -2   8    0.22    0.59
   6   0  -2   19.92    0.39
   6   0   2   17.02    0.41
   7  -1  -3    0.69    0.41
  -3  -8  10   64.78    0.48
  -3  -7   9    6.84    0.38
  -3  -6  -1   18.04    0.41
  -2  -4   8    8.84    0.33
   3   0  -5   18.56    0.33
   3   1  -1    2.07    0.28
   3   1   1   56.33    0.44
   4   0  -5    4.61    0.29
   5  -1  -6    0.47    0.34
   5   0  -4   29.73    0.36
   5   0   4    0.23    0.39
   6  -1  -5    0.04    0.34
   6   0  -1  153.51    0.60
   6   0   1   94.83    0.54
   7  -2  -5   31.15    0.50
   7  -1   3   14.27    0.46
  -4 -10   5    0.47    0.45
  -3  -9  -2    0.48    0.47
  -3  -8  -2    6.45    0.44
  -3  -6   8   10.18    0.33
  -3  -5   0   42.60    0.41
  -3  -5   6    1.29    0.29
  -2  -7  12   12.31    0.43
  -2  -6  11    3.93    0.38
  -2  -5  -4   27.97    0.58
  -2  -3   6   18.08    0.32
  -1  -1   3    1.14    0.26
   1  -5  -8    6.18    0.57
   2  -4  13    0.59    0.72
   2  -1  -6    2.20    0.32
   3  -5  -9    0.02    0.49
   3   1   0    0.31    0.27
   4   0   5    0.47    0.40
   5  -3  -8    7.73    0.42
   5  -2  -7    1.04    0.37
   6   0   0    2.70    0.32
   7  -1  -2   17.87    0.40
   7  -1   2    1.39    0.41
  -4  -9   3    1.33    0.41
  -4  -9   4   -0.08    0.37
  -4  -9   5    2.82    0.38
  -4  -9   6   12.39    0.40
  -3  -7  -2    2.37    0.40
  -2  -5  10    3.81    0.35
  -1  -3   9   32.34    0.42
   0  -6  14    1.43    0.49
   0  -5  13    7.07    0.50
   0  -2  -5    9.55    0.52
   2  -2  -7  141.06    0.64
   3  -3  -8    5.36    0.40
   4  -5  -9    1.15    0.50
   4  -3  -8    6.24    0.43
   4  -3  11    3.65    0.94
   5   0  -3    6.53    0.34
   6  -3  -7    8.14    0.44
   6  -2  -6    5.47    0.36
   6  -1  -4   55.57    0.46
   6  -1   5    0.47    0.46
   7  -1  -1   -0.39    0.36
   7  -1   0    0.39    0.40
   7  -1   1    2.02    0.41
  -4  -9   7    4.75    0.39
  -4  -8   3    6.74    0.40
  -4  -8   4    2.37    0.35
  -4  -8   5    0.57    0.34
  -3  -8  11    1.11    0.37
  -3  -7  10   15.99    0.38
  -3  -5   7    1.06    0.28
  -3  -4   2  108.56    0.50
  -3  -4   3   75.83    0.42
  -2  -3  -2    0.13    0.33
  -1  -6  13    1.19    0.41
  -1  -5  12    3.93    0.42
  -1  -2   7  332.34    0.86
   1  -3  -7   30.31    0.50
   1  -1  -5  154.43    0.74
   1   0  -3  357.77    1.08
   2   0  -4  110.22    0.53
   3  -1  -6   62.95    0.45
   4  -1  -6  109.62    0.49
   4   0  -4   73.15    0.42
   5   0   3   37.44    0.45
   7  -2  -4    1.14    0.38
  -4  -9   2   -0.05    0.37
  -4  -9   8    0.59    0.38
  -4  -8   2   74.21    0.53
  -4  -8   6   34.44    0.42
  -4  -8   7    2.90    0.40
  -3  -6   9    7.44    0.33
  -3  -5  -1   16.23    0.38
  -3  -4   1   57.20    0.43
  -3  -4   4   83.84    0.43
  -2  -8  -5    0.15    0.68
  -2  -4   9   23.53    0.38
  -2  -3   7  124.82    0.53
  -2  -2   2   44.64    0.39
   0  -4  12   68.23    0.62
   3  -2  -7   28.09    0.40
   3   0  -4  107.97    0.50
   4  -2  -7  156.92    0.58
   5  -4  -8    0.40    0.42
   5  -1  -5   57.19    0.41
   5   0  -2  169.66    0.57
   7  -2   5    9.07    0.52
  -4  -9   1   17.34    0.51
  -4  -7   3   10.17    0.38
  -4  -7   4    3.82    0.33
  -4  -7   5    0.31    0.32
  -3  -6  -2   94.08    0.60
  -3  -5   8    1.10    0.32
  -3  -4   5   50.03    0.38
  -2  -7  -5    2.50    0.66
  -2  -7  13    0.42    0.43
  -2  -6  12   58.16    0.51
  -2  -2   1   22.02    0.33
  -2  -2   3  204.41    0.66
  -1  -4  11    1.99    0.39
  -1  -1   4   13.70    0.33
   0  -2   9    0.82    0.36
   1  -6  -8    1.54    0.62
   1  -5  14   14.08    0.62
   1  -2  -6    0.48    0.37
   2  -4  -8   25.52    0.49
   5   0  -1   49.15    0.42
   5   0   2    3.66    0.34
   6  -2  -5    0.75    0.34
   6  -1  -3    0.45    0.32
   6  -1   4    8.99    0.43
   7  -2  -3   23.04    0.41
  -4  -8   1   23.51    0.45
  -4  -8   8   56.83    0.47
  -4  -7   2    7.33    0.38
  -4  -7   6    0.69    0.33
  -3  -9  -3    7.74    0.63
  -3  -8  -3    0.82    0.55
  -3  -7  11   13.53    0.44
  -3  -4   0  140.70    0.61
  -3  -4   6   15.03    0.34
  -2  -5  11    1.80    0.36
  -2  -2   4    9.76    0.28
   1  -4  13   12.47    0.62
   1  -2  10   19.99    0.60
   1  -1   8   78.03    0.88
   3   0   5   11.47    0.45
   4  -4  -8    1.18    0.39
   4   0  -3   55.12    0.39
   5  -3  -7   10.94    0.37
   5  -2  -6    6.08    0.33
   5   0   0   69.34    0.46
   5   0   1   79.74    0.48
   6  -3  -6    1.02    0.36
   6  -1  -2   18.10    0.38
   7  -2  -2    1.16    0.40
  -4  -8   9    0.47    0.42
  -4  -7   7    2.39    0.34
  -4  -6   4    2.83    0.34
  -3  -6  10   14.21    0.36
  -2  -2   0   34.09    0.39
   0  -3  11    0.49    0.44
   0  -1   7  146.69    0.78
   2  -3  12    0.12    0.83
   2   0   5  227.79    1.39
   3  -4  -8   72.50    0.56
   4  -1  -5   52.87    0.39
   5  -1  -4   58.47    0.41
   6  -1   3   11.13    0.43
   7  -3  -4    0.02    0.38
   7  -2   4   40.87    0.53
  -4  -9   0   15.42    0.53
  -4  -7   1    0.44    0.37
  -4  -7   8   24.17    0.39
  -4  -6   3    0.67    0.30
  -4  -6   5    8.52    0.32
  -3  -7  -3    0.44    0.47
  -3  -5   9    0.89    0.33
  -3  -4   7  277.29    0.70
  -2  -6  -5    7.72    0.72
  -2  -3   8    4.86    0.32
  -2  -2   5  217.89    0.66
  -1  -3  10    0.59    0.36
  -1  -2   8   23.59    0.39
  -1  -1   5   10.62    0.33
   1  -7  -8   17.71    0.74
   2   0  -3   48.55    0.41
   3   0  -3  165.46    0.57
   4  -3  -7   11.09    0.38
   4  -1   7   16.22    0.54
   4   0  -2    4.92    0.27
   6  -2  -4    1.77    0.33
   6  -1  -1   24.35    0.36
   6  -1   0   39.68    0.43
   6  -1   2   15.36    0.40
   7  -2  -1    2.32    0.36
   7  -2   0    1.44    0.40
   7  -2   3   37.02    0.51
  -4  -8   0   72.59    0.57
  -4  -8  10    5.36    0.44
  -4  -6   2    1.77    0.31
  -4  -6   6    4.08    0.32
  -3  -5  -2   28.74    0.44
  -2  -4  10    0.61    0.34
  -1  -6  14   13.10    0.49
  -1  -5  13    3.72    0.45
   0   0   3  273.24    1.43
   2  -5  -8   94.32    0.69
   2  -3  -7   51.09    0.51
   2  -1  -5   59.74    0.43
   3  -1  -5  211.02    0.63
   4  -5  -8    8.03    0.47
   4  -2  -6    0.33    0.30
   4   0   3   12.38    0.37
   5  -4  -7   15.98    0.43
   5  -3  10    0.55    0.67
   5  -2  -5    2.04    0.33
   6  -3  -5   40.81    0.46
   6  -1   1   81.11    0.48
   7  -3  -3   21.04    0.46
   7  -2   1   11.43    0.39
   7  -2   2   18.55    0.41
  -4  -7   0   14.44    0.44
  -4  -7   9    1.35    0.36
  -4  -6   1   34.34    0.42
  -4  -6   7    3.68    0.33
  -3  -7  12   11.32    0.41
  -3  -6  11    5.16    0.40
  -3  -4  -1   63.95    0.49
  -3  -3   2    0.39    0.28
  -3  -3   3  111.89    0.48
  -3  -3   4    2.02    0.29
  -2  -6  13    5.27    0.44
  -2  -4  -4    8.92    0.53
   0  -5  14    3.31    0.52
   1   0  -2  112.68    0.68
   2  -2  -6   96.96    0.55
   3  -5  -8    8.56    0.48
   3  -3  -7   67.82    0.48
   4  -2   9   15.37    0.68
   4   0  -1   65.72    0.40
   5  -3  -6    1.05    0.36
   5  -2   8    2.78    0.49
   5  -1  -3  227.65    0.63
   6  -4  -6   11.27    0.40
   6  -2  -3   14.92    0.38
   6  -2   6    0.55    0.45
  -4  -6   8   14.53    0.39
  -4  -5   3   87.22    0.48
  -4  -5   4    1.48    0.32
  -3  -6  -3    5.23    0.46
  -3  -5  10   12.01    0.38
  -3  -4   8    8.35    0.34
  -3  -3   1   77.34    0.46
  -3  -3   5    2.93    0.30
  -2  -5  12    8.61    0.40
  -2  -3  -3   52.53    0.60
  -2  -2  -1   31.84    0.42
  -2  -2   6  173.20    0.60
  -1  -4  12    0.17    0.41
   0  -6  -7    1.45    0.69
   1  -4  -7    1.76    0.44
   1  -3  12    0.35    0.57
   3  -2  -6  149.40    0.59
   4  -1  -4  197.42    0.60
   4   0   0   66.57    0.43
   4   0   2   11.52    0.33
   5  -1   5    0.09    0.36
   7  -3  -2    2.02    0.41
  -4  -8  -1   19.97    0.54
  -4  -7  10   12.38    0.44
  -4  -5   2    3.83    0.33
  -4  -5   5   16.47    0.33
  -4  -5   6    1.88    0.34
  -2  -3   9  125.93    0.56
   0  -4  13    3.92    0.52
   2  -6  -8   21.67    0.57
   3   0  -2   22.97    0.32
   4  -6  -8    0.18    0.44
   4   0   1   96.07    0.50
   5  -5  -7    0.90    0.43
   5  -1  -2    2.77    0.29
  -4  -6   0    7.63    0.37
  -4  -6   9    0.97    0.38
  -3  -3   6   43.52    0.36
  -2  -4  11   14.80    0.43
  -1  -1   6   87.56    0.54
   1  -1  -4  152.62    0.74
   2   0  -2    7.66    0.29
   3  -6  -8    0.90    0.46
   4  -4  -7    0.53    0.37
   4  -2  -5  129.36    0.53
   5  -2  -4   12.80    0.32
   5  -1   4   69.37    0.53
   6  -5  -6    2.29    0.40
   6  -4  -5    8.92    0.41
   6  -3  -4   21.46    0.38
   6  -2  -2    3.37    0.32
   6  -2   5    0.24    0.42
   7  -4  -3    1.84    0.43
   7  -3  -1   -0.24    0.35
   7  -3   5   12.25    0.48
  -5  -8   5    0.31    0.43
  -5  -8   6   12.86    0.46
  -4  -7  -1   17.71    0.46
  -4  -5   1   35.03    0.40
  -4  -5   7    8.68    0.32
  -3  -6  12    4.18    0.38
  -3  -4   9   41.09    0.41
  -3  -3   0   25.81    0.35
  -2  -2   7   13.95    0.33
  -1  -2   9    1.45    0.35
   0  -2  10    2.31    0.42
   2  -7  -8   11.55    0.59
   3  -1  -4   95.04    0.48
   3   0  -1  445.67    0.93
   4  -3  -6   28.32    0.40
   4  -1  -3  232.76    0.65
   5  -4  -6    1.22    0.38
   5  -1  -1  107.43    0.47
   6  -2  -1    3.08    0.35
   7  -3   0    2.60    0.41
   7  -3   4    2.57    0.44
  -5  -8   4    5.65    0.39
  -5  -8   7    0.28    0.39
  -4  -7  11   43.17    0.48
  -3  -8  -4   11.39    0.68
  -3  -5  -3   35.11    0.55
  -3  -5  11    0.49    0.38
  -3  -4  -2    7.85    0.38
  -3  -3   7  162.65    0.57
  -1  -3  11   73.87    0.56
   2  -4  -7    2.84    0.40
   3  -4  -7   45.19    0.47
   4  -1   6   32.39    0.53
   5  -3  -5    3.51    0.32
   5  -1   0   78.28    0.46
   5  -1   3    0.44    0.35
   6  -2   4   15.01    0.44
   7  -3   1   16.80    0.40
   7  -3   2    4.03    0.41
   7  -3   3    1.65    0.41
  -5  -8   3    4.70    0.39
  -5  -7   4    1.47    0.40
  -5  -7   5   -0.08    0.40
  -5  -7   6   12.43    0.43
  -4  -6  -1    3.96    0.40
  -4  -6  10   22.79    0.40
  -4  -5   8    3.65    0.32
  -4  -4   3   80.65    0.46
  -4  -4   4    7.83    0.30
  -4  -4   5  223.99    0.64
  -2  -5  13    7.49    0.48
  -1  -5  14    8.84    0.51
   0  -3  12    1.62    0.48
   0  -1   8    1.25    0.40
   2  -1  -4    0.28    0.26
   3   0   0   15.28    0.32
   4  -5  -7    7.41    0.41
   5  -2  -3    3.23    0.33
   5  -1   1    6.81    0.33
   5  -1   2    0.36    0.32
   6  -3  -3    2.85    0.33
   6  -2   0    4.32    0.31
   6  -2   1    2.48    0.36
   6  -2   3    0.41    0.35
   7  -4  -2    1.47    0.38
  -5  -8   2    1.49    0.43
  -5  -7   3    0.99    0.39
  -5  -7   7    4.03    0.37
  -4  -8  -2    2.77    0.52
  -4  -5   0    6.32    0.34
  -4  -4   2   87.57    0.48
  -4  -4   6   15.71    0.35
  -3  -7  -4    9.02    0.59
  -3  -4  10    0.63    0.35
  -2  -5  -5    2.40    0.72
  -2  -3  10    5.34    0.35
   0  -7  -7    2.48    0.73
   1  -3  -6   97.52    0.65
   3  -3  -6   38.51    0.41
   3  -2  -5  237.66    0.68
   3   0   1  100.20    0.54
   3   0   2  141.07    0.64
   6  -5  -5   28.24    0.43
   6  -4  -4    0.24    0.34
   6  -2   2   39.92    0.43
  -5  -7   8    0.60    0.38
  -4  -6  11    0.30    0.42
  -4  -5   9    8.51    0.35
  -3  -3  -1   23.89    0.36
  -3  -3   8    7.50    0.30
  -3  -2   3   31.87    0.36
  -2  -4  12    2.98    0.42
  -2  -2  -2  134.91    0.77
  -2  -2   8   90.65    0.50
  -2  -1   2  130.62    0.57
  -2  -1   3    6.36    0.27
  -1  -4  13    2.79    0.45
  -1  -1   7    7.16    0.33
   0  -8  -7    6.49    0.86
   1  -5  -7    0.81    0.46
   1  -2  -5   12.56    0.37
   1   0  -1   70.95    0.62
   2   0  -1  199.00    0.72
   3  -1   7    0.30    0.52
   4  -2  -4   16.02    0.34
   4  -1  -2    6.40    0.28
   5  -5  -6    2.81    0.36
   6  -3  -2   45.12    0.43
   6  -3   7   -0.17    0.44
   7  -4  -1    9.64    0.38
  -5  -8   1    0.12    0.49
  -5  -7   2   14.60    0.43
  -5  -6   4    0.07    0.37
  -5  -6   5    1.23    0.33
  -5  -6   6   11.57    0.36
  -4  -7  -2   35.29    0.56
  -4  -4   1   28.67    0.39
  -4  -4   7   37.82    0.38
  -3  -5  12   10.15    0.43
  -3  -2   2   40.97    0.36
  -3  -2   4   93.30    0.45
  -2  -1   4  296.13    0.78
   0  -4  -6   22.10    0.62
   1  -4  14   14.02    0.75
   2  -3  -6    4.03    0.35
   2  -2  -5   14.64    0.33
   3  -5  -7    2.16    0.41
   3  -1  -3   29.45    0.33
   4  -6  -7    0.22    0.42
   4  -4  -6    8.69    0.37
   4  -3  -5   75.91    0.46
   5  -4  -5    1.72    0.36
   5  -3  -4    1.41    0.30
   5  -3   9   15.10    0.59
   5  -2  -2   35.86    0.39
   6  -6  -5    9.71    0.46
   7  -4   0    0.02    0.40
  -5  -6   3   38.77    0.42
  -5  -6   7    6.98    0.37
  -4  -5  -1   35.04    0.45
  -4  -5  10    1.09    0.35
  -4  -4   8   19.25    0.38
  -3  -6  -4    8.05    0.57
  -3  -2   5   19.65    0.30
  -2  -1   1   19.07    0.32
  -2  -1   5  154.71    0.59
  -1  -2  10   99.53    0.61
   2  -5  -7   56.78    0.55
   4  -1  -1  157.75    0.56
   5  -6  -6    5.32    0.43
   6  -4  -3   10.09    0.39
   6  -3  -1   31.75    0.41
   7  -5  -2    1.81    0.39
   7  -4   1   -0.33    0.41
   7  -4   5   10.29    0.47
  -5  -7   1    1.00    0.41
  -5  -6   2    4.65    0.38
  -5  -6   8    6.46    0.37
  -4  -6  -2    5.11    0.44
  -4  -4   0    6.72    0.36
  -3  -4  11    0.99    0.38
  -3  -3   9  125.19    0.55
  -3  -2   1  139.60    0.55
  -3  -2   6   63.26    0.42
  -1  -3  12    0.49    0.44
   0  -4  14   15.21    0.64
   1  -2  11   16.32    0.71
   2   0   0   60.16    0.47
   4  -7  -7    2.60    0.45
   5  -2   6    7.95    0.40
   6  -5  -4    9.08    0.37
   6  -3   6   14.43    0.47
   7  -4   2    1.87    0.41
   7  -4   3    3.90    0.42
   7  -4   4    3.76    0.44
  -5  -6   9    4.53    0.42
  -5  -5   4    0.48    0.35
  -5  -5   5   31.28    0.42
  -4  -3   3   10.77    0.29
  -4  -3   4  146.90    0.53
  -4  -3   5  143.08    0.53
  -2  -3  11   24.96    0.42
  -2  -2   9  111.99    0.55
   0   0   5    0.55    0.38
   3  -6  -7  116.30    0.64
   3  -4  -6   20.12    0.40
   4  -5  -6    3.73    0.37
   4  -4  12    3.04    0.83
   4  -2  -3   50.23    0.40
   4  -1   0    5.92    0.29
   5  -3  -3   20.55    0.37
   5  -2  -1   39.53    0.36
   6  -3   0    5.56    0.35
   7  -5  -1    3.48    0.38
  -5  -6   1   81.27    0.54
  -5  -5   3   84.71    0.50
  -5  -5   6    0.17    0.33
  -5  -5   7    0.42    0.38
  -4  -5  11   18.41    0.40
  -4  -4   9    2.21    0.32
  -4  -3   2   15.22    0.34
  -4  -3   6    4.01    0.30
  -3  -5  13    2.53    0.44
  -3  -4  -3    0.01    0.39
  -3  -2   0  272.38    0.77
  -3  -2   7    3.98    0.31
  -2  -1   0  112.81    0.60
  -2  -1   6   50.35    0.41
  -1  -1   8   15.51    0.40
   0  -2  11    0.20    0.46
   1  -6  -7    0.82    0.49
   2  -1  -3   77.49    0.46
   3  -2  -4   16.09    0.29
   3  -1  -2    6.44    0.29
   4  -2   8    0.66    0.46
   4  -1   4    7.43    0.35
   5  -5  -5   15.97    0.37
   5  -4  -4   17.81    0.37
   6  -4  -2    8.66    0.34
   6  -3   1   74.65    0.48
   6  -3   5   18.74    0.43
  -5  -7   0    0.88    0.42
  -5  -5   2   14.01    0.39
  -4  -8  -3   35.10    0.73
  -4  -3   7   17.20    0.36
  -3  -3  -2    4.56    0.33
  -3  -3  10    1.90    0.35
  -2  -4  13    0.13    0.42
   2  -6  -7   38.74    0.54
   2   0   1    6.13    0.30
   3  -7  -7    4.84    0.46
   3  -3  -5   26.83    0.37
   4  -4  -5   11.23    0.35
   4  -3  -4   36.10    0.38
   4  -1   1   95.04    0.49
   4  -1   3   40.10    0.42
   5  -2   0   25.20    0.33
   5  -2   5   13.10    0.38
   6  -6  -4    1.37    0.38
   6  -5  -3    1.30    0.35
   6  -4   8    2.35    0.51
   6  -3   2    1.70    0.35
   6  -3   3    5.08    0.37
   6  -3   4    0.87    0.37
   7  -5   0    1.32    0.37
  -5  -5   8   -0.13    0.35
  -4  -5  -2   38.00    0.50
  -4  -4  -1   19.27    0.40
  -4  -4  10    0.77    0.38
  -4  -3   1  100.74    0.50
  -3  -4  12   10.00    0.43
  -1  -4  14    0.44    0.52
   0  -1   9   82.66    0.70
   1  -7  -7   45.05    0.69
   1  -1  -3  202.96    0.83
   2  -4  -6   57.43    0.49
   4  -6  -6    7.86    0.40
   4  -1   2  171.17    0.62
   5  -3  -2    4.75    0.33
   5  -2   1  152.87    0.57
   5  -2   4   18.59    0.41
   7  -6  -1    0.55    0.43
   7  -5   1    0.96    0.42
  -5  -6   0    9.96    0.45
  -5  -5   1   21.12    0.41
  -5  -5   9    1.57    0.36
  -5  -4   5   19.91    0.38
  -4  -7  -3    4.59    0.53
  -4  -5  12   14.16    0.47
  -4  -3   8   61.45    0.46
  -3  -5  -4    9.70    0.52
  -3  -2   8    0.78    0.28
  -2  -2  10   38.63    0.46
  -2  -1   7   75.39    0.47
  -1   0   2  106.24    0.67
  -1   0   3  324.45    1.03
   0  -3  13   42.08    0.68
   1  -4  -6    0.30    0.39
   1   0   0   66.34    0.64
   2  -7  -7    0.93    0.47
   4  -3  10    3.19    0.59
   4  -2  -2    1.14    0.26
   5  -6  -5    2.99    0.36
   5  -2   2   12.70    0.31
   5  -2   3    6.16    0.34
   6  -4  -1   11.55    0.34
   7  -5   2    2.15    0.42
   7  -5   5    3.30    0.45
  -5  -4   3   39.27    0.42
  -5  -4   4    1.57    0.31
  -5  -4   6   -0.19    0.32
  -2  -3  12    0.75    0.39
  -1  -2  11  121.04    0.69
  -1   0   4  380.36    1.06
   1  -8  -7   30.32    0.69
   2  -8  -7    7.32    0.54
   2  -2  -4   15.59    0.32
   3  -5  -6   55.14    0.47
   3  -1  -1    1.11    0.28
   4  -7  -6   16.06    0.48
   5  -5  -4    0.76    0.36
   5  -4  -3  142.51    0.56
   6  -6  -3    2.06    0.40
   6  -5  -2    5.07    0.39
   6  -4   7    3.08    0.46
   7  -6   0   32.52    0.49
   7  -5   3    3.19    0.38
   7  -5   4    6.13    0.44
  -5  -7  -1    0.48    0.48
  -5  -5  10    0.53    0.38
  -5  -4   7   -0.03    0.33
  -4  -6  -3   15.04    0.52
  -4  -4  11    1.12    0.41
  -4  -3   0    7.65    0.33
  -3  -3  11    1.51    0.37
  -3  -2  -1   10.74    0.32
  -3  -1   3   42.08    0.38
  -3  -1   4   93.95    0.47
   0  -3  -5   13.98    0.51
   2  -3  -5  258.55    0.77
   3  -2  -3  169.26    0.58
   3  -1   6    1.13    0.40
   4  -5  -5   30.38    0.41
   5  -7  -5    1.30    0.38
   5  -4  10    1.35    0.55
   5  -3  -1    9.69    0.34
   6  -4   0    7.21    0.33
  -6  -6   4    0.11    0.42
  -6  -6   5    0.24    0.39
  -6  -6   6    1.47    0.39
  -5  -5   0   12.94    0.43
  -5  -4   2    2.38    0.31
  -5  -4   8    8.03    0.35
  -4  -3   9    3.19    0.33
  -4  -2   3    3.20    0.27
  -4  -2   4   45.29    0.37
  -4  -2   5    2.41    0.28
  -3  -4  13    2.80    0.48
  -3  -2   9    9.09    0.35
  -3  -1   2  279.17    0.73
  -3  -1   5    4.65    0.29
  -2  -1  -1  470.18    1.22
  -2  -1   8  115.04    0.56
  -1  -3  13    3.47    0.48
  -1  -1   9   66.64    0.55
  -1   0   5    4.16    0.32
   0   0   6    2.77    0.41
   4  -3  -3   59.02    0.39
   4  -2  -1    3.61    0.30
   4  -2   7   12.33    0.46
   6  -4   1   27.44    0.40
   7  -6   1   19.41    0.43
  -5  -6  -1    0.21    0.44
  -4  -2   2   38.79    0.35
  -4  -2   6    1.29    0.28
  -2  -2  -3    9.94    0.43
  -1   0   1   67.75    0.60
   1  -3  -5    0.45    0.33
   1  -2  -4  560.33    1.30
   2  -5  -6    5.97    0.41
   2  -1  -2   20.52    0.32
   3  -6  -6    6.74    0.41
   3  -4  -5  144.97    0.58
   3  -3  -4    7.35    0.30
   4  -4  -4   56.82    0.40
   5  -6  -4    5.74    0.39
   5  -3   7   18.40    0.43
   6  -7  -3    0.53    0.38
   6  -5  -1   20.17    0.37
   6  -4   6    0.69    0.39
   7  -6   2    1.81    0.43
  -6  -6   3    2.53    0.39
  -5  -4   1    6.83    0.32
  -5  -4   9    4.57    0.36
  -5  -3   4   28.19    0.39
  -5  -3   5    6.36    0.35
  -4  -4  -2    5.60    0.37
  -4  -4  12    0.82    0.44
  -4  -3  10    3.28    0.38
  -4  -2   7  110.95    0.51
  -3  -1   1    2.52    0.28
  -3  -1   6   11.60    0.28
  -2  -2  11   43.01    0.49
   3  -1   0  411.14    0.89
   5  -5  -3   -0.04    0.34
   5  -4  -2   90.77    0.46
   5  -3   0  134.24    0.51
   6  -6  -2   39.52    0.42
   6  -4   2   25.07    0.37
   6  -4   3   24.17    0.41
   6  -4   4    0.44    0.37
   6  -4   5   28.29    0.44
   7  -6   3   -0.03    0.43
  -6  -6   2    1.19    0.44
  -6  -5   4    2.86    0.41
  -6  -5   5    0.63    0.36
  -6  -5   6    0.50    0.38
  -6  -5   7    4.56    0.44
  -5  -3   3   49.88    0.42
  -5  -3   6   13.07    0.34
  -4  -5  -3   49.67    0.58
  -4  -3  -1  120.12    0.57
  -4  -2   1    0.89    0.29
  -3  -3  -3   10.82    0.41
  -3  -3  12    0.19    0.40
  -3  -2  10    9.92    0.37
  -2  -3  13    0.44    0.49
  -1   0   6  290.72    0.93
   3  -7  -6   10.53    0.45
   4  -6  -5   29.37    0.38
   4  -2   0  105.36    0.49
   6  -5   0    9.41    0.38
   7  -6   4    5.49    0.40
  -6  -5   3    7.94    0.42
  -5  -7  -2   21.23    0.58
  -5  -5  -1    0.80    0.41
  -5  -4   0    7.31    0.40
  -5  -4  10    2.96    0.38
  -5  -3   2   21.32    0.37
  -5  -3   7    8.92    0.34
  -4  -2   8   32.01    0.40
  -3  -1   7   97.61    0.48
  -2  -1   9   52.42    0.47
  -2   0   3   44.05    0.40
  -2   0   4   99.30    0.51
   3  -8  -6    1.48    0.46
   3  -1   1   71.71    0.46
   4  -3  -2  115.60    0.50
   5  -7  -4    1.18    0.36
   5  -3   1   22.11    0.33
   5  -3   6   10.94    0.38
   6  -7  -2   10.86    0.43
   6  -6  -1    1.12    0.38
   6  -5   8    9.49    0.50
  -5  -3   8   24.45    0.38
  -4  -3  11    4.22    0.41
   2  -6  -6   20.39    0.44
   3  -5  -5   10.40    0.36
   3  -2  -2    3.70    0.25
   4  -7  -5    3.67    0.39
   4  -5  -4    1.81    0.33
   4  -2   1   34.01    0.36
   5  -8  -4    1.98    0.43
   5  -4  -1  118.13    0.49
   5  -3   2  139.15    0.56
   5  -3   5    8.98    0.36
   6  -5   1   16.10    0.39
  -6  -6   1   16.83    0.48
  -6  -5   2   26.81    0.46
  -5  -3   1   27.41    0.39
  -4  -2   0   21.84    0.35
  -4  -2   9   44.99    0.44
  -3  -1   0    0.40    0.24
  -3  -1   8    4.35    0.33
  -2   0   2    7.37    0.27
  -2   0   5   47.60    0.40
   2  -4  -5   54.56    0.44
   2  -2  -3   23.54    0.34
   3  -1   2    3.79    0.28
   4  -8  -5   17.54    0.45
   4  -4  -3    0.88    0.27
   5  -6  -3    4.39    0.33
   5  -5  -2   22.31    0.35
   5  -3   3   22.35    0.34
   5  -3   4    9.53    0.35
  -6  -4   4    1.22    0.35
  -6  -4   5    0.36    0.35
  -6  -4   6    5.77    0.37
  -6  -4   7    1.63    0.37
  -5  -3   9    3.88    0.36
   2  -1  -1  129.05    0.58
   6  -6   0    2.19    0.34
   6  -5   2    0.41    0.33
   0   0   0    0.00    0.00
;
_shelx_hkl_checksum              45795
_shelx_res_file
;
TITL IP494 IN P-1
 ip494.res created by SHELXL-2016/4 at 21:20:25 on 17-May-2017
CELL  0.71073  5.59610  9.34620 10.47210 109.82900 90.92900 97.13700
ZERR 2  0.00110  0.00190  0.00210  0.03000  0.03000  0.03000
LATT 1
SFAC C H N O
UNIT 20 24 8 2
TEMP -140
PLAN 30
FMAP 2
OMIT -6 50
OMIT -5 6 2
L.S. 15
SIZE 0.48 0.33 0.25
BOND $H
EQIV $1 -x, 1-y, 1-z
EQIV $2 -1+x, y, z
HTAB N1 O_$1
HTAB N1 N2_$2
CONF
ACTA
WGHT    0.028000    0.190000
EXTI    0.108651
FVAR       0.87260
C1    1    0.022668    0.645425    0.696527    11.00000    0.02704    0.01610 =
         0.02116    0.00623    0.00786    0.00327
C2    1    0.020412    0.741119    0.846095    11.00000    0.02808    0.02054 =
         0.01939    0.00647    0.00638    0.00579
AFIX  13
H3    2   -0.098923    0.815190    0.857903    11.00000   -1.20000
AFIX   0
C3    1    0.268188    0.828485    0.900852    11.00000    0.03045    0.02624 =
         0.01947    0.00839    0.00115    0.00497
AFIX  23
H5    2    0.262252    0.888303    0.998666    11.00000   -1.20000
H4    2    0.383837    0.754250    0.892496    11.00000   -1.20000
AFIX   0
C4    1   -0.051564    0.634423    0.925717    11.00000    0.04974    0.02819 =
         0.02681    0.01164    0.01459    0.00633
AFIX 137
H6    2   -0.215805    0.581749    0.895255    11.00000   -1.20000
H8    2   -0.045568    0.694636    1.022969    11.00000   -1.20000
H7    2    0.060441    0.558341    0.910078    11.00000   -1.20000
AFIX   0
C5    1    0.572999    1.031918    0.712295    11.00000    0.02031    0.02468 =
         0.01967    0.00527   -0.00104    0.00203
C6    1    0.386251    1.119490    0.759994    11.00000    0.02065    0.02399 =
         0.02205    0.00501    0.00070    0.00048
C7    1    0.366152    1.252137    0.727349    11.00000    0.02787    0.02651 =
         0.03507    0.01043    0.00168    0.00435
AFIX  43
H9    2    0.239683    1.311962    0.758654    11.00000   -1.20000
AFIX   0
C8    1    0.536313    1.290413    0.648943    11.00000    0.03304    0.02943 =
         0.03609    0.01572   -0.00602   -0.00402
AFIX  43
H10   2    0.528050    1.379345    0.625352    11.00000   -1.20000
AFIX   0
C9    1    0.725275    1.202165    0.601333    11.00000    0.02734    0.04655 =
         0.03226    0.01979    0.00171   -0.00575
AFIX  43
H11   2    0.840016    1.233870    0.547020    11.00000   -1.20000
AFIX   0
C10   1    0.747856    1.073093    0.630945    11.00000    0.02302    0.04120 =
         0.02963    0.01241    0.00625    0.00475
AFIX  43
H12   2    0.874723    1.014003    0.598479    11.00000   -1.20000
AFIX   0
N1    3   -0.160934    0.647897    0.616936    11.00000    0.02859    0.02520 =
         0.02028    0.00425    0.00501    0.00960
AFIX  93
H1    2   -0.170803    0.591949    0.529944    11.00000   -1.20000
H2    2   -0.273477    0.705494    0.650863    11.00000   -1.20000
AFIX   0
N2    3    0.549033    0.912274    0.757802    11.00000    0.02255    0.02674 =
         0.02104    0.00568    0.00288    0.00503
N3    3    0.354751    0.932715    0.829464    11.00000    0.02295    0.02122 =
         0.02028    0.00513    0.00102    0.00291
N4    3    0.247973    1.052960    0.835829    11.00000    0.02497    0.02458 =
         0.02758    0.00803    0.00499    0.00446
O     4    0.187323    0.567487    0.656223    11.00000    0.03309    0.03409 =
         0.02400    0.00079    0.00271    0.01359
HKLF 4
REM  IP494 IN P-1
REM R1 =  0.0369 for    1653 Fo > 4sig(Fo)  and  0.0400 for all    1774 data
REM    138 parameters refined using      0 restraints
END
WGHT      0.0280      0.1900
REM Highest difference peak  0.247,  deepest hole -0.182,  1-sigma level  0.034
Q1    1   0.4892  1.0843  0.7359  11.00000  0.05    0.25
Q2    1   0.3400  1.1560  0.7264  11.00000  0.05    0.20
Q3    1   0.0027  0.6895  0.7757  11.00000  0.05    0.20
Q4    1   0.3914  1.1810  0.7513  11.00000  0.05    0.18
Q5    1   0.1813  0.7369  0.8591  11.00000  0.05    0.18
Q6    1   0.5827  0.9974  0.7363  11.00000  0.05    0.16
Q7    1  -0.0347  0.6913  0.8843  11.00000  0.05    0.15
Q8    1   0.6434  1.0372  0.6647  11.00000  0.05    0.14
Q9    1   0.6828  1.1054  0.5784  11.00000  0.05    0.13
Q10   1  -0.0316  0.6968  0.6494  11.00000  0.05    0.13
Q11   1   0.2782  1.0978  0.7947  11.00000  0.05    0.13
Q12   1   0.1168  0.8849  0.9010  11.00000  0.05    0.12
Q13   1  -0.0497  0.7852  0.8440  11.00000  0.05    0.12
Q14   1  -0.0696  0.5268  0.8799  11.00000  0.05    0.12
Q15   1   0.1228  1.0964  0.8824  11.00000  0.05    0.12
Q16   1  -0.1349  0.7546  0.5878  11.00000  0.05    0.12
Q17   1   0.6136  1.2214  0.5898  11.00000  0.05    0.11
Q18   1   0.7770  1.1619  0.6507  11.00000  0.05    0.11
Q19   1   0.4228  0.7823  0.8766  11.00000  0.05    0.11
Q20   1   0.6069  0.8372  0.7231  11.00000  0.05    0.11
Q21   1   0.3133  0.8725  0.8625  11.00000  0.05    0.11
Q22   1  -0.2017  0.5326  0.5650  11.00000  0.05    0.10
Q23   1   0.2908  0.9928  0.8281  11.00000  0.05    0.10
Q24   1   0.5827  0.8255  0.7916  11.00000  0.05    0.10
Q25   1   0.2646  0.4876  0.7003  11.00000  0.05    0.10
Q26   1   0.2266  0.9457  0.9942  11.00000  0.05    0.10
Q27   1   0.4667  0.9209  0.7951  11.00000  0.05    0.09
Q28   1   0.1407  0.5999  0.9432  11.00000  0.05    0.09
Q29   1   0.1230  0.5810  0.5777  11.00000  0.05    0.09
Q30   1   0.7930  1.0512  0.6299  11.00000  0.05    0.08
;
_shelx_res_checksum              43510
loop_
_space_group_symop_operation_xyz
'x, y, z'
'-x, -y, -z'
loop_
_atom_site_type_symbol
_atom_site_label
_atom_site_fract_x
_atom_site_fract_y
_atom_site_fract_z
_atom_site_U_iso_or_equiv
_atom_site_adp_type
_atom_site_calc_flag
_atom_site_occupancy
C C1 0.0227(2) 0.64543(13) 0.69653(13) 0.0214(3) Uani d 1
C C2 0.0204(2) 0.74112(14) 0.84610(13) 0.0225(3) Uani d 1
H H3 -0.098923 0.815190 0.857903 0.027 Uiso calc 1
C C3 0.2682(3) 0.82849(15) 0.90085(13) 0.0252(3) Uani d 1
H H5 0.262252 0.888303 0.998666 0.030 Uiso calc 1
H H4 0.383837 0.754250 0.892496 0.030 Uiso calc 1
C C4 -0.0516(3) 0.63442(17) 0.92572(15) 0.0341(4) Uani d 1
H H6 -0.215805 0.581749 0.895255 0.041 Uiso calc 1
H H8 -0.045568 0.694636 1.022969 0.041 Uiso calc 1
H H7 0.060441 0.558341 0.910078 0.041 Uiso calc 1
C C5 0.5730(2) 1.03192(15) 0.71230(13) 0.0223(3) Uani d 1
C C6 0.3863(2) 1.11949(15) 0.75999(13) 0.0232(3) Uani d 1
C C7 0.3662(3) 1.25214(16) 0.72735(15) 0.0298(3) Uani d 1
H H9 0.239683 1.311962 0.758654 0.036 Uiso calc 1
C C8 0.5363(3) 1.29041(17) 0.64894(15) 0.0325(4) Uani d 1
H H10 0.528050 1.379345 0.625352 0.039 Uiso calc 1
C C9 0.7253(3) 1.20216(18) 0.60133(15) 0.0347(4) Uani d 1
H H11 0.840016 1.233870 0.547020 0.042 Uiso calc 1
C C10 0.7479(3) 1.07309(17) 0.63095(15) 0.0311(4) Uani d 1
H H12 0.874723 1.014003 0.598479 0.037 Uiso calc 1
N N1 -0.1609(2) 0.64790(12) 0.61694(11) 0.0250(3) Uani d 1
H H1 -0.170803 0.591949 0.529944 0.030 Uiso calc 1
H H2 -0.273477 0.705494 0.650863 0.030 Uiso calc 1
N N2 0.5490(2) 0.91227(12) 0.75780(11) 0.0239(3) Uani d 1
N N3 0.3548(2) 0.93272(12) 0.82946(11) 0.0220(3) Uani d 1
N N4 0.2480(2) 1.05296(13) 0.83583(12) 0.0258(3) Uani d 1
O O 0.18732(19) 0.56749(11) 0.65622(10) 0.0320(3) Uani d 1
loop_
_atom_site_aniso_label
_atom_site_aniso_U_11
_atom_site_aniso_U_22
_atom_site_aniso_U_33
_atom_site_aniso_U_12
_atom_site_aniso_U_13
_atom_site_aniso_U_23
C1 0.0270(7) 0.0161(6) 0.0212(7) 0.0033(5) 0.0079(5) 0.0062(5)
C2 0.0281(7) 0.0205(6) 0.0194(7) 0.0058(5) 0.0064(5) 0.0065(5)
C3 0.0304(7) 0.0262(7) 0.0195(6) 0.0050(6) 0.0012(5) 0.0084(5)
C4 0.0497(10) 0.0282(7) 0.0268(7) 0.0063(7) 0.0146(7) 0.0116(6)
C5 0.0203(7) 0.0247(6) 0.0197(6) 0.0020(5) -0.0010(5) 0.0053(5)
C6 0.0207(7) 0.0240(6) 0.0221(7) 0.0005(5) 0.0007(5) 0.0050(5)
C7 0.0279(8) 0.0265(7) 0.0351(8) 0.0044(6) 0.0017(6) 0.0104(6)
C8 0.0330(8) 0.0294(7) 0.0361(8) -0.0040(6) -0.0060(6) 0.0157(6)
C9 0.0273(8) 0.0466(9) 0.0323(8) -0.0058(7) 0.0017(6) 0.0198(7)
C10 0.0230(7) 0.0412(8) 0.0296(7) 0.0047(6) 0.0062(6) 0.0124(6)
N1 0.0286(6) 0.0252(6) 0.0203(6) 0.0096(5) 0.0050(5) 0.0042(4)
N2 0.0226(6) 0.0267(6) 0.0210(6) 0.0050(5) 0.0029(4) 0.0057(4)
N3 0.0230(6) 0.0212(5) 0.0203(6) 0.0029(4) 0.0010(4) 0.0051(4)
N4 0.0250(6) 0.0246(6) 0.0276(6) 0.0045(5) 0.0050(5) 0.0080(5)
O 0.0331(6) 0.0341(6) 0.0240(5) 0.0136(5) 0.0027(4) 0.0008(4)
loop_
_atom_type_symbol
_atom_type_description
_atom_type_scat_dispersion_real
_atom_type_scat_dispersion_imag
_atom_type_scat_source
C C 0.0033 0.0016 'International Tables Vol C Tables 4.2.6.8 and 6.1.1.4'
H H 0.0000 0.0000 'International Tables Vol C Tables 4.2.6.8 and 6.1.1.4'
N N 0.0061 0.0033 'International Tables Vol C Tables 4.2.6.8 and 6.1.1.4'
O O 0.0106 0.0060 'International Tables Vol C Tables 4.2.6.8 and 6.1.1.4'
loop_
_geom_angle_atom_site_label_1
_geom_angle_atom_site_label_2
_geom_angle_atom_site_label_3
_geom_angle
O C1 N1 123.67(12)
O C1 C2 119.91(12)
N1 C1 C2 116.40(11)
C3 C2 C1 110.76(11)
C3 C2 C4 108.52(12)
C1 C2 C4 108.88(11)
C3 C2 H3 109.6
C1 C2 H3 109.6
C4 C2 H3 109.6
N3 C3 C2 112.65(11)
N3 C3 H5 109.1
C2 C3 H5 109.1
N3 C3 H4 109.1
C2 C3 H4 109.1
H5 C3 H4 107.8
C2 C4 H6 109.5
C2 C4 H8 109.5
H6 C4 H8 109.5
C2 C4 H7 109.5
H6 C4 H7 109.5
H8 C4 H7 109.5
N2 C5 C6 108.57(12)
N2 C5 C10 129.88(13)
C6 C5 C10 121.56(13)
N4 C6 C5 108.31(12)
N4 C6 C7 130.81(13)
C5 C6 C7 120.88(13)
C8 C7 C6 116.86(13)
C8 C7 H9 121.6
C6 C7 H9 121.6
C7 C8 C9 122.17(13)
C7 C8 H10 118.9
C9 C8 H10 118.9
C10 C9 C8 122.07(14)
C10 C9 H11 119.0
C8 C9 H11 119.0
C9 C10 C5 116.47(14)
C9 C10 H12 121.8
C5 C10 H12 121.8
C1 N1 H1 120.0
C1 N1 H2 120.0
H1 N1 H2 120.0
N3 N2 C5 103.09(11)
N4 N3 N2 117.11(11)
N4 N3 C3 121.80(11)
N2 N3 C3 121.07(11)
N3 N4 C6 102.93(11)
loop_
_geom_bond_atom_site_label_1
_geom_bond_atom_site_label_2
_geom_bond_distance
C1 O 1.2364(16)
C1 N1 1.3199(18)
C1 C2 1.5187(18)
C2 C3 1.514(2)
C2 C4 1.5255(18)
C2 H3 1.0000
C3 N3 1.4598(17)
C3 H5 0.9900
C3 H4 0.9900
C4 H6 0.9800
C4 H8 0.9800
C4 H7 0.9800
C5 N2 1.3498(18)
C5 C6 1.4013(19)
C5 C10 1.410(2)
C6 N4 1.3607(18)
C6 C7 1.4098(19)
C7 C8 1.360(2)
C7 H9 0.9500
C8 C9 1.415(2)
C8 H10 0.9500
C9 C10 1.363(2)
C9 H11 0.9500
C10 H12 0.9500
N1 H1 0.8800
N1 H2 0.8800
N2 N3 1.3276(16)
N3 N4 1.3198(16)
loop_
_geom_hbond_atom_site_label_D
_geom_hbond_atom_site_label_H
_geom_hbond_atom_site_label_A
_geom_hbond_site_symmetry_A
_geom_hbond_distance_DH
_geom_hbond_distance_HA
_geom_hbond_distance_DA
_geom_hbond_angle_DHA
N1 H1 O 2_566 0.88 2.00 2.8745(18) 169.5
N1 H2 N2 1_455 0.88 2.24 3.0850(18) 160.7
loop_
_geom_torsion_atom_site_label_1
_geom_torsion_atom_site_label_2
_geom_torsion_atom_site_label_3
_geom_torsion_atom_site_label_4
_geom_torsion
O C1 C2 C3 45.53(16)
N1 C1 C2 C3 -136.47(12)
O C1 C2 C4 -73.73(16)
N1 C1 C2 C4 104.27(14)
C1 C2 C3 N3 59.74(14)
C4 C2 C3 N3 179.22(10)
N2 C5 C6 N4 0.30(14)
C10 C5 C6 N4 -179.57(12)
N2 C5 C6 C7 -179.77(12)
C10 C5 C6 C7 0.4(2)
N4 C6 C7 C8 179.50(14)
C5 C6 C7 C8 -0.41(19)
C6 C7 C8 C9 0.2(2)
C7 C8 C9 C10 0.2(2)
C8 C9 C10 C5 -0.2(2)
N2 C5 C10 C9 -179.87(13)
C6 C5 C10 C9 0.0(2)
C6 C5 N2 N3 -0.24(13)
C10 C5 N2 N3 179.62(14)
C5 N2 N3 N4 0.10(14)
C5 N2 N3 C3 -178.27(11)
C2 C3 N3 N4 65.73(15)
C2 C3 N3 N2 -115.97(13)
N2 N3 N4 C6 0.08(15)
C3 N3 N4 C6 178.44(11)
C5 C6 N4 N3 -0.23(14)
C7 C6 N4 N3 179.86(13)

_cod_database_fobs_code 2242160
