#------------------------------------------------------------------------------
#$Date: 2017-07-25 12:50:41 +0300 (Tue, 25 Jul 2017) $
#$Revision: 199199 $
#$URL: file:///home/coder/svn-repositories/cod/cif/2/24/22/2242238.cif $
#------------------------------------------------------------------------------
#
# This file is available in the Crystallography Open Database (COD),
# http://www.crystallography.net/. The original data for this entry
# were provided by IUCr Journals, http://journals.iucr.org/.
#
# The file may be used within the scientific community so long as
# proper attribution is given to the journal article from which the
# data were obtained.
#
data_2242238
loop_
_publ_author_name
'Pe\~na-Sol\'orzano, Diana'
'K\"onig, Burkhard'
'Sierra, Cesar A.'
'Ochoa-Puentes, Cristian'
_publ_section_title
;
 Crystal structures of three
 <i>N</i>-(3-acetylphenyl)quinoline-2-carboxamides
;
_journal_coeditor_code           LH5839
_journal_issue                   6
_journal_name_full               'Acta Crystallographica Section E'
_journal_page_first              804
_journal_page_last               808
_journal_paper_doi               10.1107/S2056989017006272
_journal_volume                  73
_journal_year                    2017
_chemical_formula_moiety         'C20 H14 N2 O2'
_chemical_formula_sum            'C20 H14 N2 O2'
_chemical_formula_weight         314.33
_chemical_name_systematic
;
<i>N</i>-(5-Acetyl-2-ethynylphenyl)quinoline-2-carboxamide
;
_space_group_crystal_system      triclinic
_space_group_IT_number           2
_space_group_name_Hall           '-P 1'
_space_group_name_H-M_alt        'P -1'
_symmetry_space_group_name_Hall  '-P 1'
_symmetry_space_group_name_H-M   'P -1'
_atom_sites_solution_hydrogens   geom
_audit_creation_method
;
OLEX2 1.2-alpha
(compiled 2015.11.10 svn.r3248 for OlexSys, GUI svn.r5133)
;
_cell_angle_alpha                92.734(5)
_cell_angle_beta                 100.608(6)
_cell_angle_gamma                108.989(6)
_cell_formula_units_Z            2
_cell_length_a                   7.3075(6)
_cell_length_b                   8.2605(4)
_cell_length_c                   13.8196(9)
_cell_measurement_reflns_used    5519
_cell_measurement_temperature    123.00(10)
_cell_measurement_theta_max      32.0120
_cell_measurement_theta_min      3.0630
_cell_volume                     770.11(10)
_computing_cell_refinement
;
CrysAlis PRO (Rigaku OD, 2015)
;
_computing_data_collection
;
CrysAlis PRO (Rigaku OD, 2015)
;
_computing_data_reduction
;
CrysAlis PRO (Rigaku OD, 2015)
;
_computing_molecular_graphics
;
<i>OLEX2</i> (Dolomanov <i>et al.</i>,  2009)
;
_computing_publication_material
;
<i>OLEX2</i> (Dolomanov <i>et al.</i>,  2009)
;
_computing_structure_refinement
;
SHELXL2014 (Sheldrick, 2015b)
;
_computing_structure_solution
;
SHELXT (Sheldrick, 2015a)
;
_diffrn_ambient_temperature      123.00(10)
_diffrn_detector_area_resol_mean 7.9851
_diffrn_measured_fraction_theta_full 0.998
_diffrn_measured_fraction_theta_max 0.940
_diffrn_measurement_device       'four-circle diffractometer'
_diffrn_measurement_device_type
'Agilent SuperNova Single source at offset, Eos'
_diffrn_measurement_method       '\w scans'
_diffrn_radiation_monochromator  mirror
_diffrn_radiation_type           MoK\a
_diffrn_radiation_wavelength     0.71073
_diffrn_reflns_av_R_equivalents  0.0596
_diffrn_reflns_limit_h_max       10
_diffrn_reflns_limit_h_min       -10
_diffrn_reflns_limit_k_max       12
_diffrn_reflns_limit_k_min       -12
_diffrn_reflns_limit_l_max       20
_diffrn_reflns_limit_l_min       -20
_diffrn_reflns_number            20693
_diffrn_reflns_theta_full        26.000
_diffrn_reflns_theta_max         32.337
_diffrn_reflns_theta_min         3.016
_exptl_absorpt_coefficient_mu    0.089
_exptl_absorpt_correction_T_max  0.996
_exptl_absorpt_correction_T_min  0.987
_exptl_absorpt_correction_type   analytical
_exptl_absorpt_process_details
;
[CrysAlis PRO (Rigaku OD, 2015), based on expressions
derived by Clark & Reid (1995)]
;
_exptl_crystal_colour            colourless
_exptl_crystal_density_diffrn    1.356
_exptl_crystal_description       block
_exptl_crystal_F_000             328
_exptl_crystal_size_max          0.189
_exptl_crystal_size_mid          0.082
_exptl_crystal_size_min          0.049
_refine_diff_density_max         0.419
_refine_diff_density_min         -0.258
_refine_ls_extinction_method     none
_refine_ls_goodness_of_fit_ref   1.044
_refine_ls_hydrogen_treatment    constr
_refine_ls_matrix_type           full
_refine_ls_number_parameters     218
_refine_ls_number_reflns         5173
_refine_ls_number_restraints     0
_refine_ls_restrained_S_all      1.044
_refine_ls_R_factor_all          0.0802
_refine_ls_R_factor_gt           0.0558
_refine_ls_shift/su_max          0.000
_refine_ls_shift/su_mean         0.000
_refine_ls_structure_factor_coef Fsqd
_refine_ls_weighting_details
'w=1/[\s^2^(Fo^2^)+(0.0577P)^2^+0.2820P] where P=(Fo^2^+2Fc^2^)/3'
_refine_ls_weighting_scheme      calc
_refine_ls_wR_factor_gt          0.1369
_refine_ls_wR_factor_ref         0.1507
_reflns_number_gt                3687
_reflns_number_total             5173
_reflns_threshold_expression     'I > 2\s(I)'
_cod_data_source_file            lh5839sup1.cif
_cod_data_source_block           III
_cod_database_code               2242238
_shelx_space_group_comment
;
The symmetry employed for this shelxl refinement is uniquely defined
by the following loop, which should always be used as a source of
symmetry information in preference to the above space-group names.
They are only intended as comments.
;
_shelx_hkl_file
;
   0   0  -3   25.46    2.98
   0   0  -3   25.03    1.71
   0   0   3   20.23    1.44
   0   0   3   22.20    1.31
   0   0  -3   19.43    1.01
   0   0   3   21.21    1.69
   0   0  -3   24.47    1.62
   0   0   4  473.44   12.68
   0   0   4  516.50   14.16
   0   0  -4  513.41   13.39
   0   0  -4  462.27   13.37
   0   0   4  440.95   13.06
   0   0  -4  448.83   16.72
   0   0   5   11.46    1.49
   0   0   5   10.97    1.13
   0   0  -5   11.46    2.52
   0   0  -5   12.31    1.51
   0   0   5   10.39    1.25
   0   0   6  191.13    7.24
   0   0  -6  193.03    7.46
   0   0   6  187.99    6.63
   0   0  -6  185.23   10.89
   0   0   6  195.76    8.37
   0   0   7 1012.24   26.93
   0   0  -7 1003.90   27.67
   0   0  -7  969.79   33.64
   0   0   7 1043.82   26.74
   0   0   7 1054.55   27.66
   0   0   8    1.75    0.83
   0   0  -8    5.96    1.52
   0   0   8    3.27    1.04
   0   0  -8   10.18    3.12
   0   0   8    2.57    0.88
   0   0  -9    3.81    1.25
   0   0  -9    3.33    2.10
   0   0   9    1.71    0.80
   0   0   9    1.95    0.91
   0   0   9    2.02    0.89
   0   0 -10   37.71    5.85
   0   0  10   40.59    3.26
   0   0 -10   37.24    2.03
   0   0  10   40.40    3.56
   0   0 -10   43.14    3.75
   0   0  10   37.67    3.12
   0   0 -11    2.99    0.65
   0   0  11    4.57    1.40
   0   0  11    2.15    1.01
   0   0 -11    6.76    1.85
   0   0  11    3.72    1.28
   0   0 -11    7.53    3.22
   0   0 -12   31.44    3.62
   0   0 -12   31.84    5.85
   0   0  12   29.69    3.46
   0   0  12   28.92    3.09
   0   0  12   29.43    3.09
   0   0  13   12.26    2.18
   0   0  13   13.19    2.18
   0   0  13   11.22    2.23
   0   0 -13   16.71    2.87
   0   0 -13   17.68    4.84
   0   0 -14   18.58    3.12
   0   0  14   12.78    2.47
   0   0 -14   16.27    4.78
   0   0  14   13.66    2.33
   0   0  14   15.82    2.46
   0   0  15    7.44    1.75
   0   0  15    4.18    1.55
   0   0  15    9.14    2.09
   0   0 -15   11.86    2.74
   0   0 -15    7.77    3.23
   0   0 -16   14.23    2.83
   0   0  16   10.20    2.11
   0   0  16   10.93    2.19
   0   0 -16   14.83    4.67
   0   0  16   10.50    2.16
   0   0  17    1.71    1.25
   0   0 -17    6.05    2.75
   0   0 -17    4.53    1.96
   0   0  17    4.42    1.64
   0   0  17    2.61    1.15
   0   0  18    4.26    1.60
   0   0  18    7.18    1.97
   0   0 -18    7.64    3.60
   0   0  18    4.78    1.63
   0   0 -18    8.14    2.46
   0   0 -19    8.03    2.36
   0   0  19    3.31    1.40
   0   0 -19   14.72    5.84
   0   0  19    4.61    1.48
   0   0 -20   17.66    6.11
   0  -1  19   26.50    4.11
   0   1 -19   25.66    4.09
   0   1 -19   31.62    7.28
   0  -1  19   28.39    3.95
   0   1 -18    3.04    1.76
   0  -1  18    8.05    2.17
   0   1 -18    8.82    2.43
   0  -1  18    7.22    2.23
   0  -1  18    7.62    1.96
   0  -1  17   15.67    2.68
   0  -1  17   16.08    2.78
   0  -1  17   15.02    3.03
   0   1 -17    8.96    4.16
   0   1 -17   17.09    3.12
   0  -1  16    2.60    1.03
   0  -1  16    3.15    1.13
   0  -1  16    3.15    1.87
   0   1 -16    3.43    1.43
   0   1 -15    5.36    1.73
   0  -1  15    5.71    1.48
   0   1 -15    4.63    2.76
   0  -1  15    7.35    1.72
   0  -1  15    6.14    1.57
   0   1 -14    2.43    1.18
   0  -1  14   -0.12    0.65
   0  -1  14   -0.98    0.74
   0  -1  14   -0.35    0.90
   0   1 -14   -0.08    1.77
   0  -1  13   17.33    2.44
   0  -1  13   17.96    2.48
   0   1 -13   16.60    4.29
   0   1 -13   15.09    1.54
   0  -1  13   17.17    2.77
   0   1 -13   11.91    2.31
   0  -1  12   36.72    3.83
   0  -1  12   36.28    3.34
   0   1 -12   33.82    2.30
   0   1 -12   30.48    5.29
   0   1 -12   28.37    3.51
   0  -1  12   32.52    3.22
   0   1 -11    1.68    0.59
   0   1 -11    3.82    2.20
   0  -1  11    2.59    1.16
   0  -1  11    2.43    1.06
   0   1 -10   81.61    8.32
   0  -1  10  106.11    5.36
   0   1 -10   95.06    6.01
   0  -1  10   87.54    5.75
   0  -1   9   13.56    1.70
   0   1  -9   12.73    2.05
   0   1  -9   16.00    3.61
   0  -1   9   10.50    1.76
   0  -1   8   -0.06    0.50
   0  -1   8   -0.40    0.52
   0   1  -8    0.16    0.53
   0   1  -8    0.01    1.07
   0  -1   7  423.22   13.67
   0  -1   7  409.54   12.47
   0   1  -7  427.21   13.81
   0   1  -7  402.67   17.68
   0  -1   6    3.04    0.71
   0   1  -6    3.18    0.89
   0   1  -6    3.41    1.58
   0  -1   6    5.15    0.85
   0   1  -5  147.64    6.14
   0  -1   5  155.16    5.48
   0   1  -5  142.72    8.48
   0  -1   5  163.75    5.27
   0   1  -4  114.39    4.68
   0  -1   4  110.64    3.80
   0   1  -4  101.43    6.34
   0  -1   4  112.27    4.07
   0   1  -3  299.64    7.80
   0   1  -3  301.36   11.11
   0  -1   3  312.19    8.49
   0   1  -3  306.14    8.90
   0  -1   3  312.13    8.25
   0   1  -3  323.12    9.12
   0  -1   3  302.98    7.89
   0   1  -2 1064.41   26.21
   0  -1   2 1141.19   26.61
   0   1  -2 1151.22   27.10
   0   1  -2 1134.65   27.19
   0   1   1   17.20    0.84
   0   1   2    0.51    0.23
   0  -1  -2   -0.01    0.17
   0  -1  -2    0.06    0.11
   0   1   2   -0.38    0.26
   0  -1  -2   -1.75    1.27
   0   1   2    0.16    0.20
   0   1   3    1.95    0.44
   0   1   3    2.88    0.56
   0   1   3    1.86    0.40
   0  -1  -3    3.12    0.85
   0  -1  -3    1.50    0.40
   0  -1  -3    4.26    1.69
   0  -1  -3    1.51    0.26
   0  -1  -4   70.25    3.20
   0  -1  -4   69.43    5.71
   0   1   4   72.42    3.15
   0   1   4   74.11    3.25
   0   1   4   68.24    3.07
   0  -1  -4   91.53    5.18
   0  -1  -5   -0.53    1.11
   0   1   5   -0.54    0.51
   0  -1  -5    0.29    1.12
   0  -1  -5    0.27    0.47
   0   1   5   -0.07    0.28
   0   1   5    0.30    0.37
   0  -1  -6  149.61    7.32
   0   1   6  144.59    5.63
   0  -1  -6  141.06    9.66
   0   1   6  145.55    5.90
   0   1   6  144.83    5.67
   0  -1  -6  142.32    5.92
   0  -1  -7  204.42    7.96
   0  -1  -7  188.55   12.16
   0  -1  -7  201.06    5.27
   0   1   7  210.93    7.87
   0   1   7  206.42    7.48
   0   1   7  208.38    7.58
   0  -1  -7  203.06    8.87
   0  -1  -8   22.51    1.03
   0  -1  -8   21.53    2.24
   0   1   8   20.02    2.02
   0  -1  -8   20.13    2.44
   0   1   8   23.19    2.21
   0   1   8   21.38    2.18
   0  -1  -8   21.16    4.27
   0   1   9   62.08    3.92
   0  -1  -9   58.28    4.32
   0  -1  -9   59.39    4.08
   0   1   9   65.86    4.27
   0   1   9   61.79    3.91
   0  -1  -9   59.98    2.10
   0  -1  -9   55.64    6.97
   0   1  10    2.03    0.90
   0   1  10    1.46    0.78
   0  -1 -10    0.36    1.90
   0   1  10    1.57    0.60
   0  -1 -10    1.71    0.95
   0  -1 -10    1.28    0.26
   0  -1 -10    1.07    0.83
   0  -1 -11   73.95    5.14
   0   1  11   68.28    4.59
   0   1  11   70.40    4.91
   0   1  11   75.78    4.82
   0  -1 -11   60.92    8.02
   0   1  12    1.43    0.86
   0  -1 -12    2.52    1.92
   0   1  12    0.94    0.42
   0   1  12    1.42    0.79
   0  -1 -12    0.72    0.88
   0  -1 -13    7.74    3.95
   0   1  13    2.86    1.08
   0  -1 -13    2.44    1.19
   0   1  13    2.72    0.95
   0   1  13    1.45    0.66
   0  -1 -14   33.76    6.20
   0   1  14   38.34    3.73
   0  -1 -14   36.08    4.01
   0   1  14   35.58    3.84
   0   1  14   37.17    3.78
   0  -1 -15   -0.12    1.59
   0  -1 -15    2.71    1.30
   0   1  15    1.60    0.73
   0   1  15    2.24    1.29
   0   1  15    2.66    1.06
   0  -1 -16    7.88    3.77
   0   1  16    8.63    2.00
   0   1  16    4.35    1.16
   0  -1 -16    5.15    1.50
   0   1  16    6.66    1.76
   0  -1 -17   12.19    2.50
   0  -1 -17   12.09    4.56
   0   1  17   11.44    2.25
   0   1  17   14.46    2.83
   0   1  17   14.08    2.66
   0   1  18    2.72    1.46
   0  -1 -18    3.11    1.33
   0   1  18    4.10    1.61
   0  -1 -18    3.81    3.71
   0  -1 -19   11.64    2.58
   0   1  19   17.25    3.27
   0   1  19   14.03    2.69
   0  -1 -19   10.56    4.29
   0  -2  20   15.04    3.28
   0   2 -19   51.31    6.06
   0  -2  19   57.05    5.63
   0  -2  19   55.15    6.21
   0   2 -18    4.32    1.71
   0  -2  18    2.79    1.37
   0  -2  18    3.13    1.66
   0  -2  18    1.11    0.80
   0  -2  17   -0.87    0.97
   0  -2  17    0.07    0.55
   0  -2  17   -0.38    1.16
   0   2 -17    1.24    2.79
   0   2 -17    1.48    1.61
   0   2 -16   15.20    3.00
   0  -2  16   11.73    2.21
   0  -2  16   14.99    2.97
   0  -2  16   14.27    2.53
   0  -2  15    1.74    0.89
   0  -2  15    2.49    1.14
   0   2 -15    3.36    1.71
   0  -2  15    2.78    1.36
   0  -2  14   73.05    6.12
   0  -2  14   75.12    5.33
   0   2 -14   68.89    6.05
   0   2 -14   59.45    7.69
   0   2 -14   61.88    3.74
   0  -2  13    6.64    1.60
   0   2 -13    4.38    2.28
   0   2 -13    8.17    2.03
   0  -2  13    6.91    1.52
   0  -2  12   89.43    6.37
   0   2 -12   82.78    6.24
   0  -2  12   94.35    5.54
   0   2 -12   71.80    8.27
   0   2 -11   92.96    6.34
   0  -2  11   94.72    5.36
   0  -2  11   97.88    6.38
   0   2 -11   79.27    8.43
   0   2 -10   47.85    4.29
   0   2 -10   40.63    5.94
   0  -2  10   55.27    4.45
   0  -2  10   53.30    3.67
   0   2  -9   45.99    3.96
   0   2  -9   38.95    5.22
   0  -2   9   49.81    3.35
   0  -2   8   27.01    2.19
   0   2  -8   19.40    2.49
   0   2  -8   20.66    3.61
   0  -2   8   26.06    2.26
   0   2  -7   -0.07    1.22
   0   2  -7    2.85    1.04
   0  -2   7    0.97    0.35
   0  -2   7    1.53    0.50
   0   2  -6   91.66    6.99
   0   2  -6   91.72    4.75
   0   2  -6   93.46    4.90
   0  -2   6   94.31    4.04
   0  -2   6   95.44    4.27
   0   2  -5   60.04    3.54
   0   2  -5   53.29    2.23
   0  -2   5   61.71    2.95
   0   2  -5   57.45    3.36
   0  -2   5   60.54    3.02
   0   2  -4  500.36   14.50
   0   2  -4  530.01   14.86
   0   2  -4  481.75   12.96
   0  -2   4  524.75   14.02
   0  -2   4  515.55   13.86
   0   2  -3  303.63    9.31
   0  -2   3  329.04    9.00
   0   2  -3  311.91    8.35
   0  -2   2  132.67    4.43
   0   2  -2  140.16    4.25
   0   2  -2  127.02    4.64
   0  -2   1   19.76    1.07
   0   2  -1   19.51    1.24
   0   2  -1   21.38    1.41
   0   2  -1   19.38    1.53
   0  -2   1   19.91    1.29
   0  -2   0   80.12    2.96
   0   2   0   80.08    3.09
   0   2   0   82.04    3.01
   0  -2   0   84.27    4.17
   0  -2  -1    0.51    0.26
   0   2   1    0.59    0.37
   0  -2  -1    0.59    0.19
   0  -2  -1    0.92    0.88
   0   2   1    0.00    0.33
   0   2   1    2.28    0.67
   0   2   2   29.97    1.72
   0  -2  -2   38.65    3.92
   0   2   2   32.02    1.79
   0  -2  -2   31.13    1.53
   0   2   2   29.11    1.72
   0   2   2   30.76    1.15
   0  -2  -3    1.75    1.09
   0  -2  -3    1.36    0.34
   0  -2  -3    1.58    0.41
   0   2   3    1.51    0.34
   0   2   3    1.81    0.49
   0   2   3    1.22    0.45
   0   2   3    0.53    0.30
   0   2   4  135.46    5.04
   0  -2  -4  131.02    4.25
   0  -2  -4  137.65    9.00
   0   2   4  136.28    5.02
   0  -2  -4  136.99    4.88
   0   2   4  129.65    5.02
   0  -2  -5  308.91   11.91
   0   2   5  240.85    8.06
   0  -2  -5  243.24    7.89
   0   2   5  246.90    8.01
   0   2   5  244.63    8.07
   0  -2  -5  240.09   13.25
   0  -2  -5  234.96    6.92
   0  -2  -6   31.59    1.73
   0   2   6   35.66    2.52
   0  -2  -6   36.01    4.95
   0  -2  -6   39.11    4.25
   0   2   6   30.90    2.35
   0  -2  -6   35.70    2.46
   0   2   6   34.89    2.41
   0  -2  -7    2.24    0.68
   0   2   7    3.06    0.80
   0  -2  -7    2.44    1.12
   0  -2  -7    2.68    0.46
   0   2   7    3.10    0.74
   0   2   7    2.39    0.72
   0  -2  -7    2.20    2.02
   0  -2  -8   -0.61    1.40
   0  -2  -8    0.62    0.17
   0   2   8    1.79    0.82
   0  -2  -8    0.79    0.39
   0   2   8    1.45    0.69
   0   2   8    0.95    0.51
   0  -2  -8    2.37    1.60
   0  -2  -9   47.28    2.40
   0   2   9   48.88    3.48
   0  -2  -9   42.73    4.51
   0   2   9   48.23    3.52
   0  -2  -9   39.42    6.30
   0   2   9   49.12    3.49
   0  -2  -9   44.05    3.38
   0  -2 -10   91.80    3.75
   0   2  10   95.00    5.53
   0  -2 -10   88.20    6.66
   0   2  10  102.99    5.60
   0   2  10  104.02    5.57
   0  -2 -10   83.28    9.14
   0  -2 -10   92.00    5.39
   0   2  11    3.38    1.05
   0  -2 -11    1.37    0.64
   0  -2 -11    3.30    2.18
   0   2  11    2.34    0.88
   0   2  11    4.20    1.31
   0   2  12   56.90    4.39
   0   2  12   52.63    4.29
   0  -2 -12   56.29    8.39
   0  -2 -12   52.54    4.30
   0   2  12   53.58    4.18
   0  -2 -13    4.32    1.26
   0   2  13    4.31    1.28
   0   2  13    5.09    1.35
   0   2  13    2.51    1.10
   0  -2 -13    2.04    2.41
   0  -2 -14   19.69    4.96
   0   2  14   16.85    2.56
   0   2  14   16.70    2.64
   0  -2 -14   11.73    2.05
   0   2  14   15.07    2.48
   0  -2 -15   29.88    6.48
   0   2  15   28.47    3.44
   0   2  15   28.99    3.49
   0   2  15   24.88    3.34
   0  -2 -15   26.97    3.32
   0  -2 -16    4.62    2.85
   0   2  16    0.40    0.80
   0   2  16    1.40    0.66
   0  -2 -16    1.65    1.01
   0   2  16    0.46    0.75
   0  -2 -16    0.77    2.12
   0  -2 -17    2.75    1.39
   0   2  17   -0.50    1.17
   0  -2 -17   -0.53    1.91
   0  -2 -17   -3.26    2.76
   0   2  17    1.22    0.82
   0  -2 -18   -0.04    0.84
   0  -2 -18    0.29    3.57
   0   2  18   -0.71    0.50
   0   2  18    0.45    0.63
   0   2  19   20.58    3.25
   0  -3  20    0.80    0.85
   0   3 -19   15.47    3.29
   0  -3  19   17.79    3.66
   0  -3  19   15.97    2.93
   0  -3  18   15.61    3.25
   0   3 -18   12.73    2.90
   0  -3  18   15.37    2.72
   0  -3  18   15.95    2.85
   0   3 -17    6.08    2.04
   0  -3  17    8.74    2.41
   0  -3  17    7.82    2.06
   0  -3  17    9.68    2.12
   0  -3  16    4.20    1.64
   0  -3  16    4.64    1.40
   0   3 -16    3.58    1.77
   0   3 -15    2.68    1.26
   0  -3  15    3.17    1.14
   0  -3  15    3.94    1.66
   0   3 -15    2.31    0.99
   0   3 -14    1.26    1.05
   0  -3  14    0.15    0.40
   0  -3  14   -1.66    1.70
   0  -3  13   18.09    2.96
   0   3 -13    8.73    3.00
   0   3 -13   15.81    2.86
   0  -3  13   17.70    2.37
   0   3 -12  233.18   11.39
   0   3 -12  192.59   14.05
   0  -3  12  239.58    9.93
   0  -3  11   71.00    4.60
   0   3 -11   60.20    7.19
   0   3 -11   68.70    5.44
   0  -3  10   25.35    2.52
   0   3 -10   24.01    2.92
   0  -3  10   30.75    2.77
   0   3 -10   16.00    3.80
   0   3  -9    8.84    2.13
   0  -3   9    7.18    1.37
   0  -3   9    8.82    1.55
   0   3  -9    7.34    2.97
   0   3  -8   30.42    4.45
   0  -3   8   38.41    2.91
   0  -3   8   38.24    2.83
   0   3  -8   35.15    3.31
   0   3  -7   19.37    1.33
   0  -3   7   20.76    1.91
   0   3  -7   18.89    2.17
   0   3  -7   21.90    2.42
   0   3  -7   18.82    3.46
   0  -3   7   20.99    1.98
   0   3  -6   42.36    3.68
   0  -3   6   40.00    2.83
   0   3  -6   32.84    1.89
   0   3  -6   36.22    3.21
   0  -3   6   25.50    2.41
   0   3  -5  603.35   17.97
   0   3  -5  605.77   15.75
   0  -3   5  629.94   17.03
   0   3  -5  607.57   17.67
   0   3  -4  130.12    4.56
   0   3  -4  137.35    4.03
   0   3  -4  137.75    5.67
   0  -3   4  152.67    5.41
   0   3  -3  266.06    8.55
   0   3  -3  246.32    6.96
   0  -3   3  254.47    8.04
   0   3  -3  266.67    7.65
   0  -3   2  328.26    9.48
   0  -3   2  327.87    8.11
   0   3  -2  332.56    9.77
   0   3  -2  283.80    9.34
   0   3  -2  320.77    9.27
   0  -3   1   28.71    1.82
   0   3  -1   27.43    1.90
   0   3  -1   27.70    1.78
   0  -3   1   27.62    1.85
   0  -3   0  211.90    7.40
   0  -3   0  272.96    9.96
   0   3   0  262.38    8.05
   0   3   0  255.18    7.77
   0  -3   0  261.54    6.84
   0  -3  -1   30.33    3.48
   0   3   1   30.81    2.07
   0  -3  -1   32.60    1.36
   0   3   1   30.59    1.99
   0  -3  -1   29.57    1.81
   0   3   1   28.16    1.87
   0  -3  -2    3.23    2.20
   0  -3  -2    2.09    0.37
   0   3   2    2.81    0.65
   0  -3  -2    2.20    0.47
   0   3   2    0.53    0.56
   0   3   2    2.86    0.65
   0   3   3  546.43   15.12
   0   3   3  563.58   15.29
   0   3   3  543.85   15.15
   0  -3  -3  543.99   14.46
   0   3   3  516.26   13.34
   0  -3  -3  600.94   22.04
   0   3   4    0.84    0.54
   0  -3  -4    0.86    1.61
   0   3   4    0.50    0.45
   0   3   4    0.71    0.28
   0   3   4    0.67    0.21
   0  -3  -4    0.56    0.31
   0   3   4    0.72    0.48
   0   3   5    4.55    0.97
   0  -3  -5    8.47    2.20
   0  -3  -5    4.75    1.85
   0   3   5    4.02    0.89
   0   3   5    3.95    0.82
   0  -3  -5    5.12    0.84
   0  -3  -5    4.09    0.64
   0   3   5    3.60    0.32
   0  -3  -6    2.55    1.51
   0   3   6    3.28    0.86
   0  -3  -6    2.83    1.34
   0  -3  -6    2.18    0.43
   0   3   6    2.61    0.72
   0   3   6    2.83    0.79
   0  -3  -6    2.81    0.75
   0  -3  -7   10.40    1.37
   0  -3  -7   14.22    3.61
   0   3   7   10.18    1.49
   0  -3  -7    8.78    0.90
   0   3   7   10.23    1.38
   0   3   7   10.20    1.51
   0  -3  -7    8.39    2.39
   0   3   8   10.07    1.44
   0  -3  -8    7.93    2.33
   0  -3  -8    9.52    0.93
   0   3   8   10.90    1.54
   0   3   8   10.54    1.59
   0  -3  -8    9.42    1.41
   0  -3  -8   10.35    3.04
   0  -3  -9   41.76    3.22
   0   3   9   43.25    3.32
   0   3   9   44.12    3.39
   0   3   9   46.51    3.53
   0  -3  -9   36.53    1.95
   0  -3  -9   43.19    5.65
   0  -3  -9   42.63    6.65
   0  -3 -10  331.02   20.39
   0   3  10  343.62   12.48
   0   3  10  348.02   12.49
   0  -3 -10  314.41   16.46
   0  -3 -10  346.30   12.22
   0   3  10  341.80   12.47
   0   3  11    0.14    0.63
   0  -3 -11   -1.00    2.57
   0  -3 -11    0.99    0.75
   0   3  11    0.99    0.65
   0   3  11    0.36    0.45
   0   3  12    9.00    1.64
   0  -3 -12    6.56    1.38
   0  -3 -12    5.45    2.55
   0   3  12    6.61    1.41
   0   3  12    5.79    1.29
   0  -3 -13   17.64    4.54
   0   3  13   18.02    2.61
   0   3  13   17.98    2.54
   0   3  13   16.72    2.57
   0  -3 -13   17.33    2.40
   0  -3 -14    2.45    3.00
   0   3  14    3.06    1.15
   0  -3 -14    1.45    0.77
   0   3  14    1.28    0.98
   0  -3 -14    6.16    3.29
   0   3  14    2.16    1.26
   0  -3 -15   13.06    4.75
   0   3  15   16.59    2.75
   0   3  15   14.33    2.41
   0  -3 -15   14.08    2.39
   0   3  15   12.06    2.27
   0  -3 -15   14.08    4.55
   0   3  16    1.81    0.83
   0  -3 -16    1.62    0.99
   0  -3 -16    2.58    2.63
   0  -3 -16   -4.56    4.57
   0   3  16    3.63    1.25
   0  -3 -17    4.18    2.93
   0  -3 -17   -0.48    2.78
   0   3  17    0.08    0.82
   0   3  17    0.84    1.02
   0  -3 -17    1.84    1.12
   0  -3 -18    7.73    3.93
   0  -3 -18    6.08    2.66
   0   3  18    6.44    1.87
   0  -3 -18    6.39    1.86
   0   3  19    9.60    2.34
   0  -4  19    4.97    1.88
   0  -4  19    1.80    1.05
   0   4 -18   -0.96    1.66
   0  -4  18    1.19    1.11
   0  -4  18   -0.74    1.23
   0  -4  17   13.85    2.53
   0  -4  17   10.76    2.50
   0   4 -17   10.21    2.57
   0  -4  16   -0.69    1.32
   0   4 -16   -1.46    1.33
   0   4 -16    1.25    0.80
   0  -4  16    0.12    0.62
   0  -4  15   28.63    3.40
   0  -4  15   29.52    4.26
   0   4 -15   25.10    2.61
   0   4 -15   26.23    3.92
   0   4 -14   -1.12    0.89
   0  -4  14    0.39    0.51
   0  -4  14    1.37    1.47
   0   4 -13    0.22    0.90
   0  -4  13    1.28    0.75
   0   4 -12    2.20    1.52
   0   4 -12    6.84    2.10
   0  -4  12    3.98    1.18
   0  -4  11   23.78    2.69
   0  -4  11   28.69    2.91
   0   4 -11   24.19    3.31
   0   4 -11   19.22    4.60
   0   4 -10  218.39   15.15
   0  -4  10  314.82   11.35
   0   4 -10  285.89   12.36
   0  -4  10  287.21   10.90
   0   4  -9  180.91   12.71
   0   4  -9  193.99    9.17
   0  -4   9  225.51    8.72
   0   4  -9  203.61    9.55
   0  -4   9  200.05    8.39
   0  -4   8   52.36    3.67
   0   4  -8   49.05    4.23
   0   4  -8   46.43    2.46
   0  -4   8   46.54    3.42
   0   4  -8   51.08    4.12
   0  -4   7    9.48    1.36
   0   4  -7    7.39    1.41
   0  -4   7    6.39    1.11
   0   4  -7    8.25    0.89
   0   4  -7    6.98    1.40
   0  -4   6   52.03    3.33
   0   4  -6   51.33    3.83
   0   4  -6   50.95    3.64
   0   4  -6   45.54    2.39
   0   4  -5    8.21    0.96
   0  -4   5    9.75    1.35
   0   4  -5    8.42    0.74
   0   4  -5    9.58    1.56
   0  -4   4   26.63    2.21
   0   4  -4   28.18    1.95
   0   4  -4   26.53    2.45
   0  -4   3    0.80    0.48
   0   4  -3    1.69    0.68
   0   4  -3    1.25    0.54
   0   4  -2  116.12    5.14
   0   4  -2  109.79    4.77
   0  -4   2  119.72    3.88
   0  -4   2  114.80    4.91
   0   4  -1    9.53    1.29
   0  -4   1    8.90    1.18
   0  -4   1    9.77    1.30
   0   4  -1    8.21    1.02
   0   4   0  194.74    6.85
   0   4   0  190.57    7.00
   0  -4   0  189.12    5.71
   0  -4   0  175.09    6.50
   0  -4   0  185.86    8.24
   0   4   1   95.14    4.43
   0  -4  -1   93.12    3.18
   0  -4  -1   85.98    3.97
   0   4   1   94.48    4.30
   0  -4  -1   95.98    6.56
   0   4   2  257.03    8.68
   0  -4  -2  235.05    7.76
   0   4   2  248.37    8.25
   0  -4  -2  221.49   12.21
   0  -4  -2  233.11    6.72
   0   4   2  253.52    8.44
   0   4   3  213.98    8.01
   0  -4  -3  182.05   11.74
   0   4   3  209.29    7.52
   0   4   3  220.40    7.77
   0  -4  -3  199.99    6.89
   0  -4  -4   73.13    7.29
   0   4   4   55.67    2.25
   0  -4  -4   55.37    6.48
   0   4   4   63.05    3.81
   0   4   4   66.03    3.51
   0  -4  -4   59.19    2.80
   0   4   4   60.49    3.43
   0   4   5    7.22    1.22
   0   4   5    7.23    0.69
   0   4   5    6.92    1.22
   0  -4  -5    7.56    2.98
   0   4   5    7.10    1.35
   0  -4  -5    6.94    0.94
   0   4   5    8.23    0.65
   0   4   6   12.74    1.73
   0   4   6   13.36    1.67
   0  -4  -6   10.26    2.34
   0  -4  -6   10.73    1.14
   0  -4  -6   15.49    3.26
   0   4   6    9.97    0.62
   0   4   6   12.88    1.68
   0  -4  -7   27.25    4.50
   0  -4  -7   17.86    4.18
   0   4   7   20.46    2.22
   0  -4  -7   18.95    1.48
   0   4   7   19.84    2.18
   0   4   7   18.60    2.15
   0  -4  -8   89.40    9.90
   0   4   8   87.59    5.07
   0  -4  -8   74.15    3.29
   0  -4  -8  102.28    9.08
   0   4   8   77.22    4.76
   0   4   8   86.81    4.94
   0   4   9  347.37   12.66
   0  -4  -9  336.61   21.00
   0   4   9  350.20   12.87
   0   4   9  341.30   12.55
   0  -4  -9  368.22   12.18
   0  -4  -9  396.37   20.18
   0  -4 -10   44.30    3.44
   0  -4 -10   39.83    6.04
   0   4  10   39.96    3.57
   0   4  10   40.00    3.64
   0  -4 -10   33.58    6.56
   0   4  10   36.41    3.37
   0  -4 -11    0.48    1.78
   0   4  11   -0.28    0.61
   0   4  11    0.29    0.49
   0   4  11    1.25    0.81
   0  -4 -11    0.92    0.64
   0   4  12    5.99    1.44
   0   4  12    7.49    1.59
   0  -4 -12    3.39    2.38
   0  -4 -12    7.47    1.58
   0   4  12    7.17    1.76
   0  -4 -12   -0.54    2.42
   0   4  13    1.52    1.06
   0   4  13    0.61    0.64
   0   4  13   -0.80    0.65
   0  -4 -13    0.60    0.60
   0  -4 -13    3.09    4.17
   0  -4 -13    0.39    2.50
   0  -4 -14    8.68    1.77
   0   4  14   12.64    2.35
   0   4  14   12.49    2.29
   0  -4 -14    5.76    2.47
   0   4  14    9.45    2.13
   0  -4 -14   15.64    5.71
   0  -4 -15   10.79    5.15
   0   4  15    4.79    1.57
   0  -4 -15    6.65    1.91
   0   4  15    5.21    1.62
   0  -4 -15    5.81    2.62
   0  -4 -16   29.18    7.33
   0   4  16   31.97    4.00
   0   4  16   31.83    4.06
   0  -4 -16   29.11    6.99
   0  -4 -16   34.57    3.88
   0   4  17   22.47    3.65
   0  -4 -17   21.90    6.46
   0   4  17   20.67    3.28
   0  -4 -17   23.51    3.26
   0  -4 -17   22.91    6.37
   0  -4 -18    0.22    1.62
   0   4  18   -0.63    1.03
   0  -5  18    0.79    0.74
   0   5 -18   -1.76    1.40
   0  -5  18   -1.26    0.69
   0   5 -17   20.43    3.74
   0  -5  17   21.69    4.05
   0  -5  17   22.21    3.27
   0  -5  16    0.48    0.66
   0   5 -16    1.28    1.27
   0  -5  16   -0.57    0.93
   0   5 -16    2.52    1.13
   0   5 -15   38.76    4.96
   0  -5  15   40.40    4.14
   0  -5  14    0.38    0.56
   0   5 -14    3.80    1.66
   0  -5  13    1.19    0.63
   0  -5  13    1.40    0.77
   0   5 -13    0.13    0.66
   0   5 -12   71.11    6.18
   0  -5  12   76.59    5.33
   0  -5  12   91.58    6.07
   0   5 -11   17.33    2.99
   0  -5  11   14.82    2.20
   0  -5  11   17.75    2.40
   0  -5  10    1.62    0.87
   0   5 -10    2.38    0.97
   0   5 -10    0.77    1.75
   0   5 -10    2.05    1.19
   0  -5  10    1.64    0.90
   0   5  -9    0.42    0.24
   0   5  -9   -1.04    0.84
   0   5  -9   -0.69    1.07
   0  -5   9    0.61    0.54
   0  -5   9   -0.50    0.44
   0  -5   8    0.27    0.46
   0   5  -8   -1.01    0.85
   0   5  -8    0.89    0.96
   0  -5   8    0.64    0.46
   0   5  -8   -0.02    0.30
   0   5  -7    8.21    1.59
   0   5  -7    6.62    0.93
   0  -5   7    6.59    1.29
   0   5  -7    5.34    1.36
   0  -5   6    0.55    0.41
   0   5  -6    0.21    0.30
   0   5  -6    0.26    0.79
   0   5  -5    4.72    0.86
   0  -5   5    5.21    1.10
   0   5  -5    6.86    1.39
   0  -5   4   21.06    2.08
   0   5  -4   17.31    1.73
   0   5  -4   16.84    2.05
   0  -5   3    4.98    1.03
   0   5  -3    4.25    0.92
   0   5  -3    4.28    0.98
   0  -5   3    3.60    0.41
   0   5  -2    0.17    0.65
   0  -5   2    0.39    0.18
   0  -5   2    0.64    0.46
   0   5  -2    0.84    0.61
   0   5  -1    4.75    1.02
   0  -5   1    5.30    1.00
   0  -5   1    6.04    0.81
   0  -5   1    5.61    0.97
   0   5  -1    4.01    0.81
   0  -5   0   18.66    1.41
   0   5   0   18.57    1.98
   0  -5   0   17.44    2.33
   0  -5   0   18.50    1.82
   0   5   0   18.96    1.92
   0  -5  -1    2.07    0.46
   0  -5  -1    2.71    0.70
   0   5   1    2.55    0.63
   0   5   1    3.54    0.89
   0  -5  -1    1.13    1.09
   0  -5  -2   82.23    3.13
   0   5   2   85.92    4.69
   0  -5  -2   81.38    7.06
   0  -5  -2   78.80    4.04
   0   5   2   79.79    4.35
   0  -5  -3   40.30    2.71
   0   5   3   40.15    3.03
   0   5   3   42.69    3.08
   0   5   3   40.78    3.20
   0  -5  -3   35.34    5.23
   0  -5  -4   12.66    3.20
   0   5   4   11.60    1.71
   0   5   4   11.95    1.67
   0   5   4    9.88    1.13
   0  -5  -4   11.14    1.32
   0   5   4   14.39    1.80
   0   5   5    4.89    0.96
   0   5   5    3.96    0.63
   0   5   5    6.34    1.29
   0   5   5    5.45    1.38
   0  -5  -5    5.26    0.89
   0  -5  -5    7.13    3.17
   0  -5  -6   13.30    1.39
   0   5   6   10.73    1.82
   0   5   6   15.21    1.95
   0  -5  -6   19.53    5.06
   0   5   6   13.06    1.82
   0  -5  -6    8.88    3.77
   0  -5  -6   18.47    3.86
   0  -5  -7   32.06    5.22
   0   5   7   23.99    2.58
   0   5   7   25.06    2.60
   0  -5  -7   24.56    5.40
   0  -5  -7   19.66    1.71
   0   5   7   26.53    2.73
   0  -5  -7   27.51    6.11
   0  -5  -8   57.98    8.73
   0  -5  -8   89.00    9.30
   0   5   8   75.23    4.99
   0   5   8   76.25    4.94
   0   5   8   73.16    4.82
   0  -5  -8   85.54   10.54
   0   5   9  159.58    7.88
   0  -5  -9  177.40   13.75
   0  -5  -9  163.09   14.87
   0   5   9  168.42    8.17
   0   5   9  160.27    7.88
   0  -5  -9  139.88   14.28
   0  -5 -10   10.56    3.58
   0   5  10    9.23    1.77
   0  -5 -10    9.95    2.77
   0  -5 -10    8.69    4.07
   0   5  10    8.75    1.74
   0   5  10   11.25    2.01
   0   5  11    5.04    1.38
   0  -5 -11    4.64    3.58
   0   5  11    3.30    1.25
   0   5  11    0.91    0.56
   0  -5 -11   -0.82    3.25
   0   5  12    5.80    1.47
   0  -5 -12    3.68    1.89
   0  -5 -12    7.13    4.34
   0   5  12    5.48    1.63
   0   5  12    5.16    1.41
   0  -5 -13   19.26    6.06
   0  -5 -13   20.20    5.68
   0   5  13   21.13    2.96
   0   5  13   21.39    3.15
   0   5  13   16.67    2.53
   0  -5 -14   12.20    4.97
   0   5  14    5.79    1.57
   0  -5 -14    5.87    3.90
   0   5  14    6.00    1.60
   0   5  15    2.51    1.18
   0  -5 -15    1.95    2.59
   0  -5 -15    3.17    3.36
   0   5  15    5.72    1.97
   0  -5 -16   25.02    6.87
   0   5  16   23.18    3.62
   0  -5 -16   24.43    7.60
   0   5  16   25.41    3.67
   0   5  17    1.17    0.84
   0   6 -17   21.10    2.93
   0  -6  17   27.50    3.75
   0   6 -17   24.98    4.32
   0  -6  17   28.94    4.78
   0  -6  16    7.78    2.07
   0   6 -16    7.39    1.60
   0   6 -16    8.91    2.73
   0  -6  15    0.74    1.03
   0   6 -15   -0.11    0.92
   0   6 -14    0.83    0.85
   0  -6  14   -0.56    0.50
   0  -6  13   15.73    2.50
   0   6 -13   18.41    3.31
   0  -6  13   22.63    3.27
   0   6 -12   30.48    4.23
   0  -6  12   31.23    3.52
   0  -6  12   36.32    3.98
   0  -6  11    0.17    0.42
   0   6 -11    1.23    0.72
   0   6 -11   -0.86    0.80
   0  -6  11    0.55    0.91
   0  -6  10   30.09    3.16
   0   6 -10   27.68    3.52
   0  -6  10   33.54    3.54
   0   6 -10   25.92    3.26
   0  -6   9   20.95    2.63
   0   6  -9   15.46    2.56
   0  -6   9   19.57    2.68
   0   6  -9   18.85    2.98
   0  -6   8    3.32    1.19
   0   6  -8    1.92    0.89
   0   6  -8    3.26    1.30
   0  -6   7    8.32    1.63
   0   6  -7    7.42    1.77
   0   6  -7    8.25    1.73
   0   6  -7    6.58    1.01
   0   6  -6   10.95    1.40
   0  -6   6   11.68    1.91
   0   6  -6   11.54    2.03
   0  -6   5    2.30    0.85
   0   6  -5    1.82    0.86
   0   6  -5    0.93    0.52
   0  -6   4    3.44    1.04
   0   6  -4    1.57    0.58
   0   6  -4    3.42    0.95
   0  -6   3  178.43    5.29
   0   6  -3  203.87    8.42
   0  -6   3  198.01    8.02
   0   6  -3  185.90    7.63
   0   6  -2   85.24    4.98
   0  -6   2   86.54    3.74
   0  -6   2   87.97    4.91
   0  -6   2   90.14    4.10
   0   6  -2   86.87    4.92
   0   6  -1   19.56    2.21
   0  -6   1   22.52    2.31
   0   6  -1   23.17    2.46
   0   6  -1   24.83    2.40
   0  -6   1   21.56    1.73
   0  -6   1   26.13    2.37
   0   6   0  174.54    7.61
   0  -6   0  169.63    5.85
   0  -6   0  165.66    7.09
   0  -6   0  168.99    8.22
   0   6   0  175.41    7.35
   0  -6  -1   64.70    3.97
   0   6   1   69.80    4.41
   0   6   1   66.49    4.21
   0  -6  -1   67.47    5.60
   0  -6  -1   68.54    3.02
   0  -6  -2   23.05    3.84
   0   6   2   22.87    2.44
   0  -6  -2   21.13    2.14
   0   6   2   24.40    2.51
   0  -6  -3   45.33    5.88
   0  -6  -3   48.99    3.29
   0   6   3   59.40    3.92
   0   6   3   54.38    4.00
   0  -6  -4   18.51    4.11
   0   6   4   18.74    2.32
   0  -6  -4   18.35    1.89
   0   6   4   21.28    2.47
   0   6   4   17.13    1.59
   0   6   5    0.60    0.76
   0  -6  -5   -0.61    1.85
   0   6   5   -0.55    0.66
   0  -6  -5    0.35    0.35
   0   6   5   -0.01    0.60
   0   6   6    8.09    1.62
   0  -6  -6    8.92    3.89
   0  -6  -6    6.58    1.07
   0  -6  -6   14.47    3.99
   0   6   6    8.44    1.61
   0   6   6    6.35    1.44
   0  -6  -7   57.62    7.57
   0   6   7   44.35    3.81
   0   6   7   43.16    3.74
   0  -6  -7   50.08    8.06
   0   6   7   43.20    4.14
   0   6   8    9.56    1.93
   0  -6  -8   10.83    4.54
   0  -6  -8    8.00    3.25
   0   6   8   11.53    2.16
   0   6   8    7.84    1.55
   0   6   9   19.45    2.94
   0  -6  -9   22.01    5.17
   0   6   9   17.57    2.41
   0  -6  -9   16.61    5.54
   0   6   9   17.37    2.43
   0  -6 -10    4.92    4.23
   0   6  10    0.99    0.72
   0  -6 -10    1.81    2.57
   0   6  10    1.25    0.97
   0   6  11    1.22    0.90
   0   6  11    0.33    0.67
   0  -6 -12    1.68    2.23
   0   6  12    4.88    1.50
   0   6  12    4.64    1.60
   0   6  12    4.52    1.51
   0   6  13    0.67    0.67
   0   6  13    2.22    1.32
   0  -6 -13   -2.16    3.86
   0   6  14    0.94    0.90
   0  -6 -14   -0.37    2.96
   0   6  14    0.91    0.85
   0  -6 -15    2.74    3.69
   0   6  15    0.80    0.59
   0   6  15    2.46    1.16
   0   7 -17    2.73    1.13
   0  -7  17    3.03    1.03
   0   7 -16    0.67    1.27
   0  -7  16    0.30    0.58
   0   7 -16   -0.09    0.66
   0  -7  15    4.09    1.47
   0   7 -15    2.62    1.12
   0   7 -15    4.99    2.00
   0   7 -14    8.26    2.30
   0  -7  14    8.99    2.17
   0  -7  14    6.53    1.98
   0  -7  13   11.59    2.15
   0  -7  13   11.21    2.36
   0   7 -13    7.73    2.37
   0  -7  12   30.06    3.82
   0   7 -12   24.39    3.78
   0  -7  12   27.01    3.34
   0  -7  11    2.43    0.99
   0   7 -11    4.91    1.77
   0   7 -11    2.61    1.47
   0  -7  11    5.17    1.65
   0  -7  10   15.54    2.29
   0   7 -10   13.06    2.67
   0   7 -10   12.42    2.43
   0  -7  10   17.75    2.60
   0  -7   9    5.18    1.37
   0   7  -9    3.63    1.19
   0  -7   9    3.26    1.02
   0   7  -9    4.66    1.59
   0   7  -8    0.82    0.78
   0   7  -8    1.90    0.90
   0  -7   8    5.26    1.53
   0   7  -7   53.17    4.64
   0  -7   7   56.12    4.56
   0  -7   6    3.10    1.07
   0   7  -6    2.30    0.71
   0   7  -6    3.84    1.13
   0  -7   5    5.23    1.45
   0   7  -5    2.88    1.21
   0   7  -5    5.80    1.26
   0   7  -4   26.95    2.59
   0  -7   4   26.84    2.90
   0   7  -4   24.61    2.89
   0  -7   3  208.48    8.86
   0  -7   3  195.08    7.42
   0   7  -3  180.69    8.70
   0   7  -3  189.28    8.31
   0  -7   2   24.15    2.13
   0  -7   2   27.67    2.84
   0   7  -2   24.52    2.77
   0   7  -2   24.83    2.78
   0   7  -1   43.69    3.65
   0  -7   1   42.22    3.49
   0   7  -1   43.90    3.74
   0  -7   1   47.17    2.87
   0  -7   0  145.67    6.99
   0   7   0  149.20    7.17
   0  -7   0  141.60    7.53
   0   7   0  147.18    7.37
   0  -7  -1   72.23    5.87
   0  -7  -1   74.40    4.62
   0   7   1   75.11    4.85
   0   7   1   75.74    5.04
   0  -7  -2   22.47    3.63
   0   7   2   22.33    2.55
   0  -7  -2   21.02    2.31
   0   7   2   23.30    2.69
   0  -7  -3   72.39    7.33
   0   7   3   72.97    4.94
   0   7   3   62.65    3.70
   0   7   3   75.17    4.92
   0  -7  -3   68.35    4.32
   0  -7  -4   56.76    7.03
   0   7   4   64.64    4.83
   0   7   4   70.88    4.87
   0  -7  -4   60.93    3.99
   0   7   5   38.86    3.78
   0  -7  -5   36.26    2.94
   0  -7  -5   36.16    6.06
   0   7   5   36.49    3.53
   0   7   6    4.69    1.37
   0   7   6    4.45    1.37
   0  -7  -6    2.93    2.42
   0  -7  -6    9.29    3.13
   0   7   7    1.01    0.53
   0  -7  -7    3.51    2.99
   0   7   7    1.29    0.72
   0  -7  -7    1.80    2.18
   0   7   7    3.36    1.12
   0  -7  -8    7.19    2.78
   0   7   8    6.26    1.75
   0   7   8    5.47    1.71
   0  -7  -8   10.48    4.31
   0   7   8    7.56    1.82
   0  -7  -9   28.05    6.48
   0  -7  -9   28.54    6.96
   0   7   9   19.79    3.09
   0   7   9   26.31    3.28
   0   7   9   23.14    3.00
   0   7  10    1.48    1.20
   0  -7 -10    0.57    1.93
   0   7  10   -0.35    0.75
   0   7  10   -0.04    0.66
   0  -7 -11    5.26    3.17
   0   7  11    8.78    2.35
   0   7  11    9.07    2.05
   0  -7 -12    5.13    2.78
   0   7  12    3.90    1.52
   0  -7 -13   -1.13    3.00
   0   7  13    0.96    1.07
   0   7  14    0.52    0.62
   0  -8  15   27.30    3.71
   0   8 -15   22.41    3.14
   0   8 -15   29.27    4.87
   0  -8  14    7.43    2.23
   0   8 -14    5.04    1.97
   0  -8  14    4.05    1.36
   0  -8  13   15.47    2.97
   0   8 -13   14.95    3.31
   0  -8  13   17.07    2.91
   0  -8  12    7.18    2.06
   0  -8  12    5.06    1.58
   0   8 -12    7.68    2.32
   0   8 -12    4.42    1.74
   0  -8  11    1.62    0.71
   0   8 -11    3.49    1.32
   0  -8  11    2.19    1.13
   0   8 -11    1.95    1.44
   0   8 -10   -0.05    0.98
   0  -8  10    0.89    0.73
   0  -8  10    0.64    0.80
   0   8 -10   -1.60    1.59
   0  -8   9    1.09    0.78
   0   8  -9    1.58    1.33
   0  -8   9    0.09    0.51
   0   8  -9   -1.09    1.07
   0  -8   8    2.79    1.43
   0   8  -8    4.43    1.87
   0   8  -8    2.64    1.18
   0   8  -7    5.34    1.80
   0  -8   7    4.56    1.53
   0  -8   6   15.09    2.36
   0   8  -6   15.61    2.46
   0   8  -5   40.96    3.49
   0   8  -5   47.96    4.39
   0  -8   5   50.86    4.46
   0  -8   5   42.71    3.41
   0  -8   4    0.78    0.48
   0  -8   4    1.13    0.83
   0   8  -4    0.61    0.47
   0   8  -4    1.18    0.90
   0   8  -3    6.36    1.42
   0   8  -3    6.43    1.54
   0  -8   3    8.50    1.71
   0   8  -2    0.46    0.57
   0   8  -2    2.06    0.93
   0  -8   2    0.92    0.75
   0   8  -1   -0.14    0.63
   0   8  -1    0.01    0.65
   0  -8   1    0.18    0.42
   0   8   0    2.99    1.14
   0   8   0    2.82    1.18
   0  -8   0    2.09    0.89
   0   8   1    1.45    0.98
   0  -8  -1    0.31    0.53
   0   8   1    0.09    0.66
   0  -8  -2    4.92    1.18
   0   8   2    4.64    1.04
   0   8   2    5.47    1.35
   0   8   2    5.64    1.48
   0   8   3    0.12    0.48
   0  -8  -3    0.47    0.47
   0  -8  -3    0.55    1.38
   0   8   3    0.43    0.69
   0  -8  -4   18.66    2.26
   0   8   4   27.58    3.07
   0  -8  -4   16.10    3.46
   0   8   4   22.19    2.98
   0  -8  -5    3.23    1.85
   0   8   5    3.71    1.25
   0   8   5    2.67    1.24
   0   8   6    7.66    1.68
   0   8   6    8.12    1.87
   0  -8  -6    6.59    4.26
   0  -8  -6    8.25    3.19
   0   8   7    6.31    1.64
   0   8   7    5.27    1.51
   0  -8  -7    6.71    3.17
   0  -8  -7    3.00    2.37
   0   8   8   17.08    2.92
   0  -8  -8   12.69    4.28
   0   8   8   17.25    2.83
   0  -8  -8   19.88    5.63
   0   8   9   16.12    2.71
   0  -8  -9   11.17    3.32
   0  -8  -9   17.30    4.99
   0   8  10    4.31    1.37
   0  -8 -10    2.92    2.34
   0   8  11    9.63    2.11
   0  -8 -11    7.21    2.75
   0   8  12   43.44    4.88
   0  -8 -12   47.68    9.49
   0  -9  14    4.36    1.50
   0   9 -13    0.19    1.27
   0   9 -13    1.26    1.16
   0  -9  13    0.04    0.60
   0  -9  13   -1.39    1.16
   0   9 -12    2.20    1.32
   0  -9  12    2.68    1.73
   0  -9  12    0.77    0.83
   0   9 -12    1.41    1.67
   0  -9  11    8.53    2.02
   0   9 -11    5.08    1.70
   0   9 -11    8.88    2.49
   0  -9  11   10.26    2.66
   0   9 -10    0.88    0.89
   0  -9  10   -0.21    0.76
   0   9 -10   -1.03    1.27
   0  -9  10   -0.09    0.52
   0  -9   9    1.76    1.15
   0   9  -9    2.20    1.07
   0   9  -9    1.88    1.06
   0   9  -8   21.03    3.62
   0  -9   8   26.09    3.59
   0   9  -8   19.77    3.15
   0  -9   7    0.73    0.83
   0   9  -7    0.85    0.90
   0  -9   7    1.48    0.91
   0  -9   6    1.52    0.87
   0   9  -6    3.23    1.55
   0   9  -5    1.24    0.90
   0  -9   5    2.52    1.31
   0  -9   4    4.08    1.54
   0   9  -4    4.14    1.22
   0   9  -3   -0.99    1.00
   0  -9   3   -0.39    0.63
   0   9  -3    0.55    0.52
   0   9  -2   17.57    2.75
   0  -9   2   19.18    2.79
   0   9  -2   14.94    2.54
   0  -9   1    0.86    0.58
   0   9  -1    0.78    0.68
   0   9  -1    0.91    0.73
   0   9   0   23.61    3.09
   0  -9   0   21.28    2.90
   0   9   0   19.73    3.10
   0   9   0   21.51    2.51
   0  -9  -1    0.35    0.66
   0   9   1    0.21    0.39
   0   9   1    1.71    1.30
   0   9   1   -0.19    0.71
   0   9   2    0.23    0.66
   0  -9  -2   -0.89    0.80
   0   9   2   -2.00    1.34
   0   9   2   -0.12    0.71
   0   9   3    5.14    1.63
   0  -9  -3    3.57    1.12
   0   9   3    3.65    1.33
   0   9   4    3.08    1.35
   0   9   4    3.44    1.23
   0   9   5   12.45    2.32
   0   9   5   15.32    2.59
   0  -9  -5   17.48    5.54
   0   9   6    0.96    0.88
   0  -9  -6   -2.71    2.35
   0   9   7    2.70    1.29
   0  -9  -7    4.49    3.35
   0  -9  -8   -2.56    3.59
   0   9   8    1.93    1.05
   0  -9  -9    9.86    4.24
   0   9   9    5.96    1.94
   0  -9 -10    6.87    3.00
   0  -9 -11   13.66    4.51
   0 -10  12    6.98    1.86
   0 -10  12    7.64    2.27
   0 -10  11    0.33    0.47
   0  10 -11   -0.59    0.79
   0 -10  10   10.67    2.65
   0 -10  10    8.00    1.96
   0  10 -10    9.36    2.72
   0  10 -10    9.06    2.50
   0  10 -10    5.82    1.73
   0 -10   9   86.42    7.37
   0  10  -9   57.35    5.99
   0  10  -9   63.41    6.83
   0 -10   8   19.29    3.41
   0  10  -8   13.95    3.03
   0  10  -8   10.27    2.43
   0  10  -7    3.13    1.46
   0 -10   7    2.28    1.25
   0 -10   6    6.36    1.86
   0  10  -6    4.73    1.93
   0  10  -5    0.69    1.03
   0 -10   5   -0.35    0.79
   0  10  -4    0.35    0.82
   0 -10   4    3.90    1.65
   0 -10   3    2.02    1.08
   0  10  -3    0.41    0.56
   0  10  -3    1.03    0.75
   0  10  -2   18.61    2.95
   0 -10   2   20.78    3.13
   0  10  -2   15.04    2.36
   0  10  -1   18.23    2.99
   0  10  -1   15.33    2.26
   0  10  -1   18.87    3.02
   0 -10   1   23.24    3.33
   0  10   0    2.85    1.44
   0 -10   0    1.97    1.16
   0  10   0    2.28    1.18
   0  10   1    0.90    0.87
   0  10   1   -0.83    0.82
   0 -10  -1    0.59    0.60
   0 -10  -2   -0.36    0.73
   0  10   2    0.55    0.83
   0  10   3    9.12    2.40
   0  10   3   15.21    2.70
   0  10   4    4.31    1.61
   0 -10  -4    4.52    2.75
   0  10   4    3.84    1.32
   0  10   5    5.16    1.54
   0 -10  -5   11.49    4.97
   0  10   6   38.22    4.56
   0 -10  -6   38.07    8.87
   0 -10  -7    5.75    4.79
   0 -10  -8    0.30    2.12
   0  11  -8    1.00    0.83
   0  11  -7   -0.37    1.19
   0  11  -7   -0.11    0.51
   0  11  -6   -0.15    0.57
   0 -11   6   -0.30    1.08
   0  11  -6   -0.77    0.87
   0  11  -5    1.05    0.76
   0  11  -5   -0.12    0.66
   0 -11   5   -0.83    0.97
   0  11  -4    1.31    0.64
   0  11  -4    0.98    0.71
   0 -11   4   -0.76    1.12
   0 -11   3    2.86    1.46
   0  11  -3   -0.26    0.81
   0  11  -3    1.78    1.02
   0  11  -2   -0.15    0.53
   0 -11   2    0.46    0.70
   0 -11   1    1.35    1.10
   0 -11   0   11.67    2.41
   0  11   1    1.86    1.19
   0 -11  -1    1.21    0.85
   0  11   2    0.67    0.87
   0  11   3    0.94    1.48
  -1  12  -3    2.39    1.14
   1 -11  -6    2.20    2.87
  -1  11   4    1.33    1.35
  -1  11   3   12.38    2.88
   1 -11  -2    1.19    0.80
  -1  11   2    0.81    0.98
   1 -11  -1    0.70    0.77
  -1  11   1    1.09    0.84
  -1  11   0    1.38    0.95
   1 -11   0    3.92    1.38
  -1  11  -1    1.48    1.19
   1 -11   1    1.63    1.16
  -1  11  -1    1.08    0.66
  -1  11  -2   -0.52    0.66
   1 -11   2   -0.29    0.74
  -1  11  -3    1.07    0.70
   1 -11   3    2.22    1.24
   1 -11   4   -0.81    1.28
  -1  11  -4    1.05    1.19
   1 -11   5    2.94    1.47
  -1  11  -5    1.81    1.17
   1 -11   6    4.52    1.78
  -1  11  -6    0.50    0.57
  -1  11  -7    3.91    1.63
  -1  11  -7    3.79    1.36
   1 -11   7    7.29    2.21
  -1  11  -7    4.21    1.28
  -1  11  -8   12.71    2.81
  -1  11  -9    4.46    1.58
  -1  11 -10   26.29    4.10
  -1  10   8   11.06    2.95
  -1  10   8    7.47    1.97
  -1  10   7   41.26    5.50
   1 -10  -7   57.89    9.89
  -1  10   7   46.26    4.86
  -1  10   6    0.73    0.55
  -1  10   6   -0.85    0.95
  -1  10   5   10.77    2.88
  -1  10   5    8.83    2.02
   1 -10  -4    4.34    1.32
  -1  10   4    6.82    1.79
  -1  10   4    5.91    1.87
   1 -10  -3    1.67    0.96
  -1  10   3    2.42    0.90
   1 -10  -2   13.12    2.34
  -1  10   2   13.96    2.81
   1 -10  -1    8.09    1.87
  -1  10   1    9.63    2.26
  -1  10   0    7.76    2.05
  -1  10   0    5.54    1.36
   1 -10   0    8.12    1.89
   1 -10   1    4.16    1.39
  -1  10  -1    5.76    1.53
  -1  10  -1    3.89    1.15
  -1  10  -2    2.31    0.78
   1 -10   2    3.41    1.32
  -1  10  -2    1.36    0.84
  -1  10  -2    1.82    0.66
   1 -10   3   86.44    6.41
  -1  10  -3   66.52    5.46
  -1  10  -3   61.63    5.00
  -1  10  -3   60.26    5.21
   1 -10   4    0.69    1.02
  -1  10  -4    0.04    0.62
  -1  10  -4   -0.46    0.81
  -1  10  -5   -0.01    0.67
  -1  10  -5   -0.61    1.13
   1 -10   5    0.59    0.60
  -1  10  -6    2.78    1.13
  -1  10  -6    4.01    1.44
   1 -10   6    6.09    1.83
  -1  10  -7   28.34    3.51
   1 -10   7   44.39    4.86
  -1  10  -7   34.23    4.18
  -1  10  -7   34.00    4.71
  -1  10  -8    6.96    1.82
  -1  10  -8   10.06    2.64
   1 -10   8   11.73    2.53
  -1  10  -8    7.50    2.24
   1 -10   9   -0.55    1.12
  -1  10  -9    0.02    0.88
  -1  10  -9   -0.31    0.81
  -1  10  -9   -0.06    0.60
  -1  10 -10   14.30    3.17
  -1  10 -10   13.30    2.82
   1 -10  10   15.93    3.14
   1 -10  10   15.19    2.87
  -1  10 -10   13.13    2.42
  -1  10 -11   -0.03    1.13
   1 -10  11    1.52    0.93
   1 -10  11    1.57    1.30
  -1  10 -11    0.29    0.58
   1  -9 -12   35.60    8.32
   1  -9 -11    5.66    3.69
  -1   9  11    7.19    1.99
   1  -9 -10    2.64    1.80
  -1   9  10    4.76    1.61
   1  -9  -9   20.68    5.87
  -1   9   9   22.43    3.32
   1  -9  -8    5.10    2.98
   1  -9  -8   -1.84    3.40
  -1   9   8    0.36    0.70
  -1   9   7    0.34    0.56
  -1   9   6   -0.37    0.47
  -1   9   5    4.95    1.42
  -1   9   5    2.77    1.35
   1  -9  -5    6.01    1.49
  -1   9   4   40.04    4.06
   1  -9  -4   36.48    3.61
  -1   9   4   33.71    4.31
  -1   9   3    0.82    0.99
  -1   9   3   -1.38    1.28
   1  -9  -3    0.23    0.64
  -1   9   2    6.76    1.36
  -1   9   2    6.82    1.62
   1  -9  -2    5.55    1.56
  -1   9   2   10.05    2.18
  -1   9   1   -0.04    0.64
   1  -9  -1    0.36    0.44
  -1   9   1    0.50    0.73
  -1   9   1    0.06    0.47
  -1   9   0    0.30    0.60
   1  -9   0    0.92    0.64
  -1   9   0    1.47    0.93
  -1   9   0    0.27    0.41
  -1   9  -1   17.25    2.27
  -1   9  -1   21.12    2.99
  -1   9  -1   17.61    2.52
   1  -9   1   17.43    2.62
  -1   9  -2    2.49    0.84
  -1   9  -2    2.24    0.88
  -1   9  -2    3.61    1.05
   1  -9   2    2.79    0.92
  -1   9  -3   -0.04    0.53
  -1   9  -3   -0.87    0.94
  -1   9  -3    0.23    0.71
   1  -9   3   -0.12    0.50
  -1   9  -4    7.10    1.59
   1  -9   4   10.62    2.13
  -1   9  -4    8.33    1.94
  -1   9  -4    5.09    1.27
  -1   9  -5    0.83    0.85
  -1   9  -5    0.31    0.37
  -1   9  -5    0.04    0.67
   1  -9   5    0.37    0.62
  -1   9  -6    2.39    0.96
   1  -9   6    4.99    1.51
  -1   9  -6    4.60    1.48
  -1   9  -7   36.63    4.51
   1  -9   7   40.94    4.37
  -1   9  -7   33.89    3.62
  -1   9  -7   38.51    4.17
   1  -9   8   11.45    2.35
  -1   9  -8   11.75    2.67
  -1   9  -8   10.04    1.96
  -1   9  -8    8.55    2.08
  -1   9  -9   -0.37    1.00
  -1   9  -9   -1.31    0.71
  -1   9  -9    0.05    0.98
   1  -9   9   -0.32    0.57
   1  -9  10    0.86    0.74
   1  -9  10    1.31    1.03
  -1   9 -10    0.22    0.68
  -1   9 -10    0.77    0.57
  -1   9 -10    0.39    0.50
   1  -9  11    2.72    1.30
   1  -9  11    1.08    0.81
  -1   9 -11    1.25    0.46
  -1   9 -11    1.66    1.41
  -1   9 -12    4.67    1.95
   1  -9  12    3.23    1.22
  -1   9 -12    3.97    1.42
   1  -9  12    4.63    1.55
   1  -9  13   11.15    2.52
  -1   9 -13    7.66    2.42
  -1   9 -13    7.83    1.82
   1  -9  13   10.77    2.32
   1  -9  14  105.57    8.59
  -1   8  13    1.59    1.19
   1  -8 -13   -6.01    3.22
  -1   8  12    5.84    1.76
  -1   8  12    8.23    2.04
   1  -8 -12   10.07    5.09
   1  -8 -11   24.49    6.53
  -1   8  11   34.66    4.17
  -1   8  11   33.58    3.94
  -1   8  10   11.32    2.40
  -1   8  10    6.88    1.76
   1  -8 -10    9.57    3.05
  -1   8   9    1.26    0.87
  -1   8   9    2.13    0.89
   1  -8  -9    2.82    3.49
   1  -8  -9    3.44    2.30
  -1   8   8    1.30    0.73
   1  -8  -8    1.32    1.48
  -1   8   8    1.50    0.87
  -1   8   7    1.39    0.84
  -1   8   7    0.05    0.56
   1  -8  -7   -0.62    1.96
   1  -8  -6    0.42    2.06
  -1   8   6   -0.19    0.55
   1  -8  -6    0.09    0.39
   1  -8  -5   13.33    3.79
  -1   8   5   13.15    2.03
   1  -8  -5    9.50    1.64
  -1   8   5   11.37    1.94
   1  -8  -4    0.51    0.53
  -1   8   4   -0.07    0.61
  -1   8   4   -0.04    0.43
   1  -8  -3   10.95    1.84
   1  -8  -3   10.96    3.32
  -1   8   3   10.79    1.77
  -1   8   3    9.84    1.51
  -1   8   3   11.46    1.99
  -1   8   3    7.49    2.01
  -1   8   2   15.79    2.18
  -1   8   2   17.06    2.25
   1  -8  -2   16.30    2.19
  -1   8   2   15.25    2.57
  -1   8   2   12.72    1.68
   1  -8  -1    7.06    1.52
  -1   8   1    6.58    1.37
  -1   8   1    7.05    1.42
  -1   8   1    7.03    1.80
  -1   8   0   -0.80    0.62
  -1   8   0   -0.63    0.84
   1  -8   0    0.66    0.55
  -1   8   0    0.07    0.50
   1  -8   1    1.45    0.62
  -1   8  -1    1.49    0.79
  -1   8  -1    1.94    1.19
  -1   8  -1    1.32    0.78
   1  -8   2   12.93    2.14
  -1   8  -2   10.87    1.92
  -1   8  -2    8.86    1.64
  -1   8  -2    9.75    1.75
  -1   8  -3    2.63    0.88
  -1   8  -3    5.14    1.25
  -1   8  -3    4.57    1.04
   1  -8   3    4.68    1.39
  -1   8  -4   36.67    3.34
   1  -8   4   36.77    3.59
  -1   8  -4   30.38    3.26
  -1   8  -4   31.95    3.13
   1  -8   5   19.93    2.73
  -1   8  -5   17.47    2.24
  -1   8  -5   18.18    2.54
  -1   8  -6    5.83    1.24
  -1   8  -6    7.24    1.68
   1  -8   6    7.04    1.67
  -1   8  -7    1.07    0.90
  -1   8  -7    0.32    0.85
   1  -8   7    3.18    1.18
  -1   8  -8    1.00    0.62
   1  -8   8    1.92    1.04
  -1   8  -8    3.88    1.47
  -1   8  -8    1.89    1.15
   1  -8   9    2.04    0.51
   1  -8   9    2.33    1.29
  -1   8  -9    2.25    0.89
  -1   8  -9    0.87    0.77
  -1   8  -9    2.72    1.24
   1  -8  10    1.30    1.02
   1  -8  10    1.05    0.84
  -1   8 -10   -1.24    1.11
  -1   8 -10    1.61    0.78
  -1   8 -10    0.54    0.86
  -1   8 -11   -0.38    0.86
   1  -8  11    2.63    1.41
  -1   8 -11    2.65    1.80
   1  -8  11    1.38    0.77
   1  -8  12   19.61    3.02
  -1   8 -12   20.41    3.66
  -1   8 -12   11.68    2.12
   1  -8  12   22.29    3.35
   1  -8  13   33.10    4.02
   1  -8  13   34.53    4.24
  -1   8 -13   28.58    4.33
  -1   8 -13   25.06    3.22
  -1   8 -14   20.98    4.03
   1  -8  14   25.69    3.92
   1  -8  14   17.28    2.98
  -1   8 -14   16.58    2.70
  -1   8 -15    1.71    1.42
  -1   8 -15   -0.91    0.95
   1  -8  15   -0.67    1.26
   1  -8  15   -0.49    0.62
  -1   7  15    2.67    1.36
   1  -7 -14    1.68    4.35
  -1   7  14    0.19    0.94
   1  -7 -14    1.21    2.41
   1  -7 -13    7.70    3.39
   1  -7 -13    1.84    2.96
  -1   7  13    2.29    1.03
  -1   7  13    3.33    1.20
   1  -7 -12   28.76    7.26
  -1   7  12   26.55    3.33
  -1   7  12   23.12    3.35
   1  -7 -12   22.84    6.79
   1  -7 -11    6.07    3.76
  -1   7  11    1.56    0.91
  -1   7  11    2.57    1.08
   1  -7 -11    4.73    5.12
  -1   7  10   -0.78    0.85
   1  -7 -10    0.52    1.86
  -1   7  10    0.57    0.87
   1  -7 -10   -1.66    3.56
   1  -7  -9    2.27    1.63
  -1   7   9    1.33    1.03
   1  -7  -9    0.37    2.52
  -1   7   9    0.69    0.77
   1  -7  -9    2.37    2.18
  -1   7   8    1.02    0.79
  -1   7   8    0.25    0.48
   1  -7  -8   -1.56    2.38
  -1   7   8    0.22    0.87
  -1   7   7   12.65    2.03
   1  -7  -7    9.30    3.81
  -1   7   7   13.30    2.16
   1  -7  -7   12.75    1.73
  -1   7   7   12.37    2.18
  -1   7   6    0.27    0.91
   1  -7  -6   -1.90    3.20
  -1   7   6    0.16    0.67
   1  -7  -6    0.40    0.44
  -1   7   6   -0.35    0.68
   1  -7  -5   14.43    3.72
  -1   7   5   15.96    2.12
  -1   7   5   16.78    2.20
  -1   7   5   14.42    2.31
   1  -7  -5   14.49    1.94
   1  -7  -4   -1.84    2.26
  -1   7   4    0.71    0.64
  -1   7   4    0.09    0.35
  -1   7   4    0.62    0.63
   1  -7  -4    1.26    0.71
  -1   7   3   15.40    1.99
   1  -7  -3   14.69    2.02
   1  -7  -3   12.59    3.10
  -1   7   3   14.28    1.61
  -1   7   3   15.51    2.06
  -1   7   2    1.12    0.75
  -1   7   2   -0.26    0.39
  -1   7   2    0.08    0.36
   1  -7  -2   -0.29    0.62
   1  -7  -2    1.24    1.66
  -1   7   2    0.26    0.74
   1  -7  -1   31.76    4.15
   1  -7  -1   36.50    3.15
  -1   7   1   27.71    3.06
  -1   7   1   32.81    3.01
  -1   7   1   28.26    2.45
  -1   7   1   32.38    2.90
  -1   7   0  222.69    9.02
  -1   7   0  241.47    8.74
   1  -7   0  209.93    9.92
   1  -7   0  242.49    9.52
  -1   7   0  220.24    9.80
   1  -7   1   69.65    4.56
  -1   7  -1   67.09    4.59
  -1   7  -1   54.51    3.70
  -1   7  -1   61.82    4.12
  -1   7  -2   94.93    5.58
  -1   7  -2   92.24    5.29
   1  -7   2  100.26    5.68
  -1   7  -3   56.97    4.10
  -1   7  -3   58.07    4.15
   1  -7   3   66.16    4.48
  -1   7  -4   24.49    2.51
   1  -7   4   24.78    2.78
  -1   7  -4   24.64    2.68
  -1   7  -5   11.96    2.02
  -1   7  -5   15.33    1.91
   1  -7   5   16.80    2.24
  -1   7  -6   29.78    2.67
  -1   7  -6   30.13    3.29
   1  -7   6   39.02    3.53
  -1   7  -7   10.39    2.12
   1  -7   7   12.65    2.06
  -1   7  -7   10.41    2.02
  -1   7  -7   12.42    1.68
   1  -7   8   14.40    2.35
  -1   7  -8   12.68    1.67
  -1   7  -8   11.40    2.22
  -1   7  -8   12.18    2.38
   1  -7   9    9.31    1.74
  -1   7  -9    8.99    2.06
  -1   7  -9    8.24    1.92
   1  -7   9    9.26    1.82
   1  -7  10   11.27    2.18
  -1   7 -10    8.93    2.42
  -1   7 -10    9.58    1.82
   1  -7  10   11.33    2.09
  -1   7 -11    1.25    0.80
   1  -7  11    0.24    0.59
  -1   7 -11   -0.05    1.18
   1  -7  11    0.80    0.61
  -1   7 -12    0.15    0.62
   1  -7  12    0.88    0.52
   1  -7  12    2.64    1.28
  -1   7 -12    2.08    1.63
   1  -7  13   14.45    2.54
  -1   7 -13   11.16    2.08
  -1   7 -13   19.05    3.54
   1  -7  13   16.08    2.80
  -1   7 -14    4.22    1.58
   1  -7  14    7.24    1.89
   1  -7  14    8.17    2.05
  -1   7 -14    6.25    1.53
  -1   7 -15    0.99    0.80
   1  -7  15   -0.44    1.00
   1  -7  15   -0.27    0.67
  -1   7 -15    0.32    0.95
  -1   7 -16    0.55    1.01
   1  -7  16    0.17    0.78
  -1   7 -16    0.25    0.39
  -1   7 -17    0.37    0.39
  -1   6  16   -0.78    0.86
   1  -6 -16    2.29    1.67
   1  -6 -15    1.92    3.22
  -1   6  15    3.55    1.35
  -1   6  15    4.34    1.57
   1  -6 -15   11.02    5.80
  -1   6  14   56.64    5.00
   1  -6 -14   56.54   10.46
  -1   6  14   59.25    5.50
   1  -6 -14   52.39   10.18
  -1   6  14   51.34    5.07
   1  -6 -13    0.98    3.44
  -1   6  13    0.39    0.62
  -1   6  13    0.16    0.58
  -1   6  13    0.47    0.78
   1  -6 -13   -2.64    2.48
   1  -6 -12   -1.30    2.09
   1  -6 -12    2.10    2.57
  -1   6  12    3.03    1.20
  -1   6  12    1.78    0.94
  -1   6  12    2.90    1.24
  -1   6  11    1.07    1.01
   1  -6 -11    2.88    3.29
  -1   6  11    0.34    0.79
  -1   6  10    0.62    0.78
  -1   6  10    0.51    0.75
  -1   6   9   10.64    1.96
  -1   6   9   10.35    1.89
   1  -6  -9    6.38    2.69
   1  -6  -9   13.19    3.50
  -1   6   9    7.04    1.54
  -1   6   8    0.79    0.47
  -1   6   8    0.07    0.65
   1  -6  -8   -1.84    3.32
  -1   6   8    0.39    0.65
   1  -6  -8    0.76    0.46
   1  -6  -7    0.19    0.41
  -1   6   7   -0.01    0.67
  -1   6   7   -0.13    0.48
  -1   6   7    1.33    0.73
   1  -6  -7    0.58    1.65
   1  -6  -6   47.14    3.29
   1  -6  -6   49.03    7.64
  -1   6   6   49.98    3.74
  -1   6   6   49.91    4.00
  -1   6   6   46.06    3.61
  -1   6   5   68.34    3.31
   1  -6  -5   84.78    9.52
   1  -6  -5   73.42    4.22
  -1   6   5   77.59    4.92
  -1   6   5   80.88    4.66
  -1   6   5   75.84    4.57
   1  -6  -4   31.93    5.82
  -1   6   4   30.48    2.99
  -1   6   4   28.44    2.55
   1  -6  -4   32.47    2.68
  -1   6   4   30.71    2.74
  -1   6   4   25.91    1.94
   1  -6  -3   12.09    1.64
  -1   6   3   10.48    1.47
  -1   6   3   10.22    1.52
  -1   6   3   10.02    1.18
  -1   6   3   14.83    2.02
   1  -6  -2  181.15    7.39
  -1   6   2  179.65    7.39
  -1   6   2  177.10    7.14
  -1   6   2  174.35    6.60
   1  -6  -2  164.66   11.19
   1  -6  -1   59.04    2.41
  -1   6   1   54.85    4.13
   1  -6  -1   59.24    5.76
  -1   6   1   65.26    3.96
  -1   6   1   62.49    3.70
  -1   6   1   51.24    3.14
   1  -6  -1   58.90    3.77
  -1   6   0    2.04    0.62
   1  -6   0    1.43    0.61
  -1   6   0    2.33    0.78
   1  -6   0    1.91    1.07
  -1   6   0    3.31    1.12
   1  -6   1   61.80    3.73
  -1   6  -1   60.38    4.07
   1  -6   1   65.67    4.05
  -1   6  -1   65.38    3.93
  -1   6  -2  300.55   10.33
   1  -6   2  275.57    7.49
   1  -6   2  317.14   10.73
  -1   6  -2  296.98   10.57
   1  -6   3   88.75    4.90
  -1   6  -3   84.87    4.72
  -1   6  -3   87.84    4.85
  -1   6  -4   15.53    1.85
  -1   6  -4   14.35    1.98
   1  -6   4   14.23    1.84
   1  -6   5    1.01    0.51
  -1   6  -5    2.46    0.87
  -1   6  -5    2.87    0.83
  -1   6  -6    1.00    0.77
  -1   6  -6    1.52    0.97
   1  -6   6    1.51    0.74
  -1   6  -6    1.15    0.62
  -1   6  -7   28.26    3.05
   1  -6   7   35.06    3.13
  -1   6  -7   27.01    2.31
  -1   6  -7   31.58    3.54
   1  -6   8    3.04    0.95
  -1   6  -8    0.79    0.51
  -1   6  -8    2.90    1.31
   1  -6   8    1.57    0.72
  -1   6  -8    2.21    0.62
   1  -6   9   73.93    4.94
  -1   6  -9   59.08    3.56
   1  -6   9   71.11    4.90
  -1   6  -9   64.26    5.40
   1  -6  10    6.53    1.58
   1  -6  10    7.63    1.64
  -1   6 -10    4.70    1.29
   1  -6  11    1.87    1.05
  -1   6 -11    1.69    0.56
  -1   6 -11    1.41    0.99
   1  -6  11    1.49    0.70
  -1   6 -12    5.65    1.55
   1  -6  12    7.45    1.69
  -1   6 -12    5.97    1.37
   1  -6  12    6.39    1.58
  -1   6 -13   -0.66    0.63
  -1   6 -13    0.56    0.85
   1  -6  13    0.58    0.92
   1  -6  13    2.13    1.39
  -1   6 -14    5.62    1.46
   1  -6  14    4.83    1.49
   1  -6  14    7.29    1.84
  -1   6 -14    8.19    2.49
  -1   6 -15    2.95    1.08
   1  -6  15    1.70    0.93
  -1   6 -15    3.90    1.79
  -1   6 -16   -1.25    0.82
   1  -6  16   -0.99    0.86
  -1   6 -16   -0.67    1.37
   1  -6  17    0.15    0.86
  -1   6 -17    0.64    0.85
  -1   6 -17    1.20    1.52
   1  -6  17    1.43    1.25
   1  -6  18    1.27    1.19
  -1   5  17    0.93    0.65
   1  -5 -17    3.26    3.23
  -1   5  16    0.07    0.86
   1  -5 -16    2.89    3.35
  -1   5  16    0.13    0.70
  -1   5  16   -0.81    0.94
  -1   5  15   16.66    2.84
  -1   5  15   14.76    2.71
   1  -5 -15   21.78    7.01
   1  -5 -15   13.37    5.13
  -1   5  15   15.71    2.63
  -1   5  14  115.38    7.64
   1  -5 -14  127.80   14.88
  -1   5  14  121.15    7.85
  -1   5  14  118.43    7.20
   1  -5 -13   13.34    5.78
  -1   5  13    4.29    1.46
  -1   5  13    4.84    1.38
  -1   5  13    5.96    1.46
  -1   5  12    5.12    1.31
  -1   5  12    6.75    1.73
  -1   5  12    5.43    1.46
   1  -5 -12   10.04    4.71
  -1   5  11    9.83    1.71
  -1   5  11   11.56    2.12
  -1   5  11    9.92    1.79
   1  -5 -11    8.21    4.23
  -1   5  10    8.12    1.64
  -1   5  10    9.69    1.85
   1  -5 -10   14.39    4.90
  -1   5  10    9.14    1.70
  -1   5   9   32.53    3.24
   1  -5  -9   40.32    7.12
   1  -5  -9   37.51    5.26
  -1   5   9   31.73    3.16
  -1   5   9   32.89    3.01
   1  -5  -9   30.13    2.40
  -1   5   8  150.90    7.14
   1  -5  -8  173.67   14.57
  -1   5   8  153.04    6.97
   1  -5  -8  141.25    6.05
  -1   5   8  145.13    7.34
  -1   5   7   78.05    4.93
  -1   5   7   77.12    4.50
   1  -5  -7   74.88    4.02
   1  -5  -7   87.17    9.93
  -1   5   6   49.04    3.39
   1  -5  -6   47.94    7.01
  -1   5   6   43.00    2.03
   1  -5  -6   46.28    3.04
  -1   5   6   46.48    3.55
  -1   5   6   47.04    3.48
  -1   5   5    0.30    0.54
   1  -5  -5    0.86    1.48
  -1   5   5    0.01    0.16
  -1   5   5   -0.15    0.44
  -1   5   5    0.51    0.59
   1  -5  -5   -0.05    0.50
  -1   5   4   14.62    1.29
  -1   5   4   15.31    1.71
  -1   5   4   13.86    1.83
  -1   5   4   15.86    1.78
   1  -5  -4   17.48    3.86
   1  -5  -4   15.51    1.69
   1  -5  -3    7.54    2.95
  -1   5   3    5.06    0.96
  -1   5   3    5.18    0.99
   1  -5  -3    7.30    1.17
  -1   5   3    5.73    1.11
  -1   5   3    6.12    0.87
   1  -5  -2   -0.04    1.50
  -1   5   2    0.36    0.25
  -1   5   2   -0.09    0.59
  -1   5   2    0.87    0.72
   1  -5  -2    0.26    0.36
  -1   5   2    0.78    0.42
   1  -5  -1   25.98    1.32
  -1   5   1   28.25    2.03
  -1   5   1   28.65    2.26
   1  -5  -1   29.37    2.37
  -1   5   1   28.42    2.19
  -1   5   0   13.14    1.72
  -1   5   0   13.14    1.43
  -1   5   0   15.31    1.58
   1  -5   0   13.43    2.31
   1  -5   0   12.21    1.51
   1  -5   1    1.78    0.67
  -1   5  -1    1.31    0.47
  -1   5  -1    1.48    0.55
   1  -5   1    0.22    0.45
   1  -5   2   58.09    3.59
  -1   5  -2   61.29    3.55
  -1   5  -2   60.70    3.58
  -1   5  -3    0.32    0.39
   1  -5   3   -0.27    0.54
  -1   5  -3    0.81    0.63
   1  -5   4   38.75    2.87
  -1   5  -4   32.37    2.44
  -1   5  -4   33.16    2.75
  -1   5  -5    0.09    0.64
  -1   5  -5    0.13    0.26
   1  -5   5   -0.20    0.30
  -1   5  -6    0.28    0.51
  -1   5  -6    0.67    0.80
   1  -5   6    0.73    0.56
  -1   5  -6   -0.79    0.49
   1  -5   7   -0.06    0.41
  -1   5  -7    0.50    0.41
  -1   5  -7    1.05    0.71
  -1   5  -7    0.23    0.63
  -1   5  -8    6.72    1.05
   1  -5   8    6.57    1.38
   1  -5   8    7.34    1.39
  -1   5  -8    5.19    1.62
  -1   5  -9    3.50    1.34
  -1   5  -9    2.65    1.56
   1  -5   9    5.37    1.22
   1  -5   9    5.85    1.40
  -1   5  -9    3.81    0.79
  -1   5 -10   87.97    4.36
   1  -5  10  103.77    5.70
   1  -5  10   96.00    5.73
  -1   5 -10   89.20    6.49
   1  -5  11   34.17    3.41
  -1   5 -11   27.10    2.70
   1  -5  11   40.44    3.57
  -1   5 -11   32.59    3.90
   1  -5  12   18.72    2.57
   1  -5  12   23.10    2.72
  -1   5 -12   15.93    2.88
  -1   5 -12   16.94    2.12
  -1   5 -13    8.73    2.14
   1  -5  13   11.65    2.10
  -1   5 -13    6.81    1.46
   1  -5  13    7.57    1.68
  -1   5 -14    2.32    0.87
   1  -5  14    3.21    1.19
  -1   5 -14    3.65    1.72
   1  -5  14    3.81    1.26
  -1   5 -15   17.81    2.33
  -1   5 -15   25.20    3.99
   1  -5  15   25.19    3.33
   1  -5  16   19.61    3.84
  -1   5 -16   20.77    3.74
   1  -5  16   21.48    3.24
  -1   5 -16   16.70    2.32
   1  -5  17    1.74    1.19
  -1   5 -17    3.00    1.40
   1  -5  17    3.36    1.56
   1  -5  18    2.10    1.70
   1  -5  18    2.39    1.41
  -1   5 -18    2.92    1.57
   1  -4 -18   -3.67    3.05
   1  -4 -18    0.53    0.61
  -1   4  17    6.10    1.80
  -1   4  17    6.24    1.70
   1  -4 -17    6.58    1.66
   1  -4 -17    3.89    3.51
   1  -4 -17   -1.09    1.80
  -1   4  17    4.43    1.70
   1  -4 -16   18.95    6.00
  -1   4  16   14.76    2.49
  -1   4  16   15.50    2.74
  -1   4  16   16.22    2.83
   1  -4 -16   18.54    2.75
  -1   4  15   21.65    2.95
   1  -4 -15   12.56    4.63
  -1   4  15   16.68    2.82
  -1   4  15   17.23    2.81
   1  -4 -15   16.07    2.42
  -1   4  14   16.05    2.36
  -1   4  14   16.76    2.73
   1  -4 -14   18.93    5.64
   1  -4 -14   15.90    2.30
  -1   4  14   16.14    2.60
   1  -4 -13    5.66    3.19
  -1   4  13    3.43    1.22
  -1   4  13    5.18    1.53
  -1   4  13    3.53    1.10
   1  -4 -13    5.32    1.32
   1  -4 -12    1.99    3.14
   1  -4 -12    2.05    0.71
  -1   4  12    4.24    1.20
  -1   4  12    4.63    1.36
  -1   4  12    4.54    1.39
  -1   4  11    4.04    1.15
   1  -4 -11    2.90    2.84
  -1   4  11    4.50    1.39
   1  -4 -11    5.12    1.13
  -1   4  11    4.07    1.15
  -1   4  10   43.43    3.51
   1  -4 -10   43.95    7.24
   1  -4 -10   49.38    3.07
   1  -4 -10   52.45    3.52
  -1   4  10   49.44    3.91
  -1   4  10   50.04    4.08
   1  -4 -10   59.06    6.48
   1  -4  -9   86.74    7.46
  -1   4   9   69.71    4.31
   1  -4  -9   67.20    3.70
  -1   4   9   72.33    4.62
   1  -4  -9   78.30    4.24
  -1   4   9   66.41    4.69
   1  -4  -9   61.13    8.57
   1  -4  -8  155.96    6.24
   1  -4  -8  190.93   10.92
  -1   4   8  170.22    7.34
  -1   4   8  161.56    7.46
  -1   4   8  155.05    6.81
   1  -4  -8  147.57   13.28
  -1   4   7    2.22    0.75
  -1   4   7    0.13    0.45
   1  -4  -7    1.39    0.46
   1  -4  -7    5.11    2.64
  -1   4   7    2.47    0.85
  -1   4   6    1.03    0.59
   1  -4  -6   -1.00    2.43
  -1   4   6    1.61    0.48
   1  -4  -6    1.22    0.46
  -1   4   6    1.04    0.26
  -1   4   6    1.17    0.56
  -1   4   5   30.33    2.34
  -1   4   5   32.59    2.67
   1  -4  -5   33.17    5.39
   1  -4  -5   31.67    2.28
  -1   4   5   28.68    1.54
   1  -4  -4   39.04    5.79
  -1   4   4   35.62    2.48
   1  -4  -4   37.09    2.50
  -1   4   4   35.10    1.84
  -1   4   4   38.86    2.61
  -1   4   4   37.32    2.76
  -1   4   3    4.19    0.64
  -1   4   3    3.79    0.79
  -1   4   3    4.48    0.90
   1  -4  -3    3.31    1.94
  -1   4   3    3.29    0.73
   1  -4  -3    4.14    0.80
  -1   4   2  365.91   11.47
  -1   4   2  350.11   10.66
  -1   4   2  366.81   10.36
   1  -4  -2  374.52   11.20
  -1   4   2  371.65   10.97
   1  -4  -2  408.27   17.60
   1  -4  -1  202.99   11.09
  -1   4   1  199.50    6.53
  -1   4   1  207.25    7.31
  -1   4   1  182.59    6.32
   1  -4  -1  202.95    7.06
  -1   4   1  196.59    6.75
  -1   4   0    0.32    0.29
   1  -4   0    0.46    0.29
  -1   4   0    0.83    0.35
  -1   4   0    1.23    0.46
  -1   4   0    0.05    0.40
  -1   4  -1    0.51    0.50
  -1   4  -1    1.11    0.46
   1  -4   1    1.24    0.57
   1  -4   2  188.43    6.85
  -1   4  -2  181.91    6.61
  -1   4  -2  188.41    6.80
   1  -4   3  318.45    9.98
  -1   4  -3  308.51   10.01
  -1   4  -3  303.91    9.72
   1  -4   4   55.21    3.17
  -1   4  -4   50.73    2.89
  -1   4  -4   52.02    3.27
   1  -4   5    0.39    0.32
  -1   4  -5   -0.17    0.51
  -1   4  -5   -0.13    0.26
  -1   4  -5    0.49    0.60
  -1   4  -6  129.35    6.50
  -1   4  -6  123.25    4.91
   1  -4   6  129.02    5.45
  -1   4  -6  130.22    6.16
  -1   4  -6  112.88    4.55
  -1   4  -7   18.56    2.04
   1  -4   7   24.00    2.32
  -1   4  -7   22.41    2.54
  -1   4  -7   16.52    2.94
   1  -4   7   27.46    2.29
  -1   4  -7   20.67    1.76
   1  -4   8   29.39    2.63
  -1   4  -8   24.81    1.99
  -1   4  -8   20.70    3.15
  -1   4  -8   24.89    2.86
  -1   4  -8   25.77    2.97
   1  -4   8   27.14    2.43
  -1   4  -9   21.63    1.85
   1  -4   9   24.30    2.54
  -1   4  -9   19.98    2.96
  -1   4  -9   22.40    2.96
  -1   4  -9   21.06    3.49
   1  -4   9   25.41    2.41
   1  -4   9   23.47    1.66
   1  -4  10  311.58   10.67
  -1   4 -10  262.01    9.69
   1  -4  10  292.04   10.98
  -1   4 -10  255.76   12.90
  -1   4 -10  242.55   13.33
  -1   4 -10  280.30   12.36
   1  -4  11   12.26    1.90
  -1   4 -11    9.40    1.49
  -1   4 -11    8.95    2.23
   1  -4  11   11.53    1.79
  -1   4 -11    9.39    2.06
  -1   4 -12    1.01    0.77
  -1   4 -12    2.18    0.76
   1  -4  12    3.53    1.08
   1  -4  12    4.10    1.27
  -1   4 -13    0.29    0.35
   1  -4  13    1.17    0.89
  -1   4 -13   -0.36    0.78
   1  -4  13    1.12    0.75
   1  -4  14    0.29    0.39
  -1   4 -14   -0.33    0.91
  -1   4 -14    0.22    0.60
   1  -4  14   -0.45    0.61
   1  -4  15    0.97    1.07
  -1   4 -15    0.89    0.65
  -1   4 -15    0.80    1.09
   1  -4  15    0.88    0.86
  -1   4 -16   -0.81    1.22
   1  -4  16   -0.32    0.65
   1  -4  16    1.65    1.53
  -1   4 -17   -1.79    1.38
   1  -4  17    2.47    1.02
   1  -4  17    0.81    1.18
   1  -4  18    1.14    0.93
  -1   4 -18    0.65    1.25
   1  -4  18   -0.75    0.90
   1  -4  18   -0.70    0.89
   1  -4  19   -1.13    1.20
   1  -4  19   -0.71    0.69
   1  -3 -19   30.41    3.81
   1  -3 -19   23.07    6.21
  -1   3  18    0.79    0.83
   1  -3 -18    1.94    2.07
   1  -3 -18   -0.27    0.66
  -1   3  18    0.14    0.62
   1  -3 -17    0.88    2.25
  -1   3  17    1.67    1.05
   1  -3 -17    1.97    1.08
  -1   3  17    4.04    1.45
  -1   3  17    1.71    0.90
  -1   3  16   11.52    2.41
   1  -3 -16    8.22    1.79
  -1   3  16    9.52    1.99
   1  -3 -16   12.89    5.04
  -1   3  16    9.24    2.17
  -1   3  15    0.77    0.56
   1  -3 -15    0.83    0.65
  -1   3  15    0.03    0.73
  -1   3  15    0.53    1.00
   1  -3 -14    0.04    0.78
  -1   3  14   -1.59    0.97
  -1   3  14    0.08    0.47
  -1   3  14   -0.36    0.62
   1  -3 -13    0.80    0.55
  -1   3  13    2.21    1.25
  -1   3  13    1.77    0.78
  -1   3  13    0.51    0.47
   1  -3 -13    4.73    2.98
   1  -3 -12    1.55    1.95
  -1   3  12    6.23    1.48
  -1   3  12    8.43    1.67
   1  -3 -12    6.94    1.41
  -1   3  12    8.40    1.63
   1  -3 -11   32.55    6.73
  -1   3  11   33.48    3.40
  -1   3  11   33.85    3.22
  -1   3  11   37.54    3.16
   1  -3 -11   35.44    3.06
  -1   3  10    5.58    1.25
   1  -3 -10    6.24    2.03
   1  -3 -10    6.99    1.30
   1  -3 -10    1.40    1.73
  -1   3  10    4.91    1.30
   1  -3 -10    4.02    0.85
  -1   3  10    4.86    1.10
   1  -3  -9  413.63   16.60
   1  -3  -9  340.53   20.92
   1  -3  -9  347.54   11.28
  -1   3   9  359.63   11.92
  -1   3   9  370.85   12.91
  -1   3   9  358.89   12.24
   1  -3  -9  345.74   11.68
  -1   3   8    3.25    0.87
   1  -3  -8    4.59    1.39
   1  -3  -8    4.72    1.00
   1  -3  -8    2.95    1.70
  -1   3   8    3.49    0.91
  -1   3   8    4.44    0.89
   1  -3  -8    3.63    0.77
   1  -3  -7   11.43    1.37
   1  -3  -7   12.90    1.44
  -1   3   7   12.64    1.46
  -1   3   7   14.91    1.86
   1  -3  -7   13.44    4.17
  -1   3   7   14.66    1.70
  -1   3   6    0.27    0.33
   1  -3  -6    0.03    0.26
   1  -3  -6    0.41    0.33
  -1   3   6    0.66    0.28
   1  -3  -6    2.10    1.92
  -1   3   6    0.04    0.52
   1  -3  -5  170.64   11.79
  -1   3   5  177.69    6.23
   1  -3  -5  180.84    6.41
  -1   3   5  171.24    4.85
  -1   3   5  180.49    6.53
  -1   3   5  177.02    6.89
  -1   3   4  159.19    6.00
   1  -3  -4  149.67    5.58
  -1   3   4  146.92    4.40
  -1   3   4  146.26    5.54
   1  -3  -4  149.18   10.38
  -1   3   4  146.63    5.33
   1  -3  -3  312.31    9.41
  -1   3   3  306.18    9.07
  -1   3   3  310.08    8.37
  -1   3   3  305.14    9.62
   1  -3  -3  292.91   14.77
  -1   3   2  344.13   10.33
  -1   3   2  346.48    9.37
  -1   3   2  342.91    9.55
   1  -3  -2  330.72   14.80
   1  -3  -2  354.17   10.19
  -1   3   2  334.34    9.75
  -1   3   1  104.46    3.95
  -1   3   1  103.96    3.65
   1  -3  -1  121.11    7.34
  -1   3   1  102.44    3.73
   1  -3  -1  110.37    4.25
  -1   3   1  100.42    4.21
  -1   3   0   36.09    1.88
   1  -3   0   41.42    3.89
  -1   3   0   36.00    1.96
   1  -3   0   36.63    2.20
  -1   3   0   38.19    2.36
  -1   3  -1   -0.01    0.33
  -1   3  -1   -0.43    0.30
   1  -3   1   -0.24    0.38
  -1   3  -1   -0.30    0.38
  -1   3  -2  326.11    9.68
  -1   3  -2  328.82    9.76
   1  -3   2  333.61    9.76
  -1   3  -3  187.66    6.59
   1  -3   3  190.15    6.42
  -1   3  -3  183.71    6.21
  -1   3  -4  259.54    8.95
  -1   3  -4  235.29    7.13
  -1   3  -4  246.17    7.72
   1  -3   4  263.08    8.04
  -1   3  -4  253.09    8.55
  -1   3  -5  327.01   11.14
   1  -3   5  341.60    9.94
  -1   3  -5  313.85   10.47
  -1   3  -5  302.89    9.44
   1  -3   5  331.09   10.30
   1  -3   6    2.43    0.61
  -1   3  -6    4.31    0.76
  -1   3  -6    4.38    1.30
  -1   3  -6    4.15    1.38
   1  -3   6    4.16    0.75
  -1   3  -6    4.39    1.11
  -1   3  -7   57.06    4.84
   1  -3   7   65.35    3.42
  -1   3  -7   52.10    4.64
  -1   3  -7   63.47    4.38
  -1   3  -7   62.86    3.16
   1  -3   7   65.08    3.83
  -1   3  -8    0.24    0.63
  -1   3  -8    1.26    0.49
  -1   3  -8   -0.13    0.87
   1  -3   8    0.63    0.41
   1  -3   8    1.93    0.67
  -1   3  -8    0.24    0.95
   1  -3   8    1.20    0.32
   1  -3   9    2.45    0.93
  -1   3  -9    1.30    1.11
  -1   3  -9    3.27    1.14
  -1   3  -9    2.22    0.79
   1  -3   9    3.47    0.85
  -1   3  -9    3.19    0.72
  -1   3 -10   -1.20    1.48
  -1   3 -10   -0.53    0.93
   1  -3  10   -0.81    0.59
   1  -3  10    0.96    0.74
  -1   3 -10    0.02    0.38
  -1   3 -10    0.07    0.96
  -1   3 -11   86.30    6.38
   1  -3  11   96.50    5.68
   1  -3  11  104.46    5.25
  -1   3 -11   73.29    6.92
  -1   3 -11   81.48    4.43
  -1   3 -11   81.47    7.94
  -1   3 -12  105.19    7.31
  -1   3 -12  107.65    5.28
   1  -3  12  120.69    6.59
  -1   3 -12   97.89    9.22
  -1   3 -13   29.92    2.63
  -1   3 -13   37.27    4.49
  -1   3 -13   34.09    5.60
   1  -3  13   41.60    4.52
   1  -3  13   41.14    3.80
   1  -3  14    3.73    1.47
  -1   3 -14    3.58    1.06
   1  -3  14    4.54    1.34
  -1   3 -14    3.57    0.89
  -1   3 -14    5.53    3.08
   1  -3  15   -0.34    0.92
   1  -3  15    0.00    0.69
  -1   3 -15    0.07    0.93
  -1   3 -16    0.69    0.73
   1  -3  16   -0.95    0.97
   1  -3  16    0.56    1.31
   1  -3  17    1.16    1.22
  -1   3 -17    0.57    1.03
   1  -3  17   -0.11    0.87
   1  -3  17    0.27    1.05
  -1   3 -18   12.67    3.01
   1  -3  18    8.52    2.26
   1  -3  18    7.10    2.11
   1  -3  18    7.30    2.01
   1  -3  19    2.68    1.44
  -1   2  19   73.50    6.49
   1  -2 -19   69.13    6.03
  -1   2  19   73.57    6.76
   1  -2 -18   15.96    2.73
  -1   2  18   18.47    3.13
  -1   2  18   16.90    3.05
   1  -2 -18   21.33    6.73
  -1   2  17    1.34    0.80
   1  -2 -17   -1.48    2.73
  -1   2  17    1.71    0.79
  -1   2  17    0.89    0.65
   1  -2 -17    1.11    0.78
  -1   2  16   15.16    2.39
   1  -2 -16   12.27    4.53
   1  -2 -16   16.47    2.70
  -1   2  16   19.26    2.84
  -1   2  16   16.28    2.84
  -1   2  15   -0.88    0.87
  -1   2  15    0.31    0.78
  -1   2  15   -1.26    1.14
   1  -2 -15   -0.84    0.76
   1  -2 -15    2.91    2.29
   1  -2 -14    1.80    2.30
  -1   2  14    2.94    0.91
   1  -2 -14    2.62    1.18
  -1   2  14    2.62    1.24
  -1   2  14    1.40    0.92
  -1   2  13   36.01    3.28
  -1   2  13   31.63    3.59
   1  -2 -13   35.16    3.43
   1  -2 -13   31.67    6.57
  -1   2  13   35.59    3.43
   1  -2 -12  238.77   10.18
  -1   2  12  264.72   10.41
  -1   2  12  253.02   11.04
  -1   2  12  252.73    9.90
   1  -2 -12  211.19   17.21
  -1   2  11  285.83   11.43
   1  -2 -11  265.02   10.53
  -1   2  11  287.60   10.76
  -1   2  11  279.92   10.32
   1  -2 -11  247.55   17.79
  -1   2  10    9.16    1.49
   1  -2 -10    7.55    1.41
   1  -2 -10    3.24    2.78
   1  -2 -10    6.91    1.23
  -1   2  10    9.27    1.47
  -1   2  10    9.23    1.72
   1  -2  -9    2.14    0.26
   1  -2  -9    1.89    1.34
  -1   2   9    3.03    0.81
   1  -2  -9    2.42    0.80
  -1   2   9    2.39    0.80
   1  -2  -9    3.24    0.94
  -1   2   9    3.22    0.88
   1  -2  -8    9.36    0.59
  -1   2   8   13.03    1.75
   1  -2  -8   11.66    1.45
  -1   2   8   11.40    1.50
  -1   2   8   12.27    1.43
   1  -2  -8   16.74    2.26
   1  -2  -8    8.65    2.77
   1  -2  -7    1.88    0.26
  -1   2   7    3.09    0.96
   1  -2  -7    2.34    0.68
   1  -2  -7    1.96    0.48
   1  -2  -7    2.57    2.30
  -1   2   7    2.33    0.60
  -1   2   7    2.26    0.64
   1  -2  -6   15.05    3.41
  -1   2   6   22.19    1.66
  -1   2   6   22.55    2.13
   1  -2  -6   20.60    0.98
   1  -2  -6   19.87    1.69
  -1   2   6   23.38    1.86
   1  -2  -5   51.95    2.62
  -1   2   5   55.25    2.72
  -1   2   5   58.30    2.92
   1  -2  -5   60.48    6.49
   1  -2  -5   55.47    1.92
  -1   2   5   56.42    3.21
  -1   2   4  151.04    5.00
   1  -2  -4  152.32    4.89
   1  -2  -4  149.73    9.85
   1  -2  -4  150.69    4.28
  -1   2   4  153.80    5.70
  -1   2   4  151.42    5.25
   1  -2  -3   10.14    1.10
  -1   2   3   11.74    0.73
  -1   2   3   10.54    1.13
   1  -2  -3    9.62    2.44
  -1   2   3   10.14    0.90
  -1   2   3   10.13    0.95
  -1   2   3    8.29    0.52
  -1   2   2  270.46    7.75
  -1   2   2  291.16    8.41
   1  -2  -2  280.96   12.42
   1  -2  -2  287.63    8.47
  -1   2   2  290.89    7.57
   1  -2  -1  807.34   23.91
   1  -2  -1  716.05   18.77
   1  -2  -1  779.45   18.82
  -1   2   1  801.04   19.23
  -1   2   1  795.03   19.15
  -1   2   1  764.84   18.68
  -1   2   1  787.71   19.66
  -1   2   1  752.68   19.88
   1  -2  -1  777.63   19.80
   1  -2   0    6.11    0.57
  -1   2   0    5.99    0.71
   1  -2   0    7.65    1.51
   1  -2   0    6.14    0.79
  -1   2   0    6.20    0.55
  -1   2   0    8.21    0.75
  -1   2   0    5.22    0.72
  -1   2  -1  242.06    7.18
  -1   2  -1  252.23    7.52
  -1   2  -1  272.51    7.36
   1  -2   1  257.19    7.45
   1  -2   1  289.22    8.58
   1  -2   1  242.29    6.57
  -1   2  -1  245.61    8.60
  -1   2  -2   38.32    2.25
  -1   2  -2   40.80    1.56
  -1   2  -2   42.97    2.06
   1  -2   2   37.75    2.07
  -1   2  -2   44.62    2.22
  -1   2  -2   36.63    1.99
   1  -2   2   39.93    2.02
  -1   2  -2   38.20    2.10
  -1   2  -3   35.27    2.07
  -1   2  -3   34.28    1.89
  -1   2  -3   34.73    2.28
   1  -2   3   33.73    1.86
  -1   2  -3   35.17    1.91
   1  -2   4  122.45    4.61
  -1   2  -4  115.65    4.19
  -1   2  -4  113.09    5.10
   1  -2   4  116.74    4.17
  -1   2  -4  103.37    5.47
  -1   2  -4  110.42    5.11
  -1   2  -4  122.46    4.32
  -1   2  -5   28.25    2.74
  -1   2  -5   29.51    2.56
  -1   2  -5   25.06    2.85
   1  -2   5   27.91    2.07
   1  -2   5   26.86    1.71
  -1   2  -5   25.23    1.72
  -1   2  -5   30.06    1.88
   1  -2   6   68.32    3.70
   1  -2   6   78.09    3.32
  -1   2  -6   61.22    5.23
  -1   2  -6   66.24    4.82
   1  -2   6   76.46    3.29
  -1   2  -6   75.57    3.34
  -1   2  -6   69.75    4.38
  -1   2  -6   76.86    3.37
   1  -2   7   37.87    2.29
  -1   2  -7   25.17    3.45
  -1   2  -7   38.56    2.31
  -1   2  -7   34.51    3.76
   1  -2   7   37.93    2.75
  -1   2  -7   41.04    3.43
   1  -2   7   35.95    2.17
  -1   2  -8   12.00    1.96
   1  -2   8   14.29    1.43
  -1   2  -8   11.40    2.32
   1  -2   8   10.94    1.47
  -1   2  -8   12.74    1.35
  -1   2  -8    7.73    1.92
   1  -2   9   23.09    2.31
  -1   2  -9   21.61    1.82
  -1   2  -9   17.37    3.60
   1  -2   9   27.70    2.13
  -1   2  -9   19.59    2.62
  -1   2  -9   18.42    3.07
  -1   2 -10   43.23    5.13
  -1   2 -10   49.80    4.53
   1  -2  10   47.89    3.62
  -1   2 -10   41.02    5.60
   1  -2  10   58.37    3.48
   1  -2  10   52.61    4.24
  -1   2 -10   44.33    2.80
   1  -2  11  358.28   12.33
  -1   2 -11  295.47   15.58
  -1   2 -11  284.77   17.06
  -1   2 -11  310.61   10.23
  -1   2 -11  317.55   13.54
   1  -2  11  333.61   13.17
  -1   2 -12   57.20    3.35
   1  -2  12   60.26    4.45
  -1   2 -12   52.54    7.18
  -1   2 -12   53.14    4.89
  -1   2 -12   47.14    5.75
   1  -2  12   52.27    4.69
   1  -2  13    2.35    1.34
  -1   2 -13    1.39    0.48
  -1   2 -13    1.83    0.80
   1  -2  13    2.54    1.15
  -1   2 -13   -1.02    2.03
  -1   2 -14    6.02    3.05
   1  -2  14    4.27    1.28
   1  -2  14    7.33    1.78
   1  -2  14    4.97    1.57
  -1   2 -14    2.59    1.30
   1  -2  15   41.78    4.20
  -1   2 -15   42.69    4.90
  -1   2 -15   41.18    6.68
   1  -2  15   37.09    4.23
   1  -2  15   43.76    4.74
   1  -2  16    0.71    0.63
  -1   2 -16    2.59    1.22
   1  -2  16    0.99    0.55
  -1   2 -16    4.14    1.98
   1  -2  16    1.88    1.60
  -1   2 -17   17.61    3.37
   1  -2  17   17.58    3.00
   1  -2  17   16.30    3.14
   1  -2  17   14.09    2.65
  -1   2 -17   18.42    5.09
  -1   2 -18   15.02    3.21
   1  -2  18   19.04    3.28
   1  -2  18   21.84    3.51
   1  -2  18   16.66    3.11
   1  -2  19    5.21    1.94
  -1   2 -19    8.45    2.44
   1  -2  20   21.33    3.65
   1  -1 -20   10.92    2.54
  -1   1  20   11.09    2.84
  -1   1  19    3.31    1.46
  -1   1  19    2.76    1.23
   1  -1 -19    2.10    1.16
  -1   1  18   14.19    2.67
   1  -1 -18   12.78    2.62
  -1   1  18   12.63    2.81
   1  -1 -18   15.59    5.17
   1  -1 -17   11.14    2.21
  -1   1  17   14.66    2.49
  -1   1  17   14.92    2.35
   1  -1 -17   11.21    4.04
  -1   1  17   13.72    2.78
   1  -1 -16    1.71    2.08
  -1   1  16    0.12    0.67
   1  -1 -16   -1.05    1.16
  -1   1  16    0.67    1.17
  -1   1  16    0.21    0.75
  -1   1  15    3.95    1.69
   1  -1 -15    3.39    2.40
   1  -1 -15    3.22    1.27
  -1   1  15    2.36    1.02
  -1   1  15    2.96    1.04
   1  -1 -14   11.36    2.24
   1  -1 -14   12.17    4.51
  -1   1  14   10.74    2.17
  -1   1  14   10.61    1.89
  -1   1  14   10.37    1.81
  -1   1  13    4.51    1.13
   1  -1 -13    2.35    1.57
  -1   1  13    5.34    1.18
  -1   1  13    7.15    1.53
   1  -1 -13    5.71    1.47
   1  -1 -12    2.68    0.93
  -1   1  12    4.22    1.15
  -1   1  12    1.60    0.67
   1  -1 -12    4.13    3.28
  -1   1  12    1.47    1.11
  -1   1  11    5.64    1.17
  -1   1  11    5.65    1.21
   1  -1 -11    7.52    3.62
  -1   1  11    7.21    1.60
   1  -1 -11    5.48    1.23
  -1   1  10    6.86    1.14
  -1   1  10    6.17    1.24
   1  -1 -10    8.00    3.63
  -1   1  10    7.97    1.47
   1  -1 -10    8.08    1.62
   1  -1  -9   18.74    2.16
  -1   1   9   17.36    2.29
  -1   1   9   18.56    1.91
   1  -1  -9   15.40    4.18
  -1   1   9   17.57    1.86
  -1   1   8    8.42    1.23
  -1   1   8    7.91    1.40
   1  -1  -8    6.39    2.75
   1  -1  -8    7.66    1.26
  -1   1   8    7.23    1.08
  -1   1   7    5.26    0.87
   1  -1  -7    6.11    1.16
  -1   1   7    4.03    0.81
  -1   1   7    5.81    1.12
   1  -1  -7    2.50    1.32
   1  -1  -6  433.64   12.86
  -1   1   6  431.10   12.10
   1  -1  -6  421.84   19.59
  -1   1   6  434.26   12.48
  -1   1   6  454.44   13.55
  -1   1   5  123.73    4.30
  -1   1   5  122.63    4.54
   1  -1  -5  123.28    4.78
   1  -1  -5  115.07    8.64
  -1   1   5  127.79    5.24
  -1   1   4   68.68    2.60
   1  -1  -4   66.37    2.92
  -1   1   4   72.93    3.37
  -1   1   4   68.83    2.85
   1  -1  -4   70.72    6.16
   1  -1  -3   65.32    2.28
   1  -1  -3   79.96    6.02
  -1   1   3   73.49    2.43
   1  -1  -3   72.22    2.61
  -1   1   3   73.67    3.16
  -1   1   3   77.74    2.72
  -1   1   2  540.89   13.70
  -1   1   2  496.89   12.94
   1  -1  -2  512.18   12.84
  -1   1   2  526.59   13.13
  -1   1   2  510.87   12.90
   1  -1  -2  526.75   12.87
   1  -1  -2  547.24   13.04
   1  -1  -2  523.00   12.76
   1  -1  -2  542.94   18.09
  -1   1   2  549.72   12.83
  -1   1   2  532.03   12.91
   1  -1  -1   16.52    0.77
   1  -1  -1   13.91    0.86
   1  -1  -1   16.71    2.12
  -1   1   1   18.48    0.96
   1  -1   0  270.98    7.28
   1  -1   0  265.66    7.22
   1  -1   0  280.79    7.66
   1  -1   0  277.95    9.05
   1  -1   1    4.99    0.52
   1  -1   1    4.84    0.58
  -1   1  -1    3.98    0.48
   1  -1   1    4.62    0.58
  -1   1  -1    4.33    0.50
   1  -1   2  791.35   19.42
  -1   1  -2  776.14   20.79
  -1   1  -2  760.00   19.69
  -1   1  -2  849.63   19.66
  -1   1  -2  811.27   20.38
   1  -1   2  790.93   19.75
  -1   1  -3  145.45    4.34
   1  -1   3  139.88    4.62
   1  -1   3  128.54    3.99
  -1   1  -3  130.03    4.80
   1  -1   3  136.08    5.44
  -1   1  -3  137.42    5.19
  -1   1  -3  136.41    6.24
  -1   1  -3  131.49    4.42
   1  -1   4   15.48    1.35
   1  -1   4   16.12    1.29
  -1   1  -4   12.45    1.47
  -1   1  -4   14.37    2.05
  -1   1  -4   16.34    1.15
  -1   1  -4   14.79    1.17
   1  -1   4   13.78    0.90
  -1   1  -4   16.08    1.81
   1  -1   4   14.22    1.95
  -1   1  -5    6.58    1.23
   1  -1   5    7.01    0.86
   1  -1   5    5.97    0.93
  -1   1  -5    4.28    1.19
   1  -1   5    6.27    0.63
  -1   1  -5    5.87    0.72
  -1   1  -5    6.09    1.83
   1  -1   6  160.87    6.06
  -1   1  -6  161.24    5.27
   1  -1   6  159.62    5.04
  -1   1  -6  160.34    7.04
  -1   1  -6  152.66    8.15
  -1   1  -6  131.56    8.80
   1  -1   7  181.86    6.89
   1  -1   7  185.25    5.81
  -1   1  -7  161.50    9.18
  -1   1  -7  174.64    7.84
   1  -1   7  174.71    7.23
  -1   1  -7  173.68    5.79
  -1   1  -8   29.93    4.01
  -1   1  -8   30.12    2.97
   1  -1   8   30.83    2.78
  -1   1  -8   31.90    1.96
   1  -1   8   32.34    2.62
  -1   1  -9   29.93    4.25
   1  -1   9   35.08    3.18
  -1   1  -9   34.25    2.13
  -1   1  -9   35.19    3.39
   1  -1   9   38.82    2.98
  -1   1 -10    0.25    0.22
  -1   1 -10    0.00    1.42
   1  -1  10   -0.62    0.73
  -1   1 -10    0.70    1.18
  -1   1 -10   -0.08    0.89
   1  -1  10   -0.44    0.52
   1  -1  11   13.08    2.13
   1  -1  11   13.25    1.92
   1  -1  11   10.35    1.89
  -1   1 -11   13.70    2.38
  -1   1 -11    9.43    2.86
  -1   1 -11   11.04    3.43
  -1   1 -11   12.55    1.29
  -1   1 -12   12.03    3.33
   1  -1  12    9.51    1.91
  -1   1 -12    9.36    1.16
  -1   1 -12    7.64    2.43
  -1   1 -12   11.97    2.27
   1  -1  12   11.13    1.92
   1  -1  12    9.84    1.80
  -1   1 -13   39.94    6.69
   1  -1  13   41.49    3.84
  -1   1 -13   43.62    4.55
  -1   1 -13   37.21    5.73
   1  -1  13   42.40    4.25
   1  -1  13   40.46    4.00
  -1   1 -14    1.36    0.84
   1  -1  14    4.05    1.35
  -1   1 -14    3.41    2.36
   1  -1  14    3.00    1.37
   1  -1  14    0.79    0.51
   1  -1  15    4.21    1.37
   1  -1  15    6.19    1.71
   1  -1  15    6.37    1.78
  -1   1 -15    3.47    1.46
  -1   1 -15    6.35    3.82
  -1   1 -16   -2.75    2.95
   1  -1  16    0.07    0.59
   1  -1  16   -0.86    0.84
  -1   1 -16   -1.88    1.52
   1  -1  16   -0.63    0.49
   1  -1  17    0.44    0.74
   1  -1  17   -0.60    0.82
  -1   1 -17    1.58    0.99
  -1   1 -17   -1.62    2.57
   1  -1  17    1.31    1.02
  -1   1 -18    3.24    1.89
   1  -1  18    2.26    1.17
   1  -1  18    2.66    1.16
  -1   1 -18    2.29    1.52
  -1   1 -19    3.37    2.15
   1  -1  19    2.74    1.45
  -1   1 -19    3.89    1.68
   1   0 -20    4.64    1.82
  -1   0  20    5.33    2.03
  -1   0  19    7.78    2.29
   1   0 -19    7.58    1.97
  -1   0  19    7.77    1.97
   1   0 -18    0.09    0.82
  -1   0  18    1.13    0.99
  -1   0  18    1.66    1.51
  -1   0  17    5.17    1.42
  -1   0  17    4.02    1.65
   1   0 -17    3.86    1.44
   1   0 -17    4.53    3.29
  -1   0  17    6.47    1.63
  -1   0  16    3.72    1.04
   1   0 -16    5.91    1.86
  -1   0  16    4.82    1.48
   1   0 -16    7.83    3.77
  -1   0  16    2.09    1.00
   1   0 -15   -0.88    3.29
  -1   0  15    3.66    1.15
  -1   0  15    3.73    1.51
   1   0 -15    1.63    0.98
  -1   0  15    2.69    0.97
   1   0 -14    2.44    1.16
  -1   0  14    2.04    1.00
  -1   0  14    2.56    0.92
  -1   0  14    2.31    0.95
   1   0 -14   -0.63    3.62
   1   0 -13    4.75    2.55
  -1   0  13    4.84    1.18
   1   0 -13    4.18    1.43
  -1   0  13    5.03    1.69
  -1   0  13    5.83    1.37
  -1   0  12   30.24    2.91
   1   0 -12   23.91    4.93
  -1   0  12   29.98    3.43
   1   0 -12   27.22    3.10
  -1   0  12   27.54    2.75
   1   0 -11   26.84    2.89
  -1   0  11   23.15    2.34
  -1   0  11   26.25    3.09
  -1   0  11   28.51    2.73
   1   0 -11   22.43    4.64
   1   0 -10    0.13    1.63
  -1   0  10    1.14    0.58
  -1   0  10    1.17    0.47
  -1   0  10    0.52    0.67
   1   0 -10    0.57    0.70
  -1   0   9    1.54    0.63
   1   0  -9    3.65    2.72
   1   0  -9    0.82    0.66
  -1   0   9    2.75    0.77
  -1   0   9    1.84    0.76
  -1   0   8   55.72    3.28
  -1   0   8   58.01    4.01
  -1   0   8   53.26    3.15
   1   0  -8   53.18    6.69
   1   0  -8   58.38    3.82
  -1   0   7   65.70    3.27
   1   0  -7   61.26    3.85
  -1   0   7   66.38    4.14
   1   0  -7   65.76    7.10
  -1   0   7   70.00    3.45
   1   0  -6  111.42    8.91
   1   0  -6  107.63    4.95
  -1   0   6  107.40    4.32
  -1   0   6  110.56    5.20
   1   0  -5    3.97    0.87
  -1   0   5    4.37    0.67
  -1   0   5    4.36    0.88
   1   0  -5    3.85    1.36
   1   0  -4    1.33    0.52
   1   0  -4    1.08    0.45
   1   0  -4   -0.62    1.41
  -1   0   4    0.78    0.23
  -1   0   4    0.03    0.45
   1   0  -3  195.48    9.72
   1   0  -3  188.70    5.73
  -1   0   3  169.15    6.01
   1   0  -3  202.76    5.78
  -1   0   3  187.75    5.30
   1   0  -2   55.76    1.96
  -1   0   2   51.97    2.33
   1   0  -2   53.64    2.03
   1   0  -2   53.18    1.75
  -1   0   2   63.07    3.14
  -1   0   2   53.10    2.05
  -1   0   2   56.78    2.08
   1   0  -2   52.03    1.76
   1   0  -1   11.10    0.78
   1   0  -1   12.10    0.65
   1   0   0    5.47    0.40
  -1   0  -1  256.39    6.87
  -1   0  -1  269.11    7.17
   1   0   1  259.03    7.29
  -1   0  -1  291.83   10.04
   1   0   1  274.38    6.90
   1   0   2    0.80    0.77
   1   0   2    0.92    0.19
   1   0   2    0.64    0.33
  -1   0  -2    0.93    0.22
   1   0   2    0.79    0.17
  -1   0  -2    0.26    0.91
   1   0   2    0.76    0.29
  -1   0  -2    0.47    0.65
   1   0   2    0.72    0.34
  -1   0  -2    0.09    0.31
   1   0   3  520.60   14.01
   1   0   3  554.37   14.77
  -1   0  -3  584.86   16.93
  -1   0  -3  582.27   13.72
  -1   0  -3  546.77   15.03
  -1   0  -3  553.42   18.30
   1   0   3  538.41   14.36
  -1   0  -3  569.24   17.75
  -1   0  -4    0.16    0.16
  -1   0  -4    2.96    1.78
   1   0   4    0.30    0.22
  -1   0  -4    1.01    0.95
  -1   0  -4   -0.55    0.73
   1   0   4    0.64    0.55
  -1   0  -4    0.64    0.50
   1   0   4   -0.30    0.30
  -1   0  -5    8.10    1.20
  -1   0  -5   11.11    2.29
   1   0   5    8.40    1.01
  -1   0  -5    8.40    1.77
   1   0   5   10.96    1.19
  -1   0  -5    8.46    0.53
  -1   0  -5    9.59    0.77
   1   0   5    9.62    1.30
  -1   0  -5    8.57    2.29
  -1   0  -6   70.89    2.57
   1   0   6   72.96    3.68
  -1   0  -6   66.11    5.53
  -1   0  -6   62.71    2.12
  -1   0  -6   69.77    4.12
   1   0   6   68.10    3.86
   1   0   6   68.89    3.59
  -1   0  -6   61.64    6.54
  -1   0  -6   73.25    5.37
  -1   0  -7  185.33    8.08
  -1   0  -7  208.98    9.84
  -1   0  -7  196.22    5.85
   1   0   7  196.99    7.88
   1   0   7  210.28    7.65
   1   0   7  197.89    7.43
  -1   0  -7  182.98   10.59
  -1   0  -8   11.63    1.88
   1   0   8   12.42    1.69
   1   0   8   11.18    1.62
  -1   0  -8    9.41    2.49
   1   0   8   12.51    1.74
  -1   0  -8    9.80    0.88
  -1   0  -8   10.40    2.14
  -1   0  -9    0.32    0.87
  -1   0  -9   -0.44    1.31
   1   0   9   -0.12    0.38
   1   0   9    0.58    0.47
   1   0   9    0.47    0.41
  -1   0  -9    0.94    0.31
   1   0  10   -0.10    0.45
   1   0  10   -0.53    0.84
   1   0  10   -0.44    0.53
  -1   0 -10    0.34    0.25
  -1   0 -10    1.00    0.68
  -1   0 -10   -1.68    1.88
   1   0  11    0.05    0.71
  -1   0 -11    1.23    1.15
  -1   0 -11    1.86    1.75
   1   0  11    1.49    0.77
   1   0  11    0.78    0.69
  -1   0 -11   -1.07    2.35
   1   0  12    2.09    0.75
  -1   0 -12    1.44    1.57
   1   0  12    1.71    0.88
  -1   0 -12    2.71    1.31
   1   0  12    3.08    1.13
  -1   0 -12   -0.42    1.97
  -1   0 -13    8.19    3.09
   1   0  13    7.34    1.79
  -1   0 -13    4.10    1.80
   1   0  13    7.02    1.68
   1   0  13    9.60    1.98
  -1   0 -13    5.81    1.43
   1   0  14   -0.06    0.60
   1   0  14   -1.29    1.37
   1   0  14   -0.80    0.80
  -1   0 -14   -2.41    2.71
  -1   0 -14    2.02    1.37
  -1   0 -14   -1.84    3.06
   1   0  15    0.64    1.02
   1   0  15    0.32    0.71
   1   0  15   -0.33    0.64
  -1   0 -15   -0.81    0.98
  -1   0 -15   -0.20    2.23
  -1   0 -16    4.38    3.48
  -1   0 -16    0.87    0.97
   1   0  16    1.84    1.28
   1   0  16    0.64    0.59
   1   0  16    1.41    0.99
  -1   0 -17    3.93    1.54
  -1   0 -17    5.22    2.95
   1   0  17    4.45    1.40
   1   0  17    5.53    1.75
   1   0  18    2.89    1.32
  -1   0 -18    3.24    1.66
  -1   0 -18    7.13    4.50
   1   0  18    2.80    1.44
  -1   0 -19    8.90    4.82
   1   0  19    0.98    1.14
  -1  -1  20    2.23    1.51
   1   1 -20    1.22    1.09
  -1  -1  19   35.20    4.85
   1   1 -19   36.04    4.77
  -1  -1  19   39.50    4.54
  -1  -1  18    7.77    2.26
   1   1 -18    4.61    1.93
  -1  -1  18    6.76    1.73
  -1  -1  17   15.07    2.62
  -1  -1  17   10.44    2.02
   1   1 -17   13.21    2.72
  -1  -1  17   11.77    2.74
   1   1 -16    3.54    1.47
  -1  -1  16    0.29    0.64
  -1  -1  16    1.63    0.80
  -1  -1  16    2.42    1.22
   1   1 -16    3.32    2.47
  -1  -1  15   -0.91    1.01
  -1  -1  15   -0.58    0.54
   1   1 -15   -0.39    0.86
  -1  -1  15    0.18    0.80
   1   1 -15   -2.93    3.43
  -1  -1  14   63.23    5.66
  -1  -1  14   56.31    4.42
  -1  -1  14   57.01    4.40
   1   1 -14   54.16    5.03
   1   1 -14   47.44    7.67
   1   1 -13   43.25    4.31
   1   1 -13   39.01    7.17
  -1  -1  13   48.39    3.84
  -1  -1  13   47.76    4.74
  -1  -1  13   46.24    3.84
  -1  -1  12   -0.03    0.39
   1   1 -12    0.94    0.63
  -1  -1  12    1.28    1.04
  -1  -1  12    0.23    0.47
   1   1 -12   -1.80    2.72
   1   1 -11   78.51    5.61
   1   1 -11   81.26    9.35
  -1  -1  11   91.90    5.04
  -1  -1  11   84.99    5.86
   1   1 -10   95.72    5.78
  -1  -1  10   75.92    3.97
   1   1 -10   84.62    8.83
  -1  -1  10   92.21    5.91
  -1  -1  10   95.79    4.85
  -1  -1   9   26.25    2.85
  -1  -1   9   29.41    2.38
  -1  -1   9   22.78    2.01
   1   1  -9   32.22    5.56
   1   1  -9   28.13    2.87
  -1  -1   8   41.19    3.46
  -1  -1   8   45.24    2.83
   1   1  -8   38.04    5.58
   1   1  -8   43.10    3.38
  -1  -1   7   21.68    2.39
   1   1  -7   20.48    2.17
  -1  -1   7   22.11    1.83
   1   1  -7   19.13    4.05
   1   1  -6   80.43    7.27
   1   1  -6   80.35    4.22
   1   1  -6   81.96    4.18
  -1  -1   6   79.61    3.56
  -1  -1   5  385.19   10.10
  -1  -1   5  429.33   11.46
   1   1  -5  404.27   12.19
   1   1  -5  382.91   17.31
   1   1  -5  415.66   12.33
   1   1  -4  157.64    5.69
   1   1  -4  164.02    5.80
  -1  -1   4  166.69    5.17
   1   1  -3   88.11    3.59
  -1  -1   3   91.47    3.06
   1   1  -3   88.47    2.80
   1   1  -2  731.72   17.84
  -1  -1   2  685.05   17.34
  -1  -1   2  669.34   17.26
  -1  -1   2  730.94   17.34
   1   1  -1  460.11   11.57
  -1  -1   1  464.84   11.91
  -1  -1   1  435.04   12.16
  -1  -1   1  492.21   12.18
   1   1  -1  448.32   12.21
   1   1   0  233.65    7.09
  -1  -1   0  242.54    6.71
  -1  -1   0  224.44    6.17
   1   1   0  238.89    6.52
  -1  -1   0  251.77    6.61
  -1  -1   0  293.99   10.33
  -1  -1   0  227.76    7.47
  -1  -1  -1    6.63    1.78
  -1  -1  -1    4.31    0.46
   1   1   1    4.59    0.51
   1   1   1    3.70    0.38
  -1  -1  -1    3.94    1.31
   1   1   1    3.60    0.52
  -1  -1  -1    3.73    0.38
  -1  -1  -1    3.89    0.53
  -1  -1  -2  506.45   11.94
  -1  -1  -2  475.39   16.26
  -1  -1  -2  443.32   12.10
  -1  -1  -2  514.07   12.87
   1   1   2  480.11   12.12
   1   1   2  436.81   11.75
   1   1   2  487.55   13.09
   1   1   2  500.79   12.69
  -1  -1  -2  600.91   18.91
  -1  -1  -3  500.08   17.48
   1   1   3  417.68   10.90
   1   1   3  413.50   11.84
  -1  -1  -3  411.32   15.99
  -1  -1  -3  457.86   15.66
  -1  -1  -3  416.90   11.68
   1   1   3  382.73   10.38
   1   1   3  416.73   11.48
  -1  -1  -4   30.63    3.88
  -1  -1  -4   28.42    2.01
   1   1   4   26.73    1.14
   1   1   4   27.88    1.89
   1   1   4   28.88    1.68
   1   1   4   28.61    2.08
  -1  -1  -4   22.17    3.60
  -1  -1  -4   29.47    3.45
   1   1   5  106.03    4.68
  -1  -1  -5  120.49    7.77
   1   1   5  106.88    4.13
  -1  -1  -5  102.14    4.66
  -1  -1  -5  109.04    7.60
   1   1   5   93.82    2.95
  -1  -1  -5   90.53    7.70
   1   1   5  104.38    4.43
   1   1   6  126.59    5.69
  -1  -1  -6  116.13    7.94
  -1  -1  -6  130.72   10.23
  -1  -1  -6  144.38    9.29
  -1  -1  -6  127.75    5.66
   1   1   6  129.28    5.15
   1   1   6  129.43    5.43
   1   1   7   46.91    3.18
  -1  -1  -7   45.17    4.72
  -1  -1  -7   44.01    5.98
   1   1   7   43.44    2.90
  -1  -1  -7   44.50    3.26
  -1  -1  -7   43.26    5.25
   1   1   7   48.07    3.36
  -1  -1  -8    5.86    1.79
   1   1   8    5.21    1.00
  -1  -1  -8    5.10    2.67
   1   1   8    7.12    1.38
  -1  -1  -8    5.01    0.99
   1   1   8    7.87    1.46
  -1  -1  -8    5.49    1.76
  -1  -1  -9    4.37    2.65
  -1  -1  -9    7.54    1.46
   1   1   9    7.58    1.50
  -1  -1  -9    5.33    1.84
   1   1   9    5.34    1.13
   1   1   9    5.24    1.18
  -1  -1  -9    6.09    1.51
   1   1  10   -0.07    0.43
   1   1  10   -0.15    0.66
   1   1  10   -0.32    0.38
  -1  -1 -10    2.88    2.12
  -1  -1 -10    0.39    0.64
  -1  -1 -10   -0.99    0.76
  -1  -1 -10   -1.59    3.02
   1   1  11   34.43    3.27
  -1  -1 -11   43.79    6.26
   1   1  11   37.77    3.54
   1   1  11   36.03    3.27
  -1  -1 -11   37.26    6.97
  -1  -1 -11   36.99    3.69
  -1  -1 -11   34.50    4.22
   1   1  12   35.11    3.57
   1   1  12   36.92    3.56
  -1  -1 -12   35.42    6.49
  -1  -1 -12   34.70    3.61
  -1  -1 -12   33.09    5.74
   1   1  12   37.96    3.48
   1   1  13  174.14    8.83
  -1  -1 -13  163.96    8.99
   1   1  13  169.09    8.83
   1   1  13  170.41    8.53
  -1  -1 -13  156.91   14.88
  -1  -1 -13  175.83   13.99
   1   1  14    1.87    0.98
  -1  -1 -14    0.44    0.66
   1   1  14    0.67    0.54
  -1  -1 -14   -0.43    1.38
   1   1  14    0.84    0.65
   1   1  15   -0.28    0.93
  -1  -1 -15    0.39    0.89
  -1  -1 -15    2.48    2.73
   1   1  15   -0.60    0.66
   1   1  15    2.56    1.27
  -1  -1 -15   -1.01    3.46
  -1  -1 -16    3.67    3.71
   1   1  16    3.08    1.38
   1   1  16    1.91    0.96
  -1  -1 -16    2.19    1.29
   1   1  17    1.61    1.16
  -1  -1 -17    2.55    3.35
  -1  -1 -17    1.23    0.89
   1   1  17    2.47    1.29
  -1  -1 -18    9.52    4.74
   1   1  18   28.49    3.94
   1   1  18   23.71    3.62
  -1  -1 -18   22.18    3.59
   1   1  19    1.70    1.39
   1   2 -20    6.36    2.06
  -1  -2  20    6.30    2.22
   1   2 -19    5.91    2.12
  -1  -2  19    5.46    1.64
  -1  -2  19    3.33    1.52
   1   2 -18   14.81    3.04
  -1  -2  18   15.99    3.31
  -1  -2  18   17.25    2.88
  -1  -2  17   24.74    3.34
  -1  -2  17   29.47    4.41
   1   2 -17   26.17    3.87
  -1  -2  16   -1.00    1.43
  -1  -2  16    1.09    0.68
  -1  -2  16    0.45    0.75
   1   2 -16    2.95    1.60
   1   2 -15    7.27    1.86
  -1  -2  15    6.50    1.75
  -1  -2  15    7.49    1.75
   1   2 -15   11.08    3.66
  -1  -2  15   10.60    2.00
   1   2 -14   -0.72    1.76
  -1  -2  14   -0.42    0.84
  -1  -2  14    0.27    0.76
   1   2 -14    0.35    1.11
   1   2 -13   -0.48    2.24
   1   2 -13   -0.42    1.00
  -1  -2  13   -0.14    0.57
  -1  -2  13    0.53    1.03
   1   2 -12    0.17    0.72
  -1  -2  12    2.32    0.95
   1   2 -12    2.32    1.71
  -1  -2  12    1.28    1.07
   1   2 -11  486.00   17.39
   1   2 -11  422.75   23.67
  -1  -2  11  497.53   17.87
  -1  -2  11  501.27   15.68
   1   2 -10  153.15    7.95
   1   2 -10  138.13   11.91
  -1  -2  10  163.05    8.32
  -1  -2  10  152.96    6.72
  -1  -2   9    1.39    0.74
   1   2  -9    1.94    0.98
   1   2  -9    3.87    2.14
   1   2  -8    8.88    1.64
  -1  -2   8    8.81    1.29
   1   2  -8    8.71    1.61
   1   2  -8    4.57    1.98
  -1  -2   7  112.61    3.57
   1   2  -7  115.18    5.70
   1   2  -7  121.98    5.89
  -1  -2   7  126.30    5.10
   1   2  -7  117.72    9.64
  -1  -2   6   80.62    4.03
   1   2  -6   68.16    3.95
   1   2  -6   68.54    4.03
  -1  -2   6   66.86    2.17
  -1  -2   6   71.41    3.42
   1   2  -5   41.53    2.77
   1   2  -5   38.94    2.76
  -1  -2   5   42.30    2.69
  -1  -2   5   39.89    2.29
  -1  -2   4  342.17    9.29
  -1  -2   4  367.15   10.58
   1   2  -4  353.86   10.79
   1   2  -3   29.11    2.08
  -1  -2   3   25.90    1.52
  -1  -2   3   29.29    1.89
  -1  -2   2  301.03    8.16
   1   2  -2  272.69    8.64
  -1  -2   2  277.03    8.00
   1   2  -2  277.18    7.94
  -1  -2   2  277.14    8.34
   1   2  -1   25.70    1.53
   1   2  -1   27.66    1.88
  -1  -2   1   26.10    1.63
  -1  -2   1   24.19    1.48
  -1  -2   1   27.73    1.83
   1   2   0   -0.67    0.53
  -1  -2   0   -0.19    0.28
  -1  -2   0   -0.19    0.28
   1   2   0   -0.19    0.36
  -1  -2   0   -0.37    0.64
  -1  -2  -1   93.40    6.20
   1   2   1   59.70    3.22
  -1  -2  -1   56.42    4.07
  -1  -2  -1   58.79    2.41
  -1  -2  -1   64.45    2.77
   1   2   1   65.38    2.87
   1   2   2   19.96    1.30
   1   2   2   22.65    1.56
  -1  -2  -2   19.97    2.62
  -1  -2  -2   20.10    1.15
  -1  -2  -2   25.00    3.33
  -1  -2  -2   21.93    1.64
   1   2   2   22.29    1.66
  -1  -2  -3  308.22   13.44
   1   2   3  250.97    8.02
   1   2   3  253.67    7.31
  -1  -2  -3  268.64    7.73
  -1  -2  -3  226.73    6.52
  -1  -2  -3  231.69   11.94
   1   2   3  253.96    7.76
  -1  -2  -4   14.56    2.90
   1   2   4   13.52    1.20
  -1  -2  -4   12.80    1.34
   1   2   4   10.94    0.80
   1   2   4   12.03    1.48
   1   2   4   13.10    1.31
  -1  -2  -4   11.65    2.07
  -1  -2  -4   11.13    2.98
  -1  -2  -4   11.47    0.72
   1   2   5   32.42    2.09
  -1  -2  -5   19.86    3.75
  -1  -2  -5   43.97    5.35
  -1  -2  -5   34.79    4.61
   1   2   5   30.73    2.25
  -1  -2  -5   28.11    1.12
   1   2   5   29.26    1.14
  -1  -2  -5   36.63    2.43
   1   2   5   34.64    2.53
   1   2   6   46.31    3.00
  -1  -2  -6   48.51    5.59
  -1  -2  -6   44.71    2.94
   1   2   6   41.11    2.61
   1   2   6   44.65    3.16
  -1  -2  -6   45.84    5.62
  -1  -2  -6   46.16    6.04
   1   2   7    5.77    1.03
  -1  -2  -7    7.82    2.20
   1   2   7    6.33    1.29
  -1  -2  -7    7.76    2.73
  -1  -2  -7    5.89    1.17
  -1  -2  -7    0.30    2.45
   1   2   7    5.85    1.14
  -1  -2  -8    3.09    0.99
   1   2   8    3.25    0.89
   1   2   8    2.43    0.67
  -1  -2  -8    0.99    2.49
   1   2   8    5.05    1.06
  -1  -2  -8    6.56    2.59
  -1  -2  -8    4.51    2.05
   1   2   9   25.25    2.69
  -1  -2  -9   29.68    4.89
  -1  -2  -9   26.60    4.33
  -1  -2  -9   24.29    2.59
   1   2   9   27.51    2.51
  -1  -2  -9   27.98    5.45
   1   2   9   27.83    2.69
  -1  -2 -10   98.29   10.65
  -1  -2 -10  112.27   10.48
   1   2  10  111.95    6.29
   1   2  10  111.05    6.07
   1   2  10  106.91    5.67
  -1  -2 -10  101.14    8.40
  -1  -2 -10  105.37    6.03
  -1  -2 -11  235.12   16.09
   1   2  11  239.44   10.36
  -1  -2 -11  226.70   12.98
  -1  -2 -11  225.32   10.00
  -1  -2 -11  222.49   17.03
   1   2  11  245.77   10.21
   1   2  11  244.07    9.77
   1   2  12    4.10    1.13
   1   2  12    3.54    1.22
   1   2  12    3.45    1.40
  -1  -2 -12    3.94    3.01
  -1  -2 -12    1.98    1.90
  -1  -2 -12    4.13    1.47
  -1  -2 -13   49.00    8.54
   1   2  13   50.44    4.47
   1   2  13   54.13    4.78
  -1  -2 -13   58.80    8.33
   1   2  13   49.86    4.18
  -1  -2 -13   50.51    4.54
  -1  -2 -14   11.75    5.01
  -1  -2 -14    8.94    2.87
   1   2  14   11.42    2.09
  -1  -2 -14   10.28    1.96
   1   2  14    7.72    1.70
   1   2  14   10.12    2.02
  -1  -2 -15    2.73    1.02
   1   2  15    1.37    0.96
  -1  -2 -15   -4.35    2.93
   1   2  15    2.79    1.32
  -1  -2 -15    2.39    1.86
  -1  -2 -16    2.43    2.77
   1   2  16    1.72    0.62
  -1  -2 -16    5.12    4.21
  -1  -2 -16    6.41    1.88
   1   2  16    7.35    1.95
  -1  -2 -17    8.60    3.64
   1   2  17    8.60    2.24
  -1  -2 -17    6.11    1.84
   1   2  17    8.27    2.10
  -1  -2 -18   14.05    5.63
   1   2  18    9.98    2.40
  -1  -2 -18   11.74    2.55
   1   3 -19    1.28    1.32
  -1  -3  19    0.78    0.88
  -1  -3  19    2.82    1.49
  -1  -3  18    1.12    1.30
  -1  -3  18   -0.15    0.47
   1   3 -18   -1.61    1.57
  -1  -3  17   -0.71    1.27
  -1  -3  17   -1.18    0.95
   1   3 -17    0.26    0.82
   1   3 -16    5.97    1.96
  -1  -3  16    8.08    2.35
  -1  -3  16    4.50    1.43
   1   3 -15    0.99    0.67
  -1  -3  15    1.68    0.95
  -1  -3  15    2.47    1.39
   1   3 -14   13.34    4.30
   1   3 -14   14.97    2.65
  -1  -3  14   16.84    2.41
  -1  -3  14   16.68    2.92
   1   3 -13   19.54    4.84
  -1  -3  13   19.39    3.17
   1   3 -13   15.26    2.70
  -1  -3  13   17.16    2.27
  -1  -3  12    1.13    0.90
   1   3 -12    0.89    2.38
  -1  -3  12   -0.20    0.58
   1   3 -12    0.07    0.74
  -1  -3  11    2.12    0.79
   1   3 -11    3.93    1.38
   1   3 -11    6.47    3.24
  -1  -3  10   -0.06    0.37
   1   3 -10    0.77    1.66
   1   3 -10   -0.49    0.71
   1   3 -10   -0.79    0.85
   1   3  -9  241.37   15.98
   1   3  -9  226.36    9.92
   1   3  -9  247.98   10.42
  -1  -3   9  253.61    9.12
  -1  -3   8   44.33    3.03
  -1  -3   8   51.70    3.62
   1   3  -8   37.51    3.39
   1   3  -8   38.60    3.32
  -1  -3   7    3.76    0.91
   1   3  -7    2.95    1.06
   1   3  -7    2.28    0.85
  -1  -3   7    3.22    0.74
   1   3  -6   29.24    2.69
  -1  -3   6   35.17    2.63
   1   3  -6   28.85    1.23
  -1  -3   6   33.67    2.33
   1   3  -6   32.66    2.73
   1   3  -5   10.46    0.75
   1   3  -5   12.92    1.62
  -1  -3   5   12.21    1.55
  -1  -3   4  288.36    9.30
   1   3  -4  287.90    7.92
   1   3  -4  275.36    9.63
  -1  -3   3    5.88    0.71
  -1  -3   3    6.79    1.00
   1   3  -3    6.30    1.08
   1   3  -2  485.83   13.39
  -1  -3   2  475.17   13.30
  -1  -3   2  476.84   13.63
  -1  -3   2  504.10   13.29
   1   3  -2  491.98   14.32
  -1  -3   1  135.56    5.21
   1   3  -1  148.52    5.86
  -1  -3   1  155.47    5.15
  -1  -3   1  140.40    5.68
   1   3  -1  146.92    5.28
  -1  -3   0   44.90    3.30
  -1  -3   0   43.24    2.39
   1   3   0   45.05    2.90
   1   3   0   48.64    2.70
  -1  -3   0   48.17    2.35
   1   3   1   76.71    3.53
   1   3   1   78.31    4.09
  -1  -3  -1   74.19    5.07
  -1  -3  -1   73.30    3.18
  -1  -3  -1   77.59    3.30
  -1  -3  -2   16.66    2.75
  -1  -3  -2   17.49    1.49
   1   3   2   18.16    1.92
  -1  -3  -2   15.36    1.22
   1   3   2   18.89    1.78
   1   3   3  600.21   17.18
   1   3   3  609.36   16.57
  -1  -3  -3  580.80   22.67
   1   3   3  616.11   16.99
  -1  -3  -3  582.17   15.73
  -1  -3  -4   20.74    3.73
   1   3   4   23.49    2.02
   1   3   4   21.75    2.03
  -1  -3  -4   23.53    3.77
  -1  -3  -4   20.25    1.32
   1   3   4   22.70    1.78
   1   3   5    0.33    0.47
   1   3   5   -0.26    0.43
   1   3   5   -0.07    0.26
  -1  -3  -5    0.03    0.12
  -1  -3  -5   -2.32    1.94
  -1  -3  -5   -1.54    2.11
  -1  -3  -6    7.19    2.46
   1   3   6    3.08    0.73
   1   3   6    2.98    0.88
  -1  -3  -6    5.41    2.80
  -1  -3  -6    2.68    0.39
  -1  -3  -6    3.54    1.89
  -1  -3  -6    3.94    0.85
   1   3   6    2.60    0.27
   1   3   6    4.05    0.94
  -1  -3  -7    1.65    2.63
   1   3   7    0.42    0.67
  -1  -3  -7    1.76    2.20
  -1  -3  -7    1.07    0.20
  -1  -3  -7    2.61    1.64
   1   3   7    1.40    0.54
  -1  -3  -7    1.40    0.75
   1   3   7    1.90    0.71
   1   3   8    3.18    0.94
  -1  -3  -8    4.40    1.01
  -1  -3  -8    4.02    1.79
  -1  -3  -8    3.15    2.28
  -1  -3  -8    7.36    2.65
   1   3   8    3.99    0.91
   1   3   8    5.57    1.26
  -1  -3  -9    4.81    2.31
   1   3   9    7.31    1.50
  -1  -3  -9    9.33    3.60
   1   3   9    7.89    1.56
  -1  -3  -9    5.73    1.22
  -1  -3  -9    4.98    2.48
   1   3   9    7.02    1.23
  -1  -3 -10  132.71   10.91
   1   3  10  152.31    7.08
   1   3  10  159.05    7.72
  -1  -3 -10  150.51   13.12
  -1  -3 -10  148.16   13.62
   1   3  10  153.86    7.82
  -1  -3 -10  158.29    7.56
  -1  -3 -11   -0.32    0.70
   1   3  11    0.88    0.62
  -1  -3 -11   -2.10    1.44
   1   3  11    0.57    0.74
  -1  -3 -11   -1.19    1.51
   1   3  11    0.43    0.77
   1   3  12   13.56    2.33
  -1  -3 -12   13.17    2.09
   1   3  12   15.17    2.40
  -1  -3 -12   12.99    3.90
  -1  -3 -12   16.86    4.50
   1   3  12   11.14    1.87
  -1  -3 -13    3.01    2.18
  -1  -3 -13    0.29    0.64
   1   3  13   -0.41    0.66
   1   3  13    1.07    1.08
   1   3  14    9.22    1.95
  -1  -3 -14    0.45    2.73
  -1  -3 -14    9.74    2.04
   1   3  14   10.62    2.18
  -1  -3 -14   11.96    4.39
  -1  -3 -15   -4.02    3.37
   1   3  15    0.51    0.60
  -1  -3 -15    1.77    0.79
   1   3  15    1.86    0.98
  -1  -3 -15    3.68    2.23
  -1  -3 -16    4.45    4.38
  -1  -3 -16    3.95    2.68
  -1  -3 -16    0.72    1.04
   1   3  16    0.73    0.84
   1   3  16   -0.30    1.05
  -1  -3 -17    7.38    4.08
  -1  -3 -17    4.40    1.55
   1   3  17    5.32    1.76
   1   3  17    5.24    1.62
  -1  -4  19    1.31    1.18
   1   4 -19    3.19    1.57
  -1  -4  19    3.00    1.22
  -1  -4  18   -0.33    0.91
   1   4 -18    0.45    1.37
  -1  -4  18   -0.35    1.08
  -1  -4  17    0.94    1.53
  -1  -4  17    0.60    0.55
   1   4 -17    0.64    1.38
  -1  -4  16   -0.12    0.45
  -1  -4  16    0.61    0.82
   1   4 -16    0.96    0.95
   1   4 -15   29.47    4.13
  -1  -4  15   32.76    3.60
  -1  -4  15   31.03    4.43
  -1  -4  14    2.86    1.43
  -1  -4  14    2.56    0.99
   1   4 -14    2.91    1.45
   1   4 -13    8.99    4.14
   1   4 -13   11.48    2.43
  -1  -4  13   13.37    2.16
   1   4 -12   14.63    3.98
   1   4 -12   15.24    2.59
  -1  -4  12   15.99    2.22
   1   4 -11   63.37    5.25
   1   4 -11   60.57    8.29
   1   4 -11   64.99    5.43
  -1  -4  11   73.56    4.72
   1   4 -10   31.94    5.92
  -1  -4  10   57.10    4.51
   1   4 -10   40.18    4.04
  -1  -4  10   47.86    3.59
   1   4 -10   36.15    3.72
  -1  -4   9  220.36    9.21
  -1  -4   9  197.76    8.17
   1   4  -9  199.29    9.18
   1   4  -9  194.10    9.39
  -1  -4   8   -0.34    0.60
   1   4  -8   -0.60    0.83
  -1  -4   8    0.29    0.37
   1   4  -8   -0.05    0.10
   1   4  -8   -0.18    0.70
   1   4  -7   -0.25    0.56
   1   4  -7    0.23    0.54
   1   4  -7   -0.04    0.15
  -1  -4   7   -0.53    0.48
  -1  -4   7    0.50    0.45
   1   4  -6   52.36    2.30
   1   4  -6   53.83    3.81
  -1  -4   6   63.58    3.84
   1   4  -5   38.37    3.05
   1   4  -5   36.61    2.01
  -1  -4   5   39.25    2.93
   1   4  -4    2.86    0.55
   1   4  -4    2.90    0.86
  -1  -4   4    3.17    0.51
  -1  -4   4    4.04    0.91
   1   4  -3  141.06    6.25
  -1  -4   3  146.38    5.44
  -1  -4   3  129.66    4.84
  -1  -4   3  140.84    5.85
   1   4  -2   30.59    2.61
  -1  -4   2   28.40    2.27
  -1  -4   2   31.37    2.16
  -1  -4   2   31.52    2.07
   1   4  -2   30.33    2.23
  -1  -4   1    0.38    0.26
  -1  -4   1    0.64    0.33
   1   4  -1   -0.32    0.48
   1   4  -1   -0.22    0.53
  -1  -4   1    1.12    0.50
   1   4   0   66.58    3.55
   1   4   0   69.71    4.06
  -1  -4   0   62.48    3.02
  -1  -4   0   62.66    3.30
  -1  -4   0   67.80    4.52
  -1  -4  -1  114.44    6.97
   1   4   1  121.19    5.25
   1   4   1  120.25    5.81
  -1  -4  -1  118.66    4.62
  -1  -4  -1  114.60    4.72
  -1  -4  -2    0.13    0.24
   1   4   2    1.16    0.92
  -1  -4  -2   -1.21    1.71
  -1  -4  -2   -0.33    0.39
   1   4   2    0.17    0.36
  -1  -4  -3   11.45    2.90
   1   4   3    8.67    1.57
   1   4   3    6.96    1.13
  -1  -4  -3    9.09    2.37
  -1  -4  -3    8.76    1.02
  -1  -4  -4   28.93    4.67
  -1  -4  -4   16.96    3.76
   1   4   4   19.09    1.85
   1   4   4   19.93    2.41
   1   4   4   18.94    2.02
  -1  -4  -4   17.71    1.43
  -1  -4  -5   48.77    6.27
   1   4   5   56.98    3.79
   1   4   5   54.09    3.36
  -1  -4  -5   65.05    7.42
  -1  -4  -5   52.80    2.56
   1   4   5   59.38    3.74
   1   4   6    8.09    1.27
   1   4   6    7.18    1.43
  -1  -4  -6    6.21    0.74
   1   4   6    6.92    1.34
  -1  -4  -6    8.90    2.98
  -1  -4  -6    2.60    2.00
   1   4   7   26.85    2.65
   1   4   7   27.74    2.80
  -1  -4  -7   25.65    5.18
  -1  -4  -7   30.96    5.63
   1   4   7   22.15    2.18
   1   4   8  259.44    9.65
  -1  -4  -8  295.18   18.62
   1   4   8  247.76   10.43
   1   4   8  266.54   10.45
  -1  -4  -8  225.20   16.96
   1   4   9   74.46    5.10
  -1  -4  -9   74.12    9.57
  -1  -4  -9   73.38    9.05
   1   4   9   76.05    4.65
   1   4   9   70.90    5.10
  -1  -4 -10   -0.36    2.08
   1   4  10    1.17    0.74
   1   4  10    0.63    0.88
  -1  -4 -10    1.22    0.68
   1   4  10    0.24    0.62
  -1  -4 -11    1.28    1.89
   1   4  11    0.88    0.87
   1   4  11    1.40    1.21
   1   4  11   -0.55    0.59
  -1  -4 -11    0.86    0.51
   1   4  12    0.44    0.62
   1   4  12   -0.28    0.74
  -1  -4 -12    0.22    0.52
  -1  -4 -13    2.00    0.96
  -1  -4 -13    3.04    3.14
   1   4  13    1.50    1.03
   1   4  13    2.12    1.01
  -1  -4 -14    2.25    2.30
  -1  -4 -14    5.19    1.50
   1   4  14    5.97    1.86
   1   4  14    4.84    1.41
  -1  -4 -15   58.87   10.32
   1   4  15   67.44    6.06
   1   4  15   61.37    5.67
  -1  -4 -15   70.45    5.66
  -1  -4 -16    1.53    0.72
   1   4  16    3.14    1.55
   1   4  16   -0.61    1.14
  -1  -4 -16    2.05    3.44
  -1  -5  19    0.00    0.52
  -1  -5  18    9.43    2.16
  -1  -5  18    8.05    2.61
   1   5 -18   10.04    2.78
  -1  -5  17    1.26    1.04
   1   5 -17    0.13    1.16
  -1  -5  17   -0.18    0.88
  -1  -5  16    1.84    1.14
   1   5 -16    1.24    1.37
  -1  -5  16    0.34    0.43
  -1  -5  15   12.86    2.16
   1   5 -15   12.02    2.69
  -1  -5  15   11.97    2.81
   1   5 -14    9.76    2.52
  -1  -5  14    4.60    1.21
   1   5 -13   -1.20    1.43
  -1  -5  13    1.20    0.85
   1   5 -12    1.94    0.96
   1   5 -12    2.82    0.96
   1   5 -12    2.00    2.10
  -1  -5  12    2.89    1.06
   1   5 -11   54.42    5.16
  -1  -5  11   62.12    4.51
   1   5 -11   65.54    5.40
  -1  -5  11   76.20    5.74
   1   5 -11   52.07    8.24
   1   5 -10    0.89    0.96
  -1  -5  10   -0.67    0.82
   1   5 -10    0.92    0.90
  -1  -5  10    0.17    0.57
   1   5  -9   16.00    2.43
  -1  -5   9   17.32    2.16
   1   5  -9   16.51    2.68
  -1  -5   9   19.67    2.56
  -1  -5   8   25.21    2.77
   1   5  -8   28.82    3.15
   1   5  -8   21.55    2.95
  -1  -5   8   23.37    2.36
  -1  -5   7    0.28    0.75
   1   5  -7    0.19    0.26
   1   5  -7   -0.15    0.82
   1   5  -6   72.45    4.77
   1   5  -6   63.93    3.09
  -1  -5   6   70.95    4.49
   1   5  -5    0.92    0.71
   1   5  -5    0.19    0.32
  -1  -5   5   -0.65    0.69
   1   5  -4    2.16    0.58
  -1  -5   4    3.83    1.01
  -1  -5   4    2.82    0.52
  -1  -5   4    1.27    0.42
   1   5  -4    1.40    0.73
  -1  -5   3   -0.24    0.49
   1   5  -3    0.54    0.86
  -1  -5   3    0.37    0.29
  -1  -5   3    0.67    0.43
   1   5  -2  168.86    6.77
   1   5  -2  168.07    7.44
  -1  -5   2  156.97    6.33
  -1  -5   2  160.26    6.79
  -1  -5   2  170.56    6.32
  -1  -5   1  128.38    5.07
   1   5  -1  121.08    5.58
   1   5  -1  119.95    6.09
  -1  -5   1  123.61    5.58
  -1  -5   1  120.75    5.92
   1   5   0   23.65    2.50
   1   5   0   23.31    2.27
  -1  -5   0   24.42    2.82
  -1  -5   0   22.26    1.78
  -1  -5   0   21.95    2.01
   1   5   1    0.10    0.43
  -1  -5  -1    0.36    0.89
  -1  -5  -1    0.61    0.53
  -1  -5  -1    0.47    0.32
   1   5   1   -1.05    0.70
  -1  -5  -2    1.36    1.18
   1   5   2    1.83    0.73
   1   5   2    0.49    0.68
  -1  -5  -2    1.25    0.54
  -1  -5  -2    0.25    0.32
   1   5   3   70.87    4.35
   1   5   3   79.15    5.10
  -1  -5  -3   65.62    6.38
  -1  -5  -3   71.12    3.67
  -1  -5  -4   35.51    5.78
   1   5   4   30.33    2.83
   1   5   4   30.46    3.26
  -1  -5  -4   25.99    4.44
  -1  -5  -4   24.15    1.94
   1   5   5   15.03    1.85
   1   5   5   14.19    1.93
   1   5   5   14.79    2.19
  -1  -5  -5   15.58    3.55
  -1  -5  -5   11.67    1.27
  -1  -5  -5   14.47    3.64
  -1  -5  -6    5.22    2.00
  -1  -5  -6    4.28    0.73
   1   5   6    5.95    1.30
   1   5   6    5.11    1.51
   1   5   6    5.61    1.18
  -1  -5  -6    7.31    2.81
  -1  -5  -7    6.63    3.27
   1   5   7    6.21    1.42
   1   5   7    9.33    1.67
   1   5   7    8.47    1.43
  -1  -5  -7    5.19    2.80
   1   5   8    3.98    1.13
  -1  -5  -8    2.23    1.81
   1   5   8    4.70    1.13
  -1  -5  -8    8.64    3.59
   1   5   8    6.30    1.45
  -1  -5  -9   22.82    5.40
   1   5   9   27.54    3.10
   1   5   9   26.99    3.21
   1   5   9   25.25    2.71
  -1  -5  -9   32.77    6.47
  -1  -5 -10   22.62    6.00
   1   5  10   15.13    2.12
   1   5  10   19.20    2.66
   1   5  10   15.94    2.52
  -1  -5 -10   18.17    5.20
  -1  -5 -11    5.52    3.70
   1   5  11    7.46    1.75
   1   5  11    7.45    1.87
   1   5  12    1.32    1.08
   1   5  12    2.19    1.23
  -1  -5 -12    3.72    4.14
  -1  -5 -13    7.46    3.98
   1   5  13    2.67    1.19
   1   5  13    6.66    1.86
   1   5  14   22.11    3.34
   1   5  14   22.49    3.49
  -1  -5 -14   21.25    5.68
   1   5  15   54.46    5.58
  -1  -5 -15   46.01    9.14
   1   5  15   52.50    5.36
  -1  -6  18    0.59    0.93
  -1  -6  17    2.68    1.62
  -1  -6  17    1.38    0.85
   1   6 -17    4.45    2.17
  -1  -6  16    0.40    0.51
  -1  -6  16    2.21    1.57
   1   6 -16    1.35    1.32
   1   6 -15   -0.38    1.00
  -1  -6  15   -0.03    0.51
  -1  -6  14    5.40    1.50
   1   6 -14    5.95    2.18
   1   6 -13    5.79    1.85
  -1  -6  13    6.80    1.54
   1   6 -12    1.44    0.86
   1   6 -12    3.16    1.34
  -1  -6  12    3.20    1.23
  -1  -6  12    3.70    1.53
  -1  -6  11    1.41    1.10
   1   6 -11    0.05    1.00
  -1  -6  11    1.50    0.68
   1   6 -11    0.56    0.73
  -1  -6  10    1.16    0.97
   1   6 -10   -1.06    1.35
   1   6 -10    0.21    1.01
  -1  -6  10    0.68    0.69
  -1  -6   9   52.36    4.10
   1   6  -9   52.22    4.66
   1   6  -9   59.65    5.28
  -1  -6   9   61.70    4.84
   1   6  -8    3.29    1.15
   1   6  -8    2.96    1.16
  -1  -6   8    5.57    1.44
  -1  -6   7   14.53    2.22
   1   6  -7   13.63    2.24
   1   6  -6   26.90    3.02
   1   6  -6   24.63    2.03
  -1  -6   6   26.47    2.93
  -1  -6   5    1.96    0.57
   1   6  -5    3.32    1.09
  -1  -6   5    3.98    1.18
   1   6  -5    2.87    0.70
   1   6  -4   24.12    2.32
  -1  -6   4   27.33    1.75
  -1  -6   4   33.27    2.99
   1   6  -4   29.70    2.98
  -1  -6   4   29.48    2.51
   1   6  -3    0.54    0.75
  -1  -6   3   -0.19    0.56
  -1  -6   3   -0.23    0.38
  -1  -6   3    0.26    0.35
   1   6  -3   -0.32    0.63
  -1  -6   2  187.20    7.97
  -1  -6   2  181.40    7.22
   1   6  -2  192.23    7.91
   1   6  -2  185.12    8.60
  -1  -6   2  192.19    7.25
  -1  -6   1  155.13    6.09
  -1  -6   1  144.81    6.91
   1   6  -1  146.53    7.41
   1   6  -1  149.27    6.85
  -1  -6   1  145.80    6.73
   1   6   0   10.71    1.84
  -1  -6   0    9.79    1.94
  -1  -6   0   10.35    1.31
  -1  -6   0   10.55    1.63
   1   6   0   10.38    1.61
   1   6   1  311.72   11.85
  -1  -6  -1  287.48    9.61
  -1  -6  -1  282.57   12.88
   1   6   1  308.75   11.08
  -1  -6  -1  289.28   10.30
   1   6   2   21.90    2.48
  -1  -6  -2   21.94    2.15
   1   6   2   21.65    2.63
  -1  -6  -2   23.16    3.58
   1   6   3    2.24    1.03
  -1  -6  -3   -0.55    1.61
   1   6   3    2.99    1.02
  -1  -6  -3    1.74    0.65
  -1  -6  -4    1.51    2.23
  -1  -6  -4    3.04    1.95
   1   6   4    3.10    1.19
   1   6   4    0.50    0.55
  -1  -6  -4    2.43    0.74
   1   6   5   35.98    3.76
   1   6   5   41.54    3.64
  -1  -6  -5   35.41    5.63
  -1  -6  -5   32.76    2.53
  -1  -6  -5   51.40    7.71
   1   6   6   60.19    4.54
   1   6   6   51.10    4.71
  -1  -6  -6   50.20    7.61
  -1  -6  -6   48.96    6.86
   1   6   7    1.35    0.76
  -1  -6  -7    2.09    1.80
  -1  -6  -7    2.90    2.57
   1   6   7    0.50    0.98
   1   6   8   10.00    2.04
   1   6   8    7.73    1.55
  -1  -6  -8    6.34    3.38
   1   6   8    8.98    2.07
  -1  -6  -8    6.48    3.57
   1   6   9   -0.56    0.75
  -1  -6  -9    2.06    2.79
   1   6   9    0.20    0.94
  -1  -6  -9    2.89    2.49
   1   6  10    0.83    0.82
  -1  -6 -10   -0.33    3.35
   1   6  10    1.53    1.05
  -1  -6 -10   -2.33    2.17
  -1  -6 -11   -0.02    1.98
   1   6  11    1.80    1.17
   1   6  12   -0.96    1.14
   1   6  12    3.22    1.38
  -1  -6 -12    5.01    4.21
  -1  -6 -13   13.24    4.83
   1   6  13   17.81    3.09
   1   6  13   17.43    3.06
   1   6  14    8.79    2.17
   1   6  14   13.06    2.76
  -1  -6 -14   10.45    4.73
  -1  -7  17    0.99    0.76
  -1  -7  16    1.10    0.70
   1   7 -16    1.97    1.55
  -1  -7  15    0.30    0.61
   1   7 -15   -0.38    1.75
   1   7 -14   -0.42    0.91
  -1  -7  14    0.70    0.61
   1   7 -13   29.92    4.15
  -1  -7  13   32.88    3.73
   1   7 -13   33.08    4.51
   1   7 -12    5.37    1.78
  -1  -7  12    5.17    1.54
  -1  -7  12    5.22    1.81
   1   7 -12    1.58    1.05
  -1  -7  11   16.50    2.79
   1   7 -11   15.02    2.86
  -1  -7  11   17.57    2.62
   1   7 -11   17.03    2.94
  -1  -7  10    4.67    1.41
   1   7 -10    4.63    2.00
  -1  -7  10    4.94    1.39
   1   7 -10    2.15    0.97
   1   7  -9    0.52    0.72
   1   7  -9   -1.67    0.58
  -1  -7   9    0.62    0.76
  -1  -7   9    0.23    0.35
   1   7  -8    1.88    1.11
  -1  -7   8    1.22    0.79
  -1  -7   7   -0.49    0.50
   1   7  -7   -0.05    0.67
  -1  -7   7    0.59    0.40
   1   7  -6   31.66    3.56
  -1  -7   6   33.85    3.53
  -1  -7   6   36.07    3.28
   1   7  -5    1.49    0.92
  -1  -7   5    0.96    0.60
  -1  -7   5    2.07    0.92
   1   7  -5    1.25    0.59
   1   7  -4   68.01    4.45
  -1  -7   4   74.42    5.17
  -1  -7   4   73.30    4.47
   1   7  -4   71.70    5.35
  -1  -7   3    7.32    1.49
   1   7  -3    6.06    1.30
   1   7  -3    7.39    1.77
  -1  -7   3    6.24    1.26
   1   7  -2    1.91    0.89
  -1  -7   2    3.02    1.05
  -1  -7   2    2.36    0.76
   1   7  -2    2.84    1.31
   1   7  -1   15.29    2.13
  -1  -7   1   13.55    1.64
   1   7  -1   18.00    2.55
  -1  -7   1   15.31    2.10
  -1  -7   0    1.89    0.69
   1   7   0    1.57    0.73
   1   7   0    2.74    1.00
  -1  -7   0    3.09    1.10
  -1  -7  -1   44.44    3.49
   1   7   1   48.81    3.99
  -1  -7  -1   39.87    4.33
   1   7   1   48.76    4.27
   1   7   2   19.04    2.52
  -1  -7  -2   14.07    2.85
  -1  -7  -2   14.96    2.02
   1   7   2   20.32    2.76
  -1  -7  -3   25.91    2.55
   1   7   3   27.10    3.12
   1   7   3   28.08    3.29
  -1  -7  -3   39.81    6.93
  -1  -7  -3   25.80    4.05
   1   7   4    3.16    1.23
  -1  -7  -4    4.41    2.00
   1   7   4    3.24    1.18
  -1  -7  -4    4.04    1.84
  -1  -7  -4    2.75    0.80
  -1  -7  -5    1.62    1.99
   1   7   5    0.15    0.77
  -1  -7  -5    0.31    1.89
   1   7   5    1.83    1.21
   1   7   6    3.66    1.53
   1   7   6    4.37    1.40
  -1  -7  -6    4.41    2.14
  -1  -7  -6    2.65    2.96
   1   7   7    0.29    0.67
  -1  -7  -7    3.08    2.07
   1   7   7    1.93    1.59
  -1  -7  -7    1.89    1.59
  -1  -7  -8   -0.47    1.75
   1   7   8    1.50    1.29
  -1  -7  -8    4.19    3.64
   1   7   8    0.45    1.05
   1   7   9    0.14    1.01
  -1  -7  -9    0.79    1.69
  -1  -7  -9   -0.90    2.35
   1   7   9    0.24    0.82
   1   7  10   -0.69    0.92
   1   7  10   -0.52    0.76
  -1  -7 -10   -1.61    1.45
  -1  -7 -11    4.50    3.43
   1   7  11    4.73    1.73
   1   7  11    1.78    1.16
  -1  -7 -12   30.28    7.26
   1   7  12   21.95    3.40
   1   7  12   22.36    4.02
  -1  -8  16   -1.05    0.97
  -1  -8  15    4.40    1.74
   1   8 -14   10.79    2.72
  -1  -8  14   14.55    2.64
   1   8 -13   94.08    7.92
  -1  -8  13   98.04    6.93
   1   8 -13   90.95    8.10
  -1  -8  12   -0.62    0.41
  -1  -8  12   -0.10    0.75
   1   8 -12    0.55    1.36
   1   8 -12    1.51    1.37
  -1  -8  11    0.31    0.58
  -1  -8  11    1.42    1.03
   1   8 -11   -0.94    0.99
   1   8 -11    1.65    1.20
   1   8 -10    1.46    1.22
  -1  -8  10    0.60    0.62
  -1  -8  10    2.65    1.23
   1   8 -10    2.47    1.27
  -1  -8  10   -0.50    0.97
  -1  -8   9    4.34    1.62
   1   8  -9    6.80    2.03
  -1  -8   9    4.42    1.34
   1   8  -9    4.26    1.80
  -1  -8   9    3.65    1.16
  -1  -8   8   -0.13    0.72
  -1  -8   8    0.95    1.03
   1   8  -8   -0.60    0.88
  -1  -8   7   10.82    2.29
   1   8  -7   12.12    2.36
  -1  -8   7   15.04    2.29
   1   8  -6    4.36    1.51
  -1  -8   6    4.63    1.53
  -1  -8   6    2.88    1.04
   1   8  -5   -0.55    0.95
  -1  -8   5   -0.62    0.69
  -1  -8   5   -1.30    0.84
   1   8  -4    9.91    2.04
  -1  -8   4   12.06    2.18
  -1  -8   4    9.26    1.56
   1   8  -3    0.64    0.74
   1   8  -3   -0.66    0.97
  -1  -8   3    0.34    0.50
  -1  -8   2   34.24    3.54
   1   8  -2   29.35    3.33
   1   8  -2   33.00    3.74
   1   8  -1    5.56    1.49
  -1  -8   1    7.95    1.66
   1   8  -1    5.63    1.46
   1   8   0    0.53    0.73
  -1  -8   0    0.30    0.65
   1   8   0    0.44    0.70
   1   8   1    0.19    0.73
   1   8   1    1.07    0.76
  -1  -8  -1    0.77    0.62
   1   8   2    6.68    1.64
  -1  -8  -2    4.45    1.05
   1   8   2    6.79    1.81
   1   8   3   15.68    2.51
  -1  -8  -3   29.16    6.35
   1   8   3   14.58    2.58
  -1  -8  -3   14.52    2.10
   1   8   4    1.04    0.83
   1   8   4   -0.25    1.14
  -1  -8  -4   -0.97    1.15
  -1  -8  -4    0.73    3.26
  -1  -8  -5   18.91    5.48
   1   8   5   14.78    2.43
   1   8   5   14.82    2.63
  -1  -8  -5   15.09    3.77
  -1  -8  -6    3.57    2.10
   1   8   6    3.73    1.56
  -1  -8  -6   11.43    5.09
   1   8   6    5.24    1.60
   1   8   7    3.33    1.17
   1   8   7    1.82    0.74
  -1  -8  -7    0.39    1.87
  -1  -8  -7    2.87    2.65
   1   8   8    4.93    1.71
  -1  -8  -8    5.07    2.42
   1   8   8    3.89    1.33
  -1  -8  -8    2.25    1.92
   1   8   9    3.38    1.78
   1   8   9   -0.34    0.82
  -1  -8  -9    1.34    1.85
  -1  -8  -9   -1.78    2.31
   1   8  10   19.58    3.18
  -1  -8 -10   22.35    5.64
   1   8  10   20.08    3.53
  -1  -8 -11   18.84    5.04
  -1  -9  14   21.90    3.44
  -1  -9  13   24.46    3.51
  -1  -9  13   24.82    3.85
  -1  -9  12   10.89    2.57
  -1  -9  12   10.50    2.19
   1   9 -12   12.51    2.85
   1   9 -12   10.30    2.68
  -1  -9  12   12.14    2.66
  -1  -9  11    1.18    1.10
  -1  -9  11    0.49    0.78
   1   9 -11    1.24    1.00
   1   9 -11   -0.98    1.44
  -1  -9  11   -0.44    0.65
  -1  -9  10    3.30    1.64
   1   9 -10    1.65    0.77
   1   9 -10    2.55    1.50
  -1  -9  10    2.20    0.57
  -1  -9  10    1.77    0.99
  -1  -9   9    7.55    2.01
  -1  -9   9    5.98    1.74
   1   9  -9    7.92    2.30
   1   9  -9    7.19    2.12
  -1  -9   8    0.16    0.59
   1   9  -8    0.95    1.03
  -1  -9   8    3.81    1.78
   1   9  -7   14.93    2.90
  -1  -9   7   14.37    2.81
   1   9  -6   56.92    5.50
  -1  -9   6   66.25    5.86
   1   9  -5   -0.09    0.69
  -1  -9   5   -1.03    1.05
   1   9  -4    3.65    1.46
  -1  -9   4    2.19    0.98
  -1  -9   3   12.00    2.34
   1   9  -3    9.20    2.25
   1   9  -2   42.47    4.30
   1   9  -2   39.77    4.40
  -1  -9   2   43.96    4.42
   1   9  -1   12.34    2.38
   1   9  -1    9.23    2.11
  -1  -9   1   11.91    2.24
   1   9   0    6.55    2.00
  -1  -9   0    7.89    1.82
   1   9   0    8.90    2.03
   1   9   1    8.61    1.96
  -1  -9  -1    7.20    1.59
   1   9   1    6.53    1.98
  -1  -9  -2    3.52    1.33
   1   9   2    2.93    1.40
  -1  -9  -2    5.63    4.23
   1   9   2    2.97    1.41
   1   9   3    1.97    0.59
   1   9   3    5.18    1.71
  -1  -9  -3    5.81    2.43
   1   9   4   22.91    3.47
  -1  -9  -4   34.86    8.10
   1   9   4   28.13    3.59
  -1  -9  -5   -2.47    2.00
   1   9   5    0.49    1.12
   1   9   5    0.95    1.36
   1   9   6    0.97    0.79
   1   9   6    3.97    1.42
  -1  -9  -6    4.64    3.81
   1   9   7    7.07    2.15
   1   9   7    7.47    2.11
  -1  -9  -7    7.47    4.93
  -1  -9  -8    7.20    4.17
   1   9   8   13.28    2.77
   1  10 -10    8.85    2.61
  -1 -10  10    6.52    1.79
   1  10  -9   16.94    3.36
  -1 -10   9   21.75    3.85
   1  10  -9   20.56    3.96
   1  10  -8   40.73    5.01
  -1 -10   8   54.47    5.93
   1  10  -7    2.58    1.51
  -1 -10   7    0.30    1.10
   1  10  -6    0.37    0.95
  -1 -10   6   -1.16    1.14
   1  10  -5   -0.59    0.84
  -1 -10   5    0.01    0.63
   1  10  -4   10.29    2.43
  -1 -10   4    9.20    2.21
  -1 -10   3    8.91    2.16
   1  10  -3    8.63    2.40
   1  10  -2    8.84    1.92
  -1 -10   2   12.84    2.56
   1  10  -1    1.53    1.38
  -1 -10   1    0.00    0.59
   1  10   0    3.43    1.35
   1  10   0    2.81    1.42
  -1 -10   0    4.80    1.58
   1  10   1    1.85    1.27
  -1 -10  -1    0.85    2.18
   1  10   1    3.98    1.72
  -1 -10  -2    3.11    3.24
   1  10   2   -0.48    1.11
   1  10   2   -0.29    1.05
   1  10   2    0.22    0.66
   1  10   3    1.06    1.35
  -1 -10  -3   -1.69    2.96
   1  10   3   -0.18    0.93
  -1 -10  -4   16.32    6.49
   1  10   4    8.22    2.13
  -1 -10  -5   24.96    8.11
  -1 -10  -6   11.66    5.80
   1  11  -6    0.03    0.64
   1  11  -5    5.18    1.70
  -1 -11   4    1.46    0.90
   1  11  -4    1.29    0.70
  -1 -11   3   -0.80    0.99
   1  11  -3    0.17    0.94
   1  11  -2   -0.15    0.57
  -1 -11   2   -0.44    1.23
   1  11  -1   -0.06    0.59
  -1 -11   1    1.64    1.12
   2 -12  -2   -0.69    0.51
  -2  12   1    2.40    1.42
   2 -12  -1    4.26    1.61
  -2  12   0    3.93    1.77
  -2  12  -1    0.88    0.65
  -2  12  -2   -0.70    0.39
  -2  12  -3    1.19    0.83
  -2  12  -4    1.16    0.75
  -2  11   5   52.47    5.99
   2 -11  -4   -0.66    0.65
  -2  11   4   -0.19    0.72
   2 -11  -3   10.42    2.22
  -2  11   3    7.26    2.03
   2 -11  -2    1.95    1.11
  -2  11   2    1.99    1.01
  -2  11   1   -0.42    0.66
   2 -11  -1   -0.10    0.66
  -2  11   0    3.24    1.51
   2 -11   0    1.93    0.49
  -2  11   0    4.23    1.15
   2 -11   1    7.58    2.03
  -2  11  -1    3.24    1.19
  -2  11  -1    2.27    0.89
   2 -11   2   12.90    2.68
  -2  11  -2    9.53    1.94
  -2  11  -2    8.53    1.97
  -2  11  -3   10.67    2.20
  -2  11  -3    9.67    1.96
   2 -11   3   11.49    2.59
  -2  11  -4    0.52    0.65
   2 -11   4   -1.12    0.99
  -2  11  -5    0.33    0.46
   2 -11   5    2.06    1.08
   2 -11   6   -0.03    0.79
  -2  11  -6    1.91    1.25
  -2  11  -6    2.04    0.88
  -2  11  -7    2.64    1.62
   2 -11   7    0.56    0.77
  -2  11  -7    0.64    0.84
  -2  11  -8    0.07    0.74
  -2  11  -8    0.75    0.74
  -2  10   9   12.43    2.48
  -2  10   8    0.94    0.74
  -2  10   8   -2.20    1.81
  -2  10   7   -0.27    0.62
  -2  10   7    0.29    1.36
  -2  10   6    9.65    1.97
  -2  10   6   11.05    2.86
   2 -10  -5    0.89    0.82
  -2  10   5    0.92    0.90
  -2  10   4    5.81    1.92
   2 -10  -4    5.53    1.51
  -2  10   3    3.34    1.41
   2 -10  -3    4.78    1.44
   2 -10  -2    2.74    1.16
  -2  10   2    3.80    1.22
   2 -10  -1    0.50    0.69
  -2  10   1   -0.31    0.63
  -2  10   1    0.44    0.76
  -2  10   0    1.72    0.85
  -2  10   0    3.72    1.20
   2 -10   0    4.79    1.49
  -2  10  -1   16.79    2.45
  -2  10  -1   20.49    2.99
   2 -10   1   21.44    3.05
   2 -10   2    5.19    1.55
  -2  10  -2    5.48    1.29
  -2  10  -2    9.36    2.10
  -2  10  -3   10.58    2.21
  -2  10  -3    9.38    1.91
   2 -10   3   13.70    2.49
   2 -10   4    3.97    1.36
  -2  10  -4    2.82    1.05
  -2  10  -4    1.29    0.62
  -2  10  -5    5.02    1.52
  -2  10  -5    4.98    1.65
   2 -10   5    3.41    1.26
  -2  10  -6    2.69    1.27
   2 -10   6    5.08    1.78
  -2  10  -6    5.54    2.14
  -2  10  -6    2.09    0.88
  -2  10  -7   -0.45    0.77
  -2  10  -7   -0.29    0.53
  -2  10  -7    1.70    1.33
   2 -10   7    0.06    0.77
  -2  10  -8    0.67    0.90
  -2  10  -8   -0.51    0.88
   2 -10   8    0.32    1.04
  -2  10  -9   31.49    4.68
  -2  10  -9   26.45    3.40
   2 -10   9   32.70    4.07
   2 -10   9   33.04    4.23
  -2  10 -10    0.26    0.61
   2 -10  10   -0.18    1.02
  -2  10 -10    1.25    1.57
   2 -10  10    1.77    1.47
  -2  10 -11    1.12    1.48
  -2  10 -11    0.32    0.58
   2 -10  11    2.06    0.88
   2 -10  11   -0.95    1.28
  -2   9  12    4.49    1.83
   2  -9 -12    3.99    4.01
  -2   9  12    3.22    1.37
  -2   9  11   73.37    6.64
  -2   9  11   79.70    6.30
   2  -9 -11   76.88   12.23
   2  -9 -10    3.61    3.67
  -2   9  10    0.52    0.63
  -2   9  10   -1.78    1.46
  -2   9  10    1.71    1.67
  -2   9   9    3.78    1.35
   2  -9  -9    2.93    2.30
  -2   9   9    6.03    1.87
  -2   9   9    5.07    1.42
  -2   9   8    4.08    1.56
  -2   9   8    0.86    0.61
  -2   9   8    3.13    1.81
   2  -9  -8    6.23    3.77
  -2   9   7    1.61    0.87
  -2   9   7    3.07    1.11
  -2   9   6   12.20    2.11
   2  -9  -6   11.09    2.01
  -2   9   6   10.06    2.45
  -2   9   5    1.12    0.86
  -2   9   5    0.12    0.72
   2  -9  -5   -0.21    0.36
   2  -9  -4   14.43    2.36
  -2   9   4   17.01    2.83
  -2   9   3    0.62    0.68
  -2   9   3    2.99    0.86
   2  -9  -3    2.33    1.01
  -2   9   2    1.27    0.88
  -2   9   2    0.50    0.47
   2  -9  -2    1.54    0.88
  -2   9   1    2.59    1.08
   2  -9  -1    1.69    0.82
  -2   9   1    3.46    1.03
  -2   9   0    2.98    0.83
  -2   9   0    4.07    1.19
   2  -9   0    6.78    1.67
  -2   9  -1   10.82    1.81
  -2   9  -1    9.89    1.71
   2  -9   1   15.09    2.38
  -2   9  -1   12.18    2.23
   2  -9   2    1.00    0.86
  -2   9  -2   -0.57    0.68
  -2   9  -2    0.44    0.56
  -2   9  -2    1.26    0.93
  -2   9  -3    2.28    1.05
   2  -9   3    2.24    1.06
  -2   9  -3    1.88    0.89
  -2   9  -3    0.84    0.71
   2  -9   4   -0.34    0.47
  -2   9  -4    0.10    0.48
  -2   9  -4    0.12    0.48
  -2   9  -4   -0.30    0.83
  -2   9  -5    0.91    0.84
  -2   9  -5   -0.25    0.54
  -2   9  -5    0.92    0.75
   2  -9   5    2.07    1.31
  -2   9  -6   24.51    2.85
  -2   9  -6   21.36    3.24
  -2   9  -6   19.15    2.91
   2  -9   6   28.21    3.50
  -2   9  -6   19.06    2.57
   2  -9   7    0.28    0.54
  -2   9  -7    0.94    1.14
  -2   9  -7    0.96    0.71
  -2   9  -7    0.09    0.76
  -2   9  -8   10.60    2.56
   2  -9   8   12.77    2.44
  -2   9  -8   10.26    2.01
   2  -9   9    1.18    0.90
  -2   9  -9    2.52    1.21
  -2   9  -9   -0.25    0.77
   2  -9   9   -1.18    1.04
  -2   9 -10   -1.91    1.22
  -2   9 -10   -0.73    1.15
   2  -9  10   -0.53    0.78
   2  -9  10    0.49    0.81
   2  -9  11    1.61    0.97
  -2   9 -11    2.89    1.29
  -2   9 -11   -0.17    0.76
   2  -9  11    0.06    0.71
  -2   9 -12    1.53    0.98
   2  -9  12    2.17    1.06
  -2   9 -12    1.88    1.80
   2  -9  12    0.67    1.06
   2  -9  13    3.75    1.23
  -2   9 -13    4.00    2.09
  -2   9 -13    3.13    1.37
   2  -9  13    1.50    0.88
   2  -9  14    6.67    2.23
  -2   8  14    3.14    1.32
  -2   8  14    4.69    1.88
   2  -8 -13    2.20    3.78
   2  -8 -13    9.90    4.98
  -2   8  13    5.62    1.85
  -2   8  13    3.95    1.44
   2  -8 -12   16.50    6.64
   2  -8 -12    6.05    2.11
  -2   8  12    7.87    2.13
  -2   8  12    9.53    2.16
   2  -8 -11   18.03    5.54
  -2   8  11   18.17    2.82
   2  -8 -11   17.63    5.93
  -2   8  11   15.31    2.92
   2  -8 -10    1.62    3.05
  -2   8  10    5.70    1.53
  -2   8  10    7.96    2.04
   2  -8  -9   29.04    7.30
  -2   8   9   21.74    2.87
  -2   8   9   18.86    3.03
  -2   8   8   50.13    4.81
  -2   8   8   47.84    4.25
   2  -8  -8   48.69    9.00
  -2   8   7    6.11    1.53
  -2   8   7    4.05    1.32
   2  -8  -7    4.61    1.21
   2  -8  -7    8.93    4.54
   2  -8  -6    0.85    0.72
  -2   8   6   -0.18    0.85
  -2   8   6    0.68    0.77
  -2   8   6    0.38    0.69
   2  -8  -5    0.06    0.40
  -2   8   5   -1.14    0.99
  -2   8   5    0.31    0.95
  -2   8   5   -0.54    0.73
  -2   8   4   81.07    5.23
   2  -8  -4   74.97    5.13
  -2   8   4   67.88    3.95
   2  -8  -4   58.21    7.93
  -2   8   4   65.74    5.63
  -2   8   3   25.17    2.35
   2  -8  -3   27.65    3.04
   2  -8  -3   25.20    4.97
  -2   8   3   26.78    3.37
  -2   8   2   29.03    3.40
  -2   8   2   29.40    2.61
  -2   8   2   30.86    2.73
   2  -8  -2   37.58    3.50
  -2   8   1    9.92    1.63
  -2   8   1   10.53    2.14
   2  -8  -1   12.27    2.05
  -2   8   1    9.58    1.53
   2  -8   0    5.20    1.36
  -2   8   0    4.52    1.00
  -2   8   0    3.81    1.00
  -2   8   0    3.41    1.14
  -2   8  -1   76.70    4.78
  -2   8  -1   77.41    4.75
  -2   8  -1   83.12    5.59
   2  -8   1   86.73    5.65
  -2   8  -2   -0.49    0.66
   2  -8   2   -0.48    0.74
  -2   8  -2   -0.30    0.42
  -2   8  -2    0.09    0.42
  -2   8  -3   15.78    2.20
  -2   8  -3   18.55    2.28
   2  -8   3   22.13    2.78
  -2   8  -3   17.32    2.25
  -2   8  -4   40.31    3.63
  -2   8  -4   38.65    3.42
   2  -8   4   51.51    4.28
  -2   8  -4   39.77    3.58
  -2   8  -5   10.20    1.75
   2  -8   5   12.08    2.00
  -2   8  -5   10.24    1.89
  -2   8  -5    9.74    1.75
  -2   8  -6    9.88    1.71
  -2   8  -6   13.42    2.05
  -2   8  -6   10.00    1.99
  -2   8  -6   11.48    2.31
   2  -8   6   13.35    2.15
  -2   8  -7    1.21    0.71
   2  -8   7    1.24    0.64
  -2   8  -7    0.19    0.44
  -2   8  -7    1.37    0.97
  -2   8  -7    2.78    1.35
  -2   8  -8   21.58    2.44
  -2   8  -8   19.56    3.18
  -2   8  -8   18.04    2.48
   2  -8   8   28.78    3.33
   2  -8   9    0.66    0.69
  -2   8  -9   -0.26    0.88
  -2   8  -9    1.17    0.86
   2  -8   9    0.12    0.64
  -2   8 -10    2.28    1.17
   2  -8  10    2.50    0.96
   2  -8  10    4.46    1.49
  -2   8 -10    2.30    1.14
  -2   8 -11    7.48    1.58
  -2   8 -11    7.65    2.10
   2  -8  11    9.20    2.13
   2  -8  11   12.32    2.31
  -2   8 -12    1.63    0.87
  -2   8 -12   -1.25    1.68
   2  -8  12    0.31    0.62
   2  -8  12   -0.12    0.65
  -2   8 -13   -0.84    0.54
  -2   8 -13   -0.28    1.08
   2  -8  13   -0.10    0.79
   2  -8  13    1.19    0.92
   2  -8  14   34.31    4.22
  -2   8 -14   24.90    3.17
  -2   8 -14   32.02    4.79
   2  -8  14   33.26    4.15
   2  -8  15    2.24    1.20
  -2   8 -15   -0.41    0.63
   2  -8  15    3.25    1.43
  -2   7  16   -1.42    1.39
  -2   7  15    6.07    1.76
  -2   7  15    7.90    2.20
   2  -7 -15   14.37    6.96
   2  -7 -15    7.78    3.85
  -2   7  14   -1.19    0.65
   2  -7 -14    0.38    3.49
  -2   7  14    0.81    0.78
  -2   7  13    0.73    0.89
  -2   7  13    0.06    0.98
  -2   7  12    0.05    0.46
  -2   7  12   -1.41    1.00
   2  -7 -12   -3.40    3.86
  -2   7  11    0.77    1.01
  -2   7  11    1.10    0.91
   2  -7 -11   -2.39    3.29
  -2   7  10    0.78    0.67
  -2   7  10    0.24    0.55
  -2   7   9    1.72    1.24
  -2   7   9    0.25    0.59
  -2   7   8    2.47    0.96
   2  -7  -8    3.87    3.30
  -2   7   8    4.06    1.20
   2  -7  -8    4.03    1.11
  -2   7   7    5.55    1.41
   2  -7  -7    4.14    2.98
   2  -7  -7    4.15    1.11
  -2   7   7    3.50    1.15
   2  -7  -6    4.36    1.15
  -2   7   6    1.87    0.80
   2  -7  -6    8.28    3.70
  -2   7   6    5.60    1.55
   2  -7  -5   -1.71    2.25
  -2   7   5   -1.53    1.30
  -2   7   5    0.48    0.55
  -2   7   5    0.05    0.63
  -2   7   5    0.44    0.46
  -2   7   5   -0.87    0.95
   2  -7  -5   -0.46    0.73
  -2   7   4   17.46    2.39
  -2   7   4   17.38    1.89
  -2   7   4   13.84    1.56
  -2   7   4   17.38    2.14
  -2   7   4   15.09    2.42
   2  -7  -4   22.71    5.53
   2  -7  -4   19.43    2.34
  -2   7   3   59.02    4.79
  -2   7   3   64.86    4.19
  -2   7   3   57.93    3.51
   2  -7  -3   71.78    4.68
  -2   7   3   63.21    3.69
  -2   7   2    2.30    0.64
  -2   7   2    3.42    0.75
   2  -7  -2    3.81    1.11
  -2   7   2    2.96    1.06
  -2   7   1  184.27    7.44
  -2   7   1  185.68    8.73
   2  -7  -1  198.12    8.50
  -2   7   1  177.52    7.19
  -2   7   0    7.22    1.48
   2  -7   0    5.56    1.68
   2  -7   0    7.43    1.45
  -2   7   0    3.67    0.97
  -2   7   0    6.74    1.15
  -2   7  -1  154.28    6.84
  -2   7  -1  151.14    6.68
  -2   7  -1  153.38    7.64
   2  -7   1  177.98    7.92
   2  -7   2    1.15    0.76
  -2   7  -2    0.42    0.57
  -2   7  -2    0.08    0.38
  -2   7  -2   -0.36    0.49
  -2   7  -3  222.79    9.36
  -2   7  -3  217.74    8.89
  -2   7  -3  225.63    9.12
   2  -7   3  261.29   10.12
  -2   7  -4  118.36    6.19
  -2   7  -4  113.46    6.19
   2  -7   4  138.60    6.90
  -2   7  -4  117.31    6.07
   2  -7   5   13.59    2.02
  -2   7  -5    9.82    1.66
  -2   7  -5    9.59    1.86
  -2   7  -5   11.13    1.75
  -2   7  -5    9.95    1.50
  -2   7  -6    0.05    0.44
  -2   7  -6    1.45    0.88
  -2   7  -6    0.79    0.64
  -2   7  -6    0.51    0.48
   2  -7   6    0.42    0.60
  -2   7  -7   30.73    2.98
  -2   7  -7   35.35    3.96
   2  -7   7   38.68    3.51
  -2   7  -7   30.98    2.88
   2  -7   8    9.35    1.64
  -2   7  -8    6.92    1.39
  -2   7  -8    7.34    1.34
  -2   7  -8    8.66    1.96
  -2   7  -9    6.56    1.29
  -2   7  -9    6.92    1.49
   2  -7   9    4.88    1.22
   2  -7   9    6.14    1.49
  -2   7  -9    7.37    1.88
   2  -7  10   15.25    2.52
  -2   7 -10   12.94    2.62
  -2   7 -10   11.44    1.98
   2  -7  10   14.75    2.33
  -2   7 -11   11.02    1.93
  -2   7 -11   13.43    2.88
   2  -7  11   14.97    2.50
   2  -7  11   13.50    2.26
  -2   7 -12   14.90    2.96
   2  -7  12   16.10    2.71
   2  -7  12   18.57    2.70
  -2   7 -12   11.16    2.02
   2  -7  13   20.20    2.99
  -2   7 -13   12.54    2.90
  -2   7 -13   13.51    2.19
   2  -7  13   16.85    2.86
   2  -7  14    0.22    0.62
  -2   7 -14    0.80    1.19
  -2   7 -14    1.20    0.95
   2  -7  14   -0.53    0.90
  -2   7 -15    9.15    2.71
  -2   7 -15    6.40    1.55
   2  -7  15    7.81    1.95
  -2   7 -16    0.36    0.63
  -2   7 -16   -1.63    1.24
   2  -7  16    1.96    1.21
  -2   7 -17    3.56    1.24
  -2   6  17    1.79    1.16
   2  -6 -16    1.29    2.23
  -2   6  16    0.87    0.75
  -2   6  16    2.14    1.49
   2  -6 -15   11.14    6.26
  -2   6  15    7.42    1.71
  -2   6  15    5.80    1.64
  -2   6  15    7.25    2.04
   2  -6 -14    8.29    5.12
  -2   6  14   10.62    2.46
  -2   6  14   10.53    2.19
  -2   6  14    6.45    1.52
  -2   6  13   18.25    2.84
  -2   6  13   16.84    2.68
  -2   6  13   15.01    2.33
   2  -6 -13   19.92    6.02
   2  -6 -12    0.13    2.94
  -2   6  12    1.25    0.64
  -2   6  12    2.33    1.00
  -2   6  11    0.26    0.63
  -2   6  11    1.93    0.61
   2  -6 -11    3.71    3.44
  -2   6  10    6.21    1.68
  -2   6  10    8.03    1.61
   2  -6 -10   11.89    5.03
  -2   6   9   13.87    2.15
   2  -6  -9   17.58    5.34
  -2   6   9   13.92    1.99
   2  -6  -9   15.37    1.98
  -2   6   8   97.03    6.13
   2  -6  -8   88.97    5.10
  -2   6   8   86.22    5.04
   2  -6  -8   80.02   10.75
  -2   6   8   86.11    5.09
   2  -6  -7    7.15    1.31
  -2   6   7    6.37    1.13
  -2   6   7    6.40    1.26
   2  -6  -7   -5.33    3.58
  -2   6   7    6.16    1.44
   2  -6  -6   50.00    3.66
  -2   6   6   45.68    2.53
   2  -6  -6   68.44    8.84
  -2   6   6   48.13    3.22
  -2   6   6   46.59    3.40
  -2   6   6   48.47    4.00
  -2   6   5    1.59    0.74
   2  -6  -5    2.28    0.90
  -2   6   5    0.74    0.82
  -2   6   5    1.64    0.57
  -2   6   5    1.12    0.49
   2  -6  -5    3.66    3.12
   2  -6  -4    0.54    0.50
  -2   6   4    0.05    0.83
  -2   6   4    0.11    0.27
   2  -6  -4    0.02    1.78
  -2   6   4   -0.15    0.30
  -2   6   4    0.59    0.83
  -2   6   4    1.14    0.86
  -2   6   3   19.31    2.23
  -2   6   3   14.61    2.19
  -2   6   3   17.81    1.71
  -2   6   3   14.94    1.55
  -2   6   3   20.89    2.13
   2  -6  -3   20.00    4.36
   2  -6  -3   19.78    2.21
  -2   6   2   59.24    4.07
  -2   6   2   52.99    4.05
  -2   6   2   55.33    3.26
  -2   6   2   58.70    3.62
   2  -6  -2   67.28    7.53
  -2   6   2   57.08    3.19
   2  -6  -2   56.87    3.88
   2  -6  -1   98.74    5.23
  -2   6   1   91.24    4.43
  -2   6   1   83.85    4.10
  -2   6   1   84.29    5.20
  -2   6   0   36.33    3.05
   2  -6   0   36.35    3.05
  -2   6   0   29.30    2.39
  -2   6   0   31.86    2.37
  -2   6  -1   28.66    2.28
  -2   6  -1   23.40    2.21
   2  -6   1   31.52    2.77
  -2   6  -1   28.39    2.70
  -2   6  -2    0.36    0.45
   2  -6   2   -0.29    0.53
  -2   6  -2    0.22    0.38
  -2   6  -2    0.11    0.34
  -2   6  -3   17.37    1.99
   2  -6   3   19.21    2.18
  -2   6  -3   18.25    2.03
  -2   6  -3   19.97    2.05
   2  -6   4    5.94    1.26
  -2   6  -4    4.39    1.02
  -2   6  -4    4.58    1.06
  -2   6  -4    5.32    1.19
  -2   6  -5    4.26    1.08
  -2   6  -5    4.52    1.13
  -2   6  -5    5.89    1.16
   2  -6   5    5.99    1.18
  -2   6  -5    7.72    1.62
   2  -6   6    1.06    0.62
  -2   6  -6    2.73    1.20
  -2   6  -6    0.37    0.70
  -2   6  -6   -0.06    0.55
   2  -6   7   -0.40    0.56
  -2   6  -7   -0.31    0.97
  -2   6  -7    0.36    0.47
  -2   6  -7    0.03    0.48
   2  -6   8    2.92    0.97
  -2   6  -8    2.07    0.92
  -2   6  -8    1.55    0.86
  -2   6  -8    1.87    0.68
   2  -6   8    2.35    0.81
  -2   6  -9    0.19    0.69
   2  -6   9   -0.07    0.41
  -2   6  -9    0.50    0.96
   2  -6   9    0.41    0.41
  -2   6  -9    0.81    0.51
  -2   6 -10    8.09    1.44
  -2   6 -10    8.99    2.29
  -2   6 -10    8.96    1.64
   2  -6  10    8.81    1.84
   2  -6  10    8.61    1.70
   2  -6  11    2.98    0.95
   2  -6  11    3.66    1.24
  -2   6 -11    5.30    1.68
  -2   6 -11    2.47    1.06
  -2   6 -12   -0.18    1.09
  -2   6 -12   -0.61    0.61
   2  -6  12    0.14    0.53
   2  -6  12   -1.37    0.83
  -2   6 -13    1.18    0.64
   2  -6  13    1.98    0.93
  -2   6 -13    3.04    1.70
   2  -6  13    2.69    1.23
  -2   6 -14    1.44    0.66
  -2   6 -14    4.49    1.98
   2  -6  14    4.09    1.49
   2  -6  14    4.62    1.47
  -2   6 -15    1.58    1.44
   2  -6  15    3.68    1.50
  -2   6 -15    3.23    1.13
   2  -6  16    7.51    1.94
  -2   6 -16    4.32    1.72
  -2   6 -16    5.44    1.40
   2  -6  17   11.51    2.92
   2  -6  18   10.65    2.83
  -2   5  18    0.81    1.14
  -2   5  17    3.26    1.19
   2  -5 -17    1.21    3.49
  -2   5  17    3.69    1.42
   2  -5 -16   45.59    9.46
  -2   5  16   46.79    5.14
  -2   5  16   51.04    5.12
  -2   5  15    7.05    1.70
   2  -5 -15   19.54    6.62
  -2   5  15    7.92    2.09
  -2   5  15    7.80    1.69
   2  -5 -14    4.16    3.77
  -2   5  14    3.43    1.58
  -2   5  14    2.01    0.76
  -2   5  14    1.09    0.67
  -2   5  13   19.69    2.49
  -2   5  13   21.60    2.94
   2  -5 -13   19.42    6.30
  -2   5  13   21.18    3.10
  -2   5  12   19.30    2.31
  -2   5  12   17.87    2.64
   2  -5 -12   25.87    6.47
  -2   5  12   19.18    2.60
  -2   5  11    6.12    1.34
  -2   5  11    7.96    1.74
  -2   5  11    5.30    1.52
   2  -5 -11    1.55    2.17
   2  -5 -10   -1.51    2.18
  -2   5  10    1.86    0.64
  -2   5  10    1.61    0.76
  -2   5  10    1.70    0.79
   2  -5 -10    1.90    0.77
  -2   5   9   99.91    5.25
   2  -5  -9   86.54   10.91
  -2   5   9   97.16    5.62
   2  -5  -9   98.46    5.34
  -2   5   9   96.91    5.99
  -2   5   8  414.46   14.83
  -2   5   8  415.90   13.41
   2  -5  -8  427.44   13.86
   2  -5  -8  413.65   24.65
  -2   5   7   50.85    3.87
  -2   5   7   48.52    3.24
  -2   5   7   41.46    2.12
   2  -5  -7   45.30    7.45
   2  -5  -7   51.27    3.55
  -2   5   6   31.64    2.94
   2  -5  -6   34.35    6.31
  -2   5   6   29.21    2.44
  -2   5   6   28.66    1.83
  -2   5   6   27.78    2.28
   2  -5  -6   33.19    2.76
   2  -5  -5   39.39    6.73
  -2   5   5   42.05    3.32
  -2   5   5   37.44    2.68
  -2   5   5   40.07    2.53
  -2   5   5   39.43    2.26
   2  -5  -5   39.17    3.06
  -2   5   4   13.84    1.32
  -2   5   4   13.51    1.53
  -2   5   4   13.81    1.35
   2  -5  -4   17.42    1.96
  -2   5   4   14.44    1.82
   2  -5  -4   18.14    4.42
  -2   5   3   30.32    2.88
   2  -5  -3   33.93    2.70
   2  -5  -3   31.35    4.97
  -2   5   3   30.32    2.67
  -2   5   3   28.82    1.95
  -2   5   3   31.16    2.11
  -2   5   3   33.70    2.47
  -2   5   2  115.53    5.03
   2  -5  -2  101.02    3.59
  -2   5   2  121.13    4.80
   2  -5  -2  154.22   10.64
   2  -5  -2  127.58    5.67
  -2   5   2  112.50    5.81
  -2   5   2  119.56    5.63
  -2   5   2  110.17    4.32
  -2   5   1   75.98    3.70
  -2   5   1   73.62    4.23
  -2   5   1   65.13    3.15
   2  -5  -1   74.67    4.20
   2  -5  -1   77.31    7.05
  -2   5   1   70.92    4.32
  -2   5   0   25.06    2.01
  -2   5   0   24.25    1.81
   2  -5   0   31.54    4.41
  -2   5   0   27.97    2.53
   2  -5   0   28.79    2.43
   2  -5   1   65.43    3.82
  -2   5  -1   59.24    3.38
  -2   5  -1   57.47    3.13
  -2   5  -1   59.89    3.78
  -2   5  -2    0.69    0.42
  -2   5  -2    1.56    0.66
   2  -5   2    1.25    0.28
   2  -5   2    1.16    0.37
  -2   5  -2    1.23    0.40
  -2   5  -3   40.17    2.96
   2  -5   3   46.71    3.18
  -2   5  -3   41.73    2.87
  -2   5  -3   41.49    2.87
  -2   5  -4   35.66    3.08
  -2   5  -4   32.63    2.54
  -2   5  -4   36.35    2.86
  -2   5  -4   36.49    2.73
   2  -5   4   38.27    2.92
  -2   5  -5    0.15    0.38
  -2   5  -5    0.66    0.75
  -2   5  -5    0.77    0.61
   2  -5   5    0.65    0.35
   2  -5   6   -0.06    0.53
  -2   5  -6    0.70    0.46
  -2   5  -6   -0.19    0.68
  -2   5  -6    0.75    0.66
   2  -5   7   13.48    1.78
  -2   5  -7   13.85    2.34
  -2   5  -7   12.82    1.73
  -2   5  -7   11.85    1.50
   2  -5   7   13.72    1.75
  -2   5  -8    1.30    0.82
  -2   5  -8    0.79    0.61
   2  -5   8    1.82    0.80
  -2   5  -8    1.35    0.60
   2  -5   8   -0.27    0.55
  -2   5  -9   16.60    2.68
  -2   5  -9   15.12    1.90
   2  -5   9   17.71    2.35
   2  -5   9   18.68    2.17
  -2   5  -9   14.45    1.72
  -2   5 -10    8.61    1.46
  -2   5 -10    8.72    1.38
   2  -5  10    7.55    1.42
  -2   5 -10    7.42    1.94
   2  -5  10   10.06    1.81
   2  -5  11  219.26    8.97
  -2   5 -11  187.42   10.51
  -2   5 -11  171.16    8.01
   2  -5  11  205.68    9.44
   2  -5  12   22.71    2.95
  -2   5 -12   17.39    2.16
  -2   5 -12   18.29    3.20
   2  -5  12   19.33    2.43
   2  -5  13    8.72    2.01
  -2   5 -13    5.78    1.73
  -2   5 -13    6.01    1.37
   2  -5  13    9.56    1.72
   2  -5  14    0.61    0.65
  -2   5 -14    2.42    1.24
  -2   5 -14    2.00    0.85
   2  -5  15    8.95    2.41
  -2   5 -15    7.14    2.30
  -2   5 -15    5.63    1.36
   2  -5  15    9.32    2.04
  -2   5 -16   30.73    4.71
   2  -5  16   29.71    4.49
   2  -5  16   29.39    3.87
   2  -5  17    3.11    1.24
   2  -5  17    2.48    1.25
  -2   5 -17    1.68    1.49
  -2   4  19    1.96    1.34
  -2   4  18    8.39    2.05
  -2   4  18    8.22    2.16
   2  -4 -18    4.52    1.98
   2  -4 -18    5.33    1.46
   2  -4 -17    7.18    1.52
  -2   4  17    7.54    1.96
  -2   4  17    7.66    2.04
   2  -4 -17    9.07    3.49
   2  -4 -16   25.52    2.98
   2  -4 -16   30.94    7.77
  -2   4  16   21.54    3.40
  -2   4  16   22.66    3.23
  -2   4  15   23.70    3.23
  -2   4  15   23.28    3.39
   2  -4 -15   21.27    2.61
  -2   4  15   19.07    2.50
   2  -4 -15   22.96    6.35
  -2   4  14   22.74    3.03
   2  -4 -14   14.10    5.21
  -2   4  14   19.86    3.00
   2  -4 -14   17.78    2.29
  -2   4  14   19.80    2.51
  -2   4  13    4.04    1.27
  -2   4  13    3.68    1.00
   2  -4 -13    2.12    0.66
  -2   4  13    2.24    1.08
   2  -4 -13    4.51    2.25
  -2   4  12    8.54    1.89
  -2   4  12    8.48    1.65
   2  -4 -12   10.52    1.55
  -2   4  12   10.08    1.59
   2  -4 -12   11.38    5.04
   2  -4 -11   13.55    1.84
  -2   4  11   15.36    2.23
  -2   4  11   16.22    1.98
  -2   4  11   16.85    2.55
   2  -4 -11   13.68    1.73
   2  -4 -11    9.16    3.60
   2  -4 -10   12.21    1.57
  -2   4  10   11.89    1.76
  -2   4  10   12.51    1.65
   2  -4 -10    8.81    3.13
   2  -4 -10   11.37    1.64
  -2   4  10   13.14    2.09
  -2   4   9  346.98   10.40
  -2   4   9  389.24   13.09
  -2   4   9  397.82   12.34
   2  -4  -9  415.72   11.99
   2  -4  -9  378.94   23.42
  -2   4   9  389.56   13.88
   2  -4  -9  390.16   13.05
  -2   4   8   56.34    3.71
  -2   4   8   57.45    3.36
   2  -4  -8   52.67    3.68
  -2   4   8   52.98    3.97
  -2   4   8   48.01    2.24
   2  -4  -8   67.76    9.08
   2  -4  -7   10.20    1.52
  -2   4   7   11.03    1.77
  -2   4   7    7.54    0.73
   2  -4  -7   13.65    3.85
  -2   4   7   10.12    1.46
  -2   4   7    9.19    1.17
  -2   4   6    4.29    1.07
  -2   4   6    4.75    0.86
  -2   4   6    3.26    0.55
  -2   4   6    4.10    0.50
   2  -4  -6    4.17    2.58
   2  -4  -6    3.51    0.87
   2  -4  -5    2.43    0.78
  -2   4   5    2.65    0.57
  -2   4   5    2.96    0.65
  -2   4   5    2.30    0.87
   2  -4  -5    2.66    1.70
  -2   4   4    3.01    0.91
  -2   4   4    2.64    0.48
  -2   4   4    3.52    0.57
   2  -4  -4    3.35    0.86
   2  -4  -4    2.73    1.79
  -2   4   4    2.52    0.56
  -2   4   3   80.59    4.41
  -2   4   3   85.27    4.26
  -2   4   3   81.75    2.93
  -2   4   3   82.69    3.57
   2  -4  -3   89.04    4.36
  -2   4   3   89.00    3.43
   2  -4  -3   86.64    7.85
  -2   4   2  471.79   12.56
  -2   4   2  449.17   12.67
  -2   4   2  420.19   13.70
  -2   4   2  425.53   11.60
  -2   4   2  446.26   13.46
   2  -4  -2  439.46   19.37
   2  -4  -2  474.11   13.77
  -2   4   1   42.09    2.83
  -2   4   1   40.83    1.99
   2  -4  -1   45.39    2.97
   2  -4  -1   45.83    4.93
  -2   4   1   43.45    2.93
  -2   4   1   44.99    2.50
  -2   4   0   53.05    3.09
  -2   4   0   47.18    2.34
  -2   4   0   48.77    2.71
   2  -4   0   49.83    3.12
  -2   4   0   44.00    3.02
   2  -4   0   56.49    4.89
  -2   4  -1   73.70    3.91
   2  -4   1   77.33    5.36
   2  -4   1   76.04    3.90
  -2   4  -1   65.81    3.20
  -2   4  -1   69.37    3.46
   2  -4   2   89.72    4.29
  -2   4  -2   83.44    3.83
   2  -4   2   74.85    3.08
  -2   4  -2   85.18    4.19
  -2   4  -2   85.05    3.95
  -2   4  -3   47.42    3.01
   2  -4   3   49.86    3.06
  -2   4  -3   54.83    3.05
   2  -4   3   43.26    2.78
  -2   4  -3   48.87    3.29
  -2   4  -4  113.52    3.58
  -2   4  -4  111.46    5.54
  -2   4  -4  110.21    4.91
  -2   4  -4  111.55    4.87
   2  -4   4  116.18    5.06
  -2   4  -4   85.67    4.72
  -2   4  -5    7.87    1.17
   2  -4   5    8.90    1.25
  -2   4  -5    6.74    0.98
  -2   4  -5    9.27    1.56
  -2   4  -5    9.76    1.31
  -2   4  -5    9.48    0.94
  -2   4  -6  107.23    4.94
  -2   4  -6  104.09    4.58
  -2   4  -6  119.50    6.31
   2  -4   6  119.30    5.21
  -2   4  -6  106.74    5.03
   2  -4   6  107.26    5.35
  -2   4  -7    0.46    0.53
  -2   4  -7   -1.13    0.64
  -2   4  -7    0.53    0.66
  -2   4  -7    0.85    0.34
   2  -4   7    0.44    0.39
   2  -4   7    0.25    0.34
  -2   4  -8    1.63    0.80
  -2   4  -8    0.35    0.86
   2  -4   8    1.94    0.75
   2  -4   8    3.85    1.16
  -2   4  -8    1.54    0.68
  -2   4  -8    1.27    0.56
  -2   4  -9  191.35    9.55
   2  -4   9  193.44    8.34
  -2   4  -9  187.60    7.39
  -2   4  -9  174.81    7.35
   2  -4   9  199.80    7.61
   2  -4   9  184.30    7.25
  -2   4  -9  173.88    8.77
  -2   4 -10    8.42    1.88
   2  -4  10   10.23    1.52
  -2   4 -10    8.08    1.71
   2  -4  10    9.21    1.63
  -2   4 -10    7.85    1.35
   2  -4  11   64.46    4.73
   2  -4  11   64.55    4.11
  -2   4 -11   62.18    5.56
  -2   4 -11   61.93    3.98
  -2   4 -11   54.18    5.35
  -2   4 -12   71.80    6.25
   2  -4  12   79.29    4.75
   2  -4  12   74.09    5.31
  -2   4 -12   61.29    4.15
  -2   4 -13   54.02    5.47
  -2   4 -13   46.51    3.61
   2  -4  13   56.78    4.69
  -2   4 -14   -0.16    0.40
  -2   4 -14    1.93    1.35
   2  -4  14   -0.63    0.94
   2  -4  14   -0.13    0.52
  -2   4 -15    1.69    0.99
   2  -4  15    2.68    1.29
   2  -4  15    2.14    0.83
   2  -4  16    0.98    1.09
   2  -4  16    0.44    0.62
  -2   4 -16    0.09    0.69
  -2   4 -17    4.35    1.93
   2  -4  17    6.70    1.87
   2  -4  17    5.29    1.72
   2  -4  18    3.12    1.47
   2  -3 -19    4.56    1.37
  -2   3  19    5.42    2.07
   2  -3 -19    4.49    3.78
  -2   3  18   30.02    4.26
   2  -3 -18   32.19    7.78
   2  -3 -18   26.22    3.34
  -2   3  18   29.47    3.89
  -2   3  17   -0.21    0.78
  -2   3  17   -0.46    0.83
   2  -3 -17   -0.40    0.56
   2  -3 -16    1.04    0.75
   2  -3 -16   -0.67    2.38
  -2   3  16    0.77    0.96
  -2   3  16    0.07    0.47
  -2   3  15   -0.21    0.52
  -2   3  15    0.28    0.50
   2  -3 -15    0.48    0.38
  -2   3  15    2.03    1.28
   2  -3 -15    0.77    2.73
  -2   3  14   10.49    2.00
  -2   3  14   10.43    1.77
   2  -3 -14    8.48    1.70
   2  -3 -14    6.97    3.89
  -2   3  14    8.26    2.08
  -2   3  13   25.03    2.60
   2  -3 -13   28.03    6.96
  -2   3  13   27.41    3.35
   2  -3 -13   29.08    2.94
  -2   3  13   30.73    3.15
  -2   3  12    4.05    1.19
   2  -3 -12    3.79    1.01
   2  -3 -12   10.18    4.19
  -2   3  12    1.97    0.68
  -2   3  12    3.67    0.91
  -2   3  11   76.48    4.31
  -2   3  11   77.73    5.47
   2  -3 -11   74.95    4.38
  -2   3  11   81.70    4.98
   2  -3 -11   70.84    9.84
  -2   3  10  173.92    6.91
  -2   3  10  180.72    8.56
   2  -3 -10  166.13    7.00
   2  -3 -10  169.72   15.21
  -2   3  10  184.02    7.75
  -2   3   9   72.27    3.80
  -2   3   9   77.88    4.96
  -2   3   9   68.03    3.33
   2  -3  -9   68.48    3.76
   2  -3  -9   70.63    9.17
  -2   3   9   74.47    4.26
   2  -3  -9   82.52    5.12
  -2   3   8   43.31    2.68
  -2   3   8   40.52    3.36
   2  -3  -8   45.85    2.74
  -2   3   8   41.55    2.24
  -2   3   8   44.80    3.06
   2  -3  -8   32.49    6.17
   2  -3  -7    0.62    0.43
  -2   3   7    0.53    0.45
   2  -3  -7   -1.40    1.67
  -2   3   7    0.78    0.36
  -2   3   7   -0.49    0.58
  -2   3   7    0.08    0.17
  -2   3   6    2.75    0.78
  -2   3   6    4.18    0.74
   2  -3  -6    2.52    0.55
  -2   3   6    3.43    0.74
  -2   3   6    3.31    0.50
   2  -3  -6    3.07    2.12
  -2   3   5   16.42    1.56
  -2   3   5   17.98    1.54
  -2   3   5   17.40    1.88
   2  -3  -5   15.60    1.78
  -2   3   5   16.10    1.16
  -2   3   5   17.80    1.14
   2  -3  -5   21.19    4.41
  -2   3   4  149.61    5.17
  -2   3   4  156.26    6.21
  -2   3   4  160.78    5.11
  -2   3   4  150.67    4.82
   2  -3  -4  146.16   10.85
   2  -3  -4  159.97    6.48
  -2   3   3  347.37    9.35
  -2   3   3  328.69    9.27
  -2   3   3  320.60   10.48
  -2   3   3  332.71   10.27
   2  -3  -3  335.03   10.69
  -2   3   3  307.59    8.32
   2  -3  -3  334.87   16.41
  -2   3   3  335.68    9.09
   2  -3  -2    6.22    2.28
  -2   3   2    8.64    0.92
  -2   3   2    5.88    0.44
   2  -3  -2    6.56    1.01
  -2   3   2    6.85    0.98
  -2   3   2    6.86    0.99
  -2   3   2    7.33    0.83
   2  -3  -1    8.45    0.60
  -2   3   1    9.32    0.97
  -2   3   1    9.77    1.10
  -2   3   1    8.07    0.62
  -2   3   1    9.16    1.21
   2  -3  -1    8.91    2.18
   2  -3  -1    8.23    1.16
  -2   3   0  103.75    4.52
  -2   3   0  108.71    4.36
  -2   3   0  109.62    4.18
   2  -3   0  105.94    4.54
   2  -3   0  111.53    6.64
   2  -3   1   17.73    2.23
  -2   3  -1   16.67    1.42
   2  -3   1   21.08    1.75
  -2   3  -1   18.64    1.68
  -2   3  -2  135.01    5.39
   2  -3   2  148.80    5.46
  -2   3  -2  135.24    5.49
  -2   3  -2  118.38    5.78
  -2   3  -2  145.30    5.20
  -2   3  -2  145.22    4.52
  -2   3  -3   18.66    1.57
  -2   3  -3   15.39    1.57
   2  -3   3   19.59    1.68
  -2   3  -3   19.07    1.85
  -2   3  -3   18.18    1.32
  -2   3  -4   19.31    1.72
   2  -3   4   24.70    1.87
  -2   3  -4   24.23    1.87
  -2   3  -4   24.92    2.27
  -2   3  -4   22.75    1.84
  -2   3  -5  618.74   17.03
  -2   3  -5  617.56   18.45
   2  -3   5  610.90   17.35
  -2   3  -5  593.48   17.55
   2  -3   5  616.67   16.72
  -2   3  -5  607.05   16.86
  -2   3  -6   33.92    3.03
  -2   3  -6   43.22    3.53
   2  -3   6   42.84    2.59
  -2   3  -6   44.29    2.75
  -2   3  -6   41.01    2.74
   2  -3   6   38.49    2.84
   2  -3   7    4.89    1.04
  -2   3  -7    2.73    0.88
  -2   3  -7    3.74    0.82
  -2   3  -7    3.34    1.08
  -2   3  -7    2.77    0.58
   2  -3   7    3.03    0.74
  -2   3  -7    3.24    0.79
   2  -3   7    4.27    0.82
  -2   3  -8   20.05    1.86
  -2   3  -8   23.56    2.11
  -2   3  -8   17.15    1.87
   2  -3   8   22.48    2.33
  -2   3  -8   21.74    2.84
   2  -3   8   24.25    2.19
   2  -3   8   25.16    2.03
  -2   3  -8   18.15    2.73
  -2   3  -9    9.86    2.38
   2  -3   9   13.07    1.48
  -2   3  -9   10.01    1.56
   2  -3   9   11.71    1.75
  -2   3  -9   11.25    1.41
  -2   3  -9   11.63    2.20
   2  -3   9   12.74    1.55
  -2   3 -10    2.10    1.25
   2  -3  10    1.45    0.79
  -2   3 -10   -0.14    0.88
   2  -3  10    1.31    0.54
  -2   3 -10    1.66    0.72
  -2   3 -11    0.53    1.28
  -2   3 -11    0.82    0.78
   2  -3  11    0.82    0.55
   2  -3  11    0.68    0.48
  -2   3 -11    0.17    0.35
  -2   3 -12  122.58    9.58
  -2   3 -12  134.29    8.54
  -2   3 -12  128.02    5.93
   2  -3  12  130.08    7.24
   2  -3  12  134.23    7.94
  -2   3 -13   47.96    3.39
  -2   3 -13   47.31    5.04
  -2   3 -13   45.94    6.12
   2  -3  13   48.11    4.74
   2  -3  13   55.49    4.68
  -2   3 -14    2.25    2.04
  -2   3 -14    1.35    1.06
   2  -3  14    0.24    0.63
   2  -3  14   -0.51    1.17
  -2   3 -15   23.29    3.79
   2  -3  15   16.06    2.88
   2  -3  15   23.67    3.26
   2  -3  16    1.38    1.17
  -2   3 -16   -0.96    1.08
   2  -3  16    0.69    0.61
   2  -3  16   -0.56    0.79
   2  -3  17   10.00    2.39
   2  -3  17    9.49    2.36
  -2   3 -17    9.38    2.56
   2  -3  18    0.13    0.89
  -2   3 -18    0.50    1.55
   2  -3  18   -0.07    0.63
   2  -2 -20   45.15    9.96
   2  -2 -20   47.65    4.92
  -2   2  20   47.13    5.69
  -2   2  19    0.31    0.98
   2  -2 -19    0.42    0.64
  -2   2  19   -0.11    0.76
  -2   2  18    3.40    1.45
   2  -2 -18    3.12    1.21
   2  -2 -18    2.84    2.97
  -2   2  18    3.41    1.68
  -2   2  17    2.87    1.45
   2  -2 -17    2.17    1.25
   2  -2 -17   -0.63    2.27
  -2   2  17    2.24    1.04
  -2   2  16   12.30    2.56
   2  -2 -16    8.81    3.61
  -2   2  16    9.97    1.88
   2  -2 -16    8.40    1.77
   2  -2 -15    0.17    3.24
  -2   2  15    5.40    1.27
  -2   2  15    5.13    1.62
   2  -2 -15    5.88    1.34
  -2   2  15    6.52    1.64
   2  -2 -14    7.99    4.56
  -2   2  14    4.67    1.21
   2  -2 -14    3.72    1.10
  -2   2  14    3.96    1.43
  -2   2  14    3.56    1.14
   2  -2 -13    2.46    0.83
  -2   2  13    4.00    1.16
  -2   2  13    2.52    0.58
  -2   2  13    3.40    1.14
   2  -2 -13    1.35    2.42
   2  -2 -12    1.30    0.85
  -2   2  12    0.42    0.42
  -2   2  12    1.28    1.01
   2  -2 -12    4.59    4.05
  -2   2  12    1.37    0.92
   2  -2 -11   12.83    1.73
  -2   2  11   13.32    1.60
  -2   2  11   12.81    1.84
  -2   2  11   11.66    2.08
   2  -2 -11   18.91    5.12
  -2   2  10   78.87    5.14
   2  -2 -10   68.25    4.15
  -2   2  10   71.25    3.82
   2  -2 -10   66.42    9.13
  -2   2  10   76.57    4.36
   2  -2  -9    2.16    0.71
  -2   2   9    2.35    0.57
  -2   2   9    3.90    1.17
  -2   2   9    1.85    0.69
   2  -2  -9    3.32    3.44
   2  -2  -8   10.74    3.94
  -2   2   8    8.85    1.08
   2  -2  -8    9.11    1.10
   2  -2  -8    6.07    0.95
   2  -2  -8    6.94    1.00
  -2   2   8    7.44    1.13
  -2   2   8    9.56    1.68
   2  -2  -7   11.90    3.41
  -2   2   7   11.69    1.13
  -2   2   7   12.70    1.22
   2  -2  -7   11.20    1.25
  -2   2   7   12.07    1.38
  -2   2   7   13.72    1.80
  -2   2   6   61.52    2.71
  -2   2   6   62.81    3.77
  -2   2   6   62.58    3.10
   2  -2  -6   59.58    2.86
  -2   2   6   61.78    2.79
   2  -2  -6   57.28    7.36
   2  -2  -5    7.39    2.67
  -2   2   5    9.35    1.06
  -2   2   5   10.27    0.85
   2  -2  -5    7.16    0.81
  -2   2   5    9.29    0.93
  -2   2   5    8.37    1.27
   2  -2  -4    4.14    2.10
  -2   2   4    0.78    0.32
  -2   2   4    0.92    0.42
  -2   2   4    0.84    0.24
   2  -2  -4    1.10    0.28
  -2   2   4    0.70    0.23
  -2   2   4    1.09    0.46
  -2   2   3    4.25    0.57
  -2   2   3    4.41    0.51
  -2   2   3    4.18    0.79
   2  -2  -3    3.61    1.70
  -2   2   3    4.83    0.84
  -2   2   3    4.50    0.64
  -2   2   2   18.14    1.26
  -2   2   2   17.58    1.52
  -2   2   2   14.96    1.32
   2  -2  -2   14.11    2.72
  -2   2   2   15.71    1.25
  -2   2   1    6.44    0.82
   2  -2  -1    6.40    1.03
  -2   2   1    6.33    0.87
  -2   2   1    6.75    0.79
  -2   2   1    6.51    0.91
   2  -2  -1    5.66    1.72
  -2   2   0   15.00    1.11
  -2   2   0   14.12    1.13
   2  -2   0   12.87    1.31
   2  -2   0   15.57    2.45
  -2   2   0   13.38    1.02
  -2   2   0   12.18    1.24
  -2   2   0   13.92    1.14
  -2   2  -1  102.29    3.80
  -2   2  -1   99.35    4.02
   2  -2   1   96.85    3.99
  -2   2  -1   99.26    3.84
   2  -2   1   99.08    5.03
  -2   2  -1   98.84    3.74
   2  -2   2    1.43    0.49
  -2   2  -2    2.01    0.56
  -2   2  -2    1.25    0.37
  -2   2  -2    1.39    0.54
  -2   2  -2    1.06    0.39
   2  -2   3   57.96    2.89
  -2   2  -3   59.92    3.33
  -2   2  -3   59.64    2.82
  -2   2  -3   55.14    3.25
   2  -2   3   58.29    2.75
  -2   2  -3   58.56    2.96
   2  -2   4  135.88    4.75
  -2   2  -4  135.87    5.98
  -2   2  -4  144.86    5.08
  -2   2  -4  130.75    5.21
   2  -2   4  135.07    5.26
  -2   2  -4  125.18    5.97
   2  -2   5    6.66    0.81
  -2   2  -5    5.83    0.87
  -2   2  -5    6.03    1.04
  -2   2  -5    5.44    1.21
   2  -2   5    5.11    0.95
   2  -2   5    6.93    1.10
  -2   2  -5    4.60    1.26
   2  -2   6    1.33    0.40
  -2   2  -6    1.46    0.60
   2  -2   6    1.77    0.96
  -2   2  -6    1.25    0.46
   2  -2   6    1.08    0.39
  -2   2  -6    1.70    1.10
   2  -2   6    0.77    0.38
  -2   2  -6    2.08    0.88
  -2   2  -7   23.77    2.69
   2  -2   7   22.48    2.20
   2  -2   7   24.56    2.17
  -2   2  -7   26.57    2.44
  -2   2  -7   24.92    1.90
  -2   2  -7   22.80    3.14
   2  -2   7   22.40    1.63
  -2   2  -8   73.12    3.60
   2  -2   8   69.37    4.04
   2  -2   8   76.78    4.37
  -2   2  -8   68.53    4.96
  -2   2  -8   72.70    4.85
  -2   2  -8   71.19    6.40
   2  -2   8   71.52    3.31
   2  -2   9   48.31    2.72
  -2   2  -9   49.38    4.39
  -2   2  -9   50.69    2.95
  -2   2  -9   49.18    4.24
   2  -2   9   51.36    3.73
  -2   2  -9   43.78    5.22
  -2   2 -10   53.12    4.70
   2  -2  10   52.46    4.14
  -2   2 -10   52.10    4.70
   2  -2  10   50.71    3.89
   2  -2  10   57.00    3.09
  -2   2 -10   48.34    3.01
  -2   2 -10   41.67    5.45
   2  -2  11   15.94    2.37
  -2   2 -11   15.43    2.58
  -2   2 -11   22.22    4.18
   2  -2  11   16.50    2.25
  -2   2 -11   16.22    1.67
   2  -2  12   37.99    3.61
  -2   2 -12   32.59    5.28
  -2   2 -12   30.92    3.83
   2  -2  12   32.62    3.56
  -2   2 -12   31.64    2.45
  -2   2 -13   20.11    4.28
   2  -2  13   26.58    3.48
  -2   2 -13   21.63    3.36
   2  -2  13   24.90    3.18
   2  -2  13   30.85    3.37
   2  -2  14   43.38    4.25
   2  -2  14   34.45    4.17
  -2   2 -14   30.93    5.45
   2  -2  14   37.33    4.21
  -2   2 -14   38.78    4.50
   2  -2  15    2.22    1.12
   2  -2  15    0.98    0.89
  -2   2 -15    3.41    2.88
  -2   2 -15    2.25    1.40
   2  -2  15    0.93    0.50
  -2   2 -16    0.78    1.74
   2  -2  16    1.65    1.18
  -2   2 -16    0.94    0.96
   2  -2  16   -0.17    0.62
  -2   2 -17    1.75    2.25
   2  -2  17    0.59    0.66
  -2   2 -17    0.22    0.80
   2  -2  17    0.02    0.54
   2  -2  18    6.70    2.12
   2  -2  18    3.89    1.58
  -2   2 -18    3.74    1.94
  -2   1  20   11.15    2.64
   2  -1 -20    9.88    2.29
   2  -1 -19   11.50    2.39
  -2   1  19   16.22    3.30
   2  -1 -19    8.52    3.67
  -2   1  19   15.86    3.00
  -2   1  18   11.96    2.56
   2  -1 -18   10.05    2.19
  -2   1  18   13.97    2.55
   2  -1 -18    6.67    3.38
  -2   1  17    3.63    1.30
   2  -1 -17    4.65    1.49
   2  -1 -17   -1.71    3.08
  -2   1  17    1.47    0.99
   2  -1 -16   20.10    2.85
  -2   1  16   20.61    3.28
  -2   1  16   21.40    2.89
   2  -1 -16   18.53    5.18
  -2   1  15    1.78    0.96
  -2   1  15    0.45    0.86
  -2   1  15    1.56    0.76
   2  -1 -15    0.32    0.65
   2  -1 -15   -0.74    2.13
  -2   1  14   60.46    5.36
   2  -1 -14   53.65    4.55
  -2   1  14   57.22    4.00
  -2   1  14   57.76    4.46
   2  -1 -14   54.17    9.31
  -2   1  13    6.23    1.88
   2  -1 -13    7.32    1.58
  -2   1  13    6.22    1.24
   2  -1 -13    8.66    4.54
  -2   1  13    5.40    1.27
   2  -1 -12    0.28    2.24
   2  -1 -12   -1.00    0.80
  -2   1  12    0.16    0.51
  -2   1  12    1.70    1.10
  -2   1  12   -0.04    0.33
   2  -1 -11   59.88    8.73
   2  -1 -11   62.21    4.41
  -2   1  11   67.28    3.75
  -2   1  11   59.24    4.83
  -2   1  11   68.52    4.21
   2  -1 -10    1.07    2.50
  -2   1  10    5.48    0.93
  -2   1  10    4.90    1.07
   2  -1 -10    4.38    1.05
  -2   1  10    5.04    1.05
  -2   1   9  134.97    5.81
  -2   1   9  137.56    5.31
  -2   1   9  145.21    7.21
   2  -1  -9  138.10    6.29
   2  -1  -9  126.10   11.91
   2  -1  -8    4.33    2.76
  -2   1   8    1.74    0.48
  -2   1   8    1.74    0.82
  -2   1   8    2.05    0.53
   2  -1  -8    1.50    0.63
  -2   1   7   96.16    5.22
  -2   1   7  101.07    4.23
  -2   1   7   93.77    3.62
   2  -1  -7   95.72    4.44
   2  -1  -7   93.41    9.27
   2  -1  -6 1203.23   31.51
  -2   1   6 1259.54   31.30
  -2   1   6 1250.04   33.06
  -2   1   6 1244.52   30.46
   2  -1  -6 1346.57   31.95
   2  -1  -6 1270.74   42.98
  -2   1   6 1312.21   31.29
  -2   1   5   27.10    1.68
  -2   1   5   26.20    1.25
  -2   1   5   25.56    1.75
  -2   1   5   27.64    2.23
   2  -1  -5   27.92    1.72
   2  -1  -5   22.25    3.95
   2  -1  -5   29.09    2.32
  -2   1   5   26.80    1.64
   2  -1  -4  167.96   10.86
  -2   1   4  164.73    5.32
  -2   1   4  165.99    5.49
  -2   1   4  160.54    4.32
   2  -1  -4  159.05    4.50
   2  -1  -4  167.84    5.23
  -2   1   4  161.10    6.09
   2  -1  -4  164.90    4.94
  -2   1   4  163.32    5.00
  -2   1   3  219.48    6.11
  -2   1   3  208.52    6.70
   2  -1  -3  230.62   12.44
   2  -1  -3  214.28    5.56
   2  -1  -3  250.17    6.33
  -2   1   3  224.69    7.24
   2  -1  -3  208.01    5.75
  -2   1   3  220.40    5.87
  -2   1   3  239.22    6.73
   2  -1  -2   19.65    0.81
   2  -1  -2   19.28    1.00
   2  -1  -2   19.64    3.22
  -2   1   2   23.77    2.49
   2  -1  -2   20.20    1.02
  -2   1   2   18.38    0.99
  -2   1   2   20.55    1.41
  -2   1   2   18.56    1.34
  -2   1   2   19.36    1.37
   2  -1  -1   94.22    3.08
  -2   1   1   96.77    3.34
  -2   1   1   93.47    5.55
  -2   1   1   99.62    3.93
  -2   1   1   91.96    3.37
   2  -1  -1   92.58    6.52
  -2   1   1   94.49    3.59
  -2   1   1   95.00    3.58
  -2   1   0 2363.96   56.59
  -2   1   0 2475.67   56.63
   2  -1   0 2313.50   56.72
  -2   1   0 2373.90   57.19
  -2   1   0 2370.53   57.36
  -2   1   0 2512.37   58.31
  -2   1   0 2644.45   62.00
  -2   1   0 2428.36   57.63
   2  -1   1 9253.21  208.47
  -2   1  -1 9648.24  209.57
   2  -1   1 9999.00  208.90
  -2   1  -1 9415.13  209.33
  -2   1  -1 9788.19  210.27
   2  -1   2 1100.09   28.57
  -2   1  -2 1200.19   28.77
  -2   1  -2 1158.30   30.26
   2  -1   2 1085.17   27.83
  -2   1  -2 1251.38   34.07
  -2   1  -2 1092.77   29.17
  -2   1  -2 1130.94   29.05
   2  -1   2 1190.39   28.66
   2  -1   3    2.97    0.47
  -2   1  -3    1.96    0.74
   2  -1   3    2.71    0.65
  -2   1  -3    3.86    0.60
  -2   1  -3    3.19    0.64
  -2   1  -3    3.59    0.84
   2  -1   3    3.19    0.81
  -2   1  -3    2.96    0.93
   2  -1   3    3.39    0.63
  -2   1  -4    9.08    0.97
  -2   1  -4    7.73    1.93
  -2   1  -4    8.86    1.36
   2  -1   4    8.39    1.08
  -2   1  -4    7.68    1.57
   2  -1   4    7.82    1.24
   2  -1   4    8.35    0.75
  -2   1  -4    9.42    1.12
  -2   1  -5    1.14    1.07
   2  -1   5    0.82    0.25
  -2   1  -5    2.26    1.23
  -2   1  -5    4.94    1.01
   2  -1   5    1.16    0.55
  -2   1  -5    1.01    0.34
   2  -1   5    0.99    0.60
   2  -1   6   45.02    3.12
  -2   1  -6   44.23    3.45
  -2   1  -6   50.42    2.50
   2  -1   6   51.38    3.08
  -2   1  -6   39.76    4.41
   2  -1   6   41.04    1.88
  -2   1  -7  233.23    7.34
  -2   1  -7  210.91   11.94
   2  -1   7  229.00    8.34
   2  -1   7  239.18    8.55
  -2   1  -7  233.20   10.27
   2  -1   7  223.74    6.57
  -2   1  -7  240.86    9.59
  -2   1  -8  163.57   10.93
  -2   1  -8  159.13    7.96
   2  -1   8  159.94    7.02
  -2   1  -8  167.80    5.93
   2  -1   8  171.18    7.24
  -2   1  -8  162.80    9.08
   2  -1   8  177.59    5.41
  -2   1  -9    1.29    1.20
   2  -1   9    4.30    1.11
  -2   1  -9    5.26    1.70
  -2   1  -9    2.60    0.52
  -2   1  -9    2.35    1.12
   2  -1   9    2.23    0.67
   2  -1  10   20.78    2.38
  -2   1 -10   20.43    1.68
   2  -1  10   18.58    2.54
   2  -1  10   21.33    2.48
  -2   1 -10   18.81    2.69
  -2   1 -10   22.98    3.49
  -2   1 -10   22.29    4.25
   2  -1  11    0.25    0.77
   2  -1  11    0.22    0.81
  -2   1 -11   -0.77    0.40
   2  -1  11    1.10    0.98
  -2   1 -11   -1.34    0.91
  -2   1 -11   -0.27    1.09
  -2   1 -12   -0.14    1.66
   2  -1  12    1.21    0.98
  -2   1 -12    0.01    0.78
   2  -1  12    0.70    0.54
   2  -1  12    3.00    1.26
   2  -1  13    0.25    0.80
  -2   1 -13    3.26    2.00
  -2   1 -13    0.19    0.65
   2  -1  13    0.71    0.49
   2  -1  13    2.76    0.92
  -2   1 -14   13.74    4.35
   2  -1  14    8.35    2.03
   2  -1  14    7.32    1.68
  -2   1 -14    7.17    1.92
   2  -1  14    5.51    1.53
  -2   1 -15    0.59    1.47
   2  -1  15    1.86    1.11
  -2   1 -15   -1.05    1.30
   2  -1  15    0.29    1.12
  -2   1 -16    1.31    1.85
   2  -1  16    2.43    1.32
  -2   1 -16    2.17    1.41
   2  -1  16    5.06    1.59
  -2   1 -17    8.82    3.46
   2  -1  17    9.41    2.51
  -2   1 -17   11.50    2.71
   2  -1  17    8.96    2.10
   2  -1  18   -0.86    0.89
  -2   1 -18    0.87    1.31
   2  -1  18    1.19    0.99
  -2   1 -19    1.13    2.26
  -2   0  20    3.08    1.61
  -2   0  20    1.24    0.83
   2   0 -20    0.36    0.58
   2   0 -19    1.32    1.12
  -2   0  19   -2.29    1.38
  -2   0  19   -0.46    0.61
  -2   0  18   14.14    2.50
  -2   0  18   15.27    3.18
   2   0 -18   13.92    2.71
   2   0 -18   15.50    5.00
  -2   0  17    1.16    0.91
   2   0 -17    2.66    1.28
   2   0 -17    2.03    4.10
  -2   0  17    0.78    0.68
  -2   0  16   23.31    3.57
   2   0 -16   24.88    3.49
  -2   0  16   21.55    2.89
   2   0 -16   18.72    5.67
  -2   0  15    3.82    1.56
   2   0 -15    3.53    1.04
  -2   0  15    3.80    1.12
   2   0 -15    1.26    2.42
   2   0 -14    3.44    1.96
  -2   0  14    4.69    1.16
   2   0 -14    4.36    1.40
  -2   0  14    5.33    1.71
  -2   0  14    5.26    1.36
  -2   0  13    5.44    1.46
   2   0 -13    8.03    3.78
  -2   0  13    6.59    1.48
   2   0 -13    8.34    1.82
  -2   0  13    7.78    1.35
   2   0 -12    0.52    3.26
  -2   0  12    0.16    0.82
   2   0 -12    0.87    0.73
  -2   0  12    1.07    0.76
  -2   0  12   -0.02    0.40
   2   0 -11   12.36    4.32
  -2   0  11    9.48    1.33
  -2   0  11    7.60    1.75
   2   0 -11    6.97    1.46
  -2   0  11    9.47    1.44
   2   0 -10    1.15    2.92
   2   0 -10    0.19    0.48
  -2   0  10   -0.09    0.44
  -2   0  10    0.10    0.36
  -2   0  10    0.39    0.75
   2   0  -9   51.37    7.58
   2   0  -9   47.36    3.53
  -2   0   9   53.32    4.05
  -2   0   9   48.03    2.77
  -2   0   9   46.86    3.01
  -2   0   8   19.25    1.52
   2   0  -8   17.84    4.43
   2   0  -8   20.28    2.13
  -2   0   8   21.37    2.43
  -2   0   8   20.92    1.78
   2   0  -7  246.59   15.69
  -2   0   7  241.62    7.77
   2   0  -7  251.02    8.75
  -2   0   7  228.77    7.24
   2   0  -7  255.97    8.75
  -2   0   7  246.00    9.37
  -2   0   6  377.53   11.18
   2   0  -6  429.57   12.29
  -2   0   6  452.05   12.36
   2   0  -6  409.45   12.10
   2   0  -6  415.58   20.21
  -2   0   6  401.45   13.01
  -2   0   6  385.09   10.85
  -2   0   5   42.48    2.06
  -2   0   5   45.18    3.27
   2   0  -5   43.47    5.84
   2   0  -5   42.47    2.50
  -2   0   5   41.58    2.88
  -2   0   5   45.09    1.96
   2   0  -5   42.57    2.43
  -2   0   5   43.33    2.37
  -2   0   4    0.56    0.42
  -2   0   4    0.39    0.23
  -2   0   4    1.45    0.97
  -2   0   4    0.07    0.36
   2   0  -4    0.36    0.31
  -2   0   4    0.58    0.14
   2   0  -4    0.10    0.26
   2   0  -4    1.08    1.42
  -2   0   3    0.62    0.80
  -2   0   3    0.12    0.16
   2   0  -3    0.14    0.15
   2   0  -3   -0.42    0.35
  -2   0   3    0.27    0.40
  -2   0   3   -0.18    0.14
  -2   0   3   -0.12    0.28
  -2   0   2    9.12    0.76
   2   0  -2    9.17    0.89
  -2   0   2    9.05    0.94
   2   0  -2    9.07    0.50
  -2   0   2   10.16    1.01
  -2   0   2    9.69    0.96
  -2   0   2    9.30    0.54
  -2   0   2   10.72    2.06
   2   0  -1 1724.50   40.95
  -2   0   1 1858.13   47.32
  -2   0   1 1812.78   42.26
   2   0  -1 1834.16   41.96
   2   0  -1 1538.55   40.63
  -2   0   1 1685.08   41.36
  -2   0   1 1752.49   41.43
  -2   0   1 1751.90   42.29
   2   0   0 5582.71  142.97
   2   0   0 6182.98  140.88
   2   0   0 5530.24  141.65
  -2   0   0 6273.85  148.21
  -2   0   0 5943.90  141.01
  -2   0   0 6686.98  141.32
  -2   0   0 6215.62  141.96
  -2   0   0 5863.68  140.85
  -2   0   0 6451.32  143.03
  -2   0   0 6295.27  143.11
   2   0   1 2839.18   65.33
  -2   0  -1 2811.57   70.41
   2   0   1 2694.96   64.19
  -2   0  -1 2693.63   65.66
  -2   0  -1 2639.08   63.58
  -2   0  -1 2682.12   65.19
   2   0   1 2632.50   63.17
  -2   0  -1 2730.33   64.04
   2   0   2    1.43    0.56
  -2   0  -2    1.39    0.71
   2   0   2    2.51    0.64
  -2   0  -2    3.02    0.78
  -2   0  -2    1.96    1.49
   2   0   2    2.07    0.45
  -2   0  -3    6.25    1.60
  -2   0  -3    6.46    0.97
  -2   0  -3    6.10    1.92
   2   0   3    6.49    0.52
  -2   0  -3    6.77    0.73
   2   0   3    8.05    0.90
   2   0   3    6.53    1.04
   2   0   3    6.30    0.59
   2   0   3    5.83    0.98
  -2   0  -4   59.21    2.51
   2   0   4   61.97    3.04
   2   0   4   56.82    3.38
  -2   0  -4   73.50    6.00
   2   0   4   58.55    2.37
  -2   0  -4   53.28    4.70
   2   0   4   53.85    1.85
   2   0   4   59.07    3.56
  -2   0  -4   59.03    3.37
   2   0   5  123.43    5.10
  -2   0  -5  128.72    4.33
   2   0   5  118.71    5.59
  -2   0  -5  117.98    5.58
   2   0   5  121.46    4.44
  -2   0  -5  130.02    8.49
  -2   0  -5  108.80    7.65
  -2   0  -6   10.93    1.01
  -2   0  -6    7.11    2.03
   2   0   6   10.05    1.40
   2   0   6   10.99    1.62
   2   0   6   10.61    1.20
  -2   0  -6   11.35    1.65
  -2   0  -6   11.02    2.61
  -2   0  -7  329.74   15.33
   2   0   7  324.00   11.80
  -2   0  -7  319.03   11.86
   2   0   7  327.33   10.45
  -2   0  -7  271.15   15.04
  -2   0  -7  343.74    9.45
   2   0   7  325.68   10.97
   2   0   8  103.98    5.37
  -2   0  -8  108.30    4.09
   2   0   8  111.83    6.09
  -2   0  -8  112.87    8.36
  -2   0  -8  100.66    5.93
   2   0   8  106.56    5.07
  -2   0  -8   91.05    8.56
  -2   0  -8   99.91    7.60
  -2   0  -9   -1.67    1.28
   2   0   9   -0.24    0.60
   2   0   9   -0.15    0.45
  -2   0  -9    0.74    1.25
  -2   0  -9    0.85    0.89
   2   0   9    0.10    0.41
  -2   0  -9    0.64    1.55
  -2   0  -9   -0.12    0.19
  -2   0 -10   70.09    3.12
   2   0  10   75.11    5.28
  -2   0 -10   67.20    6.68
   2   0  10   67.22    4.33
  -2   0 -10   70.61    5.19
   2   0  10   70.12    4.72
  -2   0 -10   68.50    6.87
  -2   0 -10   67.34    7.69
  -2   0 -11   -1.50    2.03
  -2   0 -11    1.13    1.15
   2   0  11    2.74    0.95
  -2   0 -11    2.25    1.68
   2   0  11    1.29    0.69
   2   0  11    2.26    0.91
  -2   0 -12   28.37    5.66
   2   0  12   37.50    3.68
   2   0  12   41.40    4.14
  -2   0 -12   31.71    3.72
  -2   0 -12   33.45    5.10
   2   0  12   32.18    3.21
  -2   0 -13   -3.50    3.36
  -2   0 -13    0.66    0.58
   2   0  13   -0.73    0.85
   2   0  13    2.07    1.04
   2   0  13    0.80    0.86
   2   0  14    2.31    0.91
  -2   0 -14    3.71    2.31
   2   0  14    1.41    0.89
  -2   0 -14    1.52    0.81
   2   0  15   33.94    4.11
  -2   0 -15   24.18    5.43
  -2   0 -15   30.15    4.00
   2   0  15   39.17    4.22
   2   0  16   -0.51    0.92
   2   0  16   -0.18    0.75
  -2   0 -16    0.96    2.06
  -2   0 -16   -0.09    0.86
   2   0  17    5.33    1.79
  -2   0 -17    7.31    3.68
   2   0  17    3.23    1.54
  -2   0 -17    2.42    1.23
  -2   0 -18    1.83    1.41
   2   0  18    0.21    0.89
   2   0  18    0.52    1.15
   2   1 -20   69.19    6.72
  -2  -1  20   73.31    7.37
  -2  -1  20   69.81    6.19
  -2  -1  19    1.11    1.22
   2   1 -19    1.29    1.50
  -2  -1  19    1.75    0.87
   2   1 -18   57.44    5.87
  -2  -1  18   60.96    6.50
  -2  -1  18   70.68    5.73
  -2  -1  17    3.21    1.14
   2   1 -17    3.30    1.45
  -2  -1  17    1.80    1.48
   2   1 -17    2.83    3.04
   2   1 -16   -2.99    3.30
  -2  -1  16    1.27    1.26
   2   1 -16   -1.44    1.32
  -2  -1  16    0.05    0.65
   2   1 -15   -0.05    2.49
   2   1 -15    2.66    1.11
  -2  -1  15    0.94    0.52
  -2  -1  15    3.69    1.63
  -2  -1  14    7.10    1.45
  -2  -1  14    4.18    1.27
  -2  -1  14    4.85    1.14
   2   1 -14    4.77    1.43
   2   1 -14    8.99    4.76
  -2  -1  13   72.97    4.72
  -2  -1  13   70.12    4.39
   2   1 -13   70.74    5.50
  -2  -1  13   74.20    6.00
   2   1 -13   64.55    9.91
   2   1 -12   40.02    7.17
  -2  -1  12   38.39    3.00
  -2  -1  12   38.41    3.18
   2   1 -12   39.04    3.87
  -2  -1  12   40.70    4.22
   2   1 -11   55.21    8.10
  -2  -1  11   61.00    3.89
   2   1 -11   62.05    4.68
  -2  -1  11   64.91    5.21
  -2  -1  10    2.77    0.78
   2   1 -10    3.37    1.09
  -2  -1  10    1.67    0.91
   2   1 -10    1.99    2.79
  -2  -1  10    2.06    0.59
   2   1  -9  127.39    6.17
  -2  -1   9  145.11    6.54
   2   1  -9  108.41    5.86
  -2  -1   9  109.21    6.42
  -2  -1   9  118.10    5.05
   2   1  -9   98.42    3.14
   2   1  -9  102.46   10.76
   2   1  -8   57.82    3.84
   2   1  -8   57.06    7.81
  -2  -1   8   82.45    5.02
  -2  -1   8   62.13    3.24
   2   1  -8   60.67    3.96
  -2  -1   8   58.81    4.30
   2   1  -8   56.01    2.17
  -2  -1   8   57.16    2.21
  -2  -1   8   52.31    1.94
   2   1  -7   28.53    5.26
   2   1  -7   30.57    2.60
  -2  -1   7   34.27    3.43
   2   1  -7   30.52    2.58
  -2  -1   7   28.33    2.80
  -2  -1   7   26.82    1.03
  -2  -1   7   28.33    1.96
   2   1  -7   29.53    1.54
  -2  -1   7   28.90    1.18
   2   1  -6   56.97    3.43
   2   1  -6   59.23    3.41
  -2  -1   6   78.13    5.22
  -2  -1   6   56.49    3.77
   2   1  -6   63.57    2.60
  -2  -1   6   57.19    2.74
  -2  -1   5    0.18    0.20
  -2  -1   5   -1.06    0.98
   2   1  -5   -0.30    0.54
   2   1  -5    0.42    0.41
   2   1  -5    0.09    0.19
  -2  -1   5    1.26    0.76
  -2  -1   4   23.18    1.32
   2   1  -4   22.97    1.00
   2   1  -4   23.09    1.87
  -2  -1   4   35.03    3.79
  -2  -1   4   28.76    1.82
   2   1  -4   26.32    1.74
   2   1  -3   15.46    0.92
   2   1  -3   17.03    1.54
  -2  -1   3   22.88    3.14
  -2  -1   3   14.57    0.87
   2   1  -3   15.60    1.35
  -2  -1   3   16.12    1.38
  -2  -1   3   15.57    1.37
   2   1  -3   13.70    0.84
   2   1  -2  216.06    7.24
   2   1  -2  218.57    6.09
   2   1  -2  213.29    7.16
  -2  -1   2  283.48   12.40
  -2  -1   2  223.22    6.98
  -2  -1   2  215.40    7.14
   2   1  -1   11.32    1.28
   2   1  -1   12.04    0.94
  -2  -1   1   12.34    1.39
   2   1  -1   12.81    1.33
  -2  -1   1   13.21    1.28
  -2  -1   1   11.33    0.63
  -2  -1   1   15.84    3.02
  -2  -1   0    0.58    0.47
   2   1   0    1.49    0.57
  -2  -1   0    1.90    1.34
   2   1   0    1.26    0.43
   2   1   0    1.99    0.59
   2   1   0    1.09    0.25
  -2  -1   0    1.61    0.51
  -2  -1  -1   26.02    1.10
   2   1   1   30.67    1.91
   2   1   1   29.70    1.50
   2   1   1   29.99    2.30
  -2  -1  -1   35.27    4.91
  -2  -1  -1   27.04    2.56
  -2  -1  -1   28.65    2.18
  -2  -1  -2   11.03    1.42
  -2  -1  -2   13.99    2.14
  -2  -1  -2   14.27    1.24
  -2  -1  -2   10.79    0.65
   2   1   2   14.59    1.15
   2   1   2   14.93    1.43
  -2  -1  -2   14.73    3.24
  -2  -1  -3   -0.54    0.90
  -2  -1  -3    1.50    1.15
   2   1   3    0.30    0.27
   2   1   3    0.49    0.51
  -2  -1  -3    0.01    0.27
   2   1   3   -0.04    0.13
  -2  -1  -3   -0.01    0.12
   2   1   3   -0.05    0.11
   2   1   4    3.42    0.48
  -2  -1  -4    3.35    1.61
   2   1   4    2.72    0.62
   2   1   4    2.85    0.69
  -2  -1  -4    0.16    1.58
  -2  -1  -4    2.73    0.63
  -2  -1  -5   -1.50    1.44
   2   1   5   -0.10    0.25
   2   1   5   -0.26    0.49
  -2  -1  -5    0.22    0.41
  -2  -1  -5    1.61    1.67
   2   1   5    0.46    0.47
  -2  -1  -6   56.89    3.62
   2   1   6   57.24    3.49
   2   1   6   55.33    3.72
   2   1   6   55.31    2.72
  -2  -1  -6   45.46    5.51
  -2  -1  -6   53.99    6.16
   2   1   7   55.55    3.60
  -2  -1  -7   49.84    5.72
  -2  -1  -7   51.29    3.70
   2   1   7   54.36    2.98
   2   1   7   55.48    3.89
  -2  -1  -7   49.67    6.16
  -2  -1  -8   -0.05    1.35
   2   1   8    0.22    0.37
  -2  -1  -8    1.23    0.56
  -2  -1  -8    0.54    0.97
   2   1   8    0.59    0.76
   2   1   8    1.22    0.75
  -2  -1  -9   -2.70    2.09
   2   1   9   -0.08    0.53
   2   1   9    0.03    0.35
  -2  -1  -9    0.34    0.56
  -2  -1  -9   -1.13    1.30
   2   1   9    0.18    0.47
  -2  -1 -10   10.65    3.70
   2   1  10   13.39    1.73
   2   1  10   14.48    2.20
  -2  -1 -10   14.19    2.19
  -2  -1 -10   11.85    3.19
  -2  -1 -10   23.31    4.61
   2   1  10   14.25    2.05
  -2  -1 -11   66.91    7.70
  -2  -1 -11   61.63    6.70
  -2  -1 -11   63.09    8.08
   2   1  11   71.33    5.32
   2   1  11   71.16    5.05
   2   1  11   69.79    4.42
  -2  -1 -11   73.23    5.39
   2   1  12    6.26    1.63
   2   1  12    9.85    1.92
  -2  -1 -12    9.13    3.76
  -2  -1 -12    6.19    1.47
  -2  -1 -12   10.96    3.11
  -2  -1 -13    1.62    1.87
   2   1  13   -0.31    0.67
  -2  -1 -13    0.64    0.91
   2   1  13   -0.24    0.68
   2   1  14    1.61    1.21
  -2  -1 -14   -0.79    1.04
  -2  -1 -14    0.87    2.42
   2   1  14    0.53    0.79
  -2  -1 -15    7.88    3.74
   2   1  15    5.05    1.61
  -2  -1 -15    7.41    1.91
   2   1  15    9.34    2.25
  -2  -1 -16    1.84    2.54
   2   1  16    7.49    2.02
   2   1  16    8.41    2.01
  -2  -1 -16    7.05    1.86
   2   1  17    7.80    2.02
  -2  -1 -17   13.74    4.78
  -2  -1 -17    4.94    1.76
   2   1  17    5.58    1.74
  -2  -1 -18    5.24    3.73
   2   1  18    1.16    0.98
   2   2 -20   19.20    3.56
  -2  -2  20   23.28    3.47
   2   2 -19    7.06    2.21
  -2  -2  19    5.20    2.16
  -2  -2  19    5.16    1.54
   2   2 -18   29.60    4.25
  -2  -2  18   36.94    5.19
  -2  -2  18   37.75    4.12
   2   2 -17   -1.53    3.26
   2   2 -17    5.36    1.84
  -2  -2  17    2.00    0.92
  -2  -2  17    3.05    1.23
   2   2 -16   12.92    5.06
   2   2 -16   15.57    2.89
  -2  -2  16   10.98    2.02
  -2  -2  16   16.38    3.15
   2   2 -15    4.85    2.76
  -2  -2  15    1.80    1.22
  -2  -2  15   -0.33    0.58
   2   2 -15    0.50    1.00
  -2  -2  14   24.54    2.78
   2   2 -14   20.57    5.67
   2   2 -14   23.29    3.35
  -2  -2  14   28.49    3.85
   2   2 -13    2.38    2.74
  -2  -2  13   -0.25    0.87
   2   2 -13    2.52    1.23
  -2  -2  13    0.58    0.58
  -2  -2  12   49.37    3.65
   2   2 -12   45.03    4.31
  -2  -2  12   51.66    4.88
   2   2 -12   51.91    8.30
  -2  -2  11  353.94   11.77
   2   2 -11  300.42   20.66
   2   2 -11  332.04   13.32
  -2  -2  11  332.01   14.05
  -2  -2  10   10.19    1.88
  -2  -2  10    6.58    1.14
   2   2 -10    7.02    1.54
   2   2 -10    5.56    1.27
   2   2 -10    5.54    2.76
  -2  -2  10    4.75    1.35
   2   2  -9   18.79    4.57
   2   2  -9   23.03    2.59
  -2  -2   9   21.95    2.01
  -2  -2   9   27.96    3.37
   2   2  -9   23.00    2.62
  -2  -2   9   21.00    2.76
  -2  -2   8   11.70    2.26
  -2  -2   8    6.12    0.92
   2   2  -8    6.19    1.39
   2   2  -8    6.07    1.36
   2   2  -8    5.10    2.36
   2   2  -7   13.49    1.79
  -2  -2   7   14.48    1.42
  -2  -2   7   20.32    2.97
   2   2  -7   14.00    1.75
   2   2  -6    0.85    0.37
   2   2  -6   -0.13    0.51
  -2  -2   6    0.05    0.18
  -2  -2   6   -0.97    0.92
  -2  -2   5  171.15    9.17
   2   2  -5  123.16    5.58
  -2  -2   5  139.46    5.33
  -2  -2   5  119.90    4.51
   2   2  -4 1053.76   28.69
  -2  -2   4 1141.61   27.82
  -2  -2   4 1118.15   28.13
   2   2  -3   78.10    3.11
   2   2  -3   73.51    3.91
  -2  -2   3   79.80    3.68
  -2  -2   3   90.59    6.78
  -2  -2   3   74.16    3.50
   2   2  -2    2.11    0.61
  -2  -2   2    3.14    0.80
  -2  -2   2    0.13    1.60
   2   2  -2    1.28    0.60
  -2  -2   2    1.52    0.53
   2   2  -1  399.39   12.41
  -2  -2   1  490.31   18.55
   2   2  -1  408.64   11.24
  -2  -2   1  389.31   11.63
  -2  -2   1  397.11   12.41
  -2  -2   0    4.09    1.00
   2   2   0    3.98    0.97
   2   2   0    6.49    1.01
  -2  -2   0    4.71    0.82
  -2  -2   0    5.27    2.18
  -2  -2  -1   92.00    4.31
   2   2   1   87.10    3.97
   2   2   1   88.21    4.66
  -2  -2  -1  106.34    8.57
   2   2   1   93.97    3.57
  -2  -2  -1   83.52    5.26
   2   2   2    1.22    0.45
  -2  -2  -2    1.70    1.27
  -2  -2  -2    0.29    0.42
   2   2   2    0.01    0.43
  -2  -2  -2    0.00    0.82
  -2  -2  -3   -1.14    1.28
   2   2   3    1.84    0.79
  -2  -2  -3    2.12    2.21
   2   2   3    0.06    0.31
   2   2   4  243.32    8.37
  -2  -2  -4  263.17   15.31
  -2  -2  -4  253.86    7.88
   2   2   4  236.10    7.69
  -2  -2  -4  214.97   11.71
   2   2   4  224.83    6.50
   2   2   4  188.87    5.80
   2   2   5   47.97    2.40
   2   2   5   52.30    3.52
  -2  -2  -5   51.15    6.59
  -2  -2  -5   51.68    3.18
   2   2   5   50.05    3.12
  -2  -2  -5   47.01    5.42
   2   2   6   10.50    1.13
  -2  -2  -6    8.85    1.34
  -2  -2  -6    7.98    2.60
   2   2   6   11.63    1.73
   2   2   6   10.03    1.40
  -2  -2  -6   11.25    3.14
   2   2   7   -0.35    0.32
  -2  -2  -7   -0.72    1.56
   2   2   7    0.35    0.60
   2   2   7   -0.47    0.60
  -2  -2  -7   -0.51    0.60
  -2  -2  -7   -0.77    1.51
   2   2   8    0.91    0.53
  -2  -2  -8    0.84    1.64
   2   2   8   -0.21    0.62
  -2  -2  -8    0.47    0.46
   2   2   8    0.94    0.66
  -2  -2  -8    0.19    1.10
  -2  -2  -9   14.87    3.88
   2   2   9   13.57    2.03
   2   2   9   12.24    1.50
   2   2   9   12.71    1.99
  -2  -2  -9   13.19    2.05
  -2  -2  -9   13.06    3.27
  -2  -2 -10   41.66    6.20
   2   2  10   55.71    4.56
   2   2  10   52.21    3.49
  -2  -2 -10   46.14    6.39
  -2  -2 -10   53.94    4.35
   2   2  10   53.61    4.19
   2   2  11  104.14    6.69
  -2  -2 -11   92.56    9.03
  -2  -2 -11  109.34    6.63
  -2  -2 -11  107.25   10.94
   2   2  11  109.32    6.52
   2   2  12   17.96    2.84
  -2  -2 -12   14.15    2.33
   2   2  12   20.29    2.79
  -2  -2 -12   10.76    3.05
  -2  -2 -13    1.01    0.82
   2   2  13   -0.21    0.71
   2   2  13   -1.58    1.26
  -2  -2 -14   12.70    4.27
   2   2  14   15.42    2.78
  -2  -2 -14   17.00    2.88
   2   2  14   18.16    2.85
  -2  -2 -15    4.98    2.92
  -2  -2 -15    5.25    1.63
   2   2  15    6.34    1.92
   2   2  15    5.75    1.82
   2   2  16    0.08    0.98
   2   2  16    0.17    0.60
  -2  -2 -16    1.38    0.95
   2   2  17    2.30    1.35
   2   2  17    1.41    1.28
  -2  -2 -17    2.62    1.48
  -2  -2 -17   -1.82    2.36
  -2  -3  20    0.45    0.57
   2   3 -20    2.24    1.54
  -2  -3  19    0.81    1.30
  -2  -3  19    0.36    0.77
   2   3 -19   -0.78    0.98
   2   3 -18   15.05    3.15
  -2  -3  18   19.29    3.71
  -2  -3  18   16.56    2.78
  -2  -3  17    0.47    0.94
   2   3 -17    0.80    0.89
  -2  -3  17    0.93    0.71
   2   3 -16   20.09    6.50
   2   3 -16   17.38    3.21
  -2  -3  16   18.32    3.56
  -2  -3  16   17.44    2.54
  -2  -3  15    2.97    1.11
  -2  -3  15    2.52    1.83
   2   3 -15    4.50    3.23
   2   3 -15    2.86    1.69
  -2  -3  14    9.10    2.15
   2   3 -14    7.67    2.00
   2   3 -14   10.08    4.11
  -2  -3  14    9.56    1.79
  -2  -3  13    0.06    0.58
   2   3 -13   -0.31    0.90
  -2  -3  13   -0.06    1.14
  -2  -3  12   75.19    4.67
   2   3 -12   71.62    5.64
  -2  -3  12   71.28    6.05
   2   3 -12   51.78    8.62
   2   3 -11   36.44    6.75
   2   3 -11   47.68    4.34
  -2  -3  11   51.26    3.61
   2   3 -11   46.01    4.32
   2   3 -10  102.75    6.27
  -2  -3  10  100.58    5.13
   2   3 -10  109.15    6.53
   2   3 -10   85.98   10.59
   2   3  -9   35.52    3.48
   2   3  -9   37.13    3.49
  -2  -3   9   37.79    2.80
   2   3  -8  357.39   13.04
  -2  -3   8  367.19   11.56
   2   3  -8  362.71   12.98
  -2  -3   7    0.45    0.32
   2   3  -7   -0.31    0.62
   2   3  -7    0.97    0.77
   2   3  -6    1.20    0.69
  -2  -3   6    0.95    0.39
  -2  -3   6    0.85    0.43
   2   3  -5   81.07    4.51
  -2  -3   5   94.17    4.93
  -2  -3   5   82.56    4.02
  -2  -3   4    0.19    0.33
  -2  -3   4    0.34    0.40
   2   3  -4    0.81    0.43
  -2  -3   4    0.49    0.30
   2   3  -3  186.99    6.42
   2   3  -3  189.64    7.58
  -2  -3   3  185.02    6.83
  -2  -3   3  197.90    7.35
  -2  -3   3  183.36    6.72
   2   3  -2   31.03    2.08
  -2  -3   2   47.48    5.47
  -2  -3   2   31.86    2.21
   2   3  -2   27.64    2.48
  -2  -3   2   29.17    2.32
  -2  -3   2   29.32    2.26
  -2  -3   1   45.50    3.24
   2   3  -1   42.27    2.56
   2   3  -1   47.75    3.30
  -2  -3   1   55.52    5.87
  -2  -3   1   40.69    2.62
  -2  -3   1   44.39    2.80
  -2  -3   0   58.38    3.27
   2   3   0   59.81    3.20
   2   3   0   63.60    3.99
  -2  -3   0   71.75    7.08
  -2  -3   0   60.46    3.18
  -2  -3   0   60.78    4.21
  -2  -3  -1   65.08    3.68
   2   3   1   72.36    3.69
  -2  -3  -1   64.28    4.92
   2   3   1   68.92    4.35
  -2  -3  -1   86.59    7.93
  -2  -3  -1   69.67    3.40
  -2  -3  -2   45.77    6.14
  -2  -3  -2   37.18    2.77
   2   3   2   38.54    2.69
   2   3   2   38.23    3.29
  -2  -3  -2   30.57    3.65
  -2  -3  -2   38.82    2.31
   2   3   3  209.06    7.73
   2   3   3  194.14    8.62
  -2  -3  -3  221.10   14.37
  -2  -3  -3  173.47   10.12
   2   3   3  197.82    7.10
  -2  -3  -3  184.45    6.33
   2   3   4   96.36    5.03
  -2  -3  -4  113.36   10.45
   2   3   4   96.52    4.68
  -2  -3  -4   89.22    7.57
  -2  -3  -5   11.35    3.55
   2   3   5    8.26    1.03
   2   3   5    8.48    1.58
  -2  -3  -5    7.35    2.49
   2   3   5    8.28    1.32
   2   3   6   15.57    2.02
   2   3   6   14.38    1.79
  -2  -3  -6   10.21    3.15
   2   3   6   11.43    1.31
  -2  -3  -6   13.19    3.99
  -2  -3  -7    9.50    3.56
  -2  -3  -7    5.53    2.74
  -2  -3  -7    5.02    1.10
   2   3   7    5.36    1.22
   2   3   7    5.66    0.95
   2   3   7    4.06    1.04
  -2  -3  -8    3.57    1.43
  -2  -3  -8    9.34    1.67
  -2  -3  -8    9.48    3.38
   2   3   8    8.79    1.55
   2   3   8    6.23    1.49
   2   3   8    6.96    1.12
   2   3   9   45.78    4.10
  -2  -3  -9   35.56    6.01
  -2  -3  -9   46.94    3.76
   2   3   9   42.60    3.71
   2   3   9   40.51    2.97
  -2  -3  -9   41.38    6.58
   2   3  10  235.78   10.55
  -2  -3 -10  194.71   14.52
  -2  -3 -10  221.91    9.73
   2   3  10  216.92    9.81
  -2  -3 -10  190.74   15.21
  -2  -3 -11   25.96    5.54
   2   3  11   29.30    3.40
  -2  -3 -11   32.87    3.35
  -2  -3 -11   21.69    4.43
   2   3  11   25.38    3.09
  -2  -3 -12    8.52    2.87
  -2  -3 -12    4.79    1.37
   2   3  12    6.38    1.88
   2   3  12    4.05    1.29
  -2  -3 -13    2.42    1.69
   2   3  13    4.96    1.73
  -2  -3 -13    8.36    1.95
   2   3  13    4.58    1.56
  -2  -3 -14    1.21    2.25
  -2  -3 -14    2.11    1.34
   2   3  14   -0.66    0.77
   2   3  14    2.03    1.22
  -2  -3 -15   19.07    5.25
   2   3  15   14.36    2.88
  -2  -3 -15   14.76    2.80
   2   3  15   18.07    3.00
  -2  -3 -16   -1.15    2.99
   2   3  16    6.10    1.96
  -2  -3 -16    8.30    2.08
   2   3  16    6.83    1.94
   2   4 -19   -0.61    0.93
  -2  -4  19    0.00    0.71
  -2  -4  18    8.55    2.80
   2   4 -18    7.13    2.64
  -2  -4  18    8.15    1.89
  -2  -4  17    7.18    1.70
  -2  -4  17    6.95    2.46
   2   4 -17    4.79    1.59
  -2  -4  16    7.55    1.73
  -2  -4  16    9.47    2.63
   2   4 -16   10.11    2.72
   2   4 -15   15.41    5.04
  -2  -4  15   26.79    3.16
  -2  -4  15   25.85    4.15
   2   4 -15   24.85    3.86
  -2  -4  14   24.83    3.91
   2   4 -14   23.35    6.50
   2   4 -14   23.24    3.63
  -2  -4  14   24.28    2.83
  -2  -4  13    2.53    0.91
   2   4 -13    3.73    3.64
  -2  -4  13    3.34    1.53
   2   4 -13    1.62    0.80
   2   4 -12    8.96    4.02
   2   4 -12    6.88    1.85
   2   4 -12    9.71    2.25
  -2  -4  12    8.49    1.54
   2   4 -11   56.49    4.82
   2   4 -11   50.57    8.41
   2   4 -11   60.17    5.14
  -2  -4  11   53.72    3.86
   2   4 -10  191.67    9.47
   2   4 -10  189.83    9.56
  -2  -4  10  187.23    7.87
   2   4  -9    1.68    0.87
   2   4  -9    1.11    0.97
  -2  -4   9    1.20    0.52
   2   4  -8   14.45    2.25
   2   4  -8   11.14    2.00
  -2  -4   8   13.42    1.65
   2   4  -7    9.82    1.79
  -2  -4   7    6.47    1.09
  -2  -4   7    8.08    1.33
  -2  -4   7   10.47    1.77
   2   4  -6    1.05    0.29
   2   4  -6    0.63    0.50
  -2  -4   6    1.52    0.62
  -2  -4   6    1.12    0.67
  -2  -4   5    1.13    0.57
   2   4  -5    0.55    0.35
   2   4  -5    0.98    0.70
  -2  -4   5    0.67    0.49
  -2  -4   4    5.99    0.99
  -2  -4   4    7.19    1.16
  -2  -4   4    6.38    1.25
   2   4  -4    8.19    1.56
  -2  -4   3   16.55    1.90
   2   4  -3   17.07    1.70
  -2  -4   3   17.73    1.81
   2   4  -3   17.76    2.16
  -2  -4   3   16.05    1.70
  -2  -4   2   16.60    1.84
   2   4  -2   15.73    1.62
  -2  -4   2   17.41    1.92
   2   4  -2   18.59    2.18
  -2  -4   2   18.25    1.80
  -2  -4   1    0.60    0.64
   2   4  -1    0.34    0.47
  -2  -4   1    0.08    0.46
  -2  -4   1   -0.36    2.01
   2   4  -1    0.33    0.47
  -2  -4   1    0.29    0.31
   2   4   0   43.91    2.99
  -2  -4   0   43.85    3.79
   2   4   0   41.99    3.45
  -2  -4   0   58.24    6.90
  -2  -4   0   41.13    2.80
  -2  -4   0   38.00    2.74
   2   4   1   12.64    1.63
  -2  -4  -1   12.43    3.15
   2   4   1    9.97    1.79
  -2  -4  -1    9.43    1.20
  -2  -4  -1   10.62    1.48
  -2  -4  -1    9.52    1.87
  -2  -4  -2   20.56    2.11
  -2  -4  -2   21.16    3.13
   2   4   2   22.35    2.21
   2   4   2   21.96    2.68
  -2  -4  -2   21.05    1.81
  -2  -4  -2   32.91    5.11
   2   4   3   90.17    4.92
   2   4   3   93.13    5.83
  -2  -4  -3  112.08   10.52
  -2  -4  -3   77.08    6.59
  -2  -4  -3   84.60    3.92
   2   4   4    1.14    0.92
  -2  -4  -4    1.63    2.18
   2   4   4    1.32    1.01
  -2  -4  -4    1.10    0.41
  -2  -4  -4    1.63    2.16
   2   4   5   10.52    1.62
   2   4   5   10.84    1.65
  -2  -4  -5   12.53    3.43
  -2  -4  -5    9.56    1.08
  -2  -4  -5   11.84    4.34
  -2  -4  -6   21.42    4.40
  -2  -4  -6   21.65    5.14
   2   4   6   24.84    2.15
   2   4   6   27.05    2.87
   2   4   6   26.02    2.63
   2   4   7   17.59    2.45
  -2  -4  -7   20.22    5.40
   2   4   7   16.60    1.82
  -2  -4  -7   21.67    4.61
   2   4   7   15.17    2.07
   2   4   8   -0.60    0.62
  -2  -4  -8   -2.73    2.90
   2   4   8    0.95    0.58
  -2  -4  -8    0.42    1.93
   2   4   9  200.92    9.75
  -2  -4  -9  170.60   14.96
  -2  -4  -9  177.39   14.37
   2   4   9  207.16    9.48
  -2  -4 -10   67.60    9.12
   2   4  10   74.92    5.69
   2   4  10   69.06    5.25
  -2  -4 -10   50.70    7.72
  -2  -4 -11    3.43    2.34
   2   4  11    6.07    1.70
   2   4  11    5.84    1.66
  -2  -4 -12   -1.73    3.36
   2   4  12   -0.34    0.68
   2   4  12    0.37    0.87
  -2  -4 -13    6.05    2.54
   2   4  13    7.46    1.94
   2   4  13    6.39    1.82
   2   4  14   12.66    2.56
  -2  -4 -14   12.14    4.10
   2   4  14   11.74    2.70
   2   4  15    1.18    1.09
   2   4  15   -1.04    0.59
  -2  -5  19    0.21    0.60
   2   5 -18    0.59    1.05
  -2  -5  18    1.00    0.85
  -2  -5  17   17.27    3.85
   2   5 -17   14.28    3.29
  -2  -5  17   16.61    2.72
   2   5 -16   36.87    5.05
  -2  -5  16   50.34    6.22
  -2  -5  16   40.11    4.11
  -2  -5  15    5.89    2.25
   2   5 -15    4.72    1.50
  -2  -5  15    4.04    1.27
   2   5 -14    0.79    1.66
   2   5 -14    3.05    1.23
  -2  -5  14    4.01    1.13
   2   5 -13    2.34    3.68
   2   5 -13    0.37    0.83
  -2  -5  13    0.05    0.47
   2   5 -13   -0.08    0.96
  -2  -5  12    0.17    0.70
   2   5 -12    1.65    0.81
   2   5 -12   -0.61    0.91
   2   5 -11    2.30    1.20
   2   5 -11    1.17    0.97
  -2  -5  11    0.86    0.55
   2   5 -10    3.81    1.45
   2   5 -10    3.75    1.30
  -2  -5  10    6.00    1.19
   2   5  -9    7.76    1.70
   2   5  -9    7.14    1.65
  -2  -5   9    8.43    1.50
  -2  -5   8    3.84    1.22
  -2  -5   8    5.06    1.23
   2   5  -8    4.27    1.38
  -2  -5   8    4.59    1.00
  -2  -5   7    5.58    1.50
   2   5  -7    4.79    1.37
  -2  -5   7    4.67    1.06
   2   5  -6    2.05    0.92
  -2  -5   6    1.82    0.68
  -2  -5   6    1.29    0.61
   2   5  -5    0.09    0.32
   2   5  -5    0.67    0.55
  -2  -5   5    0.31    0.37
  -2  -5   5    0.59    0.63
  -2  -5   5   -0.52    0.72
  -2  -5   4    5.63    0.88
   2   5  -4    5.39    1.43
  -2  -5   4    5.51    1.20
  -2  -5   4    5.27    1.15
  -2  -5   3    0.49    0.56
  -2  -5   3    0.34    0.39
   2   5  -3    0.50    0.33
   2   5  -3    0.23    0.64
  -2  -5   3    0.16    0.61
   2   5  -2   70.33    4.84
  -2  -5   2   72.89    4.04
   2   5  -2   68.83    4.07
  -2  -5   2   69.25    4.34
  -2  -5   2   67.79    4.25
  -2  -5   1    3.33    0.95
   2   5  -1    3.42    0.95
   2   5  -1    5.38    1.47
  -2  -5   1    4.38    1.02
  -2  -5   1    4.69    1.05
   2   5   0   15.75    1.98
  -2  -5   0   14.49    1.75
  -2  -5   0   16.37    2.37
   2   5   0   18.40    2.43
  -2  -5   0   25.93    5.09
  -2  -5   0   13.62    1.74
   2   5   1   74.34    4.51
   2   5   1   80.88    5.39
  -2  -5  -1   76.02    5.83
  -2  -5  -1   92.62    9.73
  -2  -5  -1   73.27    4.29
  -2  -5  -1   73.46    4.17
   2   5   2  112.00    5.83
  -2  -5  -2  102.81    5.34
  -2  -5  -2  110.47    5.12
  -2  -5  -2   96.51    7.30
  -2  -5  -2  128.84   11.49
   2   5   2  115.12    6.73
   2   5   3   34.35    3.11
  -2  -5  -3   38.05    6.35
   2   5   3   39.30    3.93
  -2  -5  -3   30.14    4.31
  -2  -5  -3   30.37    2.38
   2   5   4   19.39    2.43
   2   5   4   16.64    2.57
  -2  -5  -4   17.56    3.51
  -2  -5  -4   13.33    1.49
  -2  -5  -4   18.58    4.67
  -2  -5  -5    3.46    1.60
   2   5   5    7.15    1.63
  -2  -5  -5    5.16    3.02
   2   5   5    4.98    1.55
   2   5   6    0.54    0.79
  -2  -5  -6   -3.82    2.36
   2   5   6    0.27    0.82
  -2  -5  -6    4.37    3.97
  -2  -5  -7   48.97    6.66
   2   5   7   54.49    4.47
   2   5   7   56.84    5.40
  -2  -5  -7   57.93    9.34
   2   5   8   11.09    2.01
   2   5   8   10.15    1.91
  -2  -5  -8   12.28    3.86
  -2  -5  -8   15.57    5.41
   2   5   9   52.31    4.70
   2   5   9   50.03    4.46
  -2  -5  -9   45.29    7.93
  -2  -5  -9   48.54    7.46
  -2  -5 -10    5.88    2.88
   2   5  10    7.85    1.79
  -2  -5 -10    6.13    3.35
   2   5  10    8.32    1.90
  -2  -5 -11    0.62    2.60
   2   5  11    3.05    1.32
   2   5  11    4.40    1.48
  -2  -5 -12   -0.97    1.44
   2   5  12   -0.05    0.56
   2   5  12    0.85    0.75
   2   5  13    0.79    1.14
   2   5  13    0.80    0.62
   2   5  14    7.43    2.33
  -2  -5 -14    0.05    2.83
   2   5  14    6.56    1.95
   2   6 -17   -0.08    0.77
  -2  -6  16    3.47    1.34
   2   6 -16    3.89    1.87
  -2  -6  16    0.55    1.10
   2   6 -15    3.37    1.56
  -2  -6  15    4.61    1.38
   2   6 -14   13.93    2.83
   2   6 -14   10.49    2.75
  -2  -6  14   12.40    2.14
   2   6 -13   -0.88    1.09
   2   6 -13    0.74    1.42
  -2  -6  13    0.60    0.86
   2   6 -12   13.38    2.72
   2   6 -12   17.46    3.18
  -2  -6  12   12.30    2.04
  -2  -6  11   47.56    4.37
   2   6 -11   40.09    4.50
   2   6 -11   40.06    4.58
  -2  -6  11   46.41    3.95
  -2  -6  10   25.85    3.04
   2   6 -10   19.68    3.00
   2   6 -10   23.16    3.48
  -2  -6  10   20.53    2.53
   2   6  -9   20.03    2.90
   2   6  -9   15.89    2.63
  -2  -6   9   20.03    2.40
  -2  -6   9   24.23    2.86
  -2  -6   9   25.29    3.52
  -2  -6   8    6.47    1.29
  -2  -6   8   10.41    2.05
   2   6  -8   10.22    2.08
  -2  -6   8   10.67    1.78
  -2  -6   7   19.56    2.70
   2   6  -7   12.46    2.22
  -2  -6   7   18.89    2.51
   2   6  -6   32.02    3.66
  -2  -6   6   37.49    3.30
  -2  -6   6   39.85    3.83
  -2  -6   5    0.12    0.40
   2   6  -5    0.63    0.74
  -2  -6   5    0.13    0.60
  -2  -6   4   19.41    2.24
   2   6  -4   20.71    2.83
   2   6  -4   18.32    2.00
  -2  -6   4   20.40    2.50
  -2  -6   4   16.12    1.72
   2   6  -3  119.38    7.06
  -2  -6   3  123.93    5.96
  -2  -6   3  107.49    5.47
  -2  -6   3  124.05    6.54
   2   6  -2  267.74   10.17
   2   6  -2  273.78   11.50
  -2  -6   2  269.00   10.52
  -2  -6   2  247.02    9.85
  -2  -6   2  255.53    9.60
   2   6  -1    3.01    0.81
  -2  -6   1    2.39    1.09
   2   6  -1    3.22    1.36
  -2  -6   1    2.34    0.80
  -2  -6   1    1.54    0.53
   2   6   0  117.45    6.16
   2   6   0  113.56    6.89
  -2  -6   0  103.62    5.45
  -2  -6   0  160.44   13.34
  -2  -6   0  109.63    5.82
  -2  -6   0  110.70    6.83
  -2  -6  -1   22.93    4.85
  -2  -6  -1   15.03    2.63
   2   6   1   15.18    2.15
   2   6   1   17.55    2.58
  -2  -6  -1   17.11    2.04
  -2  -6  -1   16.05    1.97
   2   6   2  147.98    7.30
   2   6   2  147.17    8.25
  -2  -6  -2  188.95   15.42
  -2  -6  -2  131.43    8.94
  -2  -6  -2  130.47    6.30
   2   6   3   -0.40    0.71
  -2  -6  -3   -0.95    1.17
  -2  -6  -3    0.73    0.56
   2   6   3   -0.49    0.93
  -2  -6  -3    0.97    2.97
  -2  -6  -4   36.97    5.23
   2   6   4   38.02    3.68
   2   6   4   39.58    4.15
  -2  -6  -4   40.99    7.48
  -2  -6  -5   22.96    5.79
  -2  -6  -5   21.27    4.16
   2   6   5   22.17    2.85
   2   6   5   22.12    3.28
  -2  -6  -6    0.66    1.67
   2   6   6    4.22    1.65
   2   6   6    3.15    1.12
  -2  -6  -6    8.25    4.54
   2   6   7    0.61    0.97
  -2  -6  -7   -0.70    1.48
   2   6   7    1.41    0.95
  -2  -6  -7    1.47    3.69
  -2  -6  -8   -0.84    1.86
  -2  -6  -8   -1.38    4.75
   2   6   8   -0.93    1.03
   2   6   8    0.61    1.00
  -2  -6  -9   -1.42    1.83
   2   6   9    0.22    0.73
   2   6   9   -0.19    0.80
  -2  -6 -10   -3.00    2.35
   2   6  10    4.06    1.58
  -2  -6 -10    3.24    2.54
   2   6  10   -0.16    0.91
   2   6  11    1.64    1.01
  -2  -6 -11   -1.91    1.89
   2   6  11    0.02    0.78
   2   6  12    3.69    1.95
  -2  -6 -12    2.51    1.78
   2   6  12   -0.37    0.87
   2   6  13    0.80    1.04
   2   7 -16    3.01    1.30
   2   7 -15    1.48    1.47
  -2  -7  15   -0.24    0.81
   2   7 -14    7.40    2.42
   2   7 -14    6.75    2.15
  -2  -7  14    7.05    1.66
  -2  -7  14    3.49    1.29
   2   7 -13   42.51    5.09
  -2  -7  13   46.10    4.35
   2   7 -13   40.54    5.21
  -2  -7  13   46.61    4.82
   2   7 -12    1.41    0.79
   2   7 -12    2.11    1.23
  -2  -7  12    0.62    0.63
  -2  -7  12    0.58    0.88
  -2  -7  11    2.31    0.98
   2   7 -11    2.12    0.90
   2   7 -11    2.03    1.45
  -2  -7  11    2.12    0.91
  -2  -7  10    5.11    1.31
  -2  -7  10    4.77    1.39
   2   7 -10    3.66    1.44
  -2  -7  10    6.83    1.96
   2   7 -10    4.16    1.39
  -2  -7   9    2.50    0.94
   2   7  -9    0.59    0.87
  -2  -7   9    1.01    0.92
  -2  -7   9    2.70    1.26
   2   7  -8    0.90    0.89
  -2  -7   8    0.23    0.81
  -2  -7   8    0.71    0.75
  -2  -7   7   13.86    2.57
   2   7  -7   11.84    2.21
  -2  -7   7   13.91    2.31
   2   7  -6    0.77    0.70
  -2  -7   6   -0.09    0.45
  -2  -7   6    1.07    0.97
  -2  -7   5    9.74    1.73
   2   7  -5   11.32    2.19
  -2  -7   5    9.16    1.93
   2   7  -4   13.69    2.46
  -2  -7   4   15.22    2.15
  -2  -7   4   13.11    2.18
  -2  -7   3   10.97    1.73
   2   7  -3   12.39    2.43
  -2  -7   3   11.22    2.11
   2   7  -2   28.10    2.99
  -2  -7   2   28.76    2.78
   2   7  -2   25.04    3.26
  -2  -7   2   30.18    3.26
  -2  -7   1    0.66    2.76
   2   7  -1   -0.24    0.87
   2   7  -1    0.00    0.63
  -2  -7   1   -0.17    0.48
  -2  -7   0   59.01    8.83
   2   7   0   49.93    4.17
  -2  -7   0   49.36    4.55
   2   7   0   49.08    4.71
  -2  -7   0   49.29    4.01
  -2  -7  -1    0.46    1.02
  -2  -7  -1    1.61    0.94
   2   7   1   -1.11    1.17
   2   7   1    0.53    1.00
   2   7   2    5.84    1.62
  -2  -7  -2    7.55    3.94
   2   7   2    6.18    1.58
  -2  -7  -2    7.64    2.21
  -2  -7  -2    5.22    1.29
   2   7   3   18.46    2.66
  -2  -7  -3   17.59    3.31
   2   7   3   18.01    2.98
  -2  -7  -3   22.59    5.69
  -2  -7  -4   10.14    2.37
   2   7   4   14.52    2.33
   2   7   4   11.29    2.45
  -2  -7  -4   22.04    5.77
   2   7   5   68.52    5.40
   2   7   5   68.45    6.10
  -2  -7  -5   81.44   11.82
  -2  -7  -5   52.51    6.78
  -2  -7  -6    0.90    1.50
   2   7   6    1.57    1.00
   2   7   6    1.11    1.02
  -2  -7  -6    1.69    2.16
   2   7   7    3.70    1.62
   2   7   7    2.24    1.37
  -2  -7  -7    7.89    3.18
  -2  -7  -7   -3.16    3.79
  -2  -7  -8    2.44    3.11
  -2  -7  -8    4.13    2.48
   2   7   8   -0.66    0.84
   2   7   8    0.31    0.84
  -2  -7  -9   25.07    5.65
   2   7   9   28.69    4.33
   2   7   9   32.11    4.10
  -2  -7  -9   24.00    6.90
   2   7  10   11.55    2.45
   2   7  10   10.31    2.75
  -2  -7 -10   12.52    4.71
   2   7  11   -1.25    0.85
   2   7  11   -1.25    1.08
  -2  -7 -11    0.68    1.32
   2   7  12   21.21    4.09
   2   8 -14   18.50    3.74
  -2  -8  14   14.17    2.90
   2   8 -13    2.95    1.92
  -2  -8  13    0.92    0.72
   2   8 -13    1.34    1.38
   2   8 -12    6.65    2.32
   2   8 -12    5.62    2.30
  -2  -8  12    3.23    1.40
   2   8 -11   -0.39    0.89
   2   8 -11    1.79    1.62
  -2  -8  11   -1.06    0.87
   2   8 -10    2.45    1.33
   2   8 -10    2.06    1.37
  -2  -8  10    1.02    0.68
  -2  -8  10    2.37    0.91
  -2  -8  10    4.74    2.04
   2   8  -9    0.35    0.96
  -2  -8   9    0.25    0.56
  -2  -8   9   -0.45    1.14
  -2  -8   9    0.63    0.40
   2   8  -8    1.47    1.17
  -2  -8   8   -0.26    0.72
  -2  -8   8    1.08    0.97
   2   8  -7   18.78    3.14
  -2  -8   7   19.65    3.15
  -2  -8   7   16.68    2.49
   2   8  -6    0.29    0.67
  -2  -8   6    1.43    0.82
  -2  -8   6   -0.75    0.83
   2   8  -5   14.67    2.65
  -2  -8   5   12.84    2.05
  -2  -8   5   16.01    2.69
  -2  -8   4    0.46    0.79
   2   8  -4    2.50    1.43
   2   8  -3    0.46    0.57
  -2  -8   3   -0.26    0.49
  -2  -8   2   -2.51    2.53
  -2  -8   2    1.55    1.12
   2   8  -2    0.56    0.72
   2   8  -1    0.19    0.62
   2   8  -1   -0.51    1.30
  -2  -8   1    1.82    0.98
  -2  -8   0   15.90    5.38
   2   8   0   15.01    2.41
   2   8   0   15.96    2.82
  -2  -8   0   14.21    2.35
  -2  -8  -1    8.76    4.07
   2   8   1    5.83    1.63
   2   8   1    8.20    2.00
  -2  -8  -1    6.36    1.53
   2   8   2    1.15    1.28
   2   8   2    0.32    1.30
  -2  -8  -2    1.35    2.57
   2   8   3   -0.51    0.60
   2   8   3    0.88    0.87
  -2  -8  -3    1.88    2.43
   2   8   4    0.67    0.98
  -2  -8  -4    2.83    1.64
  -2  -8  -4   -2.36    4.44
   2   8   4    1.03    0.90
   2   8   5   10.79    2.15
   2   8   5   11.56    2.63
  -2  -8  -5    7.48    2.83
  -2  -8  -5   21.03    7.47
   2   8   6    0.49    0.91
  -2  -8  -6   -0.67    3.35
  -2  -8  -6    2.90    1.63
   2   8   6    0.95    1.29
  -2  -8  -7    3.61    1.87
   2   8   7    9.85    2.27
   2   8   7    9.68    2.40
  -2  -8  -7   17.00    6.84
   2   8   8    0.82    0.71
  -2  -8  -8   -1.68    2.47
   2   8   8    0.49    1.10
  -2  -8  -9    0.48    1.74
   2   8   9    0.33    0.99
  -2  -8  -9    2.78    4.09
  -2  -8 -10    7.49    3.66
   2   8  10    5.98    2.20
  -2  -9  12    6.81    2.03
   2   9 -11    7.77    2.34
   2   9 -11    8.94    2.70
  -2  -9  11    7.35    2.07
   2   9 -10    2.52    1.59
   2   9 -10    1.14    1.43
  -2  -9  10    1.03    0.99
   2   9  -9    3.32    1.69
  -2  -9   9    2.52    1.11
  -2  -9   9    1.92    1.28
   2   9  -8   58.35    6.02
  -2  -9   8   71.53    6.81
   2   9  -7    0.89    0.67
  -2  -9   7    0.84    1.05
   2   9  -6   -0.70    1.03
  -2  -9   6   -1.60    1.48
   2   9  -5    4.86    1.69
  -2  -9   5    9.03    2.26
  -2  -9   4   -1.18    2.53
   2   9  -4    2.12    1.31
  -2  -9   4    2.55    1.32
  -2  -9   3    2.73    2.21
   2   9  -3    2.88    1.45
  -2  -9   3    4.97    1.79
   2   9  -2   17.57    3.26
  -2  -9   2   16.43    2.85
  -2  -9   2   29.01    7.40
  -2  -9   1   11.36    4.77
   2   9  -1   10.82    2.48
  -2  -9   1   12.21    2.34
  -2  -9   0   31.41    7.54
   2   9   0   25.77    3.44
   2   9   0   25.74    3.83
  -2  -9   0   22.14    3.15
   2   9   1    1.73    1.32
   2   9   1    1.56    1.18
   2   9   2    2.18    1.23
   2   9   2   -0.40    1.12
  -2  -9  -2    3.06    3.64
   2   9   3    0.36    0.59
   2   9   3    1.09    1.00
  -2  -9  -3    5.56    4.11
   2   9   4   10.07    2.34
   2   9   4    8.98    2.35
  -2  -9  -4    8.51    5.24
   2   9   5    3.68    1.69
   2   9   5    0.33    0.81
  -2  -9  -5    5.49    5.05
  -2  -9  -6    2.76    2.14
   2   9   6    6.19    1.96
   2   9   7    8.46    2.49
  -2  -9  -7   11.73    5.17
   2   9   8    1.84    1.69
  -2  -9  -8    0.37    2.30
  -2 -10   9   21.43    6.60
  -2 -10   8   74.94   12.42
  -2 -10   7   -1.32    2.73
   2  10  -7   -0.72    0.96
  -2 -10   7   -1.09    1.21
  -2 -10   6   -1.08    2.81
   2  10  -6   -1.03    1.38
  -2 -10   6   -0.48    0.94
  -2 -10   5   -1.12    2.62
   2  10  -5   -1.06    0.89
  -2 -10   5    0.17    0.66
  -2 -10   4   -0.21    3.35
   2  10  -4   -1.87    1.46
  -2 -10   4   -0.58    0.96
   2  10  -3    1.65    0.97
  -2 -10   3   -0.60    0.71
  -2 -10   3    2.73    2.31
  -2 -10   2   17.52    5.81
   2  10  -2    7.04    2.05
  -2 -10   2    6.37    1.88
   2  10  -1    4.81    1.98
  -2 -10   1    3.13    1.35
  -2 -10   1    8.88    4.97
  -2 -10   0    5.48    4.64
   2  10   0    2.73    1.13
   2  10   1    5.93    2.05
  -2 -10  -1    7.91    3.18
   2  10   2    0.11    0.62
   2  10   3    0.41    1.25
   2  10   4    4.95    1.90
   3 -12  -4    9.81    2.39
   3 -12  -3    1.59    1.14
   3 -12  -2   10.47    2.54
  -3  12   1   -1.09    0.98
   3 -12  -1    0.72    0.53
  -3  12   0    0.61    0.61
  -3  12  -1    2.96    1.10
  -3  12  -1    4.84    1.77
  -3  12  -2    0.75    0.78
  -3  12  -2   -0.76    1.07
  -3  12  -3   -1.26    0.96
  -3  12  -4    0.24    0.43
  -3  12  -4    0.72    1.01
  -3  11   6   32.83    4.68
  -3  11   5    5.26    1.86
   3 -11  -5    5.68    1.79
  -3  11   4    7.85    2.18
   3 -11  -4    9.50    2.23
  -3  11   3    7.92    2.30
   3 -11  -3   10.79    2.35
  -3  11   2    3.76    1.74
   3 -11  -2    0.19    0.97
  -3  11   1    4.29    1.79
   3 -11  -1    2.13    1.21
  -3  11   0    2.67    1.10
  -3  11   0    2.83    1.05
   3 -11   0    4.09    1.67
   3 -11   1    1.88    0.95
  -3  11  -1    3.23    1.14
  -3  11  -1    3.30    1.53
   3 -11   2    1.99    1.10
  -3  11  -2    2.20    0.91
  -3  11  -2    1.30    0.92
  -3  11  -3    8.84    1.86
  -3  11  -3    9.96    2.15
   3 -11   3   11.19    2.31
  -3  11  -4   10.91    2.25
  -3  11  -4   11.12    2.48
  -3  11  -4   11.53    2.20
   3 -11   4   16.23    3.02
   3 -11   5    9.05    2.27
  -3  11  -5   10.37    2.49
  -3  11  -5    6.97    1.74
  -3  11  -6    1.13    0.91
   3 -11   6   -0.52    1.00
  -3  11  -6    0.66    0.80
   3 -11   7    1.51    1.10
  -3  11  -7   -0.98    1.03
  -3  11  -7    1.13    0.88
  -3  11  -8   -0.51    0.98
  -3  11  -8   -0.24    0.65
  -3  10  11    5.62    1.77
  -3  10  10   32.79    4.52
  -3  10  10   37.47    4.24
  -3  10   9    3.30    2.00
  -3  10   9    0.33    0.54
  -3  10   8   12.04    2.71
  -3  10   7    3.30    1.46
  -3  10   6   14.69    3.04
   3 -10  -6   11.67    2.29
  -3  10   5    0.17    0.71
   3 -10  -5   -0.76    0.93
  -3  10   4    0.92    0.87
   3 -10  -4   -1.70    1.11
   3 -10  -3   30.69    3.74
  -3  10   3   28.43    3.84
  -3  10   2    5.04    1.60
  -3  10   2    3.41    1.02
   3 -10  -2    4.22    1.39
  -3  10   1    1.45    0.79
  -3  10   1    1.04    0.94
   3 -10  -1    1.49    0.95
  -3  10   0    5.60    1.39
  -3  10   0    3.88    1.39
   3 -10   0    6.21    1.79
  -3  10  -1    5.74    1.43
   3 -10   1    8.03    1.95
  -3  10  -1    9.50    2.07
  -3  10  -2    7.51    1.63
   3 -10   2   10.83    2.25
  -3  10  -2    6.21    1.58
  -3  10  -3   17.69    2.73
   3 -10   3   20.06    3.01
  -3  10  -3   13.92    2.21
   3 -10   4   16.78    2.80
  -3  10  -4   12.00    2.02
  -3  10  -4   12.71    2.69
  -3  10  -4   11.76    2.17
  -3  10  -5    3.60    1.19
  -3  10  -5    3.60    1.67
  -3  10  -5    3.23    1.24
   3 -10   5    4.01    1.43
  -3  10  -6    0.53    0.73
  -3  10  -6    1.37    0.78
  -3  10  -6    0.51    0.98
   3 -10   6    1.18    0.78
  -3  10  -7   30.02    4.25
  -3  10  -7   26.06    3.32
   3 -10   7   34.78    4.22
  -3  10  -8   20.96    3.63
  -3  10  -8   20.61    2.96
   3 -10   8   27.46    3.75
  -3  10  -9   -0.96    0.95
  -3  10  -9    0.77    0.80
   3 -10   9    1.07    0.94
   3 -10   9    1.82    0.86
   3 -10  10    0.75    0.91
   3 -10  10    0.48    0.81
  -3  10 -10    0.54    0.91
  -3  10 -10    0.74    0.62
  -3  10 -11    3.68    1.48
  -3  10 -11    4.19    2.01
   3 -10  11    3.33    1.45
   3  -9 -13    8.04    3.73
  -3   9  12   18.52    2.82
  -3   9  12   19.00    3.32
  -3   9  11    2.41    1.43
  -3   9  11    4.53    1.90
  -3   9  11    3.41    1.32
   3  -9 -11    1.20    2.33
  -3   9  10   26.77    4.15
  -3   9  10   26.86    3.34
  -3   9  10   24.71    3.83
   3  -9 -10   28.88    8.50
  -3   9   9   20.87    3.36
  -3   9   9   26.77    4.11
  -3   9   9   23.72    3.17
   3  -9  -9   34.27    9.09
  -3   9   8   -0.07    0.90
  -3   9   8    0.26    0.66
  -3   9   8   -0.27    0.56
   3  -9  -8    0.25    2.20
   3  -9  -8    0.58    0.80
   3  -9  -7    5.44    3.20
  -3   9   7    1.82    0.68
  -3   9   7    6.26    1.88
  -3   9   7    1.98    0.95
   3  -9  -7    3.20    1.24
  -3   9   6    4.94    1.95
  -3   9   6    2.21    1.43
   3  -9  -6    2.26    1.07
  -3   9   5    4.27    1.36
   3  -9  -5    5.70    1.71
  -3   9   4   15.90    2.79
   3  -9  -4   17.98    2.68
  -3   9   3    0.34    0.53
  -3   9   3    0.45    0.67
   3  -9  -3    1.16    0.90
  -3   9   2   27.08    3.46
  -3   9   2   24.10    2.59
   3  -9  -2   28.35    3.34
  -3   9   1    5.83    1.59
  -3   9   1    8.92    1.65
   3  -9  -1   10.42    2.12
  -3   9   0    0.90    0.60
  -3   9   0    0.81    0.91
   3  -9   0    1.61    1.22
  -3   9  -1    0.04    0.72
   3  -9   1    0.62    0.57
  -3   9  -1   -0.80    0.68
  -3   9  -2    5.70    1.71
  -3   9  -2    9.00    1.70
   3  -9   2    6.28    1.55
  -3   9  -3   31.02    3.51
  -3   9  -3   27.96    3.03
   3  -9   3   37.14    3.88
  -3   9  -4   -0.39    0.93
  -3   9  -4    2.43    1.10
  -3   9  -4    1.31    0.65
   3  -9   4    0.77    0.50
  -3   9  -5    9.79    1.94
  -3   9  -5    9.10    2.03
  -3   9  -5    8.57    1.75
   3  -9   5   11.23    2.19
  -3   9  -6    2.60    1.17
  -3   9  -6    4.62    1.65
  -3   9  -6    2.33    1.06
   3  -9   6    4.11    1.56
   3  -9   7    0.02    0.77
  -3   9  -7   -0.91    0.97
  -3   9  -7    0.04    0.49
  -3   9  -7    0.44    0.69
   3  -9   8    5.78    1.69
  -3   9  -8    4.81    1.36
  -3   9  -8    6.00    1.69
  -3   9  -9    0.35    0.99
  -3   9  -9    3.10    1.41
   3  -9   9    2.59    1.26
   3  -9   9    1.49    1.04
  -3   9 -10    1.01    0.79
  -3   9 -10    4.27    1.71
   3  -9  10    3.12    1.40
   3  -9  10    0.72    0.59
  -3   9 -11    0.86    1.04
  -3   9 -11   -0.02    0.58
   3  -9  11   -0.26    0.64
   3  -9  11   -1.03    0.90
   3  -9  12    3.89    1.37
  -3   9 -12    1.97    0.99
  -3   9 -12    2.61    1.41
   3  -9  12    1.96    1.40
  -3   9 -13    1.74    0.86
  -3   9 -13    2.13    0.70
   3  -9  13    2.14    1.09
   3  -9  14   55.18    5.63
  -3   8  14    1.14    1.86
  -3   8  14    0.20    0.69
  -3   8  13    2.29    1.30
  -3   8  13    2.35    1.11
   3  -8 -13    0.90    3.49
  -3   8  12    0.11    1.15
  -3   8  12    0.71    0.60
  -3   8  12   -0.27    0.78
  -3   8  11   32.08    3.98
  -3   8  11   28.06    4.21
  -3   8  11   30.97    3.43
   3  -8 -11   29.34    7.84
  -3   8  10    1.76    1.50
  -3   8  10    0.99    0.52
   3  -8 -10    4.80    3.08
  -3   8  10    1.93    1.10
  -3   8   9    0.62    1.14
  -3   8   9   -0.33    0.71
  -3   8   9   -0.61    1.02
   3  -8  -9   -0.74    0.80
  -3   8   8    0.33    0.90
  -3   8   8    1.43    0.99
   3  -8  -8    1.78    2.95
  -3   8   8    0.44    0.63
   3  -8  -8    0.20    0.44
  -3   8   7    1.83    1.73
  -3   8   7   -0.07    0.51
  -3   8   7   -0.34    0.90
   3  -8  -7    0.41    0.67
  -3   8   6   10.07    1.79
   3  -8  -6   21.20    6.41
  -3   8   6   10.44    2.04
  -3   8   6   13.76    2.62
   3  -8  -6   13.76    2.24
  -3   8   5    3.69    0.86
  -3   8   5    1.77    0.62
   3  -8  -5    5.19    3.53
  -3   8   5    5.21    1.41
   3  -8  -5    4.11    1.26
   3  -8  -4    5.74    3.12
  -3   8   4    2.16    0.98
  -3   8   4    1.90    0.58
  -3   8   4    3.21    1.04
   3  -8  -4    3.32    1.01
  -3   8   3    0.77    0.38
  -3   8   3    0.54    0.69
   3  -8  -3   -0.41    0.71
  -3   8   2    8.44    1.47
  -3   8   2    6.33    1.66
   3  -8  -2    8.99    1.85
  -3   8   1    8.36    1.44
   3  -8  -1   10.45    1.87
  -3   8   1    9.45    1.92
  -3   8   0   53.87    4.55
  -3   8   0   53.21    3.80
   3  -8   0   51.70    4.35
  -3   8  -1   13.99    2.27
  -3   8  -1   12.77    1.73
   3  -8   1   17.58    2.42
  -3   8  -1   14.73    2.01
  -3   8  -2   44.73    3.95
  -3   8  -2   42.08    3.30
  -3   8  -2   44.39    3.60
   3  -8   2   51.67    4.36
  -3   8  -3    9.37    1.86
  -3   8  -3    7.48    1.49
  -3   8  -3    9.87    1.73
   3  -8   3   11.70    1.97
  -3   8  -4    0.10    0.61
   3  -8   4    0.53    0.84
  -3   8  -4    0.27    0.38
  -3   8  -4   -0.26    0.66
  -3   8  -4   -0.04    0.43
  -3   8  -5   39.92    3.57
  -3   8  -5   40.78    3.56
  -3   8  -5   39.36    4.14
   3  -8   5   46.90    4.20
  -3   8  -6    2.16    0.71
  -3   8  -6   -0.88    0.94
  -3   8  -6    1.90    1.03
   3  -8   6    2.55    1.03
  -3   8  -7   32.57    3.98
  -3   8  -7   27.02    3.01
   3  -8   7   34.64    3.69
  -3   8  -7   28.96    3.09
  -3   8  -8    0.59    0.55
   3  -8   8    0.83    0.78
  -3   8  -8    0.88    1.00
  -3   8  -8    0.00    0.50
   3  -8   8    0.78    0.67
  -3   8  -9    1.87    0.73
  -3   8  -9    1.84    1.18
   3  -8   9    2.39    0.85
  -3   8  -9    1.70    0.76
   3  -8   9    2.07    0.97
  -3   8 -10   -2.34    1.48
  -3   8 -10   -0.41    0.69
   3  -8  10   -0.49    0.68
   3  -8  10   -0.12    0.56
  -3   8 -11    1.92    0.92
  -3   8 -11    1.21    1.03
   3  -8  11    0.85    0.70
   3  -8  11    0.30    0.50
  -3   8 -12    6.24    2.17
  -3   8 -12    6.99    1.68
   3  -8  12    9.52    2.21
   3  -8  12    5.92    1.57
  -3   8 -13    0.13    0.79
  -3   8 -13    0.19    0.52
   3  -8  13    1.36    1.20
   3  -8  13    0.69    0.90
  -3   8 -14   17.36    3.75
  -3   8 -14   11.91    2.16
   3  -8  14   16.54    3.04
  -3   8 -15   -0.67    0.59
  -3   7  16    1.18    1.51
  -3   7  16   -0.12    0.83
  -3   7  15   -0.57    1.45
   3  -7 -15    2.82    3.13
  -3   7  15    1.22    1.25
   3  -7 -14    3.38    2.94
  -3   7  14    4.01    1.49
  -3   7  13   21.88    2.78
  -3   7  13   26.93    3.76
   3  -7 -13   22.98    6.32
  -3   7  12   12.06    1.99
  -3   7  12   12.14    2.52
   3  -7 -12   12.15    4.68
  -3   7  11    2.22    1.25
  -3   7  11    1.51    0.76
   3  -7 -11    2.25    3.33
  -3   7  11   -0.38    0.91
   3  -7 -10    1.19    0.83
  -3   7  10    2.20    1.36
  -3   7  10    1.19    0.60
   3  -7 -10    1.21    2.09
  -3   7  10    0.77    0.61
   3  -7  -9    0.99    0.63
  -3   7   9    0.37    0.93
   3  -7  -9    2.25    2.59
  -3   7   9    1.14    0.55
  -3   7   9    1.30    0.79
   3  -7  -8    7.08    1.61
  -3   7   8    2.24    1.10
  -3   7   8    3.86    1.03
   3  -7  -8    4.93    2.06
  -3   7   8    5.76    1.76
   3  -7  -7   12.80    2.07
  -3   7   7   10.36    2.05
  -3   7   7   11.73    1.77
   3  -7  -7   14.12    4.74
  -3   7   7   14.65    2.36
   3  -7  -6    1.15    0.80
   3  -7  -6    0.12    1.93
  -3   7   6    1.02    0.91
  -3   7   6   -0.64    1.12
  -3   7   6    0.40    0.38
  -3   7   6    0.51    0.49
   3  -7  -5   86.66   10.31
  -3   7   5   68.98    5.27
  -3   7   5   66.38    4.32
   3  -7  -5   75.01    5.08
  -3   7   5   67.86    5.00
  -3   7   5   68.28    3.80
  -3   7   4   39.74    3.72
  -3   7   4   28.81    2.45
  -3   7   4   36.34    3.68
   3  -7  -4   44.31    7.24
   3  -7  -4   40.22    3.61
  -3   7   3    2.83    1.15
   3  -7  -3    5.28    3.04
  -3   7   3    1.03    0.83
  -3   7   3    1.41    0.51
   3  -7  -3    0.98    0.53
   3  -7  -2    2.91    0.97
  -3   7   2    2.23    0.99
  -3   7   2    1.57    0.56
  -3   7   2    1.44    0.52
   3  -7  -2    1.90    2.25
  -3   7   1   37.40    3.58
  -3   7   1   34.80    2.43
  -3   7   1   39.40    3.00
   3  -7  -1   45.62    6.26
   3  -7  -1   40.81    3.59
  -3   7   0  239.97    9.06
  -3   7   0  222.46    8.17
  -3   7   0  230.48   10.09
   3  -7   0  263.30   10.35
  -3   7  -1    1.25    0.83
  -3   7  -1    0.68    0.45
  -3   7  -1    0.75    0.50
   3  -7   1    0.12    0.67
  -3   7  -2   84.78    5.43
  -3   7  -2   90.45    5.00
  -3   7  -2   86.23    4.70
   3  -7   2  104.28    5.83
  -3   7  -3  233.27    9.69
  -3   7  -3  219.63    8.92
  -3   7  -3  217.37    9.02
   3  -7   3  263.20   10.32
  -3   7  -4   12.25    1.89
  -3   7  -4   13.04    2.12
  -3   7  -4   11.65    1.79
   3  -7   4   13.40    2.06
  -3   7  -5   23.25    2.57
  -3   7  -5   24.77    2.95
  -3   7  -5   22.02    2.57
   3  -7   5   25.66    2.92
  -3   7  -6    2.77    0.99
  -3   7  -6    0.80    0.49
  -3   7  -6    2.18    0.84
   3  -7   6    2.73    1.04
  -3   7  -7    5.47    1.57
  -3   7  -7    6.01    1.32
  -3   7  -7    3.54    1.04
   3  -7   7    5.66    1.48
  -3   7  -8    5.04    1.19
  -3   7  -8    5.06    1.37
  -3   7  -8    4.49    1.05
   3  -7   8    5.91    1.39
   3  -7   8    7.32    1.64
   3  -7   9    3.80    1.27
  -3   7  -9    0.33    0.97
  -3   7  -9    2.94    1.09
  -3   7  -9    3.15    0.97
   3  -7   9    3.24    1.20
  -3   7 -10   53.15    4.10
   3  -7  10   62.00    4.75
  -3   7 -10   58.24    5.62
  -3   7 -10   44.19    3.93
   3  -7  10   57.91    4.88
   3  -7  11   -0.34    0.68
   3  -7  11    0.15    0.58
  -3   7 -11   -0.43    0.67
   3  -7  12   -0.56    0.79
  -3   7 -12    0.22    1.28
  -3   7 -12   -0.28    0.73
   3  -7  12    1.65    0.97
  -3   7 -13    2.29    1.29
  -3   7 -13    0.65    0.53
   3  -7  13    1.52    0.81
   3  -7  13    2.46    0.95
  -3   7 -14    4.91    1.83
  -3   7 -14    3.04    1.00
   3  -7  14    3.82    1.50
  -3   7 -15    1.12    0.65
  -3   7 -15    0.43    0.86
   3  -7  15    1.35    0.98
  -3   7 -16    1.14    0.71
  -3   6  17   -0.59    0.93
  -3   6  16    0.43    0.73
   3  -6 -16    1.44    2.52
  -3   6  15    1.95    1.24
   3  -6 -15   -2.98    4.03
  -3   6  14   63.08    5.92
   3  -6 -14   74.73   12.37
  -3   6  13   54.82    5.31
  -3   6  13   52.93    4.18
   3  -6 -13   62.60   11.07
  -3   6  12   10.59    2.30
   3  -6 -12   16.51    5.86
  -3   6  12   12.28    1.88
  -3   6  11    4.66    1.55
   3  -6 -11    1.04    3.19
  -3   6  11    3.41    1.05
   3  -6 -11    2.84    1.03
  -3   6  10   13.07    2.27
  -3   6  10   12.40    1.71
   3  -6 -10    6.44    2.90
   3  -6 -10   11.40    1.94
  -3   6   9   12.54    2.26
  -3   6   9   14.83    1.84
  -3   6   9   14.96    2.28
   3  -6  -9   17.52    2.38
   3  -6  -9   24.10    5.86
  -3   6   8   20.30    2.90
  -3   6   8   20.15    2.19
   3  -6  -8   21.41    2.54
  -3   6   8   19.85    2.81
   3  -6  -8   21.44    5.51
  -3   6   7   28.69    3.30
   3  -6  -7   30.43    6.91
  -3   6   7   31.75    3.33
  -3   6   7   29.68    2.64
  -3   6   7   27.90    2.02
   3  -6  -7   32.51    3.19
   3  -6  -6   12.39    2.05
  -3   6   6   13.12    2.29
  -3   6   6   13.28    1.75
   3  -6  -6   17.71    4.79
  -3   6   6   11.85    1.37
  -3   6   6   11.98    2.09
  -3   6   5    2.53    0.97
  -3   6   5    2.35    0.97
  -3   6   5    1.62    0.85
  -3   6   5    1.72    0.52
   3  -6  -5    3.75    2.51
   3  -6  -5    1.95    0.63
  -3   6   4   26.63    2.88
  -3   6   4   25.19    2.09
   3  -6  -4   24.44    5.12
  -3   6   4   20.99    1.47
  -3   6   4   26.27    2.75
   3  -6  -4   27.63    2.88
  -3   6   3   21.65    2.06
  -3   6   3   28.24    3.24
   3  -6  -3   18.13    2.42
  -3   6   3   19.99    2.56
  -3   6   3   17.79    1.41
   3  -6  -3   20.96    5.04
  -3   6   2   31.44    2.94
  -3   6   2   32.92    2.48
  -3   6   2   26.31    1.73
   3  -6  -2   37.39    5.30
  -3   6   2   27.11    2.91
   3  -6  -2   36.34    3.17
  -3   6   1    8.40    1.60
  -3   6   1    7.33    0.97
   3  -6  -1   10.38    1.71
  -3   6   1    8.39    1.55
  -3   6   1    9.15    1.29
   3  -6  -1    9.31    2.71
   3  -6   0    6.85    1.42
  -3   6   0    5.70    0.94
   3  -6   0    7.40    2.35
  -3   6   0    4.86    1.02
  -3   6   0    5.81    1.28
   3  -6   1    2.30    0.88
  -3   6  -1    1.71    0.72
  -3   6  -1    1.28    0.43
  -3   6  -1    0.33    0.80
  -3   6  -2   65.99    4.40
  -3   6  -2   69.71    4.12
   3  -6   2   84.72    4.91
  -3   6  -3   88.74    5.35
  -3   6  -3   92.78    4.92
  -3   6  -3   95.32    5.32
   3  -6   3  101.50    5.52
  -3   6  -4    0.42    0.59
  -3   6  -4    0.20    0.46
  -3   6  -4    0.73    0.66
   3  -6   4    0.00    0.35
   3  -6   5    0.33    0.38
  -3   6  -5    0.64    0.53
  -3   6  -5    0.58    0.50
  -3   6  -5    0.53    0.43
  -3   6  -6    1.27    0.58
  -3   6  -6    1.15    0.60
  -3   6  -6    3.15    1.30
   3  -6   6    0.04    0.62
  -3   6  -7   10.30    1.64
  -3   6  -7    9.72    1.96
  -3   6  -7    9.66    1.50
   3  -6   7   12.73    1.90
   3  -6   7   10.97    1.80
   3  -6   8    0.84    0.41
  -3   6  -8    0.11    0.98
  -3   6  -8   -0.41    0.48
  -3   6  -8    0.08    0.38
   3  -6   8   -0.12    0.47
  -3   6  -9   10.23    2.33
  -3   6  -9    9.76    1.63
  -3   6  -9   11.57    1.81
   3  -6   9    8.42    1.67
   3  -6   9   10.55    1.71
  -3   6 -10   12.82    1.90
  -3   6 -10   12.97    1.98
  -3   6 -10   14.89    2.70
   3  -6  10   16.84    2.24
   3  -6  10   15.64    2.40
  -3   6 -11    8.94    1.62
  -3   6 -11    7.54    2.15
  -3   6 -11    6.51    1.45
   3  -6  11   10.65    2.05
   3  -6  11   11.59    1.89
  -3   6 -12   37.44    4.75
  -3   6 -12   37.06    3.51
   3  -6  12   44.91    4.40
   3  -6  12   47.37    4.06
  -3   6 -13    1.04    1.29
  -3   6 -13    1.77    1.02
   3  -6  13    1.72    0.85
  -3   6 -14   -0.44    0.56
  -3   6 -14    1.27    1.22
   3  -6  14    2.30    1.23
   3  -6  15    1.91    1.44
  -3   6 -15    0.16    1.35
  -3   6 -15    0.28    0.48
   3  -6  16   14.38    2.95
  -3   6 -16   11.94    3.00
  -3   5  18    0.34    0.67
  -3   5  17   -0.40    0.90
  -3   5  17   -0.63    0.67
   3  -5 -17   -3.66    4.29
  -3   5  16    0.07    0.77
   3  -5 -16    1.47    3.03
  -3   5  16   -0.39    0.58
  -3   5  15    4.71    1.49
  -3   5  15    6.21    1.72
   3  -5 -15    4.00    3.87
  -3   5  14   77.26    5.73
  -3   5  14   72.69    6.23
   3  -5 -14   72.93   12.29
  -3   5  13   13.20    2.16
  -3   5  13   12.55    2.47
  -3   5  13   12.83    1.93
   3  -5 -13   13.73    5.19
   3  -5 -12    3.93    1.19
  -3   5  12    3.44    1.42
  -3   5  12    2.47    0.76
  -3   5  12    2.45    1.11
   3  -5 -12   10.46    4.77
   3  -5 -11    9.03    1.75
  -3   5  11    7.87    1.68
  -3   5  11    8.79    1.49
  -3   5  11    8.60    1.57
   3  -5 -11    6.76    3.05
  -3   5  10    0.27    0.51
  -3   5  10    1.06    0.64
   3  -5 -10    3.79    3.87
   3  -5 -10    0.92    0.40
   3  -5  -9   17.06    2.38
  -3   5   9   17.03    2.45
  -3   5   9   16.46    1.83
   3  -5  -9   18.69    5.70
  -3   5   8   33.77    2.59
  -3   5   8   31.35    3.20
   3  -5  -8   32.26    3.19
  -3   5   8   28.43    3.11
   3  -5  -8   27.65    6.80
  -3   5   7  257.07   10.87
  -3   5   7  277.39    9.23
  -3   5   7  291.42   11.10
   3  -5  -7  283.88   10.91
  -3   5   7  249.32    8.28
   3  -5  -7  293.84   19.84
  -3   5   6   19.71    1.62
  -3   5   6   18.68    2.47
  -3   5   6   19.20    2.42
  -3   5   6   17.94    1.75
   3  -5  -6   17.34    2.16
  -3   5   6   16.24    1.29
   3  -5  -6   20.69    4.90
  -3   5   5    9.48    1.18
  -3   5   5   10.59    1.86
  -3   5   5    8.83    1.22
   3  -5  -5   11.48    1.81
  -3   5   5    8.83    1.38
   3  -5  -5   15.64    4.42
  -3   5   5    7.03    0.71
  -3   5   4   76.17    4.83
  -3   5   4   85.49    4.04
  -3   5   4   68.56    2.58
   3  -5  -4   85.32    4.99
  -3   5   4   88.46    3.97
  -3   5   4   84.97    4.75
   3  -5  -4   77.31    8.71
  -3   5   3   24.69    2.56
  -3   5   3   18.26    1.07
  -3   5   3   24.59    1.94
  -3   5   3   22.22    2.25
   3  -5  -3   21.97    2.41
   3  -5  -3   19.52    4.45
   3  -5  -2   20.77    4.21
  -3   5   2   26.15    2.45
  -3   5   2   19.38    1.24
  -3   5   2   26.08    2.66
   3  -5  -2   27.08    2.59
  -3   5   2   24.13    2.00
  -3   5   1   17.89    1.31
   3  -5  -1   19.16    2.16
  -3   5   1   19.18    1.82
   3  -5  -1   21.31    3.63
  -3   5   1   22.68    2.39
  -3   5   1   22.34    2.26
  -3   5   0   87.27    4.91
   3  -5   0   96.18    5.07
   3  -5   0   91.64    7.33
  -3   5   0   88.09    4.35
  -3   5  -1   13.40    1.77
   3  -5   1   15.36    2.71
  -3   5  -1   12.62    1.46
   3  -5   1   15.26    1.85
   3  -5   2    3.47    0.89
  -3   5  -2    3.17    1.04
  -3   5  -2    3.21    0.76
  -3   5  -2    1.98    0.66
  -3   5  -3   14.23    1.71
  -3   5  -3   16.08    1.96
  -3   5  -3   15.69    1.96
   3  -5   3   15.50    1.90
  -3   5  -4   97.52    5.03
  -3   5  -4   98.43    5.38
   3  -5   4  106.95    5.22
  -3   5  -4   98.76    4.82
  -3   5  -5   13.90    1.78
  -3   5  -5    9.68    1.47
  -3   5  -5   10.70    1.75
   3  -5   5   13.07    1.64
  -3   5  -5   11.74    1.09
  -3   5  -6   19.20    2.16
   3  -5   6   23.28    2.46
  -3   5  -6   22.60    2.68
  -3   5  -6   21.26    2.19
   3  -5   6   26.87    2.52
  -3   5  -6   26.58    1.82
  -3   5  -7   25.96    3.10
  -3   5  -7   22.30    2.33
  -3   5  -7   23.68    2.42
   3  -5   7   25.52    2.66
  -3   5  -7   24.56    1.96
   3  -5   7   27.60    2.58
  -3   5  -8   -0.02    0.41
  -3   5  -8   -0.74    1.03
  -3   5  -8   -0.09    0.41
   3  -5   8    0.11    0.52
   3  -5   8    0.55    0.69
  -3   5  -9    5.84    1.27
   3  -5   9    7.50    1.41
  -3   5  -9    4.84    1.42
  -3   5  -9    6.64    1.27
   3  -5   9    6.79    1.58
  -3   5 -10  108.74    5.90
  -3   5 -10  106.04    7.55
   3  -5  10  113.33    6.65
  -3   5 -10  108.24    5.82
   3  -5  10  122.48    6.04
  -3   5 -11   38.75    4.51
  -3   5 -11   35.94    3.21
   3  -5  11   38.46    3.79
   3  -5  11   41.12    3.37
   3  -5  12   32.97    3.64
  -3   5 -12   32.30    4.30
  -3   5 -12   32.78    3.09
   3  -5  12   39.32    3.37
  -3   5 -13    4.44    1.44
  -3   5 -13    6.34    1.36
   3  -5  13    6.12    1.75
  -3   5 -14    3.01    0.89
  -3   5 -14    4.18    1.82
   3  -5  14    5.10    1.64
   3  -5  15    1.09    1.09
  -3   5 -15   -0.90    1.01
   3  -5  15   -0.49    0.87
   3  -5  16    8.32    2.05
  -3   5 -16   10.11    2.64
  -3   4  18    2.58    1.35
  -3   4  18    4.44    1.32
  -3   4  17    8.08    2.09
  -3   4  17   10.52    2.35
   3  -4 -17    3.14    3.75
  -3   4  16    3.15    1.11
  -3   4  16    3.04    1.40
   3  -4 -16    3.22    3.58
  -3   4  15   -0.86    1.21
   3  -4 -15    1.13    0.69
  -3   4  15   -0.03    0.76
  -3   4  14    4.65    1.38
   3  -4 -14    4.16    1.02
  -3   4  14    4.74    1.47
   3  -4 -14    4.42    4.21
  -3   4  13   11.05    1.60
  -3   4  13   11.38    2.24
   3  -4 -13    8.21    1.34
  -3   4  13   10.27    1.86
   3  -4 -13    9.60    1.78
   3  -4 -13   10.31    4.69
   3  -4 -12    3.04    0.99
  -3   4  12    2.43    0.81
  -3   4  12    3.17    0.84
  -3   4  12    4.23    1.24
   3  -4 -12    3.65    0.83
   3  -4 -12    3.99    3.37
   3  -4 -11    1.01    0.71
  -3   4  11    2.84    0.81
  -3   4  11    2.16    0.92
   3  -4 -11    2.19    0.76
  -3   4  11    1.95    0.78
   3  -4 -11    2.87    3.66
   3  -4 -10    2.88    0.83
  -3   4  10    3.02    0.76
  -3   4  10    4.10    1.31
   3  -4 -10    3.94    0.81
  -3   4  10    4.42    0.82
  -3   4  10    3.73    1.00
   3  -4 -10    2.65    1.98
  -3   4   9  178.26    6.75
  -3   4   9  184.16    7.61
  -3   4   9  186.17    8.64
   3  -4  -9  179.12   15.97
   3  -4  -9  179.56    8.51
  -3   4   9  173.83    6.22
  -3   4   8   99.52    5.77
  -3   4   8   99.58    4.48
  -3   4   8  108.60    6.00
   3  -4  -8  100.81    5.99
  -3   4   8  112.44    5.31
   3  -4  -8  103.10   11.63
  -3   4   8  100.22    4.17
   3  -4  -7   15.01    2.16
  -3   4   7   11.94    1.91
  -3   4   7   14.11    1.46
  -3   4   7   11.39    1.71
  -3   4   7   12.51    1.26
   3  -4  -7   11.84    4.12
   3  -4  -6    4.65    1.02
  -3   4   6    5.43    1.34
  -3   4   6    6.37    1.37
  -3   4   6    5.45    0.90
  -3   4   6    5.11    0.78
   3  -4  -6    4.18    2.75
  -3   4   5    4.15    0.52
  -3   4   5    7.37    0.99
  -3   4   5    6.50    0.55
  -3   4   5    8.07    1.00
  -3   4   5    7.31    0.94
  -3   4   5    9.10    1.49
   3  -4  -5    7.44    1.41
  -3   4   5    7.83    1.46
   3  -4  -5    8.44    2.89
  -3   4   4   15.29    1.86
  -3   4   4   17.27    1.50
  -3   4   4   14.10    1.79
  -3   4   4   18.64    1.58
   3  -4  -4   15.91    2.04
   3  -4  -4   13.60    3.10
  -3   4   3   70.35    4.25
  -3   4   3   70.93    4.07
  -3   4   3   77.07    3.61
   3  -4  -3   73.25    7.58
   3  -4  -3   72.04    4.42
  -3   4   2  547.26   17.26
   3  -4  -2  600.05   17.84
  -3   4   2  619.76   16.42
   3  -4  -2  590.28   24.16
  -3   4   2  582.77   17.02
  -3   4   1    1.42    0.69
   3  -4  -1    1.00    0.24
   3  -4  -1    2.85    1.62
   3  -4  -1    0.97    0.48
  -3   4   1    1.22    0.54
  -3   4   1    1.48    0.33
  -3   4   0   74.57    3.86
   3  -4   0   72.80    4.18
   3  -4   0   72.93    6.12
  -3   4   0   77.61    3.74
  -3   4   0   70.21    4.09
   3  -4   1   28.16    3.25
  -3   4  -1   22.67    2.17
  -3   4  -1   23.60    2.04
  -3   4  -1   27.08    2.12
   3  -4   1   28.29    2.38
   3  -4   2   36.54    2.68
  -3   4  -2   30.13    2.52
  -3   4  -2   30.50    2.52
  -3   4  -2   33.55    2.43
   3  -4   2   37.18    2.96
  -3   4  -2   32.06    2.01
  -3   4  -3  150.39    6.55
  -3   4  -3  163.38    6.93
  -3   4  -3  161.68    6.38
   3  -4   3  165.11    6.64
  -3   4  -3  169.70    5.74
  -3   4  -4    0.60    0.35
  -3   4  -4    0.72    0.54
  -3   4  -4   -0.14    0.42
  -3   4  -4    0.58    0.49
   3  -4   4    0.67    0.51
  -3   4  -5  155.98    6.50
   3  -4   5  147.20    6.47
  -3   4  -5  149.02    7.23
  -3   4  -5  152.85    6.29
   3  -4   5  156.20    6.30
  -3   4  -5  145.68    5.96
  -3   4  -6   10.07    1.36
  -3   4  -6    9.48    1.51
  -3   4  -6    9.11    1.65
   3  -4   6   10.16    1.52
  -3   4  -6    9.62    1.34
   3  -4   6   10.25    1.37
   3  -4   7   13.54    1.55
  -3   4  -7   12.52    1.70
   3  -4   7   12.77    1.81
  -3   4  -7   11.92    2.12
  -3   4  -7   11.99    1.55
  -3   4  -7   12.24    1.73
  -3   4  -8    0.11    0.65
   3  -4   8   -0.33    0.27
  -3   4  -8    0.77    0.59
  -3   4  -8   -0.04    0.40
  -3   4  -8    0.38    0.80
   3  -4   8   -0.49    0.36
   3  -4   8    2.05    0.97
  -3   4  -9   20.15    2.24
  -3   4  -9   15.14    2.27
  -3   4  -9   14.13    2.48
   3  -4   9   17.06    2.15
   3  -4   9   18.51    2.37
  -3   4  -9   15.67    1.91
   3  -4   9   16.90    1.81
  -3   4 -10   55.70    5.07
  -3   4 -10   51.51    3.59
   3  -4  10   54.07    4.29
   3  -4  10   51.88    3.91
   3  -4  10   53.89    3.49
  -3   4 -10   47.80    4.54
   3  -4  11    2.80    1.17
  -3   4 -11    1.27    0.60
  -3   4 -11    3.04    1.58
  -3   4 -11    2.19    0.95
   3  -4  11    2.14    0.81
   3  -4  12   20.19    2.71
  -3   4 -12   15.80    2.82
  -3   4 -12   18.47    2.17
   3  -4  13    5.37    1.45
  -3   4 -13    5.57    2.05
  -3   4 -13    5.22    1.17
   3  -4  13    5.31    1.45
   3  -4  14   12.19    2.35
   3  -4  14    9.14    2.11
  -3   4 -14   10.61    2.59
  -3   4 -15    5.87    1.99
   3  -4  15   12.96    2.55
  -3   4 -16    1.10    1.41
   3  -4  16    1.29    1.04
   3  -4  17    0.56    0.76
  -3   4 -17    2.49    1.70
   3  -4  17    2.36    1.16
  -3   3  19   76.47    7.17
  -3   3  19   81.91    6.62
   3  -3 -19   89.49   14.27
  -3   3  18   40.09    5.04
  -3   3  18   40.65    4.44
   3  -3 -18   51.55   10.99
  -3   3  17   26.06    4.05
  -3   3  17   24.61    3.31
   3  -3 -17   23.44    7.14
  -3   3  16    7.72    1.80
   3  -3 -16    7.23    1.55
  -3   3  16    6.80    1.97
   3  -3 -16    9.65    3.57
  -3   3  15    9.73    2.29
   3  -3 -15    7.01    1.46
  -3   3  15    7.33    1.66
   3  -3 -15    5.36    4.30
   3  -3 -14    4.75    1.15
  -3   3  14    5.03    1.64
  -3   3  14    5.58    1.36
   3  -3 -14    4.08    3.55
   3  -3 -13    5.87    1.21
  -3   3  13    8.58    2.03
  -3   3  13    6.50    1.15
  -3   3  13    5.59    1.32
   3  -3 -13    7.11    3.20
  -3   3  12   80.94    4.25
  -3   3  12   89.92    6.23
   3  -3 -12   75.22    4.43
  -3   3  12   90.45    5.29
   3  -3 -12   95.03   12.18
  -3   3  12   80.39    4.31
   3  -3 -11   27.80    6.70
  -3   3  11   27.28    2.68
  -3   3  11   27.09    2.30
  -3   3  11   26.28    2.13
  -3   3  11   26.97    3.09
   3  -3 -11   27.74    2.34
  -3   3  10  373.00   11.13
  -3   3  10  363.25   13.72
   3  -3 -10  346.67   11.19
  -3   3  10  376.32   12.35
   3  -3 -10  351.54   23.39
  -3   3  10  364.06   11.29
  -3   3   9   78.64    4.31
  -3   3   9   75.01    3.53
  -3   3   9   76.71    5.08
   3  -3  -9   75.55    3.59
   3  -3  -9   80.63   10.37
  -3   3   9   70.82    3.62
  -3   3   8   20.58    1.98
  -3   3   8   19.49    2.12
  -3   3   8   20.50    1.54
  -3   3   8   20.07    2.32
   3  -3  -8   19.42    1.52
   3  -3  -8   17.75    4.78
  -3   3   8   18.72    1.63
   3  -3  -7   23.34    5.98
  -3   3   7   18.59    2.11
  -3   3   7   19.31    1.48
  -3   3   7   19.74    2.24
   3  -3  -7   20.41    1.42
  -3   3   7   20.14    1.82
  -3   3   7   18.63    1.62
  -3   3   6   13.49    2.04
  -3   3   6   11.95    1.19
  -3   3   6    9.47    1.71
   3  -3  -6   23.09    5.52
  -3   3   6   11.02    1.42
  -3   3   6   13.42    1.45
   3  -3  -5   17.90    4.00
  -3   3   5   22.28    2.22
  -3   3   5   23.01    1.75
  -3   3   5   25.58    1.56
  -3   3   5   26.47    2.35
  -3   3   5   19.66    1.06
   3  -3  -4   25.16    4.81
  -3   3   4   26.85    2.30
  -3   3   4   28.10    2.33
  -3   3   4   30.03    2.09
  -3   3   4   28.93    1.93
   3  -3  -3   13.19    3.56
  -3   3   3   11.22    1.40
  -3   3   3   10.34    1.40
  -3   3   3   11.17    1.20
  -3   3   3   11.05    1.30
  -3   3   2   84.78    4.32
  -3   3   2   91.73    4.24
  -3   3   2   91.57    4.48
   3  -3  -2   93.02    7.96
  -3   3   2  108.64    4.31
   3  -3  -2   88.88    4.86
   3  -3  -1    8.91    1.37
  -3   3   1    7.29    1.18
   3  -3  -1    7.39    0.56
  -3   3   1    7.48    0.81
  -3   3   1    8.68    1.09
   3  -3  -1    9.12    2.56
  -3   3   1    9.03    1.10
  -3   3   0   91.11    4.43
  -3   3   0   94.57    4.13
   3  -3   0   88.38    4.53
  -3   3   0   86.35    3.68
   3  -3   0   86.13    6.67
  -3   3   0   86.08    3.90
   3  -3   1    3.57    1.30
  -3   3  -1    4.28    0.69
  -3   3  -1    5.55    1.06
  -3   3  -1    4.18    0.82
  -3   3  -1    5.37    0.92
   3  -3   1    4.91    1.04
   3  -3   2    0.35    0.32
  -3   3  -2    1.32    0.39
  -3   3  -2    0.58    0.42
  -3   3  -2    1.23    0.53
  -3   3  -2    1.18    0.45
   3  -3   2    0.00    0.71
  -3   3  -3   98.19    4.75
  -3   3  -3  102.21    5.06
  -3   3  -3  109.19    4.65
   3  -3   3  110.77    4.77
  -3   3  -3  107.22    4.73
   3  -3   4    5.64    0.88
  -3   3  -4    3.30    0.85
  -3   3  -4    4.89    0.95
  -3   3  -4    4.15    0.97
  -3   3  -4    3.75    0.70
   3  -3   4    5.14    0.97
  -3   3  -5  186.35    7.86
   3  -3   5  206.53    7.05
  -3   3  -5  189.05    8.30
  -3   3  -5  201.55    7.22
   3  -3   5  194.99    7.49
  -3   3  -5  186.20    7.44
  -3   3  -6   39.15    3.76
  -3   3  -6   35.00    2.92
  -3   3  -6   29.01    3.13
  -3   3  -6   31.73    2.53
   3  -3   6   32.21    2.85
   3  -3   6   23.77    2.04
  -3   3  -7   13.09    2.12
   3  -3   7   15.16    2.04
  -3   3  -7   14.43    1.74
  -3   3  -7   12.98    1.54
  -3   3  -7   13.11    2.10
   3  -3   7   15.38    1.78
   3  -3   7   14.19    1.49
  -3   3  -8   46.57    3.37
  -3   3  -8   41.49    4.01
  -3   3  -8   41.48    2.93
   3  -3   8   42.94    3.37
   3  -3   8   46.76    3.64
   3  -3   8   41.51    2.64
  -3   3  -8   39.51    3.89
   3  -3   9    2.49    1.01
  -3   3  -9    3.16    1.45
  -3   3  -9    1.97    1.00
   3  -3   9    3.48    1.22
  -3   3  -9    2.25    0.67
   3  -3   9    2.28    0.69
  -3   3 -10    1.29    1.23
  -3   3 -10   -0.56    0.85
   3  -3  10   -0.22    0.46
  -3   3 -10    0.30    0.32
   3  -3  10    0.19    0.26
   3  -3  10    0.36    0.71
   3  -3  11   76.80    5.24
  -3   3 -11   73.43    4.26
  -3   3 -11   69.62    6.56
  -3   3 -11   70.46    5.85
   3  -3  12  269.97   11.31
  -3   3 -12  234.93   12.08
   3  -3  12  244.88   11.14
  -3   3 -12  225.16   13.04
  -3   3 -12  238.32    9.07
  -3   3 -13    3.57    1.83
   3  -3  13    0.50    0.63
  -3   3 -13    0.33    0.82
   3  -3  13    1.18    0.85
   3  -3  14    0.00    0.88
  -3   3 -14    3.25    1.84
  -3   3 -14    0.62    0.65
   3  -3  15    1.90    1.19
  -3   3 -15    0.50    1.13
   3  -3  15    0.99    0.98
   3  -3  16    8.21    2.22
   3  -3  16    7.78    2.40
  -3   3 -16    7.68    2.52
   3  -3  17    2.21    1.81
  -3   3 -17    2.62    1.63
   3  -3  17    0.41    0.55
   3  -2 -20    0.20    1.89
  -3   2  19   49.11    5.70
  -3   2  19   58.75    5.39
   3  -2 -19   52.26   10.62
  -3   2  18    0.17    0.76
  -3   2  18    0.43    0.87
   3  -2 -18   -0.56    2.25
   3  -2 -17   24.54    3.07
  -3   2  17   27.83    3.39
  -3   2  17   22.02    3.60
   3  -2 -17   24.95    6.83
  -3   2  16    0.95    0.94
   3  -2 -16    1.01    0.70
  -3   2  16    0.54    0.50
   3  -2 -16    2.89    3.68
  -3   2  15    5.69    1.66
   3  -2 -15    3.84    2.66
   3  -2 -15    5.91    1.40
  -3   2  15    7.41    1.67
  -3   2  15    6.30    1.41
  -3   2  14    0.93    0.47
   3  -2 -14    0.80    0.86
  -3   2  14    1.09    0.95
   3  -2 -14    5.17    3.91
  -3   2  14    1.66    0.99
  -3   2  13    2.64    1.03
   3  -2 -13    4.26    1.12
  -3   2  13    4.51    1.17
   3  -2 -13    3.21    2.97
  -3   2  13    2.25    0.92
  -3   2  12  128.45    5.35
  -3   2  12  135.73    7.85
   3  -2 -12  120.61    6.06
  -3   2  12  133.09    6.41
   3  -2 -12  130.38   14.43
  -3   2  12  116.71    5.78
   3  -2 -11   11.38    4.21
  -3   2  11    9.07    1.17
   3  -2 -11    9.37    1.49
  -3   2  11    8.20    1.44
  -3   2  11    7.43    1.68
  -3   2  11   10.06    1.52
   3  -2 -10   25.48    5.94
  -3   2  10   31.72    2.10
  -3   2  10   28.99    3.20
   3  -2 -10   30.17    2.43
  -3   2  10   31.49    2.56
  -3   2  10   34.08    2.59
   3  -2  -9   20.85    5.22
  -3   2   9   16.60    1.96
  -3   2   9   13.61    1.21
   3  -2  -9   15.65    1.62
  -3   2   9   15.91    1.73
  -3   2   9   14.74    1.57
  -3   2   9   18.07    2.33
  -3   2   8   24.25    2.27
   3  -2  -8   23.93    5.17
  -3   2   8   23.22    1.50
  -3   2   8   26.74    2.08
  -3   2   8   24.65    2.68
   3  -2  -8   23.57    1.79
  -3   2   8   27.29    2.11
  -3   2   7   34.10    2.23
   3  -2  -7   39.70    6.76
  -3   2   7   29.88    2.44
  -3   2   7   30.02    1.60
  -3   2   7   33.46    2.92
   3  -2  -7   28.56    1.88
  -3   2   7   30.32    2.14
  -3   2   6   34.55    2.53
   3  -2  -6   25.91    5.31
  -3   2   6   35.56    1.62
  -3   2   6   34.44    2.85
   3  -2  -6   31.09    1.67
  -3   2   6   34.25    2.13
  -3   2   6   35.84    2.29
  -3   2   5  214.14    7.41
  -3   2   5  197.91    5.55
  -3   2   5  201.44    6.78
  -3   2   5  206.74    7.69
   3  -2  -5  194.65    5.40
  -3   2   5  201.35    6.36
   3  -2  -5  197.87   13.86
  -3   2   4   65.66    3.49
   3  -2  -4   71.58    2.51
  -3   2   4   66.12    3.56
  -3   2   4   61.88    2.30
  -3   2   4   61.89    2.20
   3  -2  -4   60.55    7.29
  -3   2   4   70.43    3.37
  -3   2   3    2.70    0.68
  -3   2   3    3.92    0.80
   3  -2  -3   -0.11    2.14
   3  -2  -3    3.15    0.39
  -3   2   3    2.45    0.63
  -3   2   2  201.64    7.17
  -3   2   2  205.51    6.84
   3  -2  -2  201.19    5.58
   3  -2  -2  209.94   12.26
  -3   2   2  214.14    6.82
  -3   2   2  214.82    7.50
  -3   2   1  187.38    6.26
  -3   2   1  182.78    5.37
  -3   2   1  194.90    7.39
  -3   2   1  199.78    6.88
  -3   2   1  207.28    6.61
   3  -2  -1  189.80   11.08
  -3   2   1  210.52    6.81
  -3   2   0    6.78    1.01
  -3   2   0    8.26    1.05
   3  -2   0    3.43    1.45
  -3   2   0    5.78    0.93
  -3   2   0    6.41    0.75
  -3   2   0    5.82    0.74
  -3   2  -1  190.44    6.99
   3  -2   1  191.45    9.63
  -3   2  -1  199.69    6.14
  -3   2  -1  193.58    6.63
  -3   2  -1  224.72    7.02
   3  -2   1  193.46    7.13
  -3   2  -1  203.83    7.13
  -3   2  -2   34.39    2.38
   3  -2   2   34.16    2.09
  -3   2  -2   31.46    2.31
  -3   2  -2   36.29    2.30
   3  -2   2   33.89    2.33
  -3   2  -2   35.85    2.66
  -3   2  -3  395.76   12.28
  -3   2  -3  391.83   12.54
  -3   2  -3  442.97   12.03
   3  -2   3  392.95   11.73
   3  -2   3  398.43   11.75
  -3   2  -3  399.05   12.94
  -3   2  -4   21.83    1.77
  -3   2  -4   16.03    1.73
  -3   2  -4   16.79    2.03
  -3   2  -4   20.41    2.14
   3  -2   4   14.08    1.64
   3  -2   4   18.24    1.53
   3  -2   4   18.02    1.71
  -3   2  -5   10.17    1.37
   3  -2   5    8.63    1.42
  -3   2  -5    8.15    1.66
  -3   2  -5   10.23    1.68
  -3   2  -5   12.03    1.34
   3  -2   5   10.38    1.39
   3  -2   5   11.15    1.13
   3  -2   5    8.13    1.38
  -3   2  -6   54.82    3.48
  -3   2  -6   50.26    3.93
  -3   2  -6   53.72    3.09
   3  -2   6   57.23    3.51
   3  -2   6   53.67    3.88
   3  -2   6   50.95    2.62
  -3   2  -6   47.57    4.25
  -3   2  -7   80.50    3.97
  -3   2  -7   71.48    5.79
   3  -2   7   78.30    4.82
   3  -2   7   81.71    4.55
  -3   2  -7   76.63    5.13
   3  -2   7   75.92    3.34
  -3   2  -8    7.88    1.21
  -3   2  -8    7.18    2.06
  -3   2  -8    6.96    1.55
   3  -2   8    7.16    1.31
   3  -2   8    6.00    0.83
   3  -2   8    6.93    1.34
  -3   2  -9   32.64    4.25
  -3   2  -9   29.87    3.44
   3  -2   9   29.21    2.74
   3  -2   9   32.80    3.00
   3  -2   9   27.49    2.78
  -3   2  -9   27.94    2.29
   3  -2   9   28.74    1.90
   3  -2  10    4.18    1.42
  -3   2 -10    1.93    0.62
  -3   2 -10    5.95    2.16
  -3   2 -10    4.35    1.37
   3  -2  10    4.11    1.10
  -3   2 -11   21.14    3.78
   3  -2  11   23.54    2.67
  -3   2 -11   19.50    3.01
  -3   2 -11   24.50    2.18
   3  -2  11   24.94    2.94
   3  -2  12   35.86    4.05
  -3   2 -12   33.07    4.05
   3  -2  12   32.95    3.35
  -3   2 -12   33.50    5.11
   3  -2  12   35.68    3.69
  -3   2 -13   -0.97    1.17
   3  -2  13   -0.07    0.61
  -3   2 -13    0.49    0.68
   3  -2  13    0.14    0.57
  -3   2 -14   27.25    5.11
   3  -2  14   29.35    3.92
  -3   2 -14   27.96    4.00
   3  -2  14   33.43    3.86
   3  -2  15   12.58    2.68
  -3   2 -15   13.10    3.86
  -3   2 -15   17.44    3.27
   3  -2  15   15.19    2.70
  -3   2 -16    2.32    1.68
   3  -2  16    0.32    0.75
  -3   2 -16    1.54    0.83
   3  -2  16   -0.61    1.02
   3  -2  17   -1.97    1.59
   3  -2  17   -0.32    0.80
  -3   2 -17    0.19    0.72
   3  -1 -20    4.13    3.74
  -3   1  20    1.85    0.82
  -3   1  19   -1.01    1.15
  -3   1  19    0.19    1.18
  -3   1  18    0.82    0.94
  -3   1  18    3.48    1.38
  -3   1  18    1.08    1.45
   3  -1 -18    0.65    0.78
   3  -1 -18   -4.11    4.15
  -3   1  17    5.12    2.14
   3  -1 -17    2.14    1.04
  -3   1  17    3.26    1.20
  -3   1  17    1.59    0.90
   3  -1 -17    5.30    4.17
  -3   1  16   10.74    2.42
  -3   1  16   10.67    1.92
   3  -1 -16    8.80    1.75
  -3   1  16   10.50    1.85
   3  -1 -16   10.21    4.04
   3  -1 -15   -1.72    3.50
  -3   1  15    4.31    1.52
  -3   1  15    1.73    0.84
   3  -1 -15    1.63    0.88
  -3   1  15    2.26    0.90
   3  -1 -14    1.29    1.92
  -3   1  14   -0.67    0.91
   3  -1 -14    0.01    0.83
  -3   1  14   -0.21    0.66
  -3   1  14   -0.05    0.53
   3  -1 -13   -0.65    2.95
  -3   1  13    2.31    0.63
   3  -1 -13    3.37    1.22
  -3   1  13    2.30    0.76
  -3   1  13    2.32    0.82
   3  -1 -12   12.18    4.38
  -3   1  12   14.15    1.49
  -3   1  12   14.95    2.01
  -3   1  12   15.38    2.54
   3  -1 -12   15.15    2.09
  -3   1  12   14.45    1.80
   3  -1 -11    5.30    2.89
  -3   1  11    3.31    0.82
  -3   1  11    5.87    1.18
  -3   1  11    6.37    1.57
  -3   1  11    4.81    0.80
   3  -1 -11    4.82    1.09
  -3   1  11    3.94    1.04
   3  -1 -10   10.89    3.96
  -3   1  10    9.50    1.79
  -3   1  10    8.55    1.25
  -3   1  10    8.42    0.97
  -3   1  10    9.70    1.43
   3  -1 -10   10.06    1.49
  -3   1  10    8.96    1.35
   3  -1  -9    1.17    2.67
  -3   1   9    5.47    0.98
  -3   1   9    6.27    1.48
  -3   1   9    5.29    0.70
   3  -1  -9    4.78    0.93
  -3   1   9    5.33    0.89
  -3   1   9    4.70    0.93
  -3   1   8   -0.07    0.42
  -3   1   8   -0.09    0.19
  -3   1   8   -0.11    0.60
   3  -1  -8    0.49    0.31
  -3   1   8    0.08    0.30
  -3   1   8    0.22    0.22
  -3   1   7   16.72    1.59
  -3   1   7   14.39    0.85
   3  -1  -7   16.44    1.69
  -3   1   7   18.47    2.20
   3  -1  -7   14.22    1.41
  -3   1   7   14.85    1.54
   3  -1  -7   17.20    4.70
  -3   1   7   15.91    1.39
  -3   1   6  111.73    4.50
   3  -1  -6  111.96    4.66
  -3   1   6  118.66    5.63
   3  -1  -6  102.60    4.08
  -3   1   6  110.44    4.65
  -3   1   6  109.85    4.05
   3  -1  -6  105.10   10.25
  -3   1   5    0.62    0.25
   3  -1  -5    1.16    2.46
  -3   1   5    0.63    0.42
  -3   1   5    2.28    1.12
   3  -1  -5    0.61    0.40
   3  -1  -5    0.84    0.35
  -3   1   5    0.44    0.22
  -3   1   5   -0.12    0.42
  -3   1   4    0.27    0.33
  -3   1   4    0.91    0.28
   3  -1  -4    0.02    1.44
  -3   1   4    1.15    0.37
  -3   1   4    1.06    0.28
  -3   1   4    1.15    1.19
   3  -1  -4    0.63    0.30
   3  -1  -4    1.00    0.23
  -3   1   3    9.00    1.01
   3  -1  -3    6.44    2.30
   3  -1  -3    9.10    0.92
  -3   1   3    8.76    1.88
  -3   1   3    9.37    1.22
  -3   1   3    8.03    1.06
  -3   1   2  313.61   13.00
  -3   1   2  286.85    8.82
   3  -1  -2  312.27    8.64
  -3   1   2  306.59    9.10
   3  -1  -2  290.37    7.64
  -3   1   2  301.25    9.69
  -3   1   2  319.85    9.55
  -3   1   1   19.67    1.59
  -3   1   1   17.45    1.27
   3  -1  -1   18.50    1.48
   3  -1  -1   16.38    1.04
  -3   1   1   20.88    3.09
  -3   1   1   18.98    1.89
  -3   1   1   19.30    1.69
  -3   1   0   26.27    1.88
  -3   1   0   25.83    1.39
  -3   1   0   26.96    1.43
  -3   1   0   24.41    3.43
   3  -1   0   26.90    1.36
  -3   1   0   26.78    2.31
  -3   1   0   28.60    2.24
  -3   1  -1   74.59    2.55
   3  -1   1   75.30    2.74
  -3   1  -1   75.58    3.20
  -3   1  -1   74.22    6.24
  -3   1  -1   78.57    3.49
   3  -1   1   78.39    2.99
  -3   1  -1   77.70    4.15
  -3   1  -1   78.04    3.68
  -3   1  -2    4.53    1.01
   3  -1   2    4.67    0.48
  -3   1  -2    4.28    0.85
  -3   1  -2    3.55    1.92
  -3   1  -2    4.67    0.90
   3  -1   2    5.29    0.72
  -3   1  -2    3.94    0.73
  -3   1  -3   10.50    1.30
  -3   1  -3    9.84    1.74
   3  -1   3    9.68    0.69
  -3   1  -3    8.23    1.97
  -3   1  -3   10.10    1.33
  -3   1  -3   12.75    1.32
   3  -1   3    9.53    1.09
   3  -1   3    9.85    1.08
   3  -1   3   10.79    1.62
  -3   1  -4   35.04    2.55
  -3   1  -4   38.77    2.35
  -3   1  -4   31.53    3.30
  -3   1  -4   35.28    2.75
  -3   1  -4   35.06    4.63
   3  -1   4   32.23    2.25
   3  -1   4   33.37    1.93
   3  -1   4   34.30    2.96
  -3   1  -5    9.20    2.05
   3  -1   5   10.12    0.94
  -3   1  -5   14.91    3.27
  -3   1  -5   14.02    1.88
  -3   1  -5   11.93    1.30
   3  -1   5   11.48    1.37
   3  -1   5   11.31    1.73
   3  -1   6    2.05    0.39
   3  -1   6    2.10    0.48
   3  -1   6    1.31    0.44
  -3   1  -6    2.33    1.56
  -3   1  -6    2.40    1.19
   3  -1   6    1.87    0.52
  -3   1  -6    3.03    0.74
  -3   1  -6    2.70    0.70
  -3   1  -7    0.80    0.39
  -3   1  -7    0.70    1.31
  -3   1  -7    2.62    1.15
   3  -1   7    1.57    0.70
  -3   1  -7    0.11    0.66
   3  -1   7    2.00    0.93
   3  -1   7    0.80    0.41
   3  -1   7    0.86    0.24
  -3   1  -8   18.65    1.76
  -3   1  -8   14.16    2.86
   3  -1   8   16.70    2.33
   3  -1   8   17.33    1.83
  -3   1  -8   17.23    2.41
   3  -1   8   17.08    2.10
   3  -1   8   17.13    1.08
   3  -1   9   26.00    2.68
   3  -1   9   28.01    3.18
  -3   1  -9   25.75    3.10
   3  -1   9   23.13    2.33
  -3   1  -9   26.34    2.12
  -3   1  -9   25.66    4.16
  -3   1 -10    3.35    1.28
   3  -1  10    2.14    1.00
  -3   1 -10   -0.36    0.90
  -3   1 -10    1.91    0.65
   3  -1  10    1.59    0.51
   3  -1  10    1.41    0.74
   3  -1  11    1.39    0.62
  -3   1 -11    0.89    1.16
   3  -1  11    1.07    0.83
  -3   1 -11    0.80    0.65
  -3   1 -12   12.14    3.13
   3  -1  12   11.35    2.30
  -3   1 -12    9.75    2.14
   3  -1  12    8.11    1.69
  -3   1 -13    1.28    1.64
   3  -1  13    7.59    2.03
  -3   1 -13    3.14    1.40
   3  -1  13    4.14    1.35
   3  -1  14    6.42    1.81
  -3   1 -14    6.08    2.27
   3  -1  14    4.18    1.74
  -3   1 -14    6.11    1.75
  -3   1 -15   -0.22    2.25
   3  -1  15    1.91    1.43
  -3   1 -15   -0.13    0.79
   3  -1  15    1.19    1.26
  -3   1 -16    1.37    1.52
  -3   1 -16    0.33    0.73
   3  -1  16    0.73    0.97
   3  -1  16   -0.24    0.65
   3  -1  17    4.07    1.74
  -3   1 -17    1.25    0.69
   3  -1  17    3.33    1.80
  -3   1 -17   -2.10    2.12
  -3   1 -18    1.18    1.53
  -3   0  20    1.60    0.97
  -3   0  20    0.31    0.59
  -3   0  19   25.92    4.33
   3   0 -19   15.51    5.99
  -3   0  19   21.58    3.15
  -3   0  19   24.19    3.27
  -3   0  18    6.92    2.10
   3   0 -18    7.72    2.01
   3   0 -18    9.48    4.59
  -3   0  18    5.55    1.44
  -3   0  18   10.71    2.19
  -3   0  17    1.78    1.51
   3   0 -17    1.25    1.06
  -3   0  17    0.45    1.02
   3   0 -17    1.63    2.42
   3   0 -16    1.73    3.41
  -3   0  16    1.42    0.73
   3   0 -16   -1.60    1.22
  -3   0  16    0.13    0.60
   3   0 -15   -0.93    3.36
  -3   0  15    0.36    0.64
  -3   0  15    1.36    1.21
   3   0 -15    0.02    0.92
   3   0 -14    5.65    2.85
   3   0 -14    9.10    1.86
  -3   0  14    7.05    1.83
  -3   0  14    6.59    1.44
  -3   0  13   26.40    2.68
   3   0 -13   15.93    5.27
   3   0 -13   25.30    2.93
  -3   0  13   28.22    3.73
  -3   0  12   72.17    3.64
   3   0 -12   67.98    4.84
  -3   0  12   76.44    5.80
  -3   0  12   72.03    4.33
   3   0 -12   78.16   11.08
  -3   0  11   15.50    1.57
   3   0 -11   15.96    4.85
  -3   0  11   14.35    1.39
  -3   0  11   14.97    2.49
   3   0 -11   14.92    2.05
  -3   0  11   13.26    1.75
  -3   0  11   14.51    1.79
  -3   0  10   30.69    2.40
  -3   0  10   29.73    2.12
  -3   0  10   29.59    1.90
   3   0 -10   27.95    2.78
  -3   0  10   35.59    3.50
   3   0 -10   23.56    5.67
  -3   0  10   31.67    2.66
  -3   0   9    7.39    1.00
  -3   0   9    6.32    1.05
   3   0  -9    5.60    3.01
  -3   0   9    6.03    0.78
   3   0  -9    7.13    1.60
   3   0  -9    7.00    1.46
  -3   0   9    6.62    1.34
  -3   0   9    6.75    1.69
   3   0  -8   36.91    6.68
  -3   0   8   43.55    1.97
   3   0  -8   45.30    3.28
  -3   0   8   48.46    2.38
  -3   0   8   46.03    3.34
  -3   0   8   46.44    2.64
   3   0  -8   44.99    3.09
  -3   0   8   47.10    3.88
  -3   0   8   44.67    3.10
   3   0  -7   19.77    4.72
  -3   0   7   19.72    1.51
  -3   0   7   18.22    0.97
   3   0  -7   21.24    2.05
  -3   0   7   23.94    2.64
   3   0  -7   18.58    1.83
  -3   0   7   22.32    2.51
  -3   0   7   22.82    1.46
  -3   0   7   20.52    1.91
   3   0  -6  130.92    5.41
  -3   0   6  128.82    7.25
   3   0  -6  123.33    4.97
  -3   0   6  133.49    6.22
   3   0  -6  119.01   11.09
  -3   0   6  124.79    4.31
  -3   0   6  126.76    4.36
  -3   0   6  127.01    5.36
  -3   0   5  125.05    4.15
   3   0  -5  118.34    4.91
  -3   0   5  115.64    7.26
  -3   0   5  113.14    3.75
   3   0  -5  118.41    4.49
  -3   0   5  122.97    5.60
   3   0  -5  118.47   10.58
  -3   0   5  123.67    5.06
  -3   0   4   41.96    2.57
  -3   0   4   38.31    2.00
   3   0  -4   40.01    2.44
  -3   0   4   41.86    4.36
  -3   0   4   37.14    2.67
  -3   0   4   35.65    1.40
   3   0  -4   37.42    1.52
  -3   0   3   70.24    2.91
   3   0  -3   65.10    2.07
   3   0  -3   65.73    3.25
  -3   0   3   63.02    5.58
  -3   0   3   64.63    3.38
  -3   0   3   63.91    3.42
  -3   0   3   71.16    3.59
   3   0  -2   12.26    0.86
   3   0  -2   12.24    1.23
  -3   0   2    9.45    1.08
  -3   0   2   14.62    1.58
  -3   0   2   13.34    2.86
  -3   0   2   12.79    1.19
  -3   0   2   11.43    1.38
  -3   0   1  398.25   11.24
  -3   0   1  391.60   12.28
   3   0  -1  413.08   10.76
  -3   0   1  387.37   16.77
   3   0  -1  417.27   11.92
  -3   0   1  373.54   10.62
   3   0  -1  391.94   12.68
  -3   0   1  383.92   12.14
   3   0   0   26.75    1.20
   3   0   0   24.47    2.36
  -3   0   0   27.02    1.88
   3   0   0   28.66    1.84
  -3   0   0   23.52    1.21
  -3   0   0   26.54    3.99
  -3   0   0   22.14    1.10
  -3   0   0   26.34    2.36
  -3   0   0   24.02    2.23
   3   0   1   57.27    3.07
   3   0   1   53.45    2.31
  -3   0  -1   54.26    3.68
  -3   0  -1   50.70    5.44
   3   0   1   57.20    3.73
  -3   0  -1   57.01    2.59
  -3   0  -1   60.18    3.11
  -3   0  -1   55.99    3.85
  -3   0  -2   11.63    1.88
   3   0   2   10.93    1.32
  -3   0  -2   11.32    1.17
  -3   0  -2   14.46    3.13
   3   0   2   11.22    1.06
   3   0   2    9.88    1.42
   3   0   3  150.07    5.43
  -3   0  -3  140.16    9.97
  -3   0  -3  151.65    5.86
   3   0   3  150.98    6.38
  -3   0  -3  141.62    7.54
   3   0   3  158.39    7.06
  -3   0  -4   26.99    3.28
   3   0   4   27.30    2.47
  -3   0  -4   29.23    2.35
   3   0   4   26.74    2.05
  -3   0  -4   30.55    4.51
   3   0   4   24.09    1.51
   3   0   4   28.09    2.73
   3   0   5   38.91    2.66
   3   0   5   35.98    3.04
   3   0   5   32.26    1.45
  -3   0  -5   39.72    5.22
  -3   0  -5   34.24    2.73
  -3   0  -5   37.67    4.09
   3   0   5   34.15    1.52
   3   0   5   34.89    3.13
  -3   0  -6   55.29    5.54
   3   0   6   63.10    4.32
  -3   0  -6   57.99    6.53
   3   0   6   59.54    2.55
  -3   0  -6   63.68    4.09
   3   0   6   63.33    3.78
   3   0   7  115.05    6.37
  -3   0  -7  114.35    9.40
   3   0   7  118.06    4.46
   3   0   7  112.83    5.65
  -3   0  -7  120.63    6.21
  -3   0  -7  108.82    8.43
   3   0   8   11.86    1.97
  -3   0  -8    6.64    1.97
  -3   0  -8    8.21    1.58
   3   0   8   10.40    1.74
   3   0   8    8.88    1.16
  -3   0  -8    6.06    2.19
  -3   0  -9    6.93    3.05
   3   0   9    8.64    2.00
  -3   0  -9    3.71    1.81
  -3   0  -9   12.54    2.42
   3   0   9    6.04    1.56
   3   0   9    3.82    0.94
  -3   0 -10    3.85    1.76
   3   0  10    2.30    0.86
  -3   0 -10    2.83    1.70
   3   0  10    2.16    1.06
  -3   0 -10    1.62    0.98
  -3   0 -11   -2.05    1.32
   3   0  11    0.87    0.79
   3   0  11    0.22    0.76
  -3   0 -11    2.44    2.40
  -3   0 -11    0.05    0.83
  -3   0 -12    8.58    2.63
   3   0  12   15.66    2.60
  -3   0 -12   18.55    2.97
   3   0  12   17.59    2.63
  -3   0 -13   -1.08    1.98
   3   0  13   -0.45    0.60
  -3   0 -13   -0.32    0.85
   3   0  13    0.72    0.60
   3   0  14   26.02    3.48
  -3   0 -14   22.43    5.10
   3   0  14   27.93    3.85
  -3   0 -14   25.30    3.64
  -3   0 -15    1.42    1.62
   3   0  15    5.54    2.01
  -3   0 -15    4.63    1.71
   3   0  15    5.80    1.66
   3   0  16   -0.81    0.93
  -3   0 -16   -0.02    1.03
   3   0  16   -0.38    0.62
   3   0  17    0.04    0.73
  -3   0 -17   -0.10    1.11
  -3   0 -17    0.86    2.37
   3   0  17    0.13    0.76
  -3  -1  20   36.63    4.22
  -3  -1  20   32.77    4.18
  -3  -1  19   30.41    4.64
   3   1 -19   27.14    3.94
   3   1 -19   27.45    7.15
  -3  -1  19   28.38    3.71
  -3  -1  19   26.12    3.45
   3   1 -18   12.79    5.08
  -3  -1  18   13.56    2.99
  -3  -1  18    9.92    2.28
  -3  -1  18   11.65    2.21
   3   1 -18    9.36    2.18
   3   1 -17   37.65    8.49
   3   1 -17   33.50    4.19
  -3  -1  17   31.54    4.43
  -3  -1  17   31.34    3.49
   3   1 -16   14.74    5.20
  -3  -1  16   24.66    3.88
   3   1 -16   20.60    3.04
  -3  -1  16   22.20    2.78
   3   1 -15   -2.56    3.04
  -3  -1  15    3.26    1.50
   3   1 -15    0.22    1.02
  -3  -1  15    1.58    0.52
   3   1 -14   33.85    7.01
  -3  -1  14   41.14    3.53
   3   1 -14   36.48    4.01
  -3  -1  14   41.98    4.69
  -3  -1  13    7.88    2.29
   3   1 -13    5.90    1.46
   3   1 -13    3.99    3.11
  -3  -1  13    7.52    1.37
   3   1 -12    2.70    2.99
  -3  -1  12    1.01    0.81
  -3  -1  12    0.86    0.45
   3   1 -12    0.15    0.52
  -3  -1  11   40.48    3.00
   3   1 -11   37.00    7.72
   3   1 -11   38.22    3.56
  -3  -1  11   41.54    4.19
  -3  -1  11   51.78    3.75
  -3  -1  10  425.71   12.94
   3   1 -10  445.19   14.88
  -3  -1  10  397.62   14.58
   3   1 -10  403.97   11.47
   3   1 -10  428.24   14.63
  -3  -1  10  448.28   16.05
   3   1 -10  365.22   23.92
  -3  -1  10  470.18   14.14
   3   1  -9   63.04    8.86
   3   1  -9   65.53    4.40
  -3  -1   9   71.49    5.42
   3   1  -9   67.22    4.33
  -3  -1   9   62.00    4.78
   3   1  -9   71.33    3.22
  -3  -1   9   72.71    4.27
  -3  -1   9   67.48    3.50
   3   1  -8    0.34    2.74
  -3  -1   8    4.01    1.14
   3   1  -8    5.62    1.19
  -3  -1   8    5.10    1.71
   3   1  -8    4.17    0.94
   3   1  -8    4.69    0.76
  -3  -1   8    5.03    0.81
  -3  -1   8    5.77    1.17
  -3  -1   7   15.22    1.29
   3   1  -7   12.31    1.68
  -3  -1   7   10.95    1.78
   3   1  -7   13.85    1.67
  -3  -1   7   16.27    2.94
   3   1  -7   16.90    1.59
  -3  -1   7   12.75    1.58
   3   1  -6   58.69    3.63
  -3  -1   6   59.19    3.52
  -3  -1   6   71.75    6.47
   3   1  -6   57.80    3.38
  -3  -1   6   56.48    2.50
  -3  -1   6   55.65    3.95
   3   1  -6   58.11    3.27
   3   1  -5   54.17    3.31
  -3  -1   5   61.06    6.17
   3   1  -5   55.99    3.21
  -3  -1   5   50.08    3.47
  -3  -1   5   50.51    2.10
  -3  -1   5   54.57    3.20
   3   1  -4   20.00    1.92
   3   1  -4   19.95    1.88
  -3  -1   4   14.92    1.64
  -3  -1   4   21.26    1.93
  -3  -1   4   15.60    0.87
  -3  -1   4   21.14    3.44
  -3  -1   4   19.40    1.80
  -3  -1   3   79.49    2.37
   3   1  -3   94.70    4.60
   3   1  -3   92.40    3.09
   3   1  -3   94.45    4.42
  -3  -1   3  107.02    8.65
  -3  -1   3   88.82    4.22
  -3  -1   3   85.77    4.13
  -3  -1   3   90.24    4.31
  -3  -1   2   36.46    2.57
   3   1  -2   32.97    1.74
   3   1  -2   32.44    2.50
  -3  -1   2   29.51    2.09
   3   1  -2   31.85    2.60
  -3  -1   2   35.38    5.11
  -3  -1   2   33.36    2.57
  -3  -1   1    6.48    0.83
  -3  -1   1    5.83    0.46
  -3  -1   1    6.45    1.16
   3   1  -1    7.10    0.86
   3   1  -1    8.16    1.33
   3   1  -1    6.87    1.29
  -3  -1   1    4.88    1.72
  -3  -1   1    7.64    1.21
   3   1   0   92.81    4.90
   3   1   0   94.27    3.91
  -3  -1   0   87.63    8.13
   3   1   0   90.01    4.72
  -3  -1   0   79.56    3.11
  -3  -1   0   91.31    4.70
   3   1   0   90.98    2.99
  -3  -1   0   91.59    5.03
  -3  -1  -1   -0.44    0.90
   3   1   1    0.42    0.44
  -3  -1  -1    0.29    0.10
   3   1   1    0.41    0.29
  -3  -1  -1    0.15    0.10
  -3  -1  -1    1.66    1.77
   3   1   1    0.66    0.64
  -3  -1  -1    0.45    0.60
   3   1   2  117.55    5.17
  -3  -1  -2  117.13    9.70
  -3  -1  -2  128.21    4.73
   3   1   2  114.75    4.29
   3   1   2  107.53    5.79
  -3  -1  -2  100.36    5.60
  -3  -1  -2  111.83    6.48
  -3  -1  -3   33.62    5.14
  -3  -1  -3   32.22    3.56
   3   1   3   36.30    2.72
  -3  -1  -3   38.19    2.51
   3   1   3   34.99    2.24
  -3  -1  -4   13.22    2.48
   3   1   4   15.02    1.86
  -3  -1  -4   15.19    1.58
  -3  -1  -4   14.84    3.62
   3   1   4   16.89    1.63
   3   1   5   56.79    3.84
  -3  -1  -5   58.32    3.50
  -3  -1  -5   47.73    6.06
   3   1   5   53.67    3.22
   3   1   5   43.11    1.49
   3   1   5   41.72    1.53
  -3  -1  -5   47.32    5.03
  -3  -1  -6    5.28    1.84
   3   1   6    5.26    0.58
   3   1   6    5.27    1.36
  -3  -1  -6    6.35    1.28
  -3  -1  -6    0.69    1.29
   3   1   6    4.84    1.05
   3   1   7    1.50    0.37
  -3  -1  -7    2.27    1.46
   3   1   7    0.34    0.51
   3   1   7    0.40    0.38
  -3  -1  -7    0.86    0.54
  -3  -1  -7   -0.02    1.42
  -3  -1  -8   -1.10    1.89
   3   1   8    1.97    0.97
  -3  -1  -8    3.63    1.09
  -3  -1  -8   -0.87    1.60
   3   1   8    2.37    0.88
  -3  -1  -9    1.28    1.20
   3   1   9    0.88    0.89
  -3  -1  -9    0.21    0.48
  -3  -1  -9   -0.27    2.17
   3   1   9    0.51    0.64
  -3  -1 -10   22.72    4.54
   3   1  10   25.99    3.25
  -3  -1 -10   26.17    3.09
  -3  -1 -10   27.02    4.73
   3   1  10   26.63    2.94
  -3  -1 -11   -1.76    1.55
   3   1  11   -0.46    0.52
  -3  -1 -11    0.07    1.06
  -3  -1 -11    0.79    0.85
   3   1  11   -0.11    0.63
   3   1  12  169.55    8.91
   3   1  12  174.35    9.64
  -3  -1 -12  164.40    9.09
  -3  -1 -12  146.97   12.80
   3   1  13   91.42    6.96
  -3  -1 -13   91.04    6.67
   3   1  13   84.26    6.26
  -3  -1 -13   74.19    9.41
  -3  -1 -14   25.60    5.92
   3   1  14   30.17    3.97
  -3  -1 -14   28.11    3.80
   3   1  14   25.66    3.46
  -3  -1 -15    4.41    2.78
   3   1  15    2.58    1.20
   3   1  15    1.86    1.00
  -3  -1 -15    2.34    1.20
  -3  -1 -16   -1.13    2.20
   3   1  16    0.23    0.72
  -3  -1 -16    0.08    0.75
   3   1  16    0.53    0.90
  -3  -1 -17   11.97    4.45
  -3  -2  19    1.78    1.28
   3   2 -19    0.92    0.88
  -3  -2  19    1.35    0.84
  -3  -2  19    2.33    1.38
   3   2 -18    3.89    4.76
  -3  -2  18    5.11    1.49
   3   2 -18    4.42    1.45
  -3  -2  18    3.78    1.36
  -3  -2  18    4.72    1.90
   3   2 -17   -2.82    3.61
  -3  -2  17    3.02    1.08
   3   2 -17    2.28    1.05
  -3  -2  17    3.96    1.73
   3   2 -16   -3.31    3.50
   3   2 -16   -0.11    0.86
  -3  -2  16   -0.72    1.18
  -3  -2  16    0.08    0.45
   3   2 -15    5.22    3.72
  -3  -2  15    4.37    1.80
  -3  -2  15    2.66    0.99
   3   2 -15    2.58    1.39
   3   2 -14   -1.50    2.26
  -3  -2  14    0.03    1.21
   3   2 -14   -0.35    0.84
  -3  -2  14    0.24    0.61
  -3  -2  13    6.07    1.95
   3   2 -13    2.44    3.75
   3   2 -13    4.17    1.41
  -3  -2  13    4.22    1.03
  -3  -2  12   57.04    3.81
   3   2 -12   58.57    9.74
   3   2 -12   55.19    4.77
   3   2 -12   56.58    4.76
  -3  -2  12   54.52    5.20
   3   2 -11   59.08    9.79
   3   2 -11   55.11    4.62
   3   2 -11   56.63    4.54
  -3  -2  11   56.09    5.08
  -3  -2  11   64.61    4.44
  -3  -2  11   55.54    3.58
  -3  -2  10   83.50    4.26
   3   2 -10   71.73    9.63
   3   2 -10   83.18    5.51
  -3  -2  10  102.62    8.06
   3   2 -10   79.83    5.26
  -3  -2  10   77.76    5.80
  -3  -2  10   88.58    5.10
  -3  -2   9    1.20    0.54
   3   2  -9    1.68    3.12
  -3  -2   9    2.82    1.35
   3   2  -9    1.91    0.94
   3   2  -9    0.90    0.84
  -3  -2   9    2.08    0.83
  -3  -2   9    2.41    1.59
  -3  -2   8   38.39    2.41
   3   2  -8   36.59    3.23
  -3  -2   8   48.50    5.40
   3   2  -8   38.38    3.23
  -3  -2   8   38.36    3.68
  -3  -2   8   39.75    3.10
   3   2  -7   22.31    2.44
   3   2  -7   18.90    2.08
  -3  -2   7   19.62    1.58
  -3  -2   7   20.90    2.06
  -3  -2   7   26.59    4.51
   3   2  -6   58.12    3.88
  -3  -2   6   76.20    7.32
  -3  -2   6   54.97    3.53
  -3  -2   6   51.13    2.55
   3   2  -5    0.27    0.15
   3   2  -5    0.11    0.43
  -3  -2   5   -0.38    0.49
  -3  -2   5    0.06    0.15
  -3  -2   5    0.33    1.09
   3   2  -4   82.81    3.31
   3   2  -4   81.92    4.53
  -3  -2   4   72.68    2.90
  -3  -2   4  101.74    8.88
  -3  -2   4   86.37    4.32
  -3  -2   4   82.45    4.15
   3   2  -3  229.66    7.18
   3   2  -3  238.86    8.82
  -3  -2   3  263.40   15.22
  -3  -2   3  230.18    8.32
  -3  -2   3  228.83    8.41
   3   2  -2   98.06    4.01
   3   2  -2   99.45    5.13
  -3  -2   2  124.97   10.06
  -3  -2   2  101.68    4.85
  -3  -2   2  101.52    5.13
   3   2  -1  212.39    6.87
  -3  -2   1  229.33   14.59
  -3  -2   1  189.66    7.62
   3   2  -1  199.18    8.15
  -3  -2   1  191.19    8.14
  -3  -2   0    7.26    1.37
  -3  -2   0    6.65    2.28
   3   2   0    7.60    1.05
  -3  -2   0    7.18    1.21
   3   2   0    9.13    1.51
  -3  -2  -1   16.64    2.37
   3   2   1   17.92    1.78
   3   2   1   17.02    2.15
  -3  -2  -1   17.01    2.03
  -3  -2  -1   25.59    4.99
   3   2   2   22.69    2.14
   3   2   2   22.26    2.57
  -3  -2  -2   19.09    2.81
  -3  -2  -2   15.57    2.04
  -3  -2  -2   26.59    4.90
   3   2   2   21.45    1.68
   3   2   3   50.00    2.88
  -3  -2  -3   46.25    6.58
   3   2   3   46.87    3.31
  -3  -2  -3   48.21    4.80
   3   2   4  147.42    6.80
  -3  -2  -4  150.82   12.26
   3   2   4  152.59    6.08
  -3  -2  -4  138.17    9.03
  -3  -2  -5   34.86    4.58
   3   2   5   39.34    3.35
  -3  -2  -5   43.63    3.08
   3   2   5   42.95    3.00
  -3  -2  -5   41.07    6.13
  -3  -2  -6   13.81    2.93
   3   2   6   13.44    1.96
  -3  -2  -6   16.09    1.98
   3   2   6   15.05    1.89
  -3  -2  -6   18.43    4.20
  -3  -2  -7    0.56    1.29
  -3  -2  -7    1.17    1.53
   3   2   7    3.58    1.20
  -3  -2  -7    1.67    0.57
   3   2   7    2.56    0.86
   3   2   8    2.83    1.04
  -3  -2  -8    3.04    0.88
  -3  -2  -8    2.67    2.18
  -3  -2  -8    3.34    2.65
   3   2   8    4.39    1.18
  -3  -2  -9    0.59    1.39
   3   2   9   -0.18    0.58
  -3  -2  -9    0.67    0.43
  -3  -2  -9    1.23    1.36
   3   2   9    0.18    0.50
   3   2  10  106.50    7.00
  -3  -2 -10  105.37   10.58
  -3  -2 -10  111.89    6.62
   3   2  10  104.95    6.37
  -3  -2 -10   88.71    9.41
   3   2  11    2.63    1.12
  -3  -2 -11    2.74    1.45
   3   2  11    3.54    1.40
  -3  -2 -11    3.22    1.33
  -3  -2 -11    6.56    2.86
  -3  -2 -12   14.61    3.67
   3   2  12   25.69    3.56
  -3  -2 -12   27.26    3.37
   3   2  12   23.19    3.18
  -3  -2 -13   -4.44    2.23
   3   2  13    1.99    1.23
  -3  -2 -13    1.59    0.94
   3   2  13    0.67    0.75
  -3  -2 -14    0.12    1.51
   3   2  14    2.58    1.32
  -3  -2 -14    2.91    1.36
   3   2  14    1.10    0.93
  -3  -2 -15    2.69    2.49
   3   2  15    1.95    1.34
  -3  -2 -15    1.20    1.09
   3   2  15    0.60    0.60
  -3  -2 -16    1.07    2.02
   3   2  16    0.44    0.86
   3   2  16   -0.56    1.13
  -3  -3  19   -1.16    1.11
   3   3 -19   -0.48    0.77
  -3  -3  18   -0.05    1.63
   3   3 -18    5.09    2.04
  -3  -3  18    1.97    1.25
   3   3 -17    1.52    2.71
  -3  -3  17    0.01    0.72
  -3  -3  17    1.59    1.19
   3   3 -17    0.14    0.82
  -3  -3  17   -0.60    0.52
   3   3 -16    9.84    5.01
  -3  -3  16    5.00    1.33
  -3  -3  16    2.56    1.40
   3   3 -16    3.45    1.14
  -3  -3  16    6.26    1.85
  -3  -3  15    2.33    1.62
  -3  -3  15    3.37    1.04
   3   3 -15    8.64    4.50
   3   3 -15    7.14    2.34
  -3  -3  15    5.13    1.69
  -3  -3  14    1.92    0.90
  -3  -3  14    2.74    1.25
   3   3 -14    0.65    2.27
   3   3 -14   -0.11    1.08
  -3  -3  14    0.60    0.75
   3   3 -13   -0.02    2.33
   3   3 -13   -0.01    0.64
   3   3 -13   -0.64    0.87
  -3  -3  13    0.28    0.40
  -3  -3  13    1.65    0.89
  -3  -3  12    1.37    1.04
   3   3 -12   -1.71    3.09
   3   3 -12    3.16    1.37
   3   3 -12    3.27    1.43
  -3  -3  12    1.19    0.56
  -3  -3  12    2.05    1.12
  -3  -3  11   17.80    3.00
   3   3 -11   12.61    5.40
   3   3 -11   14.43    2.25
  -3  -3  11   16.06    1.90
   3   3 -11   12.90    2.25
  -3  -3  11   14.21    2.04
  -3  -3  10   34.99    5.22
   3   3 -10   23.75    2.97
   3   3 -10   27.67    6.19
   3   3 -10   22.23    2.80
  -3  -3  10   22.24    2.13
  -3  -3  10   25.33    3.34
  -3  -3  10   28.17    2.77
   3   3  -9  324.64   12.79
  -3  -3   9  398.03   18.74
   3   3  -9  298.18   12.34
  -3  -3   9  357.01   12.22
  -3  -3   9  327.49   10.72
   3   3  -8   38.43    3.53
  -3  -3   8   45.52    5.83
   3   3  -8   33.72    3.31
  -3  -3   8   38.78    3.15
  -3  -3   8   35.31    2.46
   3   3  -7   18.54    2.36
  -3  -3   7   22.28    1.81
  -3  -3   7   27.30    2.56
  -3  -3   7   33.28    5.06
   3   3  -6   44.51    3.80
  -3  -3   6   41.90    5.85
  -3  -3   6   36.20    2.34
  -3  -3   6   42.17    3.30
   3   3  -5  132.91    6.66
  -3  -3   5  169.13   11.79
  -3  -3   5  137.12    6.19
  -3  -3   5  141.22    5.93
  -3  -3   4    0.42    0.40
   3   3  -4    0.61    0.26
   3   3  -4    0.18    0.53
  -3  -3   4    0.68    0.62
  -3  -3   4    0.11    1.61
   3   3  -3   40.64    2.62
   3   3  -3   45.96    3.69
  -3  -3   3   50.77    6.64
  -3  -3   3   47.57    3.31
  -3  -3   3   41.46    3.18
  -3  -3   2  114.14    5.87
   3   3  -2  123.00    5.07
   3   3  -2  124.78    6.26
  -3  -3   2  144.83   11.49
  -3  -3   2  119.72    5.64
   3   3  -1   72.71    3.77
   3   3  -1   77.44    4.85
  -3  -3   1   91.26    9.36
  -3  -3   1   73.30    4.22
  -3  -3   1   69.85    4.63
  -3  -3   0    7.23    1.76
   3   3   0    7.18    1.25
   3   3   0    9.25    1.80
  -3  -3   0    6.52    1.42
  -3  -3   0    7.14    3.14
  -3  -3  -1    2.53    1.33
   3   3   1    2.58    0.83
   3   3   1    2.60    0.83
  -3  -3  -1    2.66    0.96
  -3  -3  -1    0.80    2.32
   3   3   2  152.37    6.66
  -3  -3  -2  194.08   14.84
   3   3   2  153.97    7.84
  -3  -3  -2  140.27    6.98
  -3  -3  -2  141.54    8.53
   3   3   3   56.17    3.82
  -3  -3  -3   59.47    8.43
   3   3   3   59.28    3.41
  -3  -3  -3   53.08    5.28
   3   3   3   51.52    4.45
   3   3   4    3.87    1.02
  -3  -3  -4    2.06    1.31
   3   3   4    4.55    1.37
  -3  -3  -4    3.78    2.03
  -3  -3  -5   23.79    4.08
   3   3   5   23.08    2.71
   3   3   5   26.41    2.46
  -3  -3  -5   23.08    5.70
  -3  -3  -6   14.95    3.69
   3   3   6   12.60    2.19
  -3  -3  -6   12.27    4.33
   3   3   6   12.13    1.90
  -3  -3  -7   -1.46    1.90
   3   3   7    1.46    0.64
  -3  -3  -7    0.78    1.85
   3   3   7    0.79    0.46
  -3  -3  -8   -0.89    2.55
  -3  -3  -8    1.85    1.67
   3   3   8    0.75    0.84
  -3  -3  -8    0.37    0.71
   3   3   8   -0.35    0.56
   3   3   9  151.35    8.49
  -3  -3  -9  124.04   12.28
  -3  -3  -9  173.75    8.18
   3   3   9  158.53    8.03
  -3  -3  -9  122.45   11.21
  -3  -3 -10    6.14    2.85
   3   3  10    4.80    1.51
  -3  -3 -10    5.74    1.45
  -3  -3 -10    1.65    2.11
   3   3  10    4.97    1.27
  -3  -3 -11   16.30    4.76
   3   3  11   22.33    3.00
   3   3  11   23.73    3.40
  -3  -3 -11   24.30    3.04
  -3  -3 -11   17.85    4.59
   3   3  12    3.57    1.49
  -3  -3 -12    1.15    1.10
   3   3  12    0.17    0.53
  -3  -3 -12    2.12    1.75
   3   3  13    0.00    1.05
  -3  -3 -13    0.95    1.13
  -3  -3 -13   -1.32    1.92
   3   3  13    0.13    0.78
  -3  -3 -14   -0.87    1.58
   3   3  14    1.59    1.38
  -3  -3 -14    1.68    0.88
   3   3  14    1.90    1.04
   3   3  15    3.36    1.71
   3   3  15    3.65    1.72
  -3  -3 -15    2.80    1.34
  -3  -3 -15   -0.76    1.49
   3   4 -19   -0.26    0.98
  -3  -4  18   -0.13    0.96
  -3  -4  18   -0.40    0.74
   3   4 -18   -0.32    0.96
   3   4 -17    2.16    1.17
  -3  -4  17    4.73    1.85
  -3  -4  17    3.06    1.29
  -3  -4  16    2.02    1.21
   3   4 -16    3.95    3.02
   3   4 -16    3.12    1.57
  -3  -4  16    1.50    1.09
   3   4 -15   12.35    3.82
  -3  -4  15   15.53    3.24
   3   4 -15   24.40    3.67
  -3  -4  15   18.89    2.48
  -3  -4  15   21.87    3.30
  -3  -4  14   39.05    3.51
   3   4 -14   29.02    7.57
   3   4 -14   40.84    4.69
   3   4 -14   39.17    4.71
  -3  -4  14   43.87    5.32
  -3  -4  14   40.88    4.20
   3   4 -13   -2.94    4.55
   3   4 -13    1.61    1.45
   3   4 -13    0.96    0.91
  -3  -4  13    0.31    0.48
  -3  -4  13   -0.40    0.92
  -3  -4  13    0.03    0.86
   3   4 -12    2.13    2.25
  -3  -4  12    1.12    0.65
   3   4 -12    0.35    1.03
  -3  -4  12    1.04    0.93
   3   4 -12    1.39    0.95
  -3  -4  12    1.28    0.59
   3   4 -11    9.36    2.10
   3   4 -11    9.48    1.95
  -3  -4  11   19.18    3.93
  -3  -4  11   12.37    2.13
  -3  -4  11    9.83    1.51
   3   4 -10   65.78    5.27
  -3  -4  10   73.95    7.95
   3   4 -10   58.05    4.92
  -3  -4  10   60.59    3.86
  -3  -4  10   62.11    4.58
   3   4  -9   37.95    3.85
  -3  -4   9   53.35    7.05
   3   4  -9   34.00    3.57
  -3  -4   9   38.47    2.90
  -3  -4   9   49.44    3.82
  -3  -4   8   41.39    6.06
  -3  -4   8   27.08    2.35
  -3  -4   8   31.52    2.99
   3   4  -8   31.48    3.45
  -3  -4   7   10.71    3.11
   3   4  -7    8.64    1.64
  -3  -4   7    9.70    1.53
  -3  -4   7    8.68    1.20
  -3  -4   6    0.08    1.65
  -3  -4   6   -0.73    0.83
   3   4  -6   -0.37    0.63
  -3  -4   5    8.32    1.43
  -3  -4   5    7.00    1.12
   3   4  -5    9.00    1.79
  -3  -4   5    9.10    3.25
  -3  -4   4    2.31    1.32
  -3  -4   4    3.22    0.84
  -3  -4   4    2.98    0.97
   3   4  -4    3.07    0.82
   3   4  -4    4.18    1.43
  -3  -4   3    9.54    1.60
  -3  -4   3   11.04    1.57
   3   4  -3   10.22    1.37
   3   4  -3   10.99    1.91
  -3  -4   3   12.77    3.68
  -3  -4   2    2.57    0.89
   3   4  -2    2.27    0.69
   3   4  -2    4.02    1.37
  -3  -4   2    4.56    1.19
  -3  -4   2    8.94    3.03
  -3  -4   1   59.80    4.04
   3   4  -1   68.95    3.95
  -3  -4   1   63.50    4.63
   3   4  -1   62.49    4.60
  -3  -4   1   74.56    8.84
  -3  -4   0    0.88    0.88
   3   4   0    0.63    0.75
   3   4   0    0.82    0.78
  -3  -4   0   -0.40    0.58
  -3  -4   0    0.69    1.54
  -3  -4  -1   11.10    2.30
   3   4   1   14.56    1.88
  -3  -4  -1    9.66    1.66
  -3  -4  -1   10.83    3.48
   3   4   1   13.17    2.16
   3   4   2    2.65    0.93
  -3  -4  -2    1.54    1.35
   3   4   2    4.77    1.49
  -3  -4  -2    3.86    1.21
  -3  -4  -2    3.92    2.99
   3   4   3    3.44    1.27
  -3  -4  -3   -0.10    1.35
   3   4   3    2.75    0.82
  -3  -4  -3    3.35    2.27
  -3  -4  -4    8.03    3.97
  -3  -4  -4    5.92    2.01
   3   4   4    4.83    1.25
   3   4   4    5.01    1.41
  -3  -4  -5    2.50    1.90
   3   4   5    1.60    0.84
   3   4   5    1.60    0.90
   3   4   5    1.36    1.07
  -3  -4  -5    0.13    1.98
   3   4   6    0.98    1.22
   3   4   6    2.62    1.15
  -3  -4  -6   -1.49    3.15
  -3  -4  -6    2.16    2.06
   3   4   6    0.06    0.59
   3   4   7   14.87    2.16
   3   4   7   12.12    2.20
  -3  -4  -7    9.81    3.19
  -3  -4  -7   10.45    4.14
  -3  -4  -8   14.71    4.22
   3   4   8   18.48    2.82
   3   4   8   20.89    2.64
  -3  -4  -8   16.63    5.28
   3   4   9   60.00    4.83
  -3  -4  -9   55.71    7.38
   3   4   9   59.20    5.13
  -3  -4  -9   46.30    8.21
   3   4  10   41.19    4.14
  -3  -4 -10   40.23    6.61
   3   4  10   41.26    4.44
  -3  -4 -10   36.66    7.15
  -3  -4 -11    4.47    2.78
   3   4  11    4.11    1.51
  -3  -4 -11    4.99    2.86
   3   4  11    4.35    1.53
  -3  -4 -12    3.18    2.27
   3   4  12    1.22    0.85
   3   4  12    1.53    0.64
  -3  -4 -13    2.08    1.99
   3   4  13    2.05    1.34
   3   4  13    1.11    0.70
  -3  -4 -14    0.31    1.54
   3   4  14    2.05    1.23
   3   4  14    2.72    1.48
   3   5 -18    2.39    0.98
  -3  -5  17    2.00    1.18
   3   5 -17    3.44    1.38
  -3  -5  17    1.82    1.11
   3   5 -16    0.65    1.01
  -3  -5  16    2.38    1.30
  -3  -5  16    0.80    0.99
  -3  -5  15    3.57    2.18
   3   5 -15    4.03    1.99
   3   5 -15    1.98    1.34
  -3  -5  15    2.23    1.27
   3   5 -14   -4.77    4.71
   3   5 -14    5.79    2.05
  -3  -5  14    2.58    1.11
   3   5 -14    7.09    2.36
  -3  -5  14    5.70    1.67
   3   5 -13    5.38    4.88
   3   5 -13    6.62    1.99
   3   5 -13    5.45    1.73
  -3  -5  13    7.37    1.86
   3   5 -12    1.59    3.23
   3   5 -12    0.32    0.64
   3   5 -12   -0.04    0.95
  -3  -5  12    1.37    0.91
  -3  -5  12    1.04    0.48
  -3  -5  11    3.33    1.41
   3   5 -11    3.26    1.47
   3   5 -11    2.00    1.17
  -3  -5  11    3.27    0.88
  -3  -5  11    2.66    0.96
  -3  -5  10    3.55    2.31
   3   5 -10    6.41    1.82
   3   5 -10    6.64    1.91
  -3  -5  10    3.18    0.92
  -3  -5  10    1.62    0.88
  -3  -5   9   -1.39    2.34
   3   5  -9    1.39    0.99
  -3  -5   9    0.59    0.47
   3   5  -9    0.41    0.86
  -3  -5   9    1.28    0.79
   3   5  -8   49.95    4.57
  -3  -5   8   64.39    8.45
  -3  -5   8   47.77    3.41
  -3  -5   8   57.50    4.35
  -3  -5   7    1.28    1.96
   3   5  -7   -0.02    0.67
  -3  -5   7   -0.10    0.63
  -3  -5   7    0.83    0.47
  -3  -5   6   29.01    5.92
   3   5  -6   21.98    2.92
  -3  -5   6   23.87    2.65
  -3  -5   5    6.34    1.18
  -3  -5   5    8.46    2.79
   3   5  -5    7.16    1.77
  -3  -5   5    7.45    1.49
  -3  -5   4    5.73    1.17
  -3  -5   4    5.88    1.31
   3   5  -4    5.87    1.50
  -3  -5   4    8.33    3.27
  -3  -5   3   29.72    5.30
   3   5  -3   23.74    2.30
   3   5  -3   26.16    3.14
  -3  -5   3   21.56    2.39
  -3  -5   3   21.97    2.41
   3   5  -2   26.03    2.48
   3   5  -2   24.44    3.00
  -3  -5   2   26.65    2.66
  -3  -5   2   25.65    2.84
  -3  -5   2   38.74    6.38
   3   5  -1  185.24    8.00
   3   5  -1  201.82    9.61
  -3  -5   1  227.29   16.68
  -3  -5   1  177.63    8.10
  -3  -5   1  192.64    9.04
   3   5   0   89.42    5.20
   3   5   0  101.31    6.49
  -3  -5   0  117.13   12.12
  -3  -5   0   92.63    5.47
  -3  -5   0   95.00    6.38
  -3  -5  -1    1.07    0.71
   3   5   1    2.14    0.81
   3   5   1    1.51    0.83
  -3  -5  -1    2.78    1.10
  -3  -5  -1    3.58    2.48
   3   5   2   73.42    4.91
   3   5   2   72.95    5.78
  -3  -5  -2   88.75   11.08
  -3  -5  -2   65.37    4.76
  -3  -5  -2   68.91    6.08
  -3  -5  -3   81.57    7.18
   3   5   3   97.60    5.85
   3   5   3   91.99    6.74
  -3  -5  -3   95.79   11.80
   3   5   4    2.17    0.99
  -3  -5  -4    5.93    2.41
   3   5   4    3.31    1.03
  -3  -5  -4    0.92    2.06
   3   5   5    8.17    1.80
   3   5   5    7.11    2.05
  -3  -5  -5    8.98    2.93
  -3  -5  -5    6.88    2.56
  -3  -5  -6   40.82    5.93
   3   5   6   48.27    4.37
   3   5   6   51.65    5.43
  -3  -5  -6   46.93    9.09
  -3  -5  -7   22.76    4.85
   3   5   7   25.97    3.29
  -3  -5  -7   22.17    5.95
   3   5   7   24.23    3.76
   3   5   8    1.81    1.33
  -3  -5  -8    5.61    2.68
   3   5   8    1.93    0.91
  -3  -5  -8    1.80    2.04
   3   5   9   -0.69    1.18
  -3  -5  -9   -1.51    2.10
   3   5   9    0.42    0.90
  -3  -5  -9    0.69    3.82
   3   5   9    2.26    1.08
   3   5  10    1.82    1.13
  -3  -5 -10    0.04    2.30
  -3  -5 -10    6.81    3.32
   3   5  10    2.11    1.21
  -3  -5 -11    3.77    3.48
   3   5  11    1.35    1.24
   3   5  11    1.29    1.28
  -3  -5 -12   -3.53    2.90
   3   5  12    1.09    1.33
   3   5  12    0.97    1.11
   3   5  13    0.38    0.83
   3   6 -17    1.52    0.99
  -3  -6  16    0.56    1.51
   3   6 -16    0.97    1.09
  -3  -6  16    1.44    1.08
   3   6 -15    2.42    1.93
   3   6 -15    2.95    1.56
  -3  -6  15    2.67    1.40
  -3  -6  15    1.61    1.32
   3   6 -14   -2.36    1.49
   3   6 -14   -0.86    1.14
  -3  -6  14   -0.63    0.63
   3   6 -13    0.36    2.94
   3   6 -13    2.50    1.67
   3   6 -13    1.88    1.01
  -3  -6  13    0.87    0.85
   3   6 -12   37.71    4.67
   3   6 -12   32.28    4.29
  -3  -6  12   33.62    3.96
  -3  -6  11   -2.51    2.82
   3   6 -11    0.52    0.82
   3   6 -11   -0.94    1.25
  -3  -6  11    1.65    0.94
  -3  -6  10    2.43    2.22
   3   6 -10    2.77    1.39
   3   6 -10    1.70    1.09
  -3  -6  10    3.58    1.35
  -3  -6   9    7.00    3.63
  -3  -6   9    3.35    1.36
   3   6  -9    1.01    0.95
  -3  -6   9    2.16    0.87
  -3  -6   8   10.10    3.97
   3   6  -8    5.19    1.49
  -3  -6   8    7.18    1.33
  -3  -6   8    7.27    1.79
  -3  -6   7   18.28    5.67
   3   6  -7    9.03    2.10
  -3  -6   7    8.57    1.80
  -3  -6   6   13.04    2.23
   3   6  -6   13.20    2.46
  -3  -6   6   10.05    3.46
  -3  -6   5   56.74    8.65
   3   6  -5   44.76    4.39
  -3  -6   5   48.88    3.94
  -3  -6   4    8.53    3.68
  -3  -6   4    6.73    1.32
   3   6  -4    7.16    1.87
  -3  -6   4    5.60    1.35
  -3  -6   3   64.48    5.06
   3   6  -3   61.03    4.27
   3   6  -3   64.25    5.32
  -3  -6   3   83.02   10.64
  -3  -6   3   58.49    4.34
  -3  -6   3   54.60    4.10
  -3  -6   2   11.08    1.94
  -3  -6   2   10.37    2.03
   3   6  -2   12.53    1.92
   3   6  -2   11.69    2.39
  -3  -6   2   11.09    1.86
  -3  -6   2   10.87    4.48
  -3  -6   1   39.10    3.83
   3   6  -1   34.57    3.26
   3   6  -1   36.11    4.01
  -3  -6   1   36.34    3.61
  -3  -6   1   31.61    3.16
  -3  -6   1   46.33    7.97
  -3  -6   0   34.55    3.88
   3   6   0   40.70    3.62
   3   6   0   43.19    4.37
  -3  -6   0   38.55    3.58
  -3  -6   0   51.00    8.65
  -3  -6  -1   77.76    6.30
   3   6   1   84.24    5.53
   3   6   1   89.32    6.53
  -3  -6  -1   94.29   11.97
  -3  -6  -1   70.35    5.04
   3   6   2   39.21    3.78
   3   6   2   37.93    4.41
  -3  -6  -2   47.77    8.70
  -3  -6  -2   30.84    4.25
  -3  -6  -3    1.27    1.46
   3   6   3    0.86    0.68
   3   6   3    0.50    0.86
  -3  -6  -3    1.54    2.01
  -3  -6  -4   29.90    4.71
   3   6   4   38.99    3.94
   3   6   4   37.04    4.51
  -3  -6  -4   50.70    9.72
   3   6   5    0.38    0.60
  -3  -6  -5    0.08    1.35
   3   6   5   -2.04    1.57
  -3  -6  -5    0.33    2.15
  -3  -6  -6    2.42    1.73
   3   6   6    6.67    1.74
   3   6   6    4.52    1.86
  -3  -6  -7   -0.88    1.68
   3   6   7    2.12    1.39
   3   6   7   -0.26    1.10
  -3  -6  -7    0.15    3.14
  -3  -6  -8    1.08    2.19
   3   6   8   -0.20    0.75
  -3  -6  -8    2.50    3.02
   3   6   8    0.61    1.40
  -3  -6  -9    4.10    2.99
   3   6   9    5.37    1.83
   3   6   9    2.69    1.52
  -3  -6  -9    4.58    3.58
  -3  -6 -10   -0.92    1.66
   3   6  10    1.27    1.06
  -3  -6 -10   -3.63    3.35
   3   6  10   -0.54    1.21
  -3  -6 -11    0.13    1.92
   3   6  11   -0.92    1.41
   3   6  11   -0.78    1.54
  -3  -7  15   -0.17    1.10
   3   7 -15    1.01    1.34
   3   7 -14   -0.67    1.11
   3   7 -14    2.09    0.91
  -3  -7  14    0.54    0.65
   3   7 -13   23.70    4.02
   3   7 -13   25.03    4.20
  -3  -7  13   19.17    3.27
   3   7 -12   53.38    5.89
  -3  -7  12   63.18    5.69
   3   7 -12   51.48    5.82
  -3  -7  11   10.65    3.81
  -3  -7  11    6.46    1.80
   3   7 -11    9.44    2.46
   3   7 -11    6.11    1.87
  -3  -7  10    4.68    2.74
   3   7 -10    1.71    1.10
   3   7 -10   -0.23    0.98
  -3  -7  10    2.81    0.97
  -3  -7   9    1.76    2.65
   3   7  -9    0.98    0.96
  -3  -7   9    0.17    0.88
  -3  -7   8    7.98    3.03
   3   7  -8    4.58    1.36
  -3  -7   8    6.61    1.68
  -3  -7   7    3.14    3.36
   3   7  -7    2.82    1.18
  -3  -7   7    4.18    1.07
  -3  -7   6    1.36    1.64
   3   7  -6    1.29    0.94
  -3  -7   6    0.74    0.85
  -3  -7   5   10.40    4.74
   3   7  -5    3.72    1.35
  -3  -7   5    3.89    1.26
  -3  -7   4   14.83    3.93
   3   7  -4   11.66    2.44
  -3  -7   4   12.08    2.07
  -3  -7   4   17.91    2.98
  -3  -7   3   48.01    8.75
  -3  -7   3   24.10    2.83
   3   7  -3   26.72    3.63
  -3  -7   3   29.18    3.56
   3   7  -2    2.04    0.78
  -3  -7   2    3.69    3.20
   3   7  -2    3.01    1.20
  -3  -7   2    3.37    1.34
   3   7  -1   15.00    2.25
   3   7  -1   14.60    2.77
  -3  -7   1   21.51    6.07
  -3  -7   1   15.50    2.50
   3   7   0    0.02    0.78
   3   7   0    0.60    0.66
  -3  -7   0    1.43    1.15
  -3  -7   0    1.78    2.59
  -3  -7  -1    0.75    0.61
   3   7   1   -1.14    0.85
   3   7   1   -0.97    1.11
  -3  -7  -1   -3.45    2.20
  -3  -7  -2    4.07    1.66
   3   7   2    4.84    1.58
   3   7   2    4.50    1.83
  -3  -7  -2    8.98    4.76
  -3  -7  -3    7.44    2.23
   3   7   3    8.68    1.99
   3   7   3    6.72    1.92
  -3  -7  -3    7.27    3.62
   3   7   4    5.86    1.75
  -3  -7  -4    4.61    1.81
   3   7   4    6.81    1.95
  -3  -7  -4    5.04    2.89
  -3  -7  -5   -0.57    1.35
   3   7   5    0.89    0.64
   3   7   5    1.36    1.03
  -3  -7  -6    9.27    2.93
  -3  -7  -6    7.37    4.55
   3   7   6    8.61    2.16
   3   7   6    6.07    2.14
  -3  -7  -7    1.70    1.39
   3   7   7   -0.53    0.63
   3   7   7   -3.10    1.86
  -3  -7  -7   -4.33    3.26
  -3  -7  -8    0.44    1.63
   3   7   8    2.81    1.45
  -3  -7  -8    5.96    4.26
   3   7   8    4.33    2.06
  -3  -7  -9   -0.73    1.94
  -3  -7  -9    3.47    1.17
   3   7   9    4.94    1.90
   3   7   9    4.00    2.00
  -3  -7 -10    3.75    1.42
   3   7  10    0.27    1.00
  -3  -8  13   74.17    6.62
   3   8 -13   65.62    7.06
  -3  -8  12   21.51    3.45
   3   8 -12   18.53    3.59
   3   8 -12   14.92    3.46
  -3  -8  11    7.77    3.31
   3   8 -11    7.65    2.27
   3   8 -11    4.59    1.76
  -3  -8  11    5.79    1.71
  -3  -8  10    0.66    3.07
  -3  -8  10    0.01    0.83
   3   8 -10    0.06    0.90
   3   8 -10    1.53    0.96
  -3  -8   9    1.92    3.45
   3   8  -9    1.21    1.46
  -3  -8   9    0.91    1.15
   3   8  -8    1.61    1.21
  -3  -8   8   -0.16    0.73
   3   8  -7    0.53    1.30
  -3  -8   7    1.63    1.13
  -3  -8   6   47.67    9.27
   3   8  -6   38.26    4.71
  -3  -8   6   31.28    3.60
  -3  -8   5   22.86    6.56
   3   8  -5   12.95    2.85
  -3  -8   4    0.84    2.61
   3   8  -4   -0.02    0.73
  -3  -8   3    9.63    3.98
   3   8  -3    3.98    1.56
   3   8  -2    1.43    0.92
   3   8  -2    1.90    1.35
  -3  -8   2    6.18    4.19
   3   8  -1   -0.20    0.89
   3   8  -1    0.41    0.88
  -3  -8   1    2.25    2.74
   3   8   0   24.54    3.33
   3   8   0   26.71    3.93
  -3  -8   0   32.05    8.75
   3   8   1   -0.33    0.73
  -3  -8  -1   -1.88    2.71
   3   8   1    0.12    0.61
   3   8   2    0.31    0.64
   3   8   2    0.48    0.82
   3   8   3    1.75    1.13
   3   8   3    2.97    1.67
   3   8   4    0.84    0.64
   3   8   4    2.56    1.70
  -3  -8  -4   -1.91    3.12
  -3  -8  -5   15.62    3.71
   3   8   5   19.78    3.13
   3   8   5   20.66    3.77
  -3  -8  -5   31.32    9.28
  -3  -8  -6    1.31    1.99
   3   8   6    1.94    1.07
   3   8   6   -1.10    1.41
  -3  -8  -6    1.02    3.32
  -3  -8  -7    0.67    1.78
   3   8   7    0.74    1.20
  -3  -8  -7    1.68    3.91
  -3  -8  -8    1.39    1.85
  -3  -8  -8    1.97    2.52
  -3  -9  11    1.24    1.28
  -3  -9  10    5.02    4.07
  -3  -9   9   26.50    7.39
   3   9  -9   20.20    3.75
  -3  -9   8    3.69    5.37
   3   9  -8    0.46    1.33
   3   9  -7   21.24    3.77
  -3  -9   7   28.45    7.76
  -3  -9   6   33.38    8.42
   3   9  -6   24.04    3.88
  -3  -9   5    7.93    4.59
   3   9  -5    2.60    1.71
  -3  -9   4    0.09    2.34
   3   9  -4    0.42    1.05
   3   9  -3    2.10    1.22
  -3  -9   3    9.63    5.66
   3   9  -2   41.56    5.25
  -3  -9   2   50.20   10.56
  -3  -9   1   18.62    7.77
   3   9  -1    7.86    2.36
   3   9   0    1.61    1.09
   3   9   0    1.18    1.02
   3   9   1    6.90    1.83
   3   9   1    9.01    2.59
  -3  -9  -1   17.39    6.98
   3   9   2    3.39    1.32
   3   9   2    3.28    1.44
  -3  -9  -2    0.35    3.15
   3   9   3    7.95    2.18
   3   9   3    5.82    1.96
  -3  -9  -3    6.46    3.64
   3   9   4    2.41    1.59
  -4  12   0    0.42    0.49
  -4  12   0    4.04    1.46
  -4  12  -1    5.50    1.96
  -4  12  -1    5.08    1.46
  -4  12  -2    1.26    0.94
  -4  12  -2    2.85    1.08
  -4  12  -3   -0.47    0.84
  -4  12  -3    2.32    1.46
  -4  12  -3   -1.75    1.37
  -4  12  -4    3.44    1.36
  -4  12  -5    2.69    1.55
   4 -11  -7    0.63    0.46
  -4  11   6    2.84    1.76
   4 -11  -6    0.61    0.58
  -4  11   5   25.55    3.94
   4 -11  -5   25.79    3.70
  -4  11   4    5.23    2.00
   4 -11  -4    5.90    1.88
  -4  11   3    2.59    1.73
   4 -11  -3    0.10    0.61
  -4  11   2    8.63    2.23
   4 -11  -2   10.46    2.52
  -4  11   1    0.87    0.80
  -4  11   1    0.04    0.56
   4 -11  -1    0.95    1.16
  -4  11   0    0.62    1.08
  -4  11   0    0.42    0.50
   4 -11   0    0.78    0.86
  -4  11  -1   -0.22    0.78
  -4  11  -1   -0.02    0.48
   4 -11   1    0.12    0.56
  -4  11  -2   17.14    2.92
  -4  11  -2   16.71    2.55
   4 -11   2   17.86    3.15
  -4  11  -3    5.53    1.68
  -4  11  -3    7.04    2.01
  -4  11  -3    6.91    1.71
   4 -11   3    9.79    2.31
  -4  11  -4    1.28    1.48
  -4  11  -4    0.19    0.70
  -4  11  -4    0.22    0.47
   4 -11   4    1.12    1.07
  -4  11  -5    1.70    0.94
  -4  11  -5    0.66    0.82
  -4  11  -5    1.61    0.97
   4 -11   5    0.51    0.81
  -4  11  -6    0.80    0.85
  -4  11  -6    3.61    1.84
   4 -11   6    0.92    1.05
  -4  11  -7    0.43    1.01
  -4  11  -7    3.88    1.46
   4 -11   7    1.76    0.88
  -4  11  -8    1.69    0.90
  -4  10  10   42.33    5.34
   4 -10 -10   42.98    9.30
   4 -10  -9    9.48    4.85
  -4  10   9    8.63    2.25
  -4  10   9   15.98    3.20
  -4  10   8    1.97    1.46
  -4  10   8    0.38    0.90
   4 -10  -8    3.48    2.67
   4 -10  -8    1.96    1.18
  -4  10   7   -0.84    0.66
   4 -10  -7   -0.21    0.46
  -4  10   6    0.26    1.00
   4 -10  -6    2.54    1.40
  -4  10   5    4.64    1.83
   4 -10  -5    5.84    1.78
  -4  10   4    9.98    2.46
   4 -10  -4   10.69    2.25
  -4  10   3    2.21    1.34
  -4  10   3    1.51    0.82
   4 -10  -3    2.38    1.23
  -4  10   2    0.26    0.81
  -4  10   2    1.70    0.70
   4 -10  -2    5.30    1.54
  -4  10   1    0.68    0.68
  -4  10   1    1.78    1.31
   4 -10  -1    1.71    1.00
   4 -10   0   -0.15    0.57
  -4  10   0   -0.15    0.65
  -4  10   0    0.01    0.43
  -4  10  -1    3.86    1.36
  -4  10  -1    4.93    1.32
   4 -10   1    4.83    1.44
  -4  10  -2    4.07    1.54
  -4  10  -2    2.61    1.04
   4 -10   2    2.01    0.90
   4 -10   3    6.37    1.80
  -4  10  -3    7.85    1.79
  -4  10  -3    8.55    1.86
  -4  10  -3    6.80    1.75
  -4  10  -4    2.80    1.32
  -4  10  -4    0.79    0.72
  -4  10  -4    2.31    1.34
   4 -10   4    3.19    1.59
  -4  10  -5    5.38    1.51
  -4  10  -5    5.48    1.78
  -4  10  -5    5.07    1.42
   4 -10   5    5.35    1.67
  -4  10  -6    0.19    0.76
  -4  10  -6    0.47    1.24
  -4  10  -6   -0.48    0.40
   4 -10   6   -0.26    0.62
  -4  10  -7    1.06    0.52
  -4  10  -7    0.97    1.03
  -4  10  -7    2.41    0.92
   4 -10   7    2.35    1.23
  -4  10  -8    0.19    1.06
  -4  10  -8    1.42    0.82
   4 -10   8    0.43    0.93
   4 -10   8   -0.72    1.17
   4 -10   9    4.77    1.63
  -4  10  -9    3.88    1.76
  -4  10  -9    4.70    1.49
   4 -10   9    5.30    1.59
   4 -10  10    0.08    0.68
  -4  10 -10   -0.50    0.71
  -4  10 -10   -0.12    0.54
   4 -10  10    0.18    0.51
  -4  10 -11   -0.92    1.33
   4 -10  11   -0.63    0.89
  -4   9  12   16.85    3.45
  -4   9  12   17.10    3.37
   4  -9 -12   17.11    6.41
  -4   9  11   30.66    4.55
  -4   9  11   31.10    4.27
   4  -9 -11   34.50    8.47
  -4   9  10   13.02    2.75
  -4   9  10   15.92    2.46
   4  -9 -10   14.25    5.54
  -4   9  10   21.22    3.55
  -4   9   9    1.35    1.31
  -4   9   9   -0.28    0.62
   4  -9  -9    2.48    3.42
   4  -9  -9   -0.31    0.70
  -4   9   8   18.75    3.38
  -4   9   8   19.25    3.30
   4  -9  -8   23.96    3.22
   4  -9  -8   24.71    6.73
  -4   9   7   20.47    3.33
   4  -9  -7   12.42    4.74
  -4   9   7   17.93    3.07
   4  -9  -7   18.01    2.76
  -4   9   6    0.82    0.75
  -4   9   6    1.20    0.88
   4  -9  -6   -1.27    2.96
   4  -9  -6    2.17    1.12
  -4   9   5    6.97    1.90
  -4   9   5    5.00    1.77
   4  -9  -5    6.50    4.17
   4  -9  -5    2.36    0.98
  -4   9   4    0.09    0.30
  -4   9   4   -0.14    0.75
   4  -9  -4   -0.28    1.80
   4  -9  -4    0.51    0.91
  -4   9   3   16.95    2.11
  -4   9   3   19.22    2.96
   4  -9  -3   22.87    3.05
  -4   9   2   -0.54    1.13
  -4   9   2    0.05    0.58
   4  -9  -2    0.74    0.75
  -4   9   1    7.81    1.93
  -4   9   1    5.35    1.24
   4  -9  -1    7.12    1.72
   4  -9   0    2.08    1.05
  -4   9   0    0.50    0.89
  -4   9   0    3.54    1.19
  -4   9  -1    1.93    0.84
   4  -9   1    3.05    1.03
  -4   9  -1    1.34    0.84
  -4   9  -2    4.13    1.19
  -4   9  -2    5.31    1.46
  -4   9  -2    3.00    1.27
   4  -9   2    5.05    1.36
  -4   9  -3   -0.01    0.47
  -4   9  -3    1.67    0.87
  -4   9  -3   -0.33    0.67
   4  -9   3   -0.05    0.55
  -4   9  -4    7.82    1.84
  -4   9  -4    7.29    1.98
  -4   9  -4    7.31    1.52
   4  -9   4    9.40    2.01
   4  -9   5   12.09    2.38
  -4   9  -5    5.56    1.34
  -4   9  -5    7.91    1.92
  -4   9  -5    5.28    1.37
  -4   9  -6   18.09    2.62
  -4   9  -6   18.64    3.04
  -4   9  -6   18.49    2.59
   4  -9   6   23.04    3.15
  -4   9  -7   14.17    2.31
  -4   9  -7   15.05    2.33
  -4   9  -7   16.05    2.97
   4  -9   7   15.82    2.64
  -4   9  -8    1.51    0.79
  -4   9  -8    2.18    1.03
  -4   9  -8    1.15    0.90
   4  -9   8    1.54    0.70
   4  -9   8    2.11    1.08
  -4   9  -9    4.59    1.13
  -4   9  -9    5.92    1.93
   4  -9   9    3.69    1.30
  -4   9  -9    4.39    1.37
   4  -9   9    3.82    1.20
  -4   9 -10   -0.11    1.16
  -4   9 -10    1.52    0.92
   4  -9  10    0.12    0.52
   4  -9  10    1.13    0.69
   4  -9  11    2.47    1.18
  -4   9 -11    1.43    0.87
  -4   9 -11    0.28    1.06
   4  -9  11    2.19    1.37
  -4   9 -12   -0.39    1.41
  -4   9 -12    2.21    1.04
   4  -9  12    4.03    1.43
   4  -9  12    2.19    1.42
   4  -9  13    0.86    0.86
  -4   8  14   -0.61    1.08
  -4   8  14    0.63    0.83
  -4   8  13   -0.38    1.15
   4  -8 -13   -0.43    3.12
  -4   8  13    1.75    1.39
  -4   8  12    2.31    1.21
   4  -8 -12   -1.47    3.56
  -4   8  12    1.82    1.24
  -4   8  11   -0.15    0.73
  -4   8  11    2.37    1.22
   4  -8 -10   12.49    2.33
   4  -8 -10   11.31    4.84
  -4   8  10    8.89    1.82
  -4   8  10   10.94    1.82
  -4   8  10    8.97    2.19
   4  -8  -9    1.16    0.92
  -4   8   9   -0.51    0.77
  -4   8   9    0.30    0.50
  -4   8   9    0.90    1.00
   4  -8  -9    3.58    4.21
   4  -8  -8   17.13    2.67
  -4   8   8   12.03    2.57
   4  -8  -8   15.31    5.07
  -4   8   8   14.28    2.57
   4  -8  -7    6.24    1.67
  -4   8   7    7.72    2.07
  -4   8   7    4.81    1.55
   4  -8  -7    7.86    3.22
  -4   8   6    4.31    1.65
  -4   8   6    3.61    1.43
   4  -8  -6    4.09    1.30
   4  -8  -6    7.28    4.16
   4  -8  -5    0.29    0.86
  -4   8   5    1.18    0.86
   4  -8  -5    0.13    1.88
  -4   8   5    0.44    0.75
  -4   8   5    0.94    0.65
   4  -8  -4   12.04    2.21
  -4   8   4   13.72    2.44
  -4   8   4   16.62    2.73
   4  -8  -4   15.85    4.36
  -4   8   4   14.69    1.93
  -4   8   3   73.96    5.68
  -4   8   3   82.57    5.78
   4  -8  -3   89.32   10.22
  -4   8   3   66.74    4.36
   4  -8  -3   80.31    5.75
  -4   8   2   53.97    4.76
   4  -8  -2   63.60    8.21
  -4   8   2   52.94    3.84
   4  -8  -2   60.56    4.88
  -4   8   1    4.80    1.32
  -4   8   1    5.57    1.21
   4  -8  -1    5.44    1.49
  -4   8   0   83.86    5.98
  -4   8   0   89.68    5.27
   4  -8   0  106.74    6.57
  -4   8  -1  110.65    6.81
  -4   8  -1  109.56    6.06
   4  -8   1  134.35    7.44
  -4   8  -2   36.10    3.68
  -4   8  -2   36.13    3.58
  -4   8  -2   42.00    3.50
   4  -8   2   45.10    4.17
  -4   8  -3    2.35    0.86
  -4   8  -3    1.55    0.70
  -4   8  -3    1.17    0.67
   4  -8   3    3.04    1.09
  -4   8  -4  133.82    7.47
  -4   8  -4  130.67    7.75
  -4   8  -4  136.81    7.12
   4  -8   4  157.14    8.23
  -4   8  -5   11.22    2.01
  -4   8  -5   13.14    2.40
  -4   8  -5   13.55    2.05
   4  -8   5   15.66    2.44
  -4   8  -6   -0.28    0.74
  -4   8  -6    0.84    0.65
  -4   8  -6    0.68    0.50
   4  -8   6    0.77    0.86
  -4   8  -7    3.52    1.27
  -4   8  -7    3.86    1.25
  -4   8  -7    3.56    1.22
   4  -8   7    4.66    1.40
  -4   8  -8   28.11    3.10
   4  -8   8   29.49    3.40
  -4   8  -8   22.21    3.55
  -4   8  -8   27.54    3.07
   4  -8   8   26.75    3.28
  -4   8  -9    1.17    0.77
  -4   8  -9    2.23    1.08
  -4   8  -9    1.34    0.51
   4  -8   9    0.78    0.81
   4  -8   9    1.58    1.04
  -4   8 -10    0.77    0.58
  -4   8 -10    1.34    0.68
  -4   8 -10    0.13    0.49
   4  -8  10    0.89    1.02
   4  -8  10    3.49    1.40
  -4   8 -11    8.97    2.55
  -4   8 -11    6.38    1.57
   4  -8  11    9.14    2.09
   4  -8  11    7.48    1.70
  -4   8 -12    4.17    1.93
  -4   8 -12    1.95    0.95
   4  -8  12    4.04    1.43
   4  -8  12    1.75    0.72
  -4   8 -13    7.23    1.72
  -4   8 -13    3.21    1.49
   4  -8  13    9.27    2.30
  -4   8 -14    2.24    1.84
  -4   8 -14   -0.06    0.67
  -4   7  16    2.28    1.58
  -4   7  15    2.91    1.56
   4  -7 -15    1.19    3.09
  -4   7  15    2.73    1.48
  -4   7  14   -2.17    1.11
   4  -7 -14    2.95    2.88
  -4   7  14   -1.28    1.21
  -4   7  13    3.13    1.34
  -4   7  13    5.63    2.01
   4  -7 -13    5.26    3.91
  -4   7  12    4.01    1.54
   4  -7 -12    6.38    4.65
  -4   7  12    5.62    1.84
   4  -7 -11    3.46    1.17
  -4   7  11    1.51    0.72
   4  -7 -11    2.21    3.59
  -4   7  11    1.32    1.04
   4  -7 -10    2.96    1.06
  -4   7  10    3.68    1.69
   4  -7 -10    1.71    2.76
  -4   7  10    3.18    0.98
  -4   7  10    3.39    1.52
   4  -7  -9   -0.33    0.70
  -4   7   9   -0.87    1.15
  -4   7   9    0.29    0.39
   4  -7  -9    0.39    2.15
  -4   7   9   -0.64    0.91
   4  -7  -8   19.33    5.77
  -4   7   8   20.10    2.99
  -4   7   8   18.53    2.18
  -4   7   8   15.82    2.46
   4  -7  -8   21.81    2.91
   4  -7  -7   14.84    2.41
  -4   7   7   10.05    1.92
   4  -7  -7   19.20    6.16
  -4   7   7   11.30    1.43
  -4   7   7   13.48    2.20
  -4   7   6   40.87    4.05
   4  -7  -6   36.75    3.75
  -4   7   6   41.76    3.96
   4  -7  -6   41.15    7.63
  -4   7   6   34.54    2.76
   4  -7  -5    3.70    1.18
  -4   7   5    2.14    0.96
  -4   7   5    5.65    1.56
   4  -7  -5    7.36    3.32
  -4   7   5    5.14    1.12
   4  -7  -4    1.88    0.81
  -4   7   4    0.98    0.51
  -4   7   4    0.95    0.64
  -4   7   4    1.53    0.79
   4  -7  -4    2.94    2.34
   4  -7  -3   11.34    2.01
  -4   7   3    8.59    1.66
  -4   7   3    6.92    1.59
   4  -7  -3    5.28    1.55
  -4   7   3    6.87    1.22
  -4   7   2   41.79    3.99
  -4   7   2   43.14    3.23
   4  -7  -2   47.01    6.67
  -4   7   2   45.45    3.87
   4  -7  -2   45.32    4.02
   4  -7  -1   11.34    2.00
  -4   7   1    7.84    1.68
  -4   7   1    6.22    1.24
   4  -7  -1    6.81    2.10
  -4   7   0   55.35    4.45
   4  -7   0   63.26    6.84
  -4   7   0   62.53    4.10
   4  -7   0   66.92    4.86
  -4   7  -1   53.32    4.28
  -4   7  -1   49.87    3.85
  -4   7  -1   52.33    3.78
   4  -7   1   66.47    4.83
  -4   7  -2   14.72    2.20
  -4   7  -2   14.46    2.13
  -4   7  -2   12.35    1.76
   4  -7   2   15.31    2.23
  -4   7  -3   18.90    2.57
  -4   7  -3   20.33    2.57
  -4   7  -3   22.96    2.50
   4  -7   3   27.97    3.04
  -4   7  -4   76.10    5.24
  -4   7  -4   75.42    5.37
  -4   7  -4   86.10    5.12
   4  -7   4   92.12    5.71
  -4   7  -5    0.88    0.43
  -4   7  -5   -1.02    0.91
  -4   7  -5    0.38    0.43
  -4   7  -6    1.15    0.53
  -4   7  -6   -0.08    0.71
  -4   7  -6    0.95    0.42
   4  -7   6    0.90    0.63
  -4   7  -7    1.53    0.76
  -4   7  -7    1.89    0.96
  -4   7  -7    2.48    0.64
   4  -7   7    2.12    0.98
   4  -7   7    2.53    0.77
  -4   7  -8    1.74    0.84
   4  -7   8    1.32    0.79
  -4   7  -8    3.12    1.45
  -4   7  -8    0.90    0.71
   4  -7   8    2.02    0.87
  -4   7  -9    0.63    0.71
   4  -7   9    0.78    0.51
  -4   7  -9    0.26    0.86
  -4   7  -9    0.81    0.68
   4  -7   9    0.37    0.45
  -4   7 -10    3.45    1.13
   4  -7  10    4.40    1.33
  -4   7 -10    3.40    1.34
  -4   7 -10    4.26    1.22
   4  -7  10    3.86    1.17
  -4   7 -11   15.43    2.39
  -4   7 -11   12.60    2.86
  -4   7 -11   13.56    2.21
   4  -7  11   16.48    2.70
   4  -7  11   15.53    2.38
  -4   7 -12   -2.47    1.52
  -4   7 -12    0.84    0.87
   4  -7  12   -0.52    1.09
   4  -7  12    1.70    0.84
  -4   7 -13    6.79    2.39
  -4   7 -13    4.71    1.46
   4  -7  13    6.94    1.80
  -4   7 -14    4.56    1.73
  -4   7 -14    4.17    1.35
   4  -7  14    5.23    1.80
  -4   7 -15    2.79    1.87
  -4   7 -15    0.68    0.57
  -4   6  16    1.91    1.30
  -4   6  16   -0.01    1.18
   4  -6 -16    3.84    4.52
  -4   6  15   41.50    4.93
  -4   6  15   46.69    5.32
   4  -6 -15   29.05    8.06
  -4   6  14    2.19    0.85
  -4   6  14   -0.99    1.16
   4  -6 -14    1.79    2.99
  -4   6  13    9.64    2.33
  -4   6  13   10.22    2.47
   4  -6 -13   14.16    5.60
  -4   6  12   24.56    3.49
  -4   6  12   29.05    3.72
   4  -6 -12   30.85    3.56
   4  -6 -12   28.32    7.81
   4  -6 -11   11.55    2.17
  -4   6  11   14.26    2.50
  -4   6  11    8.56    2.12
   4  -6 -11    7.17    4.38
   4  -6 -10    2.03    1.00
  -4   6  10    2.64    1.24
  -4   6  10    0.09    0.66
  -4   6  10    0.84    0.47
   4  -6 -10    4.27    4.79
   4  -6  -9    1.21    0.84
  -4   6   9    2.38    1.11
  -4   6   9    3.64    1.71
  -4   6   9    1.80    0.81
   4  -6  -9   -0.75    2.12
  -4   6   8  133.16    7.82
  -4   6   8  142.33    7.86
  -4   6   8  140.16    6.24
   4  -6  -8  177.40   16.88
   4  -6  -8  147.98    8.01
  -4   6   7  150.45    8.16
  -4   6   7  150.32    7.84
  -4   6   7  146.71    6.37
   4  -6  -7  168.12    8.41
  -4   6   7  138.87    5.89
   4  -6  -7  167.45   15.63
   4  -6  -6    1.50    0.70
  -4   6   6    3.17    1.21
  -4   6   6    3.46    0.82
   4  -6  -6    4.27    3.81
  -4   6   6    3.84    1.31
  -4   6   5   26.49    3.00
  -4   6   5   26.76    2.88
   4  -6  -5   28.47    3.07
  -4   6   5   28.14    2.39
   4  -6  -5   28.31    6.01
   4  -6  -4   11.12    1.85
  -4   6   4    9.75    1.38
  -4   6   4    7.59    1.58
  -4   6   4   10.11    1.75
   4  -6  -4    9.54    3.65
   4  -6  -3   12.44    1.98
  -4   6   3   10.61    1.84
  -4   6   3   10.17    1.46
  -4   6   3    9.42    1.62
   4  -6  -3   10.62    3.47
   4  -6  -2   11.46    1.87
   4  -6  -2   11.94    3.71
  -4   6   2   12.37    1.91
  -4   6   2   10.50    1.89
  -4   6   2   11.88    1.63
  -4   6   1   25.25    2.34
  -4   6   1   25.41    2.81
  -4   6   1   24.30    2.64
   4  -6  -1   24.33    4.53
   4  -6  -1   29.30    2.97
   4  -6   0    2.37    0.73
  -4   6   0    2.99    1.06
  -4   6   0    2.49    0.77
   4  -6   0    2.23    1.34
   4  -6   1    5.54    1.28
  -4   6  -1    4.64    1.13
  -4   6  -1    5.06    1.15
  -4   6  -1    6.36    1.23
   4  -6   1    8.24    2.18
   4  -6   2    0.99    0.58
  -4   6  -2   -0.95    0.83
  -4   6  -2    0.06    0.56
  -4   6  -2    1.05    0.40
  -4   6  -3    4.28    1.10
  -4   6  -3    3.23    1.10
  -4   6  -3    3.64    1.01
   4  -6   3    3.54    0.91
  -4   6  -4    5.03    1.31
  -4   6  -4    6.18    1.68
  -4   6  -4    5.96    1.15
   4  -6   4    6.45    1.33
  -4   6  -5   18.44    2.33
  -4   6  -5   18.11    2.48
  -4   6  -5   17.89    2.17
   4  -6   5   25.47    2.73
   4  -6   6    2.08    0.95
  -4   6  -6    2.93    1.03
  -4   6  -6    2.69    1.21
  -4   6  -6    2.13    0.72
   4  -6   6    4.02    1.09
  -4   6  -7    0.80    0.62
  -4   6  -7    1.03    0.86
  -4   6  -7   -0.17    0.61
   4  -6   7    0.56    0.62
   4  -6   7    0.99    0.62
  -4   6  -8   -0.11    0.60
  -4   6  -8   -1.04    0.86
  -4   6  -8   -0.03    0.53
   4  -6   8   -0.04    0.54
   4  -6   8    0.13    0.45
  -4   6  -9    7.31    1.50
  -4   6  -9    4.82    1.80
  -4   6  -9    4.79    1.20
   4  -6   9    6.12    1.50
   4  -6   9    7.76    1.61
  -4   6 -10    6.50    1.54
  -4   6 -10    7.99    2.11
  -4   6 -10    7.79    1.64
   4  -6  10   10.72    2.11
   4  -6  10    7.02    1.36
  -4   6 -11   -0.42    0.67
  -4   6 -11    0.86    0.47
   4  -6  11    0.28    0.46
   4  -6  11   -0.55    0.56
  -4   6 -12   21.17    3.62
  -4   6 -12   17.38    2.38
   4  -6  12   21.18    3.05
  -4   6 -13   33.02    4.60
  -4   6 -13   31.94    3.25
   4  -6  13   36.12    4.18
  -4   6 -14   -0.74    1.37
  -4   6 -14    0.32    0.68
   4  -6  14    2.28    1.19
   4  -6  15    0.30    0.81
  -4   6 -15    1.27    1.17
  -4   5  18    0.78    0.86
  -4   5  17    0.95    1.12
  -4   5  17   -1.03    0.95
   4  -5 -17    1.57    2.75
  -4   5  16   16.72    3.00
  -4   5  16   19.67    2.92
   4  -5 -16   14.67    6.72
  -4   5  15   35.39    4.22
  -4   5  15   39.33    4.77
  -4   5  15   38.88    4.04
   4  -5 -15   38.62    9.24
  -4   5  14   15.50    2.71
  -4   5  14   14.50    2.85
  -4   5  14   15.47    2.47
   4  -5 -14   22.41    8.09
   4  -5 -13    4.82    1.46
  -4   5  13    5.55    1.77
  -4   5  13    7.38    1.84
  -4   5  13    5.74    1.41
   4  -5 -13    6.52    3.67
   4  -5 -12    1.17    0.75
  -4   5  12   -0.05    0.84
  -4   5  12    0.19    0.66
   4  -5 -11   11.63    2.14
  -4   5  11   10.18    2.10
  -4   5  11   13.64    2.26
   4  -5 -11   10.59    5.13
   4  -5 -10    0.44    0.55
  -4   5  10    1.68    0.99
  -4   5  10    0.21    0.66
  -4   5  10    0.71    0.38
   4  -5 -10   -1.55    2.47
   4  -5  -9   15.32    2.41
  -4   5   9   17.57    2.66
  -4   5   9   14.11    1.58
  -4   5   9   17.70    2.58
   4  -5  -9   15.32    4.73
  -4   5   8  334.80   13.28
  -4   5   8  333.60   10.81
  -4   5   8  354.77   13.32
   4  -5  -8  338.38   23.47
   4  -5  -8  374.49   14.05
   4  -5  -7   98.19    6.17
  -4   5   7   94.40    5.87
  -4   5   7   86.52    4.22
  -4   5   7   99.79    5.89
   4  -5  -7   90.25   11.12
  -4   5   7   86.09    4.46
   4  -5  -6    2.91    0.87
  -4   5   6    5.30    1.35
  -4   5   6    3.45    1.12
  -4   5   6    2.99    0.74
   4  -5  -6    3.52    3.62
  -4   5   5    7.36    1.44
  -4   5   5    5.90    1.01
  -4   5   5    8.60    1.64
   4  -5  -5    6.58    1.51
   4  -5  -5    2.89    2.59
   4  -5  -4    4.35    1.22
  -4   5   4    3.35    1.09
  -4   5   4    3.49    0.79
   4  -5  -4    4.25    2.92
  -4   5   4    3.90    0.97
  -4   5   3   19.71    2.24
  -4   5   3   17.95    2.26
  -4   5   3   24.14    2.20
   4  -5  -3   22.64    2.69
   4  -5  -3   20.20    4.71
  -4   5   2  125.11    6.55
  -4   5   2  139.55    6.38
  -4   5   2  143.72    6.04
   4  -5  -2  122.76   10.53
   4  -5  -2  137.80    6.92
  -4   5   1  138.01    6.57
  -4   5   1  151.31    6.09
  -4   5   1  142.39    6.28
   4  -5  -1  119.10    3.89
   4  -5  -1  130.46   10.05
   4  -5  -1  153.27    7.06
  -4   5   0   27.26    2.72
  -4   5   0   32.63    2.74
  -4   5   0   27.64    2.28
  -4   5   0   27.32    2.37
   4  -5   0   31.82    4.44
   4  -5   0   30.63    2.84
  -4   5  -1   30.57    2.87
  -4   5  -1   32.77    2.59
  -4   5  -1   28.26    2.42
   4  -5   1   34.72    3.97
   4  -5   1   33.39    3.04
  -4   5  -2   12.82    1.88
  -4   5  -2   12.54    1.72
  -4   5  -2   13.91    1.70
   4  -5   2   16.72    2.31
   4  -5   2   14.88    2.00
  -4   5  -3   51.09    3.85
  -4   5  -3   55.50    3.63
   4  -5   3   57.29    3.94
  -4   5  -3   61.89    3.27
  -4   5  -3   57.71    4.04
   4  -5   4    1.20    0.37
  -4   5  -4    1.25    0.44
  -4   5  -4    0.83    0.67
  -4   5  -4    1.58    0.67
  -4   5  -4    0.68    0.54
  -4   5  -5   17.51    2.21
  -4   5  -5   16.89    2.36
  -4   5  -5   18.23    2.06
   4  -5   5   16.64    2.02
   4  -5   5   19.95    2.19
  -4   5  -5   17.92    1.79
  -4   5  -6    0.31    0.49
  -4   5  -6   -0.63    0.75
  -4   5  -6   -0.23    0.65
  -4   5  -6    0.26    0.43
   4  -5   6    0.70    0.59
   4  -5   6   -0.23    0.35
  -4   5  -7   30.27    3.02
  -4   5  -7   29.36    3.43
  -4   5  -7   31.06    2.83
   4  -5   7   30.28    2.97
   4  -5   7   34.22    2.96
  -4   5  -7   30.92    2.71
  -4   5  -8    0.02    0.61
  -4   5  -8    0.34    0.61
  -4   5  -8    0.62    0.83
   4  -5   8   -0.64    0.56
   4  -5   8   -0.12    0.30
  -4   5  -9   10.17    1.75
  -4   5  -9   11.91    2.28
  -4   5  -9   11.67    1.79
   4  -5   9   12.80    2.17
   4  -5   9   11.78    1.96
   4  -5   9   12.77    1.83
  -4   5 -10   75.18    5.13
  -4   5 -10   70.23    6.10
  -4   5 -10   71.58    4.70
   4  -5  10   79.01    5.48
   4  -5  10   72.24    4.50
  -4   5 -11   95.57    7.36
  -4   5 -11   89.96    5.45
   4  -5  11  100.90    6.56
  -4   5 -12   28.26    4.12
  -4   5 -12   28.58    2.97
   4  -5  12   29.94    3.56
  -4   5 -13    6.35    2.25
  -4   5 -13    5.84    1.39
   4  -5  13    6.37    1.64
  -4   5 -14    0.73    0.99
  -4   5 -14    0.83    0.63
   4  -5  14   -0.92    0.73
  -4   5 -15   -0.62    0.96
   4  -5  15    0.68    0.50
  -4   5 -16   10.11    2.81
   4  -5  16   12.51    2.70
  -4   4  18   11.59    2.63
  -4   4  18   16.88    2.80
   4  -4 -18   10.64    6.22
  -4   4  17   10.49    2.56
  -4   4  17    9.44    2.02
   4  -4 -17    5.69    3.24
  -4   4  16    1.03    1.14
  -4   4  16    0.64    0.72
   4  -4 -16    0.10    2.70
  -4   4  15    3.64    1.20
  -4   4  15    2.36    0.99
  -4   4  15    4.46    1.54
   4  -4 -15    4.26    3.59
  -4   4  14    6.06    1.59
  -4   4  14    3.32    1.58
  -4   4  14    5.12    1.45
   4  -4 -14    1.31    3.45
  -4   4  13    0.79    0.74
  -4   4  13    2.07    1.10
  -4   4  13    1.98    1.23
   4  -4 -13    5.91    4.15
  -4   4  12   11.63    2.12
  -4   4  12   11.86    1.94
  -4   4  12   13.78    2.48
   4  -4 -12   10.33    5.37
  -4   4  11    8.80    1.48
  -4   4  11    8.52    1.60
  -4   4  11    8.65    1.81
   4  -4 -11    4.78    3.68
  -4   4  10    9.65    1.81
  -4   4  10    9.23    1.17
  -4   4  10    8.80    1.87
  -4   4  10    8.57    1.45
  -4   4  10    9.60    1.33
   4  -4 -10    7.88    4.74
  -4   4   9  323.43   12.74
  -4   4   9  347.34   10.40
  -4   4   9  353.72   13.36
   4  -4  -9  336.33   23.63
  -4   4   9  350.09   11.18
  -4   4   8   24.03    2.75
  -4   4   8   25.45    1.86
  -4   4   8   27.21    2.96
  -4   4   8   27.25    2.33
   4  -4  -8   33.90    6.97
  -4   4   7   22.64    2.59
  -4   4   7   23.63    1.74
  -4   4   7   25.62    2.75
   4  -4  -7   20.76    6.27
  -4   4   7   23.02    2.09
   4  -4  -6    4.53    3.37
  -4   4   6    1.16    0.80
  -4   4   6    1.76    0.73
  -4   4   6    2.14    0.71
   4  -4  -5    7.21    3.00
   4  -4  -5    6.69    1.45
  -4   4   5    5.88    1.26
  -4   4   5    7.31    1.29
  -4   4   5    6.38    1.21
   4  -4  -4    2.36    1.79
   4  -4  -4    0.46    0.59
  -4   4   4    1.13    0.79
  -4   4   4    0.17    0.53
  -4   4   4    0.29    0.49
  -4   4   4    0.46    0.51
  -4   4   3   11.68    1.59
   4  -4  -3    9.24    3.39
   4  -4  -3   14.47    2.07
  -4   4   3   12.76    1.72
  -4   4   3   13.38    1.51
  -4   4   2  175.24    7.60
  -4   4   2  182.91    5.93
  -4   4   2  200.67    7.29
   4  -4  -2  173.30   12.35
  -4   4   2  187.18    7.25
   4  -4  -2  187.24    8.21
   4  -4  -1    1.00    1.15
  -4   4   1    1.93    0.72
   4  -4  -1    0.52    0.44
  -4   4   1    0.58    0.39
   4  -4  -1    0.82    0.22
  -4   4   1    0.75    0.35
  -4   4   1    1.14    0.61
   4  -4   0    1.50    0.81
  -4   4   0    3.26    1.13
  -4   4   0    2.58    0.74
  -4   4   0    2.29    0.75
  -4   4   0    2.08    0.76
   4  -4   0    1.14    0.91
  -4   4  -1   48.75    3.15
  -4   4  -1   44.58    2.94
  -4   4  -1   43.23    3.26
   4  -4   1   47.78    4.80
   4  -4   1   50.40    3.52
  -4   4  -1   53.16    3.11
   4  -4   2   -0.24    0.56
  -4   4  -2    0.64    0.55
  -4   4  -2   -0.41    0.60
  -4   4  -2    0.33    0.64
  -4   4  -2   -0.19    0.37
   4  -4   2    0.52    0.81
  -4   4  -3   65.69    4.22
  -4   4  -3   70.18    4.34
   4  -4   3   58.27    3.27
  -4   4  -3   74.18    4.10
   4  -4   3   77.92    4.34
  -4   4  -3   72.66    3.90
   4  -4   4    8.30    1.35
  -4   4  -4    7.28    1.22
  -4   4  -4    7.46    1.41
  -4   4  -4    6.55    1.45
  -4   4  -4    4.59    0.96
   4  -4   4    7.71    1.22
  -4   4  -5   48.33    3.30
  -4   4  -5   48.12    3.58
  -4   4  -5   44.81    3.83
   4  -4   5   50.72    3.53
   4  -4   5   51.19    3.40
  -4   4  -5   51.12    3.52
  -4   4  -6  124.10    6.30
  -4   4  -6  116.43    6.85
  -4   4  -6  126.25    5.93
   4  -4   6  122.01    6.14
   4  -4   6  131.08    5.82
  -4   4  -6  130.91    6.37
  -4   4  -7    0.93    0.75
  -4   4  -7    0.83    0.65
  -4   4  -7    1.14    0.80
  -4   4  -7    1.96    0.85
   4  -4   7    1.08    0.65
   4  -4   7    0.41    0.37
  -4   4  -8    9.42    1.84
  -4   4  -8    4.35    1.30
  -4   4  -8   12.58    2.46
   4  -4   8    7.21    1.24
  -4   4  -8    8.27    1.48
   4  -4   8   11.19    2.18
   4  -4   8    9.41    1.83
  -4   4  -9    2.55    0.89
  -4   4  -9    1.10    0.87
  -4   4  -9    1.65    1.20
  -4   4  -9    1.84    0.60
   4  -4   9    2.04    0.95
   4  -4   9    1.94    0.86
   4  -4   9    1.60    0.57
  -4   4 -10    1.21    0.74
  -4   4 -10    0.83    0.91
  -4   4 -10    2.15    0.72
   4  -4  10    2.16    0.95
   4  -4  10    2.85    1.10
  -4   4 -11    0.25    0.66
  -4   4 -11    0.62    1.27
  -4   4 -11    0.71    0.57
   4  -4  11    1.99    1.04
  -4   4 -12   20.32    3.39
  -4   4 -12   20.73    2.39
   4  -4  12   26.45    3.27
  -4   4 -13   81.08    7.09
   4  -4  13   85.80    6.29
  -4   4 -13   80.64    5.06
  -4   4 -14    8.85    2.41
   4  -4  14   13.79    2.54
  -4   4 -15    0.60    0.70
   4  -4  15    0.95    1.12
   4  -4  16    1.96    1.19
  -4   4 -16    0.96    1.19
   4  -4  16    4.73    1.89
  -4   3  19   14.04    2.68
   4  -3 -19   11.47    5.36
  -4   3  18   15.22    3.26
  -4   3  18   15.13    2.60
   4  -3 -18   20.17    6.57
  -4   3  17    1.86    1.00
  -4   3  17   -0.78    1.16
   4  -3 -17   -0.80    3.69
  -4   3  16    1.11    0.90
  -4   3  16   -0.24    1.06
   4  -3 -16    1.84    3.43
  -4   3  15    0.73    0.47
  -4   3  15    0.40    0.65
   4  -3 -15    0.88    2.71
  -4   3  14   28.32    3.72
  -4   3  14   23.23    2.74
   4  -3 -14   14.46    5.46
  -4   3  13   15.96    2.34
  -4   3  13   16.50    2.83
  -4   3  13   15.51    2.12
  -4   3  13   12.20    1.78
   4  -3 -13    6.90    4.88
  -4   3  12    0.96    0.92
   4  -3 -12   -0.07    0.26
  -4   3  12    0.30    0.66
  -4   3  12    0.17    0.77
  -4   3  12   -0.15    0.34
   4  -3 -11   39.04    7.86
  -4   3  11   55.58    4.19
  -4   3  11   54.88    4.65
   4  -3 -11   51.47    3.04
  -4   3  11   57.22    3.80
  -4   3  11   53.66    3.54
  -4   3  10   -0.30    0.63
   4  -3 -10    0.33    0.36
  -4   3  10    0.50    0.39
  -4   3  10   -0.31    0.67
  -4   3  10    0.02    0.36
  -4   3   9   84.69    4.99
  -4   3   9   79.62    3.27
  -4   3   9   85.80    5.49
   4  -3  -9   77.13    3.28
  -4   3   9   80.23    4.24
   4  -3  -9   80.89   10.97
  -4   3   9   83.29    4.36
   4  -3  -8   13.16    4.36
  -4   3   8   12.35    1.72
  -4   3   8   12.38    1.04
   4  -3  -8   13.28    1.02
  -4   3   8   12.60    2.00
  -4   3   8   12.85    1.45
  -4   3   8   12.16    1.53
   4  -3  -7   -0.67    2.82
  -4   3   7    0.39    0.47
  -4   3   7    0.09    0.66
  -4   3   7    0.11    0.35
  -4   3   6    0.32    0.46
  -4   3   6   -0.06    0.54
  -4   3   6    0.57    0.46
  -4   3   5   16.69    1.89
   4  -3  -5   11.38    3.99
  -4   3   5   15.64    1.74
  -4   3   5   17.69    1.96
  -4   3   4   51.22    3.41
   4  -3  -4   48.18    6.89
  -4   3   4   50.97    3.31
  -4   3   4   53.04    3.48
  -4   3   3   22.26    2.17
   4  -3  -3   18.88    4.26
  -4   3   3   22.06    1.97
  -4   3   3   20.59    1.87
  -4   3   3   21.14    2.22
  -4   3   2   -0.23    0.44
  -4   3   2    0.35    0.49
   4  -3  -2    1.42    1.57
  -4   3   2    0.38    0.37
  -4   3   2    0.24    0.14
   4  -3  -2    0.44    0.21
  -4   3   2    0.35    0.45
  -4   3   1   16.17    1.80
  -4   3   1   15.85    1.67
   4  -3  -1   14.52    3.22
  -4   3   1   15.92    1.55
  -4   3   1   14.49    1.14
   4  -3  -1   16.22    2.01
  -4   3   0    6.95    1.11
   4  -3   0    6.31    1.29
  -4   3   0    6.03    0.95
  -4   3   0    4.92    0.87
   4  -3   0    2.93    1.14
  -4   3   0    4.92    0.97
  -4   3   0    5.37    0.83
   4  -3   1   10.93    1.56
  -4   3  -1   13.02    1.50
  -4   3  -1   12.43    1.65
   4  -3   1    9.92    2.09
  -4   3  -1   11.11    1.37
  -4   3  -1   15.64    1.71
  -4   3  -2   10.50    1.39
   4  -3   2    8.43    1.29
  -4   3  -2    9.58    1.40
  -4   3  -2    5.74    1.03
   4  -3   2   11.02    2.35
  -4   3  -2    9.28    1.37
  -4   3  -3    9.23    1.45
  -4   3  -3    9.95    1.54
   4  -3   3    8.74    1.68
   4  -3   3    8.37    1.27
  -4   3  -3    9.44    1.52
  -4   3  -3    9.08    1.33
   4  -3   3    8.80    1.20
   4  -3   4   44.84    2.67
  -4   3  -4   51.49    3.55
  -4   3  -4   59.54    3.53
  -4   3  -4   55.89    3.89
   4  -3   4   52.22    3.33
   4  -3   4   39.99    3.02
   4  -3   4   57.89    3.40
  -4   3  -4   58.57    3.96
  -4   3  -5   17.55    2.07
  -4   3  -5   19.31    2.39
  -4   3  -5   19.79    1.99
   4  -3   5   20.62    2.12
   4  -3   5   19.55    1.85
  -4   3  -5   23.50    2.61
   4  -3   6   19.39    1.82
  -4   3  -6   15.34    2.04
   4  -3   6   20.23    2.51
  -4   3  -6   18.50    2.57
  -4   3  -6   21.77    2.10
   4  -3   6   18.83    2.08
  -4   3  -6   21.38    2.60
   4  -3   7    6.39    1.50
  -4   3  -7    7.98    1.25
  -4   3  -7    8.71    1.53
  -4   3  -7    8.73    1.75
   4  -3   7    7.90    1.08
  -4   3  -7    6.00    1.48
   4  -3   7    8.22    1.47
  -4   3  -8    2.63    1.25
  -4   3  -8    1.44    0.77
  -4   3  -8    2.51    0.65
   4  -3   8    1.64    0.93
   4  -3   8    3.38    1.03
   4  -3   8    1.49    0.50
  -4   3  -9    4.60    1.02
  -4   3  -9    5.88    1.61
  -4   3  -9    5.36    1.50
   4  -3   9    4.30    1.30
   4  -3   9    5.31    1.32
  -4   3 -10   14.62    2.89
  -4   3 -10   18.75    2.93
  -4   3 -10   20.54    2.19
   4  -3  10   22.04    2.79
   4  -3  10   21.77    2.75
  -4   3 -11   35.88    4.26
  -4   3 -11   36.78    4.75
   4  -3  11   41.83    3.95
  -4   3 -11   35.72    3.09
  -4   3 -12   -0.49    1.05
  -4   3 -12    1.46    1.23
  -4   3 -12    1.84    0.68
   4  -3  12    5.05    1.50
   4  -3  13   48.76    4.72
   4  -3  13   51.30    5.35
  -4   3 -13   52.28    5.48
  -4   3 -13   39.74    5.20
   4  -3  14    1.63    0.70
   4  -3  14    4.42    1.38
  -4   3 -14    3.59    1.63
   4  -3  15   21.76    3.66
   4  -3  15   21.08    3.26
  -4   3 -15   22.82    3.79
   4  -3  16    2.62    1.30
  -4   3 -16    2.15    1.37
   4  -3  16    1.42    0.76
  -4   2  20   41.68    4.55
  -4   2  19   14.32    2.52
  -4   2  19   15.65    3.33
   4  -2 -19   15.27    6.07
  -4   2  18   16.91    2.59
  -4   2  18   18.31    3.35
   4  -2 -18   24.74    8.14
  -4   2  17    5.48    1.46
  -4   2  17    5.49    1.68
   4  -2 -17   -0.25    2.95
  -4   2  16    9.90    1.86
  -4   2  16    8.20    2.18
  -4   2  16    9.00    1.80
   4  -2 -16    6.54    4.99
   4  -2 -15   12.30    5.08
  -4   2  15   19.06    2.46
  -4   2  15   17.72    2.33
  -4   2  15   20.75    3.29
   4  -2 -14   -0.77    2.35
  -4   2  14    0.30    0.55
  -4   2  14    0.06    0.37
  -4   2  14    0.51    1.12
   4  -2 -13   47.20    9.03
  -4   2  13   56.03    5.09
   4  -2 -13   50.96    3.60
  -4   2  13   55.94    3.90
  -4   2  13   51.39    3.88
   4  -2 -12    1.01    3.45
  -4   2  12    0.64    0.38
  -4   2  12    1.69    0.40
   4  -2 -12    1.86    0.67
  -4   2  12    0.42    0.49
  -4   2  12    1.71    1.05
   4  -2 -11    1.10    2.35
  -4   2  11   -0.59    0.64
   4  -2 -11   -0.06    0.40
  -4   2  11   -0.02    0.34
  -4   2  11    0.27    0.38
  -4   2  11   -1.20    0.88
  -4   2  10   41.60    2.86
   4  -2 -10   43.49    8.23
  -4   2  10   45.37    3.32
  -4   2  10   43.52    3.97
  -4   2  10   41.42    3.06
   4  -2 -10   37.90    2.57
   4  -2  -9   -1.92    2.59
  -4   2   9    4.30    1.03
  -4   2   9    2.28    0.36
  -4   2   9    3.60    1.33
   4  -2  -9    2.54    0.57
  -4   2   9    2.22    0.65
  -4   2   9    3.26    0.84
  -4   2   8   68.78    3.97
  -4   2   8   64.94    3.33
  -4   2   8   67.61    4.65
   4  -2  -8   58.38    2.75
  -4   2   8   73.37    3.96
   4  -2  -8   64.18    9.33
   4  -2  -7    8.25    3.44
  -4   2   7    9.88    1.41
   4  -2  -7    7.05    0.68
  -4   2   7    8.63    1.01
  -4   2   7    7.18    1.16
  -4   2   7    9.89    1.63
   4  -2  -6  115.21   11.82
  -4   2   6  109.10    4.99
   4  -2  -6  103.46    4.13
  -4   2   6  114.90    5.52
   4  -2  -6   91.56    2.79
  -4   2   6  110.34    5.04
   4  -2  -5  170.13   13.91
  -4   2   5  202.74    7.27
   4  -2  -5  165.45    4.75
   4  -2  -5  198.02    5.98
  -4   2   5  207.04    7.61
  -4   2   5  208.78    7.44
  -4   2   4    0.12    0.33
   4  -2  -4   -1.77    2.25
   4  -2  -4    0.31    0.13
   4  -2  -4    0.07    0.29
  -4   2   4    0.08    0.36
  -4   2   4    0.67    0.63
  -4   2   3   55.44    3.34
   4  -2  -3   45.68    6.26
  -4   2   3   54.29    3.14
   4  -2  -3   54.59    2.47
  -4   2   3   59.38    3.73
  -4   2   2   10.53    1.36
  -4   2   2    9.32    1.35
   4  -2  -2    9.37    3.11
  -4   2   2    8.40    1.07
   4  -2  -2    9.15    0.93
  -4   2   2    8.32    1.39
  -4   2   1    1.32    0.66
  -4   2   1    0.72    0.34
  -4   2   1    0.65    0.36
   4  -2  -1    0.29    0.29
   4  -2  -1    1.10    1.71
  -4   2   1    0.88    0.21
   4  -2  -1    0.74    0.22
  -4   2   1    0.39    0.63
  -4   2   0   13.75    1.70
  -4   2   0   11.71    1.48
  -4   2   0   13.95    1.55
   4  -2   0   11.01    2.94
  -4   2   0   12.66    1.08
  -4   2   0   12.59    1.16
  -4   2  -1  720.07   19.84
  -4   2  -1  714.46   18.04
  -4   2  -1  701.00   18.70
  -4   2  -1  740.35   19.52
   4  -2   1  705.39   18.44
   4  -2   1  632.62   19.78
  -4   2  -1  717.17   20.34
  -4   2  -2  324.74   10.38
   4  -2   2  319.40    9.80
  -4   2  -2  334.72   10.50
   4  -2   2  323.39   10.69
  -4   2  -2  331.35   11.51
  -4   2  -2  305.98   10.73
  -4   2  -3  278.41    9.17
  -4   2  -3  253.96    9.43
  -4   2  -3  261.50    9.37
   4  -2   3  267.12    8.69
   4  -2   3  255.46    8.88
  -4   2  -3  256.78   10.08
  -4   2  -4   89.95    4.93
  -4   2  -4   98.12    5.28
   4  -2   4   94.74    4.36
  -4   2  -4  104.93    4.88
   4  -2   4   97.56    4.61
   4  -2   4   97.64    5.96
  -4   2  -4   99.46    5.87
   4  -2   5    4.14    0.76
  -4   2  -5    5.57    1.18
  -4   2  -5    4.62    0.96
   4  -2   5    4.73    1.34
  -4   2  -5    3.11    1.30
  -4   2  -5    3.85    1.10
   4  -2   5    3.76    0.91
  -4   2  -6   23.13    2.41
  -4   2  -6   22.70    2.62
  -4   2  -6   24.67    2.27
   4  -2   6   23.69    2.29
   4  -2   6   20.55    2.63
   4  -2   6   23.36    1.81
  -4   2  -6   26.64    3.32
  -4   2  -7    5.00    0.98
  -4   2  -7    5.68    1.54
  -4   2  -7    5.15    1.29
   4  -2   7    5.12    1.36
   4  -2   7    4.67    1.07
   4  -2   7    3.87    0.70
  -4   2  -8  159.17    8.40
   4  -2   8  152.46    6.56
  -4   2  -8  181.11    7.15
   4  -2   8  158.66    7.46
   4  -2   8  156.41    8.23
  -4   2  -8  150.30    9.31
   4  -2   9    2.84    1.07
  -4   2  -9    1.80    1.38
  -4   2  -9    2.53    1.15
  -4   2  -9    1.81    0.46
   4  -2   9    2.49    1.16
  -4   2 -10    1.98    1.29
   4  -2  10    1.75    1.36
  -4   2 -10    1.91    1.02
  -4   2 -10    0.60    0.41
   4  -2  10    2.41    0.97
   4  -2  11   33.38    3.47
  -4   2 -11   32.05    4.40
   4  -2  11   32.67    3.99
  -4   2 -11   34.84    4.17
  -4   2 -11   33.83    2.87
  -4   2 -12   -0.21    1.39
   4  -2  12    0.61    0.58
  -4   2 -12   -0.59    1.22
   4  -2  12    0.60    0.72
  -4   2 -13   11.01    3.19
   4  -2  13   10.74    2.53
  -4   2 -13   11.23    2.51
   4  -2  13   11.77    2.33
  -4   2 -14   -0.46    1.66
   4  -2  14    2.94    1.33
   4  -2  14    1.67    1.17
  -4   2 -14    1.52    0.70
  -4   2 -15    1.74    1.50
   4  -2  15    2.74    1.21
  -4   2 -15    3.01    1.14
   4  -2  15    2.93    1.32
  -4   2 -16   -0.38    0.94
   4  -2  16    0.67    0.63
   4  -1 -20    1.92    3.97
  -4   1  19    2.48    1.10
  -4   1  19    2.26    1.57
   4  -1 -19    1.54    3.48
  -4   1  18   -0.68    0.82
  -4   1  18   -1.17    1.00
  -4   1  18   -0.01    0.86
   4  -1 -17    6.41    2.87
  -4   1  17    2.64    1.03
  -4   1  17    2.29    1.10
  -4   1  17    2.31    1.52
   4  -1 -16    2.54    3.21
  -4   1  16   -1.32    1.19
  -4   1  16   -0.21    0.60
  -4   1  16    0.09    0.88
   4  -1 -15   16.71    5.76
  -4   1  15   14.68    2.88
  -4   1  15   11.09    1.78
  -4   1  15    9.35    1.85
   4  -1 -14    4.70    4.89
  -4   1  14    2.03    0.96
   4  -1 -14    2.20    1.06
  -4   1  14    1.69    0.65
  -4   1  14    2.66    1.10
   4  -1 -13    3.07    3.03
  -4   1  13    4.16    1.31
   4  -1 -13    3.66    1.09
  -4   1  13    3.45    0.89
  -4   1  13    2.63    1.08
   4  -1 -12    9.34    4.46
  -4   1  12   10.04    2.15
   4  -1 -12   11.65    1.72
  -4   1  12   12.32    1.61
  -4   1  12   13.13    1.92
  -4   1  11   18.90    1.94
   4  -1 -11   25.30    6.82
  -4   1  11   18.94    2.71
   4  -1 -11   15.37    1.82
  -4   1  11   17.36    2.04
  -4   1  11   18.45    1.89
   4  -1 -10   -3.56    4.02
  -4   1  10    2.78    0.83
  -4   1  10    1.60    0.70
   4  -1 -10    2.76    0.82
  -4   1  10    2.91    0.80
  -4   1  10    3.12    0.93
  -4   1   9   10.16    1.34
   4  -1  -9   10.42    4.40
  -4   1   9   10.40    1.80
   4  -1  -9    9.97    1.29
  -4   1   9   10.47    1.20
  -4   1   9    9.72    1.51
   4  -1  -8    2.06    2.00
  -4   1   8    0.40    0.74
   4  -1  -8    0.17    0.45
  -4   1   8    0.84    0.40
   4  -1  -8    0.11    0.27
  -4   1   8    0.40    0.33
  -4   1   8    0.47    0.37
  -4   1   7   11.56    1.30
   4  -1  -7   12.10    4.61
  -4   1   7   13.16    1.90
   4  -1  -7    9.13    1.31
   4  -1  -7    9.28    1.03
  -4   1   7   10.55    1.04
  -4   1   7   11.76    1.50
   4  -1  -6  487.35   26.42
  -4   1   6  591.70   15.77
  -4   1   6  551.05   14.34
   4  -1  -6  576.22   15.79
  -4   1   6  597.41   20.04
  -4   1   6  568.82   17.17
   4  -1  -6  515.67   14.34
  -4   1   6  574.11   16.50
  -4   1   5  134.34    5.12
   4  -1  -5  124.85    4.93
  -4   1   5  137.29    8.12
  -4   1   5  128.24    5.71
   4  -1  -5  107.87    3.67
   4  -1  -5  105.65   10.59
  -4   1   5  126.97    5.61
  -4   1   4    0.38    0.36
   4  -1  -4    0.01    0.04
  -4   1   4    0.25    0.92
   4  -1  -4   -0.32    0.37
   4  -1  -4    0.09    0.09
  -4   1   4   -0.18    0.44
   4  -1  -4    0.02    0.08
  -4   1   4   -0.11    0.36
   4  -1  -3   72.41    2.31
   4  -1  -3   84.92    2.70
  -4   1   3   90.89    7.09
   4  -1  -3   89.02    3.75
  -4   1   3   82.33    3.83
  -4   1   3   85.16    4.54
  -4   1   3   86.63    3.90
  -4   1   3   95.02    4.56
  -4   1   2    0.93    0.71
  -4   1   2    0.14    0.37
   4  -1  -2    0.18    0.27
  -4   1   2   -0.83    1.06
   4  -1  -2    0.15    0.18
   4  -1  -2    0.63    0.43
  -4   1   2    0.55    0.41
   4  -1  -2    0.09    0.08
  -4   1   2   -0.63    0.61
   4  -1  -2    0.20    0.10
  -4   1   1   65.96    3.59
   4  -1  -1   69.73    3.24
  -4   1   1   63.36    2.84
  -4   1   1   62.21    6.22
   4  -1  -1   68.21    3.64
   4  -1  -1   66.08    2.32
  -4   1   1   63.44    4.25
  -4   1   1   72.13    4.09
  -4   1   0    9.22    1.49
  -4   1   0   10.40    1.33
  -4   1   0    8.26    0.79
   4  -1   0   10.23    1.26
  -4   1   0   11.48    0.95
  -4   1   0   16.49    3.60
   4  -1   0   10.44    0.87
  -4   1   0    9.77    1.60
  -4   1  -1 4653.17  111.80
  -4   1  -1 4436.60  109.00
   4  -1   1 4867.79  111.82
  -4   1  -1 4959.80  121.55
  -4   1  -1 4823.68  110.33
   4  -1   1 4684.17  109.87
   4  -1   1 5017.50  114.34
  -4   1  -1 4939.81  113.27
  -4   1  -2  183.61    7.21
   4  -1   2  197.23    7.55
  -4   1  -2  189.17   11.99
  -4   1  -2  193.23    6.62
   4  -1   2  158.09    5.01
   4  -1   2  193.39    6.18
   4  -1   2  204.87    8.78
  -4   1  -2  196.23    8.33
  -4   1  -3   37.61    2.91
   4  -1   3   37.26    2.38
   4  -1   3   38.23    3.05
  -4   1  -3   35.11    2.61
  -4   1  -3   33.59    5.07
   4  -1   3   38.92    3.55
   4  -1   3   32.79    2.42
  -4   1  -3   37.66    3.56
  -4   1  -4   21.50    2.96
   4  -1   4   21.89    2.42
  -4   1  -4   20.48    2.10
  -4   1  -4   25.11    4.54
   4  -1   4   22.61    1.96
   4  -1   4   21.04    2.66
  -4   1  -4   19.31    1.76
   4  -1   4   21.60    1.76
   4  -1   5   41.15    3.52
  -4   1  -5   39.85    4.12
  -4   1  -5   42.90    3.31
   4  -1   5   34.55    1.57
  -4   1  -5   46.02    5.78
  -4   1  -5   42.53    2.82
   4  -1   5   45.08    3.00
   4  -1   5   43.23    3.86
   4  -1   5   40.27    2.31
   4  -1   6    1.87    0.45
  -4   1  -6    2.19    0.61
  -4   1  -6    1.25    1.12
   4  -1   6    2.07    1.05
  -4   1  -6    2.62    2.07
  -4   1  -6    3.23    1.19
   4  -1   6    1.56    0.35
   4  -1   6    2.54    1.12
   4  -1   6    2.91    0.85
   4  -1   7   15.37    2.31
  -4   1  -7   19.38    4.45
  -4   1  -7   12.71    2.57
  -4   1  -7   11.82    2.03
   4  -1   7   14.64    1.95
   4  -1   7   14.25    2.36
  -4   1  -7   13.09    1.53
   4  -1   8  157.13    8.46
  -4   1  -8  151.17   12.00
  -4   1  -8  156.96    8.09
  -4   1  -8  146.95    6.20
   4  -1   8  156.97    7.31
  -4   1  -8  151.96    9.88
  -4   1  -9    9.04    1.32
  -4   1  -9    7.93    2.22
   4  -1   9   11.51    2.17
  -4   1  -9   10.26    2.00
   4  -1   9    9.86    1.78
  -4   1 -10    0.53    1.23
   4  -1  10    0.92    0.62
  -4   1 -10    0.72    0.65
   4  -1  10    1.05    0.83
  -4   1 -10    0.46    0.48
  -4   1 -11    7.57    2.39
   4  -1  11   11.42    2.31
  -4   1 -11   10.75    2.16
   4  -1  11   12.19    2.15
  -4   1 -12    2.61    1.95
   4  -1  12    0.32    1.10
  -4   1 -12    0.18    0.69
   4  -1  12   -0.80    0.89
  -4   1 -13    6.37    2.42
   4  -1  13    7.00    2.12
  -4   1 -13    5.92    1.92
   4  -1  13    7.69    1.94
  -4   1 -14    4.40    2.38
   4  -1  14    4.19    1.62
  -4   1 -14    6.27    2.14
   4  -1  14    5.50    1.59
  -4   1 -15    4.91    2.53
   4  -1  15    7.07    2.02
  -4   1 -15    5.82    1.99
   4  -1  15    7.60    1.96
  -4   1 -16    1.08    1.59
   4  -1  16    9.36    2.74
  -4   1 -16    3.38    1.38
   4  -1  16    2.10    1.25
  -4   1 -17    1.65    2.00
  -4   0  20    0.00    0.51
   4   0 -20   -0.26    2.67
  -4   0  19   41.00    5.50
  -4   0  19   38.11    4.41
   4   0 -19   29.36    7.67
   4   0 -18   42.02    9.63
  -4   0  18   47.25    5.70
  -4   0  18   43.40    4.51
   4   0 -17   19.47    6.87
  -4   0  17   21.00    3.59
  -4   0  17   23.71    2.91
  -4   0  17   21.08    2.92
   4   0 -16    9.17    3.78
  -4   0  16   18.55    3.28
  -4   0  16   13.64    2.49
  -4   0  16   15.20    2.17
   4   0 -15    4.84    4.87
  -4   0  15    0.72    0.91
   4   0 -15    1.92    1.15
  -4   0  15    0.79    0.58
  -4   0  15    1.46    0.72
   4   0 -14    7.40    3.40
  -4   0  14   12.11    2.63
   4   0 -14    7.86    1.68
  -4   0  14   10.25    1.61
  -4   0  14   11.59    2.04
   4   0 -13    2.91    2.96
  -4   0  13    1.27    1.27
   4   0 -13    0.64    0.58
  -4   0  13    0.67    0.30
  -4   0  13    0.39    0.71
   4   0 -12   26.83    7.05
   4   0 -12   26.13    2.81
  -4   0  12   29.21    3.61
  -4   0  12   26.06    2.37
  -4   0  12   32.21    3.12
   4   0 -11   30.36    6.98
   4   0 -11   36.10    3.19
  -4   0  11   38.89    4.08
  -4   0  11   41.21    2.86
  -4   0  11   43.94    3.56
   4   0 -10    6.27    3.82
   4   0 -10    5.97    1.28
   4   0 -10    4.34    0.88
  -4   0  10    6.14    1.54
  -4   0  10    4.88    0.90
  -4   0  10    5.26    1.21
  -4   0   9   44.34    2.29
   4   0  -9   34.85    7.12
   4   0  -9   38.54    3.25
  -4   0   9   39.23    3.83
  -4   0   9   39.11    3.18
   4   0  -9   37.06    2.96
  -4   0   9   38.31    3.69
  -4   0   9   39.74    2.44
  -4   0   8   24.23    1.67
   4   0  -8   23.77    6.36
   4   0  -8   25.29    2.49
   4   0  -8   24.97    2.17
  -4   0   8   23.34    2.67
  -4   0   8   23.14    3.21
  -4   0   8   23.07    1.63
  -4   0   8   25.74    2.49
  -4   0   7    6.44    0.79
   4   0  -7    4.34    2.48
   4   0  -7    6.74    1.18
  -4   0   7    9.94    2.34
   4   0  -7    4.77    0.93
  -4   0   7    6.34    0.71
  -4   0   7    5.75    1.13
  -4   0   7    5.85    1.43
  -4   0   6  143.22    4.83
   4   0  -6  132.71    5.76
  -4   0   6  136.19    8.83
  -4   0   6  129.28    6.32
   4   0  -6  120.91    4.94
  -4   0   6  123.42    3.96
   4   0  -6  120.14   12.41
  -4   0   6  140.66    6.08
  -4   0   5    1.54    0.53
   4   0  -5    1.81    0.74
  -4   0   5    2.29    2.02
  -4   0   5    1.12    0.53
  -4   0   5    0.95    0.19
  -4   0   5    1.13    0.54
  -4   0   4   57.68    2.95
   4   0  -4   55.89    1.88
   4   0  -4   60.29    3.44
  -4   0   4   52.70    5.75
  -4   0   4   56.44    3.46
  -4   0   4   61.51    3.75
  -4   0   4   66.91    3.88
  -4   0   3   22.80    1.82
   4   0  -3   21.90    1.25
   4   0  -3   23.80    2.10
  -4   0   3   24.87    2.06
  -4   0   3   23.16    4.17
   4   0  -3   24.19    2.58
  -4   0   3   23.63    2.34
  -4   0   3   26.95    2.43
   4   0  -2   45.16    2.24
   4   0  -2   46.02    3.09
  -4   0   2   42.07    2.47
  -4   0   2   42.09    5.56
   4   0  -2   47.64    3.76
  -4   0   2   44.99    3.35
  -4   0   2   47.48    2.79
  -4   0   2   46.77    3.36
   4   0  -1  154.13    7.21
  -4   0   1  149.23    5.71
   4   0  -1  147.65    5.19
  -4   0   1  142.30    6.69
  -4   0   1  140.15   10.14
  -4   0   1  115.92    4.55
   4   0  -1  147.81    6.29
  -4   0   1  149.86    6.66
  -4   0   0    1.65    0.86
  -4   0   0    2.53    0.73
   4   0   0    2.20    0.64
   4   0   0    1.15    0.73
  -4   0   0    0.86    0.25
  -4   0   0    1.37    1.78
   4   0   0    0.95    0.60
   4   0   0    1.52    0.33
  -4   0   0    0.84    0.70
   4   0   1  233.34    7.08
   4   0   1  244.31    8.52
  -4   0  -1  221.66   13.62
  -4   0  -1  271.01    7.77
  -4   0  -1  219.04    9.70
   4   0   1  255.21   10.27
  -4   0  -1  226.44    9.76
  -4   0  -2   13.07    2.18
   4   0   2   12.59    1.58
  -4   0  -2   14.56    1.45
  -4   0  -2    9.52    2.46
   4   0   2   12.73    2.02
   4   0   2   13.23    1.24
  -4   0  -3   -0.42    0.70
   4   0   3    0.42    0.56
  -4   0  -3   -0.10    0.30
   4   0   3    0.23    0.33
   4   0   3   -0.30    0.62
   4   0   4    3.36    0.73
  -4   0  -4    3.86    1.56
   4   0   4    4.49    1.13
  -4   0  -4    4.32    1.02
  -4   0  -4    5.81    2.47
   4   0   4    7.73    1.82
   4   0   4    4.40    0.90
  -4   0  -5   14.74    2.66
   4   0   5   16.96    1.84
   4   0   5   15.77    2.15
  -4   0  -5   17.55    1.99
  -4   0  -5   16.59    3.74
   4   0   5   18.77    2.49
   4   0   5   12.83    1.18
  -4   0  -6    0.23    1.29
   4   0   6    0.42    0.47
  -4   0  -6    0.68    0.44
  -4   0  -6    0.89    1.23
   4   0   6    1.16    0.62
  -4   0  -7    1.47    1.17
   4   0   7    2.57    0.85
  -4   0  -7    3.14    0.85
  -4   0  -7    3.86    2.31
   4   0   7    4.63    1.10
   4   0   8   73.29    4.73
   4   0   8   75.94    5.60
  -4   0  -8   62.51    7.89
  -4   0  -8   69.96    4.93
  -4   0  -8   64.72    6.66
  -4   0  -9    1.47    1.44
   4   0   9    3.23    1.28
  -4   0  -9    4.68    2.90
  -4   0  -9    5.34    1.52
   4   0   9    3.38    0.93
  -4   0 -10    0.75    1.30
   4   0  10    2.43    1.28
  -4   0 -10    1.71    1.99
   4   0  10    1.38    0.96
  -4   0 -10    1.67    0.94
  -4   0 -11   -1.39    1.94
   4   0  11   -0.07    0.80
  -4   0 -11   -0.32    1.65
  -4   0 -11   -0.07    0.66
   4   0  11    1.32    0.90
  -4   0 -12   30.80    5.61
   4   0  12   41.19    4.66
  -4   0 -12   38.15    4.17
   4   0  12   34.48    3.90
  -4   0 -13    2.27    2.40
   4   0  13    3.43    1.63
  -4   0 -13    0.30    0.81
   4   0  13    4.19    1.33
  -4   0 -14    3.15    2.01
   4   0  14    3.52    1.41
  -4   0 -14    1.87    1.18
   4   0  14    2.94    1.35
  -4   0 -15    7.46    2.71
   4   0  15    9.52    2.42
  -4   0 -15    6.96    1.88
   4   0  15    5.99    1.56
  -4   0 -16    7.76    3.20
   4   0  16    0.26    0.65
   4   1 -20   14.92    5.71
   4   1 -19   20.90    7.03
  -4  -1  19   33.00    4.97
  -4  -1  19   29.08    3.80
   4   1 -18   34.67    9.04
  -4  -1  18   41.56    5.46
  -4  -1  18   33.37    4.13
  -4  -1  17   11.65    2.17
   4   1 -17   16.84    5.73
  -4  -1  17   15.96    3.40
  -4  -1  16   -0.73    0.92
  -4  -1  16   -1.27    1.11
   4   1 -15   22.30    7.46
   4   1 -15   16.65    2.66
  -4  -1  15   18.29    2.34
  -4  -1  15   19.04    3.31
  -4  -1  15   17.04    2.58
  -4  -1  14   -0.76    1.08
   4   1 -14    1.84    2.92
   4   1 -14    0.05    0.79
  -4  -1  14    1.19    0.79
  -4  -1  14   -0.47    0.83
   4   1 -13   47.62    9.53
   4   1 -13   53.31    4.58
  -4  -1  13   59.65    5.57
  -4  -1  13   56.40    3.81
  -4  -1  13   59.37    4.65
  -4  -1  12    1.75    1.20
   4   1 -12    5.30    3.30
   4   1 -12    1.49    1.13
   4   1 -12    2.07    0.70
  -4  -1  12    2.50    0.65
  -4  -1  12    2.59    1.06
  -4  -1  11   83.98    4.33
   4   1 -11   78.11   11.61
   4   1 -11   95.77    5.93
   4   1 -11   90.40    5.56
  -4  -1  11   95.95    6.61
  -4  -1  11   92.16    5.57
  -4  -1  10  207.45    7.31
   4   1 -10  212.94    9.30
  -4  -1  10  196.66   10.53
   4   1 -10  204.51    8.76
  -4  -1  10  201.06    9.93
   4   1 -10  184.45   17.06
  -4  -1  10  213.94    9.01
  -4  -1   9   14.29    2.98
  -4  -1   9   14.87    1.43
   4   1  -9   18.04    6.09
  -4  -1   9   18.61    2.70
   4   1  -9   16.73    2.18
   4   1  -9   15.68    2.02
   4   1  -9   18.09    1.88
  -4  -1   9   13.97    1.93
   4   1  -8   22.22    2.20
  -4  -1   8   22.71    1.61
   4   1  -8   24.49    2.53
   4   1  -8   14.72    4.67
   4   1  -8   22.46    2.24
  -4  -1   8   22.80    2.76
  -4  -1   8   21.80    3.70
  -4  -1   8   25.00    2.53
  -4  -1   7   11.51    2.95
   4   1  -7   10.42    1.68
  -4  -1   7   11.30    1.81
   4   1  -7    9.86    1.39
   4   1  -7   11.98    1.64
  -4  -1   7    9.13    0.87
  -4  -1   7   10.68    1.61
   4   1  -6   -0.08    0.41
  -4  -1   6    0.50    0.55
  -4  -1   6    0.72    1.19
   4   1  -6   -0.14    0.45
  -4  -1   6   -0.13    0.15
  -4  -1   6    0.27    0.48
   4   1  -5   36.33    2.87
  -4  -1   5   30.47    2.70
  -4  -1   5   32.50    5.09
   4   1  -5   36.28    2.97
  -4  -1   5   29.72    2.56
  -4  -1   4   59.21    3.80
   4   1  -4   56.45    2.37
   4   1  -4   57.72    3.72
  -4  -1   4   55.63    6.74
   4   1  -4   58.84    4.01
  -4  -1   4   50.69    3.42
  -4  -1   4   60.67    3.82
   4   1  -3  195.80    8.54
   4   1  -3  212.09    6.40
   4   1  -3  226.32    8.39
  -4  -1   3  213.35   13.48
  -4  -1   3  182.45    7.33
  -4  -1   3  205.83    8.25
  -4  -1   3  215.96    8.38
  -4  -1   2   25.77    2.50
   4   1  -2   27.54    1.80
   4   1  -2   26.58    2.51
  -4  -1   2   22.07    1.82
  -4  -1   2   25.33    4.68
   4   1  -2   29.19    2.85
  -4  -1   2   25.14    2.49
   4   1  -1   41.79    2.44
   4   1  -1   45.81    3.46
  -4  -1   1   34.17    2.07
  -4  -1   1   40.35    3.28
  -4  -1   1   37.22    5.76
   4   1  -1   41.25    3.47
  -4  -1   1   41.98    3.35
   4   1   0   37.83    2.52
   4   1   0   35.89    3.17
  -4  -1   0   31.51    1.67
  -4  -1   0   37.15    3.27
  -4  -1   0   32.39    5.33
   4   1   0   35.33    3.30
  -4  -1   0   32.86    3.23
   4   1   1   35.34    2.67
   4   1   1   39.37    3.47
   4   1   1   36.07    1.98
   4   1   1   39.11    3.55
  -4  -1  -1   36.00    3.29
  -4  -1  -1   32.80    5.34
  -4  -1  -1   32.36    3.31
   4   1   2    0.48    0.39
  -4  -1  -2    0.21    0.66
   4   1   2   -0.29    0.56
  -4  -1  -2    0.19    1.53
   4   1   2    0.47    0.54
  -4  -1  -2    0.53    0.86
  -4  -1  -3    2.83    1.02
   4   1   3    5.11    0.85
   4   1   3    6.26    1.21
  -4  -1  -3    6.01    1.03
  -4  -1  -3    4.08    1.94
  -4  -1  -4    2.03    1.35
   4   1   4    3.99    1.23
  -4  -1  -4    2.60    0.74
  -4  -1  -4    3.02    1.96
   4   1   4    3.27    0.79
  -4  -1  -5   25.48    3.60
   4   1   5   23.65    2.68
  -4  -1  -5   26.86    2.49
  -4  -1  -5   26.15    5.01
   4   1   5   26.63    2.40
  -4  -1  -6   58.70    5.94
   4   1   6   59.48    4.55
  -4  -1  -6   59.23    7.63
  -4  -1  -6   66.24    4.32
   4   1   6   66.98    4.13
  -4  -1  -7   11.07    3.24
   4   1   7    7.45    1.71
  -4  -1  -7    7.07    1.30
  -4  -1  -7    5.82    2.72
   4   1   7    8.70    1.54
  -4  -1  -8    2.17    1.63
   4   1   8    3.03    1.37
  -4  -1  -8    1.41    0.96
  -4  -1  -8   -1.06    2.36
   4   1   8    1.32    0.76
  -4  -1  -9    2.54    1.26
   4   1   9    0.31    0.91
  -4  -1  -9    1.55    0.76
  -4  -1  -9    1.73    1.96
   4   1   9    0.63    0.58
  -4  -1 -10   16.94    4.01
   4   1  10   17.03    2.82
  -4  -1 -10   18.77    2.72
  -4  -1 -10   14.28    4.06
   4   1  10   19.81    2.64
  -4  -1 -11   40.52    6.49
   4   1  11   45.37    4.74
  -4  -1 -11   39.68    4.09
  -4  -1 -11   39.69    6.65
   4   1  11   43.04    4.15
  -4  -1 -12    1.58    1.98
   4   1  12    5.31    1.83
  -4  -1 -12    0.32    1.19
  -4  -1 -12    4.15    1.41
   4   1  12    5.49    1.63
  -4  -1 -13   10.00    3.09
   4   1  13    8.38    1.92
  -4  -1 -13   11.42    2.32
   4   1  13   12.04    2.34
  -4  -1 -14    0.39    1.57
   4   1  14    0.36    0.74
  -4  -1 -14    0.60    0.77
   4   1  14    1.76    1.04
  -4  -1 -15    2.82    2.40
   4   1  15    1.30    0.73
  -4  -1 -15    1.46    0.53
   4   1  15    5.13    1.67
   4   2 -19   -4.01    3.38
  -4  -2  19   -1.09    1.06
  -4  -2  18   15.84    3.52
   4   2 -18    5.21    2.68
  -4  -2  18   12.42    2.52
   4   2 -17   14.90    6.52
  -4  -2  17   24.93    4.32
  -4  -2  17   19.68    3.00
   4   2 -16   -1.25    3.77
   4   2 -16    4.03    1.50
  -4  -2  16    5.87    1.46
  -4  -2  16    3.83    1.67
  -4  -2  15    9.43    2.44
   4   2 -15    6.77    1.74
   4   2 -15    8.54    4.76
  -4  -2  15    8.19    1.95
   4   2 -14   -2.23    4.01
  -4  -2  14   -0.58    1.43
   4   2 -14   -0.32    0.74
  -4  -2  14    0.27    0.70
   4   2 -13    2.83    3.55
  -4  -2  13   -0.86    1.24
   4   2 -13    2.14    1.22
   4   2 -13   -1.52    1.07
  -4  -2  13    0.18    0.35
  -4  -2  13    1.14    0.89
   4   2 -12    0.45    3.18
   4   2 -12    4.93    1.52
  -4  -2  12    6.27    1.83
   4   2 -12    4.46    1.28
  -4  -2  12    3.99    0.96
  -4  -2  12    4.78    1.34
   4   2 -11  161.35   16.96
  -4  -2  11  180.35    7.05
   4   2 -11  186.82    9.28
   4   2 -11  184.37    8.88
  -4  -2  11  169.93    9.67
  -4  -2  11  206.58    9.11
  -4  -2  10   47.39    2.92
   4   2 -10   46.99    8.44
   4   2 -10   52.31    4.35
  -4  -2  10   43.35    5.72
   4   2 -10   50.40    4.07
  -4  -2  10   42.13    4.31
  -4  -2  10   53.86    4.15
  -4  -2   9   59.04    3.12
   4   2  -9   61.55    4.62
  -4  -2   9   69.35    7.45
   4   2  -9   61.35    4.37
  -4  -2   9   57.78    4.89
  -4  -2   9   65.46    4.46
   4   2  -8   -0.46    0.69
   4   2  -8    2.24    0.92
  -4  -2   8    1.02    0.35
  -4  -2   8    1.72    0.96
  -4  -2   8    4.29    3.11
  -4  -2   8    0.10    0.46
   4   2  -7   61.91    4.36
  -4  -2   7   72.00    8.02
  -4  -2   7   58.72    4.48
  -4  -2   7   53.49    2.52
  -4  -2   7   61.08    4.14
   4   2  -6   33.71    2.85
  -4  -2   6   35.59    5.57
   4   2  -6   32.20    3.04
  -4  -2   6   33.04    3.16
  -4  -2   6   28.44    1.56
  -4  -2   6   34.85    2.98
  -4  -2   5    3.08    0.96
  -4  -2   5    3.62    1.03
  -4  -2   5    3.63    0.89
   4   2  -5    5.01    1.32
   4   2  -5    3.07    0.87
  -4  -2   5    5.79    2.80
  -4  -2   5    2.99    0.41
   4   2  -4  176.44    7.74
   4   2  -4  181.74    5.93
   4   2  -4  186.09    7.96
  -4  -2   4  202.84   14.31
  -4  -2   4  156.97    7.10
  -4  -2   4  162.24    4.75
  -4  -2   4  179.96    7.57
  -4  -2   4  187.01    7.58
   4   2  -3   82.08    3.67
   4   2  -3   81.88    4.94
  -4  -2   3   98.50    9.96
  -4  -2   3   82.17    4.77
  -4  -2   3   77.97    4.79
   4   2  -2  133.47    5.19
   4   2  -2  128.89    6.59
  -4  -2   2  132.09   11.80
  -4  -2   2  126.45    6.31
  -4  -2   2  125.70    6.49
   4   2  -1   95.76    4.35
   4   2  -1   94.04    5.57
  -4  -2   1   97.55    9.96
  -4  -2   1   82.93    5.14
  -4  -2   1   85.60    5.44
  -4  -2   0    6.47    1.50
  -4  -2   0    6.81    1.54
   4   2   0    7.74    1.19
   4   2   0    7.29    1.35
  -4  -2   0   10.97    3.67
  -4  -2  -1   54.49    7.72
   4   2   1   65.32    3.78
   4   2   1   61.00    4.58
  -4  -2  -1   60.87    4.88
  -4  -2  -1   45.24    2.18
  -4  -2  -1   53.79    4.16
  -4  -2  -2    8.87    2.23
   4   2   2    8.48    1.37
  -4  -2  -2    4.88    2.54
   4   2   2    7.66    1.04
   4   2   2    7.60    1.64
  -4  -2  -2    8.04    1.77
  -4  -2  -3    7.91    2.02
   4   2   3    5.77    1.31
  -4  -2  -3    5.43    3.35
   4   2   3    4.01    0.85
   4   2   4  113.28    6.17
  -4  -2  -4  101.95   11.08
   4   2   4  112.77    5.22
  -4  -2  -4  103.76    7.79
  -4  -2  -5   10.30    2.43
   4   2   5    9.23    1.65
  -4  -2  -5    7.73    3.82
   4   2   5   10.76    1.52
  -4  -2  -6    0.92    1.01
   4   2   6    0.46    0.51
  -4  -2  -6    2.38    1.73
  -4  -2  -6    1.01    0.65
   4   2   6    0.48    0.49
  -4  -2  -7   -2.14    1.80
   4   2   7    1.29    0.84
   4   2   7   -0.36    0.60
  -4  -2  -7    1.29    0.80
  -4  -2  -7    0.02    2.42
  -4  -2  -8   -0.23    2.18
   4   2   8    2.67    1.16
  -4  -2  -8    4.44    1.22
  -4  -2  -8    0.23    1.43
   4   2   8    3.53    0.99
  -4  -2  -9    5.13    2.67
   4   2   9    1.44    1.22
  -4  -2  -9    0.98    0.71
  -4  -2  -9    1.22    1.92
   4   2   9    1.83    0.76
  -4  -2 -10   21.80    4.56
   4   2  10   29.99    3.79
  -4  -2 -10   26.94    3.15
  -4  -2 -10   26.56    5.41
   4   2  10   28.85    3.27
   4   2  11  126.72    8.46
  -4  -2 -11  115.02   12.13
  -4  -2 -11  137.33    7.93
   4   2  11  127.97    7.66
  -4  -2 -11  111.34   10.94
  -4  -2 -12    2.78    2.09
   4   2  12    8.18    2.00
  -4  -2 -12    7.10    1.60
   4   2  12    4.43    1.44
  -4  -2 -13   -1.17    1.41
   4   2  13   -0.97    1.08
  -4  -2 -13   -0.40    0.77
   4   2  13    0.13    0.82
  -4  -2 -14    1.07    1.92
   4   2  14    3.88    1.47
  -4  -2 -14    8.84    2.12
   4   2  14    8.18    2.01
   4   2  15    2.25    1.62
  -4  -3  18    1.75    0.83
  -4  -3  18   -0.76    0.88
   4   3 -17    2.94    2.84
  -4  -3  17    2.43    1.12
  -4  -3  17    1.98    1.16
   4   3 -16   17.59    6.27
  -4  -3  16   20.94    3.86
   4   3 -16   19.69    3.27
  -4  -3  16   19.47    3.16
   4   3 -15   -0.24    2.67
  -4  -3  15   -0.30    1.28
   4   3 -15    0.25    0.92
  -4  -3  15    1.32    1.03
   4   3 -14   24.48    7.39
   4   3 -14   27.79    3.82
   4   3 -14   23.71    3.44
  -4  -3  14   26.68    4.11
  -4  -3  14   24.46    3.25
  -4  -3  13    2.01    1.02
   4   3 -13   -2.59    2.99
   4   3 -13    1.18    1.02
   4   3 -13    2.89    1.09
  -4  -3  13    1.64    0.89
   4   3 -12    2.15    4.21
  -4  -3  12    1.41    1.16
   4   3 -12   -0.69    1.34
   4   3 -12    1.32    0.95
  -4  -3  12    3.22    1.22
   4   3 -11   -0.44    2.64
   4   3 -11   -0.14    0.64
   4   3 -11   -1.45    1.27
  -4  -3  11   -0.22    0.93
  -4  -3  11   -0.61    0.94
  -4  -3  10    7.45    2.02
   4   3 -10    3.79    1.27
   4   3 -10    3.47    1.21
  -4  -3  10    6.20    1.40
  -4  -3  10    6.43    2.51
   4   3  -9  246.58   10.88
  -4  -3   9  297.95   18.22
   4   3  -9  227.50   10.28
  -4  -3   9  227.82   11.11
  -4  -3   9  243.00   10.20
   4   3  -8  102.47    6.36
  -4  -3   8  135.82   12.03
  -4  -3   8   93.63    6.36
  -4  -3   8   96.22    4.19
  -4  -3   8  109.74    6.05
   4   3  -7   33.49    3.42
  -4  -3   7   29.83    1.99
  -4  -3   7   35.88    3.18
  -4  -3   7   36.30    6.03
  -4  -3   6    4.03    1.04
   4   3  -6    5.86    1.48
  -4  -3   6    4.39    2.10
  -4  -3   6    5.07    0.72
  -4  -3   5    5.65    1.20
  -4  -3   5    7.76    1.41
   4   3  -5    6.49    1.59
  -4  -3   5    5.87    3.29
  -4  -3   5    5.54    0.70
  -4  -3   4    2.75    0.85
   4   3  -4    4.62    0.86
   4   3  -4    4.70    1.15
  -4  -3   4    3.75    1.06
  -4  -3   4    8.98    3.90
  -4  -3   3    0.63    0.52
   4   3  -3    0.49    0.35
   4   3  -3    2.13    1.06
  -4  -3   3    0.65    0.67
  -4  -3   3    4.21    2.95
  -4  -3   2    3.91    1.17
   4   3  -2    3.14    0.79
   4   3  -2    3.28    1.24
  -4  -3   2    6.58    3.43
  -4  -3   2    2.19    0.79
  -4  -3   1    7.79    1.62
   4   3  -1   10.68    1.50
   4   3  -1    8.04    1.78
  -4  -3   1    8.43    1.60
  -4  -3   1    7.22    2.78
  -4  -3   0    2.96    1.37
   4   3   0    2.93    0.81
   4   3   0    2.22    1.02
  -4  -3   0    2.67    0.79
  -4  -3   0    4.74    2.91
   4   3   1   35.04    2.93
   4   3   1   39.96    3.91
  -4  -3  -1   32.36    6.35
  -4  -3  -1   30.03    3.20
  -4  -3  -1   33.57    3.83
  -4  -3  -2   12.04    2.60
   4   3   2   10.60    1.73
   4   3   2    9.54    2.05
  -4  -3  -2   11.32    2.01
  -4  -3  -2   19.18    5.22
   4   3   3   39.45    3.45
   4   3   3   38.92    4.15
  -4  -3  -3   42.82    7.23
  -4  -3  -3   35.81    4.31
   4   3   4   60.74    4.55
   4   3   4   59.10    5.31
   4   3   4   56.35    3.62
  -4  -3  -4   36.26    7.00
  -4  -3  -4   49.04    5.43
  -4  -3  -5    5.78    1.98
   4   3   5    7.79    1.62
  -4  -3  -5    6.06    2.97
   4   3   5    8.64    1.45
   4   3   6    2.77    1.10
  -4  -3  -6    0.90    1.03
   4   3   6    2.14    0.82
  -4  -3  -6    6.29    3.91
  -4  -3  -7    8.83    2.68
   4   3   7    8.60    1.97
  -4  -3  -7    0.64    1.46
   4   3   7    6.34    1.38
  -4  -3  -8   13.51    3.30
   4   3   8   19.44    2.89
  -4  -3  -8   19.26    5.63
   4   3   8   19.82    2.63
   4   3   9    5.39    1.65
  -4  -3  -9    4.29    2.58
   4   3   9    8.09    1.83
  -4  -3  -9    3.50    1.57
   4   3  10  131.73    8.46
  -4  -3 -10  102.57   11.94
   4   3  10  124.26    7.47
  -4  -3 -10  113.02   10.93
  -4  -3 -11   20.41    4.87
   4   3  11   22.79    3.49
  -4  -3 -11   17.00    4.61
   4   3  11   23.53    3.19
  -4  -3 -12    1.44    1.65
   4   3  12    1.84    1.53
   4   3  12   -1.51    0.98
  -4  -3 -13    0.18    2.12
   4   3  13   -0.87    1.38
   4   3  13    1.08    1.12
   4   3  14    1.71    1.16
   4   4 -17    0.02    3.12
  -4  -4  17   -1.42    1.33
   4   4 -17   -1.52    1.34
  -4  -4  17   -0.58    0.97
   4   4 -16   21.55    7.28
   4   4 -16   25.87    3.94
  -4  -4  16   30.02    3.92
  -4  -4  16   26.50    4.51
   4   4 -15   10.23    6.17
   4   4 -15    6.28    1.97
   4   4 -15    5.85    2.13
  -4  -4  15    4.58    1.62
  -4  -4  15    3.40    1.82
   4   4 -14   35.66    9.11
   4   4 -14   36.13    4.45
   4   4 -14   34.75    4.33
  -4  -4  14   38.16    5.04
  -4  -4  14   40.66    4.40
   4   4 -13   -1.33    2.26
   4   4 -13    0.81    0.75
   4   4 -13    1.08    1.14
  -4  -4  13   -0.20    0.79
  -4  -4  13    0.97    0.72
   4   4 -12   -1.92    2.45
  -4  -4  12    0.20    0.71
   4   4 -12    1.24    0.85
   4   4 -12    1.39    0.78
  -4  -4  12    0.62    0.63
   4   4 -11   34.90    4.08
   4   4 -11   26.13    3.50
  -4  -4  11   35.30    4.35
  -4  -4  11   41.11    4.01
   4   4 -10    1.63    0.84
   4   4 -10    2.34    1.12
  -4  -4  10    4.95    1.80
  -4  -4  10    0.90    0.53
  -4  -4  10    3.42    2.26
   4   4  -9    1.40    0.96
   4   4  -9    0.81    0.85
  -4  -4   9    0.96    1.83
  -4  -4   9    0.59    0.76
   4   4  -8    3.26    1.28
  -4  -4   8    4.99    1.46
  -4  -4   8    2.92    2.42
   4   4  -7    1.75    1.02
  -4  -4   7    1.94    0.81
  -4  -4   7   -0.66    1.65
  -4  -4   6    5.51    1.27
   4   4  -6    4.37    1.30
  -4  -4   6   12.27    4.41
  -4  -4   6    4.25    1.07
  -4  -4   5    4.29    1.06
   4   4  -5    7.17    1.77
  -4  -4   5    6.03    2.93
  -4  -4   5    3.71    1.16
  -4  -4   4    3.43    1.20
   4   4  -4    4.32    1.06
   4   4  -4    3.37    1.31
  -4  -4   4    4.69    1.38
  -4  -4   4   -0.07    1.91
  -4  -4   3    6.36    1.37
  -4  -4   3    7.01    1.47
   4   4  -3    8.91    1.37
   4   4  -3    6.66    1.60
  -4  -4   3   11.69    4.18
  -4  -4   2    2.70    1.21
   4   4  -2    2.68    0.85
   4   4  -2    4.66    1.43
  -4  -4   2    2.92    0.95
  -4  -4   2    1.24    2.52
  -4  -4   1    4.94    1.44
   4   4  -1    7.25    1.38
   4   4  -1    6.13    1.73
  -4  -4   1    6.73    1.51
  -4  -4   1    6.41    3.58
  -4  -4   0    1.80    0.85
   4   4   0    2.34    0.98
   4   4   0    2.68    1.32
  -4  -4   0    2.35    1.01
  -4  -4   0   10.77    5.26
  -4  -4  -1   -0.75    1.18
   4   4   1    0.71    0.43
   4   4   1    0.40    0.69
  -4  -4  -1    0.78    0.74
  -4  -4  -1    1.57    1.86
  -4  -4  -2    6.88    2.03
   4   4   2    9.17    1.70
   4   4   2    6.98    1.75
  -4  -4  -2    8.75    1.86
  -4  -4  -2    4.54    2.47
   4   4   3   58.37    4.43
   4   4   3   66.32    5.73
  -4  -4  -3   58.51    9.29
  -4  -4  -3   53.02    5.63
  -4  -4  -4   27.41    4.36
   4   4   4   30.42    3.19
   4   4   4   34.72    4.25
  -4  -4  -4   26.81    6.73
  -4  -4  -5    1.79    1.21
   4   4   5    3.87    1.49
   4   4   5    4.63    1.85
  -4  -4  -5    3.92    2.08
   4   4   6   -2.16    1.64
  -4  -4  -6    1.42    1.59
   4   4   6   -0.81    0.81
  -4  -4  -6    0.30    1.73
   4   4   6   -0.87    0.70
  -4  -4  -7    0.03    1.58
   4   4   7    3.77    1.46
  -4  -4  -7   -0.03    2.72
   4   4   7    2.72    1.00
   4   4   7    1.23    0.95
  -4  -4  -8   42.09    6.16
   4   4   8   55.73    5.16
   4   4   8   45.60    4.15
  -4  -4  -8   34.06    7.35
  -4  -4  -9   12.55    3.62
  -4  -4  -9   15.84    5.45
   4   4   9   17.85    3.09
   4   4   9   16.20    2.46
   4   4  10   61.56    5.72
  -4  -4 -10   45.04    8.38
   4   4  10   60.65    5.23
  -4  -4 -10   62.48    8.27
  -4  -4 -11   -2.36    2.39
   4   4  11    2.46    1.42
   4   4  11    2.68    1.09
  -4  -4 -12    3.13    1.17
   4   4  12   -0.12    0.88
   4   4  12    3.61    1.38
   4   4  13    0.83    0.98
   4   5 -17    1.44    0.86
  -4  -5  16   17.46    3.47
   4   5 -16    9.84    4.76
   4   5 -16   15.41    3.28
  -4  -5  16   22.35    3.66
   4   5 -15    3.27    2.21
   4   5 -15    9.28    2.42
  -4  -5  15   13.23    3.30
   4   5 -15    7.65    2.27
  -4  -5  15   14.69    2.90
  -4  -5  14   -1.04    1.40
   4   5 -14    0.24    0.78
   4   5 -14   -0.23    0.64
  -4  -5  14   -0.17    0.76
   4   5 -13    1.79    2.97
   4   5 -13    1.79    1.26
  -4  -5  13   -0.01    0.77
   4   5 -13    1.33    0.79
  -4  -5  13    1.56    1.24
  -4  -5  12    9.56    2.51
   4   5 -12   12.09    2.62
   4   5 -12   10.35    2.50
  -4  -5  12   13.71    2.62
   4   5 -11   26.80    3.66
   4   5 -11   26.84    3.77
  -4  -5  11   30.71    3.58
   4   5 -10    0.95    0.90
   4   5 -10    0.04    0.88
  -4  -5  10    1.72    1.08
   4   5  -9   37.73    4.34
  -4  -5   9   37.54    3.86
  -4  -5   9   49.40    8.20
   4   5  -8   16.50    2.69
  -4  -5   8   18.03    2.64
  -4  -5   8   20.31    5.49
   4   5  -7    0.64    0.68
  -4  -5   7    3.33    1.08
  -4  -5   7    1.17    1.86
  -4  -5   6    8.95    1.53
   4   5  -6    8.32    1.88
  -4  -5   6    9.28    1.85
  -4  -5   6   13.26    4.73
  -4  -5   5    3.98    1.07
  -4  -5   5    4.75    1.29
   4   5  -5    3.11    1.22
  -4  -5   5   11.71    4.43
  -4  -5   4    1.19    0.88
  -4  -5   4   -0.50    0.54
   4   5  -4   -0.50    0.40
   4   5  -4   -0.28    1.16
  -4  -5   4   -0.19    2.03
  -4  -5   3    6.27    1.50
   4   5  -3    6.54    1.30
   4   5  -3    9.63    2.20
  -4  -5   3    5.05    1.28
  -4  -5   3    3.90    2.77
   4   5  -2  143.97    6.90
   4   5  -2  134.72    8.14
  -4  -5   2  188.28   17.22
  -4  -5   2  131.65    7.31
  -4  -5   2  126.88    7.47
   4   5  -1   95.17    5.55
   4   5  -1   95.32    6.77
  -4  -5   1  100.30   12.40
  -4  -5   1   84.65    5.85
  -4  -5   1   88.18    6.32
  -4  -5   0    5.73    1.58
   4   5   0    4.11    1.17
   4   5   0    7.87    1.99
  -4  -5   0    3.29    1.05
  -4  -5   0    4.18    3.35
   4   5   1   96.53    5.88
   4   5   1   92.85    6.94
  -4  -5  -1  110.82   14.06
  -4  -5  -1   85.61    6.01
  -4  -5  -1   83.97    6.64
  -4  -5  -2   21.17    3.55
   4   5   2   24.13    2.87
   4   5   2   22.94    3.49
  -4  -5  -2   15.16    2.52
  -4  -5  -2   20.65    5.69
  -4  -5  -3   25.99    4.19
   4   5   3   32.59    3.48
   4   5   3   27.27    3.80
  -4  -5  -3   33.00    8.09
  -4  -5  -4   17.32    3.67
   4   5   4   17.64    2.69
   4   5   4   15.07    2.92
  -4  -5  -4   12.57    5.49
  -4  -5  -5   10.31    2.94
   4   5   5   12.42    2.23
   4   5   5   15.35    3.26
  -4  -5  -5   13.08    5.51
   4   5   6    2.09    1.56
  -4  -5  -6    2.44    2.24
   4   5   6    0.37    0.58
  -4  -5  -6    1.98    3.60
  -4  -5  -7    2.97    1.54
   4   5   7    8.65    2.18
   4   5   7    7.21    2.06
  -4  -5  -7    3.20    2.94
  -4  -5  -8   14.27    3.70
   4   5   8   13.89    2.52
   4   5   8   13.98    3.24
  -4  -5  -8    6.62    2.94
  -4  -5  -9    0.07    1.66
   4   5   9    1.26    1.03
  -4  -5  -9   -0.44    2.13
   4   5   9    0.65    1.06
  -4  -5 -10    1.35    2.14
   4   5  10   -0.16    1.59
   4   5  10    1.90    1.29
  -4  -5 -10    0.34    2.56
  -4  -5 -11    1.12    1.96
   4   5  11   -0.37    0.93
   4   5  11   -0.07    0.73
   4   5  11   -0.86    1.35
   4   5  12    0.66    0.83
   4   6 -16   10.43    2.70
  -4  -6  15    1.62    1.69
   4   6 -15   -0.51    2.46
   4   6 -15    0.34    0.82
   4   6 -15    0.21    1.15
  -4  -6  15   -0.16    0.86
   4   6 -14    4.13    3.72
   4   6 -14    2.23    1.55
   4   6 -14    0.52    1.01
  -4  -6  14    0.85    0.86
  -4  -6  14    0.89    0.74
  -4  -6  13    3.24    1.87
   4   6 -13    7.07    5.43
   4   6 -13    2.50    1.83
   4   6 -13    1.73    1.10
  -4  -6  13    3.47    1.79
   4   6 -12   18.81    3.33
   4   6 -12   23.10    3.73
  -4  -6  12   21.25    3.33
   4   6 -11   19.45    3.30
   4   6 -11   18.67    3.17
  -4  -6  11   22.09    3.35
   4   6 -10    2.61    1.02
   4   6 -10    3.30    1.18
  -4  -6  10    3.99    1.25
  -4  -6  10    9.44    4.04
  -4  -6   9    9.40    2.12
   4   6  -9    8.56    2.04
  -4  -6   9    4.22    2.28
   4   6  -8    3.88    1.57
  -4  -6   8    3.90    1.44
  -4  -6   8    0.62    2.43
   4   6  -7    0.21    0.94
  -4  -6   7   -0.02    0.61
   4   6  -6   30.09    3.96
  -4  -6   6   30.10    3.38
  -4  -6   6   34.16    7.59
   4   6  -5    1.44    1.42
  -4  -6   5    1.05    0.90
  -4  -6   5   -0.35    1.80
  -4  -6   4   -0.57    0.57
   4   6  -4    0.51    0.60
  -4  -6   4   -0.23    0.41
  -4  -6   4   -2.40    3.42
  -4  -6   3    5.85    1.43
   4   6  -3    5.64    1.34
  -4  -6   3    7.05    1.73
   4   6  -3    7.01    1.80
  -4  -6   3    5.17    3.03
   4   6  -2   77.60    5.18
   4   6  -2   77.90    6.42
  -4  -6   2   94.84   12.75
  -4  -6   2   75.22    5.60
  -4  -6   2   72.29    5.55
  -4  -6   1   23.60    3.19
   4   6  -1   29.41    3.13
   4   6  -1   29.12    3.94
  -4  -6   1   22.10    3.02
  -4  -6   1   36.66    7.91
  -4  -6   0   12.51    2.58
   4   6   0   12.32    2.14
   4   6   0   12.75    2.56
  -4  -6   0   10.62    2.02
  -4  -6   0   14.59    5.78
   4   6   1   84.42    5.77
   4   6   1   80.96    6.72
  -4  -6  -1   81.31   12.64
  -4  -6  -1   69.01    6.35
  -4  -6  -2   13.88    2.86
   4   6   2   15.68    2.49
   4   6   2   15.22    2.93
  -4  -6  -2   15.31    6.42
  -4  -6  -3   13.90    2.88
   4   6   3   15.69    2.52
   4   6   3   15.96    3.25
  -4  -6  -3   17.06    5.58
  -4  -6  -4   18.90    3.82
   4   6   4   21.81    3.03
   4   6   4   16.73    3.33
  -4  -6  -4   23.75    7.51
  -4  -6  -5   27.28    4.70
   4   6   5   36.20    4.08
   4   6   5   36.35    5.02
  -4  -6  -5   40.59    9.35
  -4  -6  -6   22.55    4.40
   4   6   6   26.02    3.64
   4   6   6   26.98    4.39
  -4  -6  -6    9.48    4.03
  -4  -6  -7    0.64    1.36
   4   6   7    4.22    1.53
   4   6   7    3.24    2.07
  -4  -6  -7    4.03    4.02
  -4  -6  -8    1.11    1.66
   4   6   8    1.35    0.94
   4   6   8   -2.26    1.85
  -4  -6  -8   -4.20    3.42
  -4  -6  -9    3.69    2.65
   4   6   9    3.64    1.69
   4   6   9    3.72    1.91
  -4  -6  -9   -0.60    2.59
  -4  -6 -10    4.38    2.38
   4   7 -14   22.37    4.05
   4   7 -13    0.85    1.18
   4   7 -13   -1.75    1.51
  -4  -7  13   -1.17    1.20
   4   7 -12    9.35    2.40
   4   7 -12    9.12    2.47
  -4  -7  12    7.18    2.04
   4   7 -11    7.26    2.21
   4   7 -11   10.62    2.66
  -4  -7  11    4.73    1.41
   4   7 -10    0.02    0.76
   4   7 -10    0.44    0.99
  -4  -7  10   -0.11    0.71
  -4  -7  10   -0.99    1.98
   4   7  -9   -0.57    1.08
  -4  -7   9    1.19    1.00
  -4  -7   9    0.34    2.69
   4   7  -8   -0.39    0.86
  -4  -7   8   -0.50    0.86
  -4  -7   8    2.64    4.24
  -4  -7   7    0.63    0.94
   4   7  -7   -2.04    1.68
  -4  -7   7    2.05    3.43
  -4  -7   6    6.57    1.54
   4   7  -6    9.41    2.32
  -4  -7   6    7.04    4.35
   4   7  -5    8.64    2.45
  -4  -7   5    5.60    1.65
  -4  -7   5    3.31    1.95
   4   7  -4   24.09    3.74
  -4  -7   4   21.38    2.94
  -4  -7   4   21.50    6.01
   4   7  -3   -0.16    0.57
   4   7  -3   -0.21    0.65
  -4  -7   3   -0.11    0.65
  -4  -7   3    1.45    2.35
   4   7  -2    1.01    0.53
   4   7  -2    0.10    0.82
  -4  -7   2    0.51    2.90
   4   7  -1    1.93    1.21
   4   7  -1   -0.73    1.15
  -4  -7   1   -3.17    4.14
  -4  -7   0   -0.13    0.97
   4   7   0    1.54    1.05
   4   7   0    1.07    1.11
  -4  -7   0    3.91    2.93
  -4  -7  -1    1.73    1.68
   4   7   1    2.95    1.30
   4   7   1    0.07    0.68
  -4  -7  -1    1.81    2.15
   4   7   2    0.33    0.72
   4   7   2   -1.33    1.08
  -4  -7  -2    1.48    3.56
  -4  -7  -2    2.06    1.42
  -4  -7  -3    1.79    1.70
   4   7   3   -0.59    1.07
   4   7   3   -0.80    1.46
  -4  -7  -4    1.45    1.53
   4   7   4    1.59    0.97
   4   7   4   -1.29    1.40
  -4  -7  -5   10.49    3.15
   4   7   5   11.14    2.34
   4   7   5   11.76    3.11
  -4  -7  -5   11.41    6.01
  -4  -7  -6    3.28    2.07
   4   7   6    0.79    1.04
   4   7   6    1.35    1.36
  -4  -7  -6    5.77    5.52
  -4  -7  -7    4.76    2.35
   4   7   7    1.11    0.70
   4   7   7    3.92    1.84
  -4  -7  -7   -4.30    4.00
  -4  -7  -8    3.29    2.03
  -4  -7  -8    0.99    2.12
   4   8 -11    1.61    0.86
  -4  -8  11   -0.18    0.55
   4   8 -10    2.76    1.56
   4   8 -10    2.92    1.60
  -4  -8  10   -0.40    2.35
   4   8  -9    1.39    1.14
  -4  -8   9    2.11    1.44
  -4  -8   9    2.23    2.24
   4   8  -8    0.83    0.77
  -4  -8   8    0.59    0.84
   4   8  -7   32.88    4.73
  -4  -8   7   29.11    3.87
  -4  -8   7   48.02   10.15
   4   8  -6   -0.77    1.19
  -4  -8   6    0.66    3.84
   4   8  -5    2.14    1.44
  -4  -8   5    6.03    4.78
   4   8  -4   -0.03    1.03
  -4  -8   4   -2.26    3.70
   4   8  -3    1.91    1.46
  -4  -8   3    7.44    5.83
   4   8  -2    0.17    0.62
   4   8  -2    1.03    1.15
   4   8  -1   15.41    2.65
   4   8  -1   16.24    3.25
  -4  -8   1   27.55    7.94
   4   8   0    0.14    0.57
   4   8   0    0.57    0.79
   4   8   1   19.53    3.14
   4   8   1   21.92    3.98
  -4  -8  -1   18.69    6.95
   4   8   2   -0.93    0.73
   4   8   2    1.61    1.47
  -4  -8  -2    1.76    3.82
   4   8   3   -0.96    1.00
   4   8   3    0.26    0.98
   4   8   4    2.33    1.28
   4   8   4    0.28    1.08
  -4  -8  -4   -2.91    4.16
  -4  -8  -6   10.15    3.28
   4   9   0    9.50    2.41
  -5  12   0    0.28    0.56
  -5  12  -1    0.50    0.51
  -5  12  -2    1.77    1.07
   5 -11  -8    4.89    1.56
   5 -11  -7   12.64    2.76
   5 -11  -6   25.70    3.82
  -5  11   5    8.84    2.49
   5 -11  -5    7.28    2.10
  -5  11   4    8.37    2.38
   5 -11  -4   11.92    2.69
  -5  11   3    3.08    1.30
   5 -11  -3    1.68    0.99
  -5  11   2    8.64    2.27
  -5  11   2    3.08    1.12
   5 -11  -2    5.31    1.83
  -5  11   1   10.07    2.39
  -5  11   1    6.91    1.70
   5 -11  -1   12.31    2.55
  -5  11   0    2.90    1.46
  -5  11   0    2.29    0.77
   5 -11   0    3.19    1.24
  -5  11  -1    3.27    1.54
  -5  11  -1    3.41    1.20
   5 -11   1    4.65    1.81
  -5  11  -2    5.42    1.85
  -5  11  -2    5.04    1.39
   5 -11   2    4.43    1.60
  -5  11  -3    0.89    0.89
  -5  11  -3    1.11    0.86
   5 -11   3    2.03    1.05
  -5  11  -4   28.81    3.78
  -5  11  -4   28.04    3.48
   5 -11   4   32.87    4.41
  -5  11  -5    0.44    0.83
  -5  11  -5    1.61    1.04
   5 -11   5   -0.39    0.56
  -5  11  -6    0.95    0.85
  -5  11  -6    1.38    1.26
  -5  11  -6   -1.64    1.14
   5 -11   6    1.60    1.53
  -5  11  -7    4.28    1.76
  -5  11  -8   19.73    3.64
   5 -10 -10   14.65    6.64
  -5  10   9   11.21    2.74
  -5  10   9   12.51    2.74
   5 -10  -9   16.41    5.70
   5 -10  -9   11.55    2.41
  -5  10   8   20.40    3.59
  -5  10   8   18.63    3.43
   5 -10  -8   18.48    6.66
   5 -10  -8   19.25    3.18
  -5  10   7    0.99    1.00
  -5  10   7    1.54    1.42
   5 -10  -7   -2.14    3.64
   5 -10  -7   -0.96    1.16
  -5  10   6   -0.81    1.30
   5 -10  -6   -0.61    1.72
   5 -10  -6   -0.59    1.01
  -5  10   5    1.90    1.32
   5 -10  -5   -1.11    1.63
   5 -10  -5   -0.52    0.59
  -5  10   4    3.11    2.00
   5 -10  -4    1.82    1.11
  -5  10   3   22.91    3.52
  -5  10   3   23.28    2.75
   5 -10  -3   29.69    3.87
  -5  10   2    0.65    0.78
  -5  10   2   -0.36    0.57
   5 -10  -2   -0.04    0.67
  -5  10   1    8.54    2.09
  -5  10   1    9.99    1.95
   5 -10  -1   13.14    2.49
  -5  10   0   -0.24    0.73
  -5  10   0    1.03    0.80
   5 -10   0    0.02    0.66
  -5  10  -1    1.51    0.98
  -5  10  -1    0.62    0.61
   5 -10   1    1.26    0.92
  -5  10  -2    4.48    1.23
  -5  10  -2    5.94    1.54
   5 -10   2    6.89    1.86
  -5  10  -3    7.00    1.71
  -5  10  -3    7.64    2.05
  -5  10  -3    6.68    1.62
   5 -10   3   11.18    2.46
  -5  10  -4   -0.81    0.96
  -5  10  -4    0.51    0.50
  -5  10  -4    1.45    1.08
   5 -10   4    0.41    0.75
  -5  10  -5    4.50    1.49
  -5  10  -5    3.41    1.46
  -5  10  -5    2.82    1.14
   5 -10   5    2.87    1.35
  -5  10  -6   -0.68    0.62
  -5  10  -6    0.73    1.20
  -5  10  -6    1.29    1.15
   5 -10   6    0.26    0.66
  -5  10  -7   -0.26    0.57
  -5  10  -7   -1.41    1.39
  -5  10  -7   -0.18    0.73
   5 -10   7   -0.46    0.88
  -5  10  -8   12.40    2.34
  -5  10  -8   10.85    2.15
   5 -10   8   15.00    2.80
  -5  10  -8   10.48    2.60
   5 -10   8   15.07    2.75
  -5  10  -9    7.57    2.46
  -5  10  -9    6.73    1.63
   5 -10   9    9.70    2.30
   5 -10   9   10.07    2.41
  -5  10 -10    1.78    1.55
   5 -10  10   -1.15    1.10
  -5   9  12   -1.41    1.42
   5  -9 -12    7.64    4.62
  -5   9  11    2.16    0.96
  -5   9  11    4.12    1.69
   5  -9 -11    6.46    4.96
  -5   9  10   24.46    3.98
  -5   9  10   22.74    3.47
   5  -9 -10   25.36    7.68
   5  -9 -10   24.26    3.48
   5  -9  -9    3.03    1.34
  -5   9   9    4.30    1.55
  -5   9   9    5.93    1.91
   5  -9  -9    2.49    3.51
   5  -9  -8    1.63    1.31
  -5   9   8    4.30    1.40
  -5   9   8    4.07    1.73
   5  -9  -8    1.39    2.13
   5  -9  -7    2.18    1.59
  -5   9   7    1.04    0.81
  -5   9   7    0.22    0.92
   5  -9  -7   -0.78    2.41
   5  -9  -6    0.93    0.45
  -5   9   6    1.83    1.52
  -5   9   6    0.91    0.91
   5  -9  -6   -3.81    2.93
   5  -9  -5    2.34    1.16
  -5   9   5    0.20    0.56
  -5   9   5    0.92    0.58
  -5   9   5    1.33    1.07
   5  -9  -5   -0.76    2.32
   5  -9  -4    3.36    1.42
  -5   9   4    1.60    0.94
  -5   9   4    3.29    1.11
   5  -9  -4    0.34    1.62
   5  -9  -3    4.49    1.43
  -5   9   3    4.12    1.41
  -5   9   3    2.46    0.98
   5  -9  -3    1.53    1.42
   5  -9  -2    6.67    1.78
  -5   9   2    2.57    0.95
  -5   9   2    4.28    1.20
   5  -9  -2    7.54    3.39
  -5   9   1    9.87    2.18
  -5   9   1    7.01    1.55
   5  -9  -1    7.29    1.88
  -5   9   0    1.09    0.88
  -5   9   0    0.82    0.71
   5  -9   0    1.20    0.72
  -5   9  -1    4.51    1.53
  -5   9  -1    3.51    1.19
  -5   9  -1    7.18    1.63
   5  -9   1    3.80    1.36
  -5   9  -2    1.63    0.72
  -5   9  -2    1.84    1.05
  -5   9  -2    1.88    1.02
   5  -9   2    1.52    1.14
  -5   9  -3   -0.61    0.88
  -5   9  -3   -0.15    0.71
  -5   9  -3   -0.82    0.98
   5  -9   3   -0.07    0.73
  -5   9  -4    2.98    1.08
  -5   9  -4    4.03    1.46
  -5   9  -4    4.24    1.40
   5  -9   4    4.83    1.51
  -5   9  -5   10.66    2.14
  -5   9  -5    9.20    2.11
  -5   9  -5   10.79    1.97
   5  -9   5    9.08    1.94
  -5   9  -6   12.11    2.12
  -5   9  -6    9.69    2.25
  -5   9  -6   12.28    2.18
   5  -9   6   14.21    2.61
  -5   9  -7    2.09    1.13
  -5   9  -7    2.65    1.21
  -5   9  -7    2.68    1.11
   5  -9   7    1.19    0.56
   5  -9   7    3.91    1.53
  -5   9  -8    6.80    1.72
  -5   9  -8    6.86    2.06
  -5   9  -8    6.24    1.64
   5  -9   8    4.94    1.29
   5  -9   8    5.79    1.50
  -5   9  -9   -0.67    0.74
  -5   9  -9    1.68    1.11
  -5   9  -9    0.66    0.66
   5  -9   9   -0.14    0.73
   5  -9   9    0.97    0.76
  -5   9 -10   -0.64    0.91
  -5   9 -10    2.52    1.50
  -5   9 -10   -0.32    0.81
   5  -9  10    0.03    0.66
   5  -9  10   -0.18    0.55
  -5   9 -11    0.60    1.03
  -5   9 -11    0.75    0.80
   5  -9  11    0.75    0.80
   5  -9  11    2.60    1.25
  -5   9 -12   -0.09    0.81
  -5   8  14    2.15    1.40
  -5   8  13    1.85    1.64
   5  -8 -13    3.62    2.42
  -5   8  13    0.77    0.65
  -5   8  12    4.43    1.90
   5  -8 -12   -2.97    4.16
  -5   8  12    2.45    1.09
   5  -8 -11   17.97    2.90
  -5   8  11   19.34    3.40
   5  -8 -11   18.23    6.99
  -5   8  11   19.59    3.44
   5  -8 -10    2.34    1.90
  -5   8  10   -1.54    1.12
  -5   8  10   -0.27    1.34
   5  -8 -10   -0.71    0.86
   5  -8  -9    1.69    0.96
  -5   8   9    0.86    1.11
  -5   8   9   -0.31    0.70
   5  -8  -8    0.76    0.60
  -5   8   8    0.09    0.93
  -5   8   8   -1.00    1.19
   5  -8  -8   -1.58    4.06
   5  -8  -7    2.09    1.14
  -5   8   7   -0.19    0.70
  -5   8   7    1.58    0.85
   5  -8  -7   -1.68    2.75
   5  -8  -6   19.34    2.90
  -5   8   6   17.20    2.74
  -5   8   6   17.03    2.85
  -5   8   6   14.97    1.98
   5  -8  -6   19.48    5.81
   5  -8  -5   -0.77    0.96
  -5   8   5   -0.25    0.70
   5  -8  -5    0.93    2.29
  -5   8   5   -0.34    0.56
  -5   8   5    0.53    0.58
  -5   8   4   23.35    3.13
  -5   8   4   16.59    2.70
  -5   8   4   21.60    2.54
   5  -8  -4   23.25    5.21
   5  -8  -4   22.63    3.03
   5  -8  -3    1.33    0.73
  -5   8   3    2.41    1.12
  -5   8   3    2.81    1.23
  -5   8   3    2.96    1.06
   5  -8  -3    4.08    2.71
   5  -8  -2   -0.04    0.90
  -5   8   2    1.98    1.24
   5  -8  -2    0.89    1.76
  -5   8   2    0.46    0.41
   5  -8  -1    1.51    0.91
  -5   8   1    0.56    0.63
   5  -8  -1    0.87    1.53
  -5   8   1    1.84    0.74
   5  -8   0   12.06    2.22
  -5   8   0   12.91    2.37
  -5   8   0   15.15    2.16
  -5   8   0   13.47    2.11
  -5   8  -1  142.43    8.05
  -5   8  -1  135.40    7.28
  -5   8  -1  122.12    6.82
   5  -8   1  174.69    8.92
  -5   8  -2   27.44    3.36
  -5   8  -2   24.91    2.95
  -5   8  -2   26.29    3.01
   5  -8   2   34.93    3.80
  -5   8  -3   70.89    5.40
  -5   8  -3   65.65    5.09
  -5   8  -3   74.10    5.05
   5  -8   3   89.14    6.10
  -5   8  -4   66.07    5.22
  -5   8  -4   66.66    5.32
  -5   8  -4   68.31    4.91
   5  -8   4   81.59    5.85
  -5   8  -5    2.46    1.32
  -5   8  -5    2.78    1.25
  -5   8  -5    2.65    1.06
   5  -8   5    3.80    1.23
  -5   8  -6   15.89    2.60
  -5   8  -6   19.18    3.08
  -5   8  -6   21.01    2.67
   5  -8   6   21.43    2.96
  -5   8  -7   11.13    2.04
  -5   8  -7   10.44    2.28
  -5   8  -7   11.73    2.06
   5  -8   7    9.44    1.89
   5  -8   7   12.69    2.26
  -5   8  -8    0.25    0.47
  -5   8  -8    2.38    1.23
  -5   8  -8    2.96    1.15
   5  -8   8    2.09    1.04
   5  -8   8    2.22    1.04
  -5   8  -9    2.09    1.02
  -5   8  -9    2.18    1.19
  -5   8  -9    1.20    0.65
   5  -8   9    4.48    1.38
   5  -8   9    3.10    1.15
  -5   8 -10    5.38    1.48
  -5   8 -10    3.26    1.43
  -5   8 -10    3.52    1.11
   5  -8  10    4.33    1.37
   5  -8  10    5.13    1.47
  -5   8 -11    5.75    1.59
  -5   8 -11    6.77    2.18
  -5   8 -11    7.36    1.77
   5  -8  11    6.58    1.84
   5  -8  11    7.75    1.79
  -5   8 -12   -0.76    1.04
  -5   8 -12    1.14    0.75
   5  -8  12    0.40    0.50
  -5   8 -13   -0.36    0.94
  -5   8 -13   -0.57    0.80
  -5   7  16   -1.20    1.26
  -5   7  15   -0.53    0.88
  -5   7  15    0.17    0.73
   5  -7 -15   -3.20    5.08
  -5   7  14    0.36    0.90
  -5   7  14   -0.22    1.06
   5  -7 -14   -3.63    4.74
  -5   7  13   56.78    5.71
  -5   7  13   57.59    5.73
   5  -7 -13   58.26   11.93
   5  -7 -12    3.09    1.30
  -5   7  12    2.21    1.17
  -5   7  12    4.80    1.59
   5  -7 -12    3.59    4.98
  -5   7  11    3.33    1.33
   5  -7 -11    3.87    1.41
  -5   7  11    3.17    1.35
   5  -7 -11    3.71    3.53
   5  -7 -10    4.69    1.54
  -5   7  10    3.77    1.32
   5  -7 -10   -2.72    4.74
  -5   7  10    2.62    1.13
   5  -7  -9   -0.81    1.03
  -5   7   9    1.29    0.92
   5  -7  -9    2.10    3.24
  -5   7   9    1.02    1.15
   5  -7  -8   10.03    2.16
  -5   7   8    9.81    2.19
   5  -7  -8    7.80    3.04
  -5   7   8   10.08    2.02
   5  -7  -7    0.43    0.65
  -5   7   7    1.93    1.20
  -5   7   7    0.67    0.79
   5  -7  -7   -2.13    3.42
   5  -7  -6    0.44    0.60
  -5   7   6    0.99    0.67
  -5   7   6    0.14    0.63
  -5   7   6    0.07    0.58
   5  -7  -6    0.49    2.61
  -5   7   5   29.45    3.53
  -5   7   5   30.13    3.37
  -5   7   5   29.86    2.76
   5  -7  -5   20.87    4.67
   5  -7  -5   24.93    3.28
  -5   7   4   49.16    4.41
  -5   7   4   57.17    4.53
  -5   7   4   51.02    3.77
   5  -7  -4   54.10    8.15
   5  -7  -4   54.14    4.75
  -5   7   3   20.74    2.80
  -5   7   3   26.64    3.02
  -5   7   3   25.92    2.63
   5  -7  -3   23.60    5.04
   5  -7  -3   24.83    3.10
   5  -7  -2    3.52    1.19
  -5   7   2    0.81    0.64
  -5   7   2    2.82    1.12
  -5   7   2    2.81    0.99
   5  -7  -2    3.90    2.18
  -5   7   1   73.71    5.29
  -5   7   1   64.43    4.19
  -5   7   1   77.87    4.79
   5  -7  -1   70.75    7.87
   5  -7  -1   81.07    5.60
   5  -7   0    4.16    1.30
  -5   7   0    2.20    0.76
  -5   7   0    2.58    0.71
  -5   7   0    3.55    1.04
   5  -7   0    4.35    2.47
   5  -7   1    6.13    1.41
  -5   7  -1    4.44    1.34
  -5   7  -1    4.28    1.11
  -5   7  -1    4.25    1.06
   5  -7   2    3.73    1.07
  -5   7  -2    3.93    1.16
  -5   7  -2    3.14    0.88
  -5   7  -2    5.51    1.25
  -5   7  -3  129.04    7.21
  -5   7  -3  122.96    6.97
  -5   7  -3  127.79    6.71
   5  -7   3  151.09    7.79
  -5   7  -4   44.34    4.05
  -5   7  -4   46.22    4.22
  -5   7  -4   48.77    3.87
   5  -7   4   53.55    4.39
  -5   7  -5    4.01    1.36
  -5   7  -5    1.28    0.75
  -5   7  -5    2.66    0.96
   5  -7   5    1.92    0.90
  -5   7  -6   -0.38    0.41
  -5   7  -6    0.03    0.63
  -5   7  -6   -0.51    0.83
   5  -7   6   -0.69    0.60
   5  -7   6   -0.66    0.69
  -5   7  -7   -0.41    0.72
  -5   7  -7   -0.90    1.00
  -5   7  -7   -0.19    0.64
   5  -7   7    0.47    0.39
   5  -7   7   -0.41    0.65
  -5   7  -8    2.03    1.01
  -5   7  -8    1.87    1.17
  -5   7  -8    2.60    1.00
   5  -7   8    1.85    0.70
   5  -7   8    3.29    1.14
  -5   7  -9    0.98    1.08
  -5   7  -9    0.22    0.92
  -5   7  -9    0.99    0.80
   5  -7   9   -0.78    0.72
   5  -7   9   -0.11    0.44
  -5   7 -10   19.41    2.77
  -5   7 -10   18.87    3.29
  -5   7 -10   17.64    2.52
   5  -7  10   20.04    2.98
   5  -7  10   18.94    2.55
  -5   7 -11   10.68    2.08
  -5   7 -11    9.51    2.46
  -5   7 -11   12.74    2.19
   5  -7  11    9.53    1.93
  -5   7 -12   -0.68    0.81
  -5   7 -12    0.16    1.23
  -5   7 -12    0.03    0.48
   5  -7  12    0.06    0.45
  -5   7 -13    4.37    1.95
  -5   7 -13    3.31    1.21
   5  -7  13    6.61    1.98
  -5   7 -14   -0.41    1.25
  -5   7 -14    1.98    1.11
  -5   6  16   -1.10    1.40
   5  -6 -16    2.05    5.33
  -5   6  15   -1.30    1.10
  -5   6  15    1.72    1.04
   5  -6 -15    2.08    2.77
  -5   6  14   12.36    2.77
  -5   6  14    6.74    1.96
   5  -6 -14    3.36    2.28
  -5   6  13   93.10    6.99
  -5   6  13   92.40    7.29
   5  -6 -13   99.81   15.31
   5  -6 -13   97.09    7.20
   5  -6 -12    7.84    1.98
  -5   6  12    7.29    1.77
  -5   6  12    8.12    2.06
   5  -6 -12   11.38    3.82
   5  -6 -11    5.92    1.73
  -5   6  11    7.11    1.81
  -5   6  11    4.93    1.52
   5  -6 -11    8.56    5.06
  -5   6  10   21.14    3.01
  -5   6  10   17.22    2.77
   5  -6 -10   15.31    6.61
   5  -6 -10   20.31    3.15
   5  -6  -9    4.19    1.43
  -5   6   9    5.07    1.43
  -5   6   9    2.12    0.95
   5  -6  -9   -3.02    3.12
   5  -6  -8    1.16    0.49
  -5   6   8    0.16    0.69
  -5   6   8    0.84    0.80
   5  -6  -8    4.97    3.65
  -5   6   7   87.75    6.09
  -5   6   7   85.52    5.90
   5  -6  -7   82.03   11.42
   5  -6  -7   88.28    6.38
  -5   6   6   46.09    4.20
  -5   6   6   43.70    3.94
  -5   6   6   48.26    3.34
   5  -6  -6   53.45    4.70
   5  -6  -6   44.22    7.56
  -5   6   5   22.55    2.90
  -5   6   5   26.85    2.98
  -5   6   5   24.50    2.36
   5  -6  -5   29.54    3.52
   5  -6  -5   18.77    5.39
   5  -6  -4    1.06    0.94
  -5   6   4    1.03    0.89
  -5   6   4   -0.21    0.40
  -5   6   4   -0.51    0.92
   5  -6  -4    0.48    1.81
   5  -6  -3    9.58    1.89
  -5   6   3    9.28    1.51
  -5   6   3    9.16    1.81
  -5   6   3   10.56    1.81
   5  -6  -3    8.36    3.04
   5  -6  -2   -0.10    0.78
  -5   6   2    0.58    0.65
  -5   6   2    0.27    0.53
  -5   6   2    0.08    0.56
  -5   6   2    0.99    0.58
   5  -6  -2    0.01    1.65
   5  -6  -1    4.47    1.30
  -5   6   1    4.84    1.15
  -5   6   1    3.53    0.81
  -5   6   1    3.06    0.99
  -5   6   1    4.51    1.08
   5  -6  -1    7.26    2.58
   5  -6   0    5.83    1.37
  -5   6   0    5.53    1.33
  -5   6   0    6.55    1.19
  -5   6   0    6.30    1.29
   5  -6   0    7.84    2.28
   5  -6   1   12.66    1.97
   5  -6   1    7.02    2.15
  -5   6  -1    8.21    1.70
  -5   6  -1    9.80    1.61
  -5   6  -1    8.79    1.61
   5  -6   2   -0.03    0.52
  -5   6  -2   -0.12    0.54
  -5   6  -2    0.03    0.43
  -5   6  -2    0.13    0.48
   5  -6   3    7.67    1.46
  -5   6  -3    6.12    1.54
  -5   6  -3    6.88    1.36
  -5   6  -3    7.91    1.44
   5  -6   4    1.71    0.86
  -5   6  -4    2.33    1.02
  -5   6  -4    0.73    0.57
  -5   6  -4    1.99    0.89
  -5   6  -5   15.21    2.22
  -5   6  -5   15.88    2.34
  -5   6  -5   15.85    2.08
   5  -6   5   16.74    2.24
   5  -6   5   19.08    2.46
  -5   6  -6    2.10    0.94
  -5   6  -6    2.81    1.23
  -5   6  -6    1.93    0.90
   5  -6   6    3.88    1.09
   5  -6   6    1.64    0.61
  -5   6  -7    2.77    0.90
  -5   6  -7    3.84    1.52
  -5   6  -7    1.85    0.73
   5  -6   7    3.64    1.06
   5  -6   7    3.82    1.08
  -5   6  -8    0.73    0.77
  -5   6  -8   -1.26    1.26
  -5   6  -8    0.53    0.53
   5  -6   8    0.38    0.52
   5  -6   8    0.70    0.73
  -5   6  -9    1.62    1.09
  -5   6  -9   -0.19    1.04
  -5   6  -9    0.29    0.66
   5  -6   9    0.78    0.80
   5  -6   9    0.10    0.94
   5  -6   9    0.49    0.46
  -5   6 -10   -0.16    0.44
  -5   6 -10    2.14    1.22
  -5   6 -10    1.38    0.92
   5  -6  10    1.59    0.83
  -5   6 -11   55.89    4.86
  -5   6 -11   54.78    5.72
  -5   6 -11   59.52    4.66
   5  -6  11   64.90    5.39
  -5   6 -12    3.76    1.48
  -5   6 -12    4.25    1.17
   5  -6  12    6.18    1.63
  -5   6 -13    8.77    2.50
  -5   6 -13    7.57    1.70
   5  -6  13    7.63    1.96
  -5   6 -14    2.93    1.57
   5  -6  14    4.50    1.47
  -5   5  17   -0.44    1.47
   5  -5 -17    2.63    3.69
  -5   5  16    1.90    1.29
   5  -5 -16    1.51    3.77
  -5   5  15   14.38    2.90
   5  -5 -15   11.60    3.41
   5  -5 -14    3.85    1.59
  -5   5  14    1.39    0.51
  -5   5  14    4.09    1.55
   5  -5 -14    3.18    3.43
   5  -5 -13   12.59    2.62
  -5   5  13   11.65    2.27
  -5   5  13   14.83    2.67
   5  -5 -13   14.82    6.22
   5  -5 -12    2.70    1.28
  -5   5  12    3.73    1.22
  -5   5  12    2.18    1.04
   5  -5 -12    0.01    3.30
   5  -5 -11    3.36    1.39
  -5   5  11    1.77    0.94
  -5   5  11    4.81    1.48
   5  -5 -11    0.30    2.17
   5  -5 -10    0.85    0.60
  -5   5  10    1.95    0.70
  -5   5  10    1.59    1.06
   5  -5 -10    3.09    4.71
  -5   5   9   23.97    2.93
  -5   5   9   25.41    3.08
   5  -5  -9   25.14    3.40
   5  -5  -9   22.80    6.04
  -5   5   8  115.76    6.88
  -5   5   8  127.48    7.12
   5  -5  -8  113.02   13.30
  -5   5   8  114.48    6.04
   5  -5  -8  128.78    7.86
  -5   5   7   38.07    3.60
  -5   5   7   39.54    3.63
  -5   5   7   36.88    3.16
   5  -5  -7   39.15    4.07
   5  -5  -7   40.85    7.93
   5  -5  -6   17.56    2.58
  -5   5   6   18.97    2.43
  -5   5   6   21.61    2.61
  -5   5   6   17.58    2.24
   5  -5  -6   20.66    5.64
  -5   5   5    4.62    1.16
   5  -5  -5    3.87    1.23
  -5   5   5    4.52    1.15
  -5   5   5    2.93    0.71
   5  -5  -5    7.51    4.11
   5  -5  -4    1.64    1.04
  -5   5   4    2.07    0.99
  -5   5   4    1.40    0.66
  -5   5   4    1.14    0.52
   5  -5  -4   -0.61    1.47
  -5   5   3   22.55    2.57
  -5   5   3   23.14    2.45
  -5   5   3   19.29    1.49
  -5   5   3   22.08    2.27
   5  -5  -3   25.37    2.96
   5  -5  -3   20.51    4.65
   5  -5  -2    1.47    0.79
  -5   5   2    1.61    0.88
  -5   5   2    1.18    0.45
  -5   5   2    1.36    0.73
  -5   5   2    0.92    0.45
   5  -5  -2   -0.66    1.25
  -5   5   1  227.27    8.48
  -5   5   1  178.30    8.36
  -5   5   1  189.04    7.86
  -5   5   1  173.65    6.69
   5  -5  -1  172.99   12.63
   5  -5  -1  201.60    9.04
  -5   5   0   31.17    3.02
  -5   5   0   32.78    2.76
  -5   5   0   30.50    2.44
  -5   5   0   31.33    2.84
   5  -5   0   32.43    3.26
   5  -5   0   31.37    4.53
   5  -5   1   11.38    1.87
  -5   5  -1    8.87    1.53
  -5   5  -1    8.51    1.33
  -5   5  -1    9.73    1.52
   5  -5   1    9.77    2.36
  -5   5  -2    1.51    0.61
   5  -5   2    0.76    0.74
  -5   5  -2    1.32    0.45
  -5   5  -2    0.96    0.67
  -5   5  -2    1.44    0.66
   5  -5   2    0.04    0.68
  -5   5  -3   20.27    2.48
  -5   5  -3   22.37    2.54
   5  -5   3   27.80    2.84
  -5   5  -3   23.50    2.49
  -5   5  -3   27.15    2.46
  -5   5  -4   62.80    4.47
  -5   5  -4   53.49    4.26
  -5   5  -4   61.65    4.12
   5  -5   4   54.96    3.91
   5  -5   4   64.56    4.32
  -5   5  -4   60.71    3.87
   5  -5   5    7.71    1.46
  -5   5  -5    8.75    1.41
  -5   5  -5    7.66    1.54
  -5   5  -5    5.99    1.51
  -5   5  -5    6.31    1.16
   5  -5   5    6.61    1.34
  -5   5  -6   11.84    1.78
  -5   5  -6    8.25    1.64
  -5   5  -6    9.43    1.97
  -5   5  -6   12.30    1.83
   5  -5   6    9.30    1.67
   5  -5   6   10.63    1.64
  -5   5  -7   12.68    2.15
  -5   5  -7   12.07    2.15
  -5   5  -7   13.83    1.96
   5  -5   7   13.79    2.04
   5  -5   7   14.42    1.91
  -5   5  -7   15.09    2.17
  -5   5  -8    3.10    1.01
  -5   5  -8    1.78    1.06
  -5   5  -8    3.02    1.01
   5  -5   8    4.02    1.43
   5  -5   8    2.81    1.06
   5  -5   8    2.82    0.92
  -5   5  -9    7.03    1.54
  -5   5  -9    7.83    2.02
  -5   5  -9    8.77    1.57
   5  -5   9    8.31    1.92
   5  -5   9    7.21    1.64
   5  -5   9    7.69    1.37
  -5   5 -10    3.88    1.32
  -5   5 -10    4.83    1.73
  -5   5 -10    2.09    0.82
   5  -5  10    0.97    0.65
   5  -5  10    2.66    1.13
  -5   5 -11   70.77    6.38
  -5   5 -11   73.78    5.07
   5  -5  11   73.20    5.65
  -5   5 -12    0.90    0.99
  -5   5 -12    1.72    0.85
   5  -5  12    4.31    1.63
  -5   5 -13    3.83    1.77
   5  -5  13    3.81    1.47
  -5   5 -13    2.68    0.87
  -5   5 -14   -0.37    1.38
   5  -5  14    1.73    1.08
  -5   5 -15   -1.15    1.34
   5  -5  15    0.23    0.67
  -5   4  18   47.22    4.60
  -5   4  17    3.64    1.71
  -5   4  17    1.17    0.96
   5  -4 -17    1.39    3.80
  -5   4  16   10.28    2.01
  -5   4  16   12.90    2.81
   5  -4 -16   18.65    7.96
  -5   4  15   10.96    2.21
  -5   4  15   11.95    2.05
   5  -4 -15    8.20    6.18
  -5   4  14   -0.98    1.05
  -5   4  14    1.02    0.81
  -5   4  13   -0.09    0.51
  -5   4  13    1.01    0.73
  -5   4  13   -0.13    0.47
   5  -4 -13   -0.80    4.42
  -5   4  12    0.28    0.45
  -5   4  12   -0.42    0.72
   5  -4 -12   -1.16    4.21
   5  -4 -11   32.38    7.89
  -5   4  11   27.62    3.04
  -5   4  11   22.99    3.06
  -5   4  11   23.06    2.47
   5  -4 -10   24.46    6.73
  -5   4  10   22.28    2.75
  -5   4  10   23.55    3.01
  -5   4  10   20.00    2.24
   5  -4  -9   25.00    6.08
  -5   4   9   26.08    2.97
  -5   4   9   28.64    3.17
  -5   4   9   28.49    2.73
  -5   4   8  262.20   10.62
  -5   4   8  265.68   10.93
   5  -4  -8  259.15   20.63
  -5   4   8  257.28   10.02
   5  -4  -7    6.62    3.53
  -5   4   7    6.36    1.42
  -5   4   7    7.07    1.55
  -5   4   7    6.63    1.34
   5  -4  -6   22.44    5.68
  -5   4   6   10.47    1.71
  -5   4   6   11.79    1.79
  -5   4   6   11.84    1.75
   5  -4  -5    3.61    2.40
  -5   4   5    0.14    0.46
  -5   4   5    0.32    0.53
  -5   4   5    0.56    0.61
   5  -4  -4   50.86    8.00
  -5   4   4   53.23    3.94
  -5   4   4   56.92    3.81
  -5   4   4   52.23    4.00
   5  -4  -3   37.31    6.42
  -5   4   3   32.34    2.97
  -5   4   3   36.46    2.89
  -5   4   3   39.49    2.96
   5  -4  -3   37.94    3.63
  -5   4   2   51.02    3.72
   5  -4  -2   51.64    6.94
  -5   4   2   48.94    3.21
   5  -4  -2   41.18    1.64
  -5   4   2   37.34    1.83
  -5   4   2   49.52    3.35
   5  -4  -2   43.80    3.88
  -5   4   1   52.81    3.84
  -5   4   1   52.01    3.33
  -5   4   1   49.18    2.58
  -5   4   1   54.95    3.62
   5  -4  -1   46.26    6.36
   5  -4  -1   50.80    4.07
  -5   4   0    4.87    1.07
   5  -4   0    4.32    1.27
   5  -4   0    6.03    2.31
  -5   4   0    4.13    1.13
  -5   4   0    4.27    0.86
  -5   4   0    4.43    0.97
  -5   4   0    5.92    1.23
  -5   4  -1    1.51    0.62
   5  -4   1    1.91    0.66
   5  -4   1    0.98    0.96
  -5   4  -1    1.74    0.78
  -5   4  -1    1.21    0.54
  -5   4  -1    2.46    0.86
   5  -4   2    1.27    0.62
  -5   4  -2    0.71    0.55
   5  -4   2    0.12    0.98
  -5   4  -2    1.29    0.70
  -5   4  -2    1.02    0.56
  -5   4  -2    1.10    0.70
   5  -4   3   11.46    1.99
  -5   4  -3   13.70    1.86
  -5   4  -3   13.60    1.94
  -5   4  -3   12.81    1.87
  -5   4  -3   16.23    1.98
   5  -4   3   13.94    1.63
   5  -4   3   14.28    1.90
  -5   4  -4   49.89    3.88
  -5   4  -4   55.09    3.76
  -5   4  -4   43.89    3.67
   5  -4   4   46.55    3.38
   5  -4   4   52.89    3.69
  -5   4  -4   49.06    3.70
  -5   4  -5   42.64    3.67
  -5   4  -5   48.93    3.60
  -5   4  -5   41.86    3.72
   5  -4   5   44.03    3.39
   5  -4   5   43.94    3.30
  -5   4  -5   46.38    3.81
  -5   4  -6   99.96    6.06
  -5   4  -6   94.06    6.13
  -5   4  -6  110.50    5.81
   5  -4   6  113.68    5.96
   5  -4   6  107.49    5.38
  -5   4  -6  108.45    6.27
  -5   4  -7    0.49    0.65
  -5   4  -7    1.05    0.93
  -5   4  -7   -0.16    0.46
  -5   4  -7    1.18    0.94
   5  -4   7   -0.03    0.72
   5  -4   7    0.79    0.62
   5  -4   7    0.55    0.33
  -5   4  -8    8.83    1.72
  -5   4  -8    6.25    1.56
  -5   4  -8    9.23    2.03
  -5   4  -8    7.39    1.47
   5  -4   8    6.62    1.67
   5  -4   8   11.13    1.90
   5  -4   8    9.13    1.41
  -5   4  -9   -1.38    1.09
  -5   4  -9   -0.84    1.00
  -5   4  -9   -0.42    0.41
   5  -4   9   -0.36    0.59
   5  -4   9   -0.75    0.71
  -5   4 -10   -0.24    0.58
  -5   4 -10    0.70    0.98
  -5   4 -10    1.14    0.90
   5  -4  10   -1.19    1.10
   5  -4  10   -0.06    0.66
  -5   4 -11   -0.11    0.51
  -5   4 -11   -0.55    1.13
   5  -4  11   -0.19    0.49
  -5   4 -12   43.47    5.05
  -5   4 -12   44.24    3.79
   5  -4  12   46.21    4.57
  -5   4 -13   51.90    5.59
   5  -4  13   55.47    5.26
   5  -4  14    2.76    1.19
  -5   4 -14    4.43    1.82
   5  -4  14    4.55    1.50
   5  -4  15    0.50    1.36
  -5   4 -15    2.24    1.56
   5  -4  15    2.55    1.23
  -5   3  18   92.81    8.06
   5  -3 -18   87.31   14.74
  -5   3  17    7.96    2.46
   5  -3 -17    4.44    5.15
  -5   3  16    4.08    1.60
  -5   3  16    3.84    1.05
   5  -3 -16    6.60    5.18
  -5   3  15   10.06    2.37
  -5   3  15    7.45    1.45
   5  -3 -15    7.37    4.90
   5  -3 -14    4.58    3.06
  -5   3  14    2.58    1.24
  -5   3  14    2.40    0.77
   5  -3 -13    2.83    3.91
  -5   3  13    1.37    0.78
  -5   3  13    1.93    0.84
  -5   3  13    1.10    0.83
   5  -3 -12    9.27    3.32
  -5   3  12   18.31    2.44
  -5   3  12   22.53    3.13
  -5   3  12   19.86    2.16
  -5   3  12   19.14    2.35
  -5   3  11  208.12    8.93
  -5   3  11  192.26    9.70
  -5   3  11  193.76    7.75
   5  -3 -11  189.92   18.81
  -5   3  11  183.51    8.25
   5  -3 -10   95.40   12.55
  -5   3  10  105.67    5.89
  -5   3  10  107.33    6.63
  -5   3  10  109.15    5.77
  -5   3   9   26.49    2.73
   5  -3  -9   20.81    6.12
  -5   3   9   27.83    3.04
  -5   3   9   27.03    2.68
   5  -3  -8    3.55    2.68
  -5   3   8    0.40    0.43
  -5   3   8   -0.38    0.70
  -5   3   8    0.87    0.79
  -5   3   7   14.44    1.97
   5  -3  -7   22.58    6.24
  -5   3   7   13.87    2.03
  -5   3   7   13.24    1.81
   5  -3  -6   -1.23    2.99
  -5   3   6    1.75    0.74
  -5   3   6    1.37    0.77
  -5   3   6    3.54    0.96
  -5   3   5   16.15    2.08
   5  -3  -5   10.78    3.83
  -5   3   5   15.58    1.93
   5  -3  -5   15.06    1.08
  -5   3   5   16.54    2.09
  -5   3   4   35.16    2.94
   5  -3  -4   25.63    5.55
  -5   3   4   35.07    2.79
   5  -3  -4   33.62    1.69
  -5   3   4   36.64    3.33
  -5   3   3   20.94    2.28
   5  -3  -3   25.41    5.17
  -5   3   3   22.44    2.10
   5  -3  -3   22.00    1.40
  -5   3   3   23.21    2.74
  -5   3   2    0.05    0.30
  -5   3   2    0.12    0.51
   5  -3  -2   -1.26    1.90
   5  -3  -2    0.00    0.21
  -5   3   2   -0.22    0.63
  -5   3   1   24.56    2.45
  -5   3   1   26.74    2.07
   5  -3  -1   24.26    4.91
   5  -3  -1   25.35    1.91
  -5   3   1   22.29    1.27
  -5   3   1   25.12    2.30
  -5   3   1   28.96    2.63
  -5   3   0   88.89    4.65
   5  -3   0   71.45    7.59
  -5   3   0   85.89    4.84
  -5   3   0   82.31    3.87
  -5   3   0   79.66    3.49
   5  -3   0   83.22    5.20
  -5   3   0   88.62    4.88
   5  -3   1    6.77    1.22
  -5   3  -1    7.99    1.39
  -5   3  -1    7.01    1.31
   5  -3   1    5.69    2.13
  -5   3  -1    8.40    1.39
  -5   3  -1    8.22    1.13
   5  -3   1    8.17    1.09
  -5   3  -2   39.98    3.26
   5  -3   2   33.42    4.55
  -5   3  -2   45.00    3.08
  -5   3  -2   46.29    3.32
   5  -3   2   45.28    2.88
   5  -3   2   45.75    3.46
  -5   3  -2   47.44    3.66
   5  -3   3    0.79    0.34
  -5   3  -3    1.01    0.50
  -5   3  -3   -0.17    0.64
   5  -3   3    3.15    1.68
  -5   3  -3    1.56    0.81
  -5   3  -3    1.29    0.54
   5  -3   3    0.67    0.38
  -5   3  -4   18.95    2.31
   5  -3   4   20.03    3.09
  -5   3  -4   20.58    2.35
  -5   3  -4   25.28    2.47
   5  -3   4   22.54    2.14
   5  -3   4   25.75    2.31
  -5   3  -4   18.84    2.46
   5  -3   5    6.65    1.15
  -5   3  -5    7.09    1.49
  -5   3  -5    7.67    1.53
   5  -3   5    8.09    1.97
  -5   3  -5    8.07    1.67
  -5   3  -5    8.03    1.36
   5  -3   5    5.74    1.12
   5  -3   6    3.77    0.85
  -5   3  -6    4.44    1.36
  -5   3  -6    5.55    1.50
  -5   3  -6    4.29    1.31
  -5   3  -6    3.66    1.01
   5  -3   6    3.95    1.29
   5  -3   6    4.58    1.07
  -5   3  -7   12.69    1.97
  -5   3  -7   11.22    2.18
  -5   3  -7   12.66    2.25
  -5   3  -7   14.03    1.89
   5  -3   7    8.56    1.93
   5  -3   7   10.66    1.76
   5  -3   7   11.60    1.45
  -5   3  -8   -0.99    1.00
  -5   3  -8   -0.54    0.73
  -5   3  -8    0.90    0.71
   5  -3   8    0.34    0.59
   5  -3   8   -0.66    0.58
  -5   3  -9    6.38    1.81
   5  -3   9    5.84    1.47
  -5   3  -9    5.91    1.67
  -5   3  -9    5.42    1.17
   5  -3   9    5.35    1.68
  -5   3 -10   10.57    1.69
  -5   3 -10   10.04    2.53
  -5   3 -10    8.48    1.92
   5  -3  10   11.31    1.95
   5  -3  10   11.66    2.35
  -5   3 -11    6.35    1.41
  -5   3 -11    5.76    1.90
   5  -3  11    6.15    1.87
  -5   3 -11    8.94    2.29
   5  -3  11    5.51    1.45
   5  -3  12   93.58    6.54
   5  -3  12   92.77    7.49
  -5   3 -12   78.42    6.72
  -5   3 -12   80.58    7.44
  -5   3 -13   19.98    3.69
   5  -3  13   23.69    3.80
  -5   3 -13   23.30    3.56
   5  -3  13   23.28    3.30
   5  -3  14    3.72    1.75
  -5   3 -14    0.31    0.69
   5  -3  14    2.86    1.36
   5  -3  15    1.94    1.21
  -5   3 -15    4.10    1.78
   5  -3  15    3.94    1.52
   5  -2 -19    2.46    2.70
  -5   2  18   -0.15    0.79
   5  -2 -18    8.35    6.04
   5  -2 -17    7.23    2.74
  -5   2  17    7.76    2.39
   5  -2 -16   16.05    6.57
  -5   2  16   19.82    2.71
  -5   2  16   21.06    3.62
  -5   2  15    0.56    0.56
  -5   2  15   -0.02    0.61
  -5   2  15    1.35    1.02
   5  -2 -14    0.24    3.60
  -5   2  14    4.72    1.12
  -5   2  14    5.83    1.80
  -5   2  14    4.29    1.24
   5  -2 -13    5.55    4.20
  -5   2  13    8.49    1.43
  -5   2  13    6.94    1.54
  -5   2  13    8.43    2.21
  -5   2  12    0.14    0.46
  -5   2  12   -0.23    0.36
  -5   2  12   -1.34    1.05
   5  -2 -11   -1.11    3.59
  -5   2  11    0.14    0.33
  -5   2  11    0.24    0.55
  -5   2  11    0.13    0.28
  -5   2  11   -0.35    0.52
   5  -2 -10    1.82    3.42
  -5   2  10    0.35    0.33
  -5   2  10    0.92    0.75
  -5   2  10    0.42    0.33
  -5   2  10    0.01    0.48
   5  -2  -9   -1.17    3.45
  -5   2   9    0.05    0.50
  -5   2   9    0.43    0.82
  -5   2   9    0.82    0.46
  -5   2   9    0.85    0.50
   5  -2  -8   13.13    5.06
  -5   2   8   13.17    1.63
   5  -2  -8   13.41    1.57
  -5   2   8   13.13    2.02
  -5   2   8   12.81    1.74
  -5   2   7    8.47    1.32
   5  -2  -7    5.54    3.22
   5  -2  -7    7.06    1.04
  -5   2   7    8.56    1.60
  -5   2   7    7.74    1.46
  -5   2   6    2.47    0.78
   5  -2  -6    5.05    3.01
   5  -2  -6    0.25    0.31
  -5   2   6    2.60    0.96
  -5   2   6    2.16    0.90
  -5   2   5   66.51    3.96
   5  -2  -5   60.75    8.64
   5  -2  -5   74.84    3.46
  -5   2   5   68.29    4.13
  -5   2   5   71.67    4.62
  -5   2   4    8.57    1.27
   5  -2  -4    5.12    3.19
   5  -2  -4    8.61    0.79
   5  -2  -4   10.30    1.16
  -5   2   4    8.96    1.31
  -5   2   4    9.31    1.56
  -5   2   3    2.01    0.65
   5  -2  -3    2.28    2.79
  -5   2   3    1.69    0.57
   5  -2  -3    2.35    0.62
  -5   2   3    1.95    0.69
  -5   2   2    1.17    0.66
  -5   2   2    0.38    0.42
  -5   2   2    0.93    0.47
   5  -2  -2    1.33    1.69
  -5   2   2    0.90    1.74
   5  -2  -2    0.39    0.26
   5  -2  -2    0.45    0.17
  -5   2   2    0.75    0.46
  -5   2   1   43.00    3.12
  -5   2   1   36.80    2.27
   5  -2  -1   36.62    5.89
   5  -2  -1   37.84    2.76
  -5   2   1   36.98    5.29
   5  -2  -1   37.93    1.98
  -5   2   1   35.72    3.55
  -5   2   1   39.30    3.16
  -5   2   0    9.40    1.54
  -5   2   0    5.70    1.14
  -5   2   0    7.18    0.80
  -5   2   0    7.71    2.84
   5  -2   0    6.65    0.83
  -5   2   0    5.34    0.75
  -5   2  -1   24.88    2.52
  -5   2  -1   25.28    1.83
  -5   2  -1   27.75    4.92
   5  -2   1   23.03    1.76
  -5   2  -1   23.43    2.60
  -5   2  -2   23.08    2.37
  -5   2  -2   22.17    1.94
  -5   2  -2   27.27    4.80
  -5   2  -2   24.09    2.26
   5  -2   2   23.01    1.86
   5  -2   2   20.51    2.19
  -5   2  -2   22.58    2.65
  -5   2  -3   74.01    4.58
  -5   2  -3   78.69    8.11
  -5   2  -3   64.70    3.86
  -5   2  -3   69.59    4.08
   5  -2   3   69.16    3.66
   5  -2   3   63.88    5.16
   5  -2   3   61.97    3.91
  -5   2  -3   68.75    4.86
  -5   2  -4   26.99    2.69
  -5   2  -4   25.51    2.48
  -5   2  -4   26.28    2.48
   5  -2   4   23.82    2.16
   5  -2   4   27.61    3.34
   5  -2   4   24.77    2.22
  -5   2  -4   29.13    3.16
  -5   2  -5    0.40    0.50
   5  -2   5    0.25    0.31
  -5   2  -5    1.52    0.74
  -5   2  -5   -0.44    0.89
  -5   2  -5   -0.08    0.45
   5  -2   5    0.06    0.45
   5  -2   5    0.26    0.58
   5  -2   6    1.06    0.36
  -5   2  -6    2.90    1.19
  -5   2  -6    0.91    0.61
  -5   2  -6    1.47    0.71
   5  -2   6   -0.11    0.52
   5  -2   6    1.07    0.63
   5  -2   7   29.57    3.43
  -5   2  -7   26.39    3.01
  -5   2  -7   27.79    2.62
   5  -2   7   28.85    2.79
   5  -2   7   24.98    3.31
  -5   2  -7   31.16    3.82
  -5   2  -8   16.01    2.89
  -5   2  -8   12.06    1.68
   5  -2   8   12.12    2.29
  -5   2  -8   13.57    2.23
   5  -2   8   16.16    2.23
   5  -2   8   15.28    2.64
  -5   2  -9    2.57    1.46
   5  -2   9    0.76    0.91
  -5   2  -9    2.20    1.00
  -5   2  -9    2.55    0.82
   5  -2   9    1.08    0.68
   5  -2   9    2.60    0.98
  -5   2 -10    1.89    1.38
   5  -2  10    3.71    1.59
  -5   2 -10    3.50    1.49
  -5   2 -10    3.19    0.98
   5  -2  10    2.70    1.06
  -5   2 -11   -0.01    0.84
   5  -2  11    1.30    1.35
  -5   2 -11   -1.15    0.87
   5  -2  11    0.56    0.61
   5  -2  12    3.15    1.12
  -5   2 -12    3.38    1.53
   5  -2  12    2.86    1.41
  -5   2 -12    2.59    0.96
  -5   2 -13    1.55    1.32
   5  -2  13    2.92    1.72
  -5   2 -13    3.26    1.51
   5  -2  13    3.17    1.22
  -5   2 -14   10.67    2.89
   5  -2  14   14.11    3.04
  -5   2 -14   13.77    2.77
   5  -2  14   10.45    2.31
  -5   2 -15   -0.91    1.20
   5  -2  15    0.15    0.99
  -5   2 -15    0.90    0.80
   5  -2  15   -0.04    0.82
   5  -1 -19    0.17    2.46
   5  -1 -18   16.25    6.58
  -5   1  18   15.65    2.78
  -5   1  18   15.78    3.43
  -5   1  17    0.73    0.67
  -5   1  17   -0.49    1.20
  -5   1  16   -0.51    1.30
   5  -1 -16    2.39    2.38
  -5   1  16    2.07    0.91
   5  -1 -15    0.66    3.49
  -5   1  15    0.61    0.79
  -5   1  15    0.71    0.67
  -5   1  14    0.18    0.65
  -5   1  14    2.04    0.95
   5  -1 -13    4.86    3.47
  -5   1  13    8.23    1.93
  -5   1  13    7.10    1.61
   5  -1 -12    0.67    2.40
  -5   1  12    0.60    0.61
  -5   1  12   -0.04    0.36
  -5   1  12    0.27    0.54
   5  -1 -11   48.00    9.25
  -5   1  11   46.75    4.44
  -5   1  11   46.69    3.01
  -5   1  11   49.08    3.87
  -5   1  10   16.40    1.56
   5  -1 -10   19.30    6.64
  -5   1  10   15.66    2.40
   5  -1 -10   18.39    2.23
  -5   1  10   15.09    2.05
  -5   1   9    1.16    0.51
  -5   1   9    0.82    0.60
   5  -1  -9   -1.19    1.95
   5  -1  -9    1.23    0.70
  -5   1   9    1.92    0.49
  -5   1   9    2.18    0.86
  -5   1   8   -0.35    0.62
  -5   1   8    0.16    0.29
   5  -1  -8   -2.11    4.16
   5  -1  -8    0.77    0.45
  -5   1   8   -0.08    0.24
  -5   1   8   -0.14    0.41
  -5   1   7   29.97    2.29
   5  -1  -7   29.01    6.51
   5  -1  -7   29.61    2.50
  -5   1   7   33.47    4.41
  -5   1   7   26.10    2.69
   5  -1  -7   24.19    1.52
  -5   1   7   28.80    2.87
  -5   1   6   12.73    1.76
  -5   1   6   12.94    1.48
   5  -1  -6    9.46    4.03
   5  -1  -6   12.53    1.57
   5  -1  -6    9.66    0.79
  -5   1   6   12.91    2.78
  -5   1   6   11.56    1.77
  -5   1   5   34.76    2.63
   5  -1  -5   31.60    6.50
  -5   1   5   37.41    5.09
   5  -1  -5   41.35    2.78
  -5   1   5   39.24    2.96
   5  -1  -5   33.35    1.45
   5  -1  -5   30.68    1.26
  -5   1   5   40.33    3.31
  -5   1   4   11.28    1.42
   5  -1  -4   10.10    0.66
  -5   1   4   12.28    1.54
   5  -1  -4    6.37    0.59
  -5   1   4   11.71    2.69
   5  -1  -4   11.41    1.42
  -5   1   4   10.19    1.82
  -5   1   3   -0.22    0.64
  -5   1   3    0.01    0.32
   5  -1  -3   -0.03    0.17
  -5   1   3    1.40    1.71
   5  -1  -3   -0.26    0.39
  -5   1   3   -0.32    0.39
  -5   1   3    0.21    0.66
  -5   1   2   16.41    2.12
  -5   1   2   14.76    1.74
   5  -1  -2   13.84    1.30
  -5   1   2   13.18    1.34
   5  -1  -2   14.46    1.70
  -5   1   2   15.72    3.52
  -5   1   2   15.13    2.17
  -5   1   1   -1.26    0.90
  -5   1   1    0.61    0.34
  -5   1   1    0.73    0.29
   5  -1  -1    0.57    0.36
  -5   1   1    0.22    1.91
   5  -1  -1    0.65    0.50
  -5   1   1   -0.06    0.80
   5  -1  -1    0.40    0.18
   5  -1   0   31.19    1.65
  -5   1   0   33.36    2.75
  -5   1   0   28.06    1.59
   5  -1   0   32.14    2.53
   5  -1   0   33.90    2.96
  -5   1   0   39.60    5.67
   5  -1   0   34.31    3.60
  -5   1   0   30.81    3.36
  -5   1   0   32.46    3.14
  -5   1  -1    5.74    1.47
  -5   1  -1    4.55    1.02
   5  -1   1    4.72    1.04
  -5   1  -1    5.53    0.81
  -5   1  -1    4.96    2.56
   5  -1   1    4.56    1.38
   5  -1   1    4.77    0.70
  -5   1  -2   39.36    3.17
   5  -1   2   39.60    3.21
  -5   1  -2   41.25    2.62
  -5   1  -2   34.36    5.68
   5  -1   2   40.38    2.42
   5  -1   2   35.01    3.76
  -5   1  -2   40.92    3.73
   5  -1   3    7.00    1.26
  -5   1  -3   10.77    1.98
   5  -1   3    8.75    1.47
  -5   1  -3   10.29    1.43
  -5   1  -3    7.63    3.33
   5  -1   3   10.28    2.10
   5  -1   3    8.34    1.10
   5  -1   4   34.16    2.54
   5  -1   4   33.58    3.30
  -5   1  -4   35.33    2.81
  -5   1  -4   37.66    5.91
   5  -1   4   30.76    3.58
   5  -1   4   29.23    2.37
  -5   1  -4   31.39    3.57
   5  -1   5    1.69    0.45
  -5   1  -5    0.15    1.07
   5  -1   5    1.86    0.74
  -5   1  -5    1.52    1.65
  -5   1  -5    2.59    0.82
   5  -1   5    2.24    1.14
   5  -1   5    2.68    0.93
  -5   1  -6    2.84    1.62
   5  -1   6    0.66    0.66
  -5   1  -6   -1.44    2.29
  -5   1  -6    1.29    0.39
   5  -1   6    1.23    0.64
   5  -1   6    1.00    0.34
  -5   1  -7   27.26    3.75
   5  -1   7   28.65    3.42
  -5   1  -7   28.78    3.07
  -5   1  -7   31.59    5.72
   5  -1   7   24.07    2.60
   5  -1   7   29.20    3.62
   5  -1   8   35.42    3.34
  -5   1  -8   30.64    4.35
   5  -1   8   36.64    4.05
  -5   1  -8   41.64    3.84
  -5   1  -8   39.64    6.56
  -5   1  -9    2.92    1.53
   5  -1   9    0.81    0.81
  -5   1  -9   -0.24    0.59
   5  -1   9   -0.14    0.45
  -5   1 -10    0.90    1.86
   5  -1  10    0.90    0.96
  -5   1 -10    0.24    0.64
   5  -1  10   -0.20    0.47
  -5   1 -11    1.46    1.61
   5  -1  11   -0.83    0.65
  -5   1 -11   -0.06    0.69
   5  -1  11    1.22    0.73
  -5   1 -12   -0.60    1.04
   5  -1  12    1.18    0.73
  -5   1 -12    0.73    0.87
   5  -1  12   -0.12    0.71
  -5   1 -13    2.09    1.67
   5  -1  13    1.37    1.00
  -5   1 -13    1.60    0.57
   5  -1  13    3.12    1.28
  -5   1 -14   -3.26    2.11
   5  -1  14    1.87    1.41
  -5   1 -14   -1.52    1.37
   5  -1  14    0.64    0.92
  -5   1 -15    5.63    2.74
  -5   1 -15    2.17    1.30
   5  -1  15    1.12    1.01
   5   0 -19   -1.19    4.12
  -5   0  19   -0.19    0.67
   5   0 -18   44.47   10.53
  -5   0  18   40.91    5.40
  -5   0  18   40.21    4.45
   5   0 -17   -2.69    2.64
  -5   0  17    4.94    1.92
  -5   0  17    3.39    1.23
   5   0 -16   21.01    7.12
  -5   0  16   17.90    3.31
  -5   0  16   13.79    2.44
  -5   0  15    1.74    0.94
  -5   0  15    1.75    0.70
   5   0 -14   -0.49    2.48
  -5   0  14   -0.11    0.59
  -5   0  14    0.28    0.71
   5   0 -13   52.90   10.34
  -5   0  13   58.89    5.44
  -5   0  13   58.93    4.74
   5   0 -12   12.85    5.59
   5   0 -12   26.08    3.13
  -5   0  12   22.62    3.21
  -5   0  12   23.49    2.76
   5   0 -11   -0.85    2.59
   5   0 -11    2.45    0.80
  -5   0  11    1.59    0.60
  -5   0  11    1.99    0.95
   5   0 -10   43.75    9.22
   5   0 -10   51.36    4.13
  -5   0  10   64.98    5.20
  -5   0  10   63.63    4.51
   5   0  -9  114.76    6.12
  -5   0   9  109.92    8.02
  -5   0   9  119.73    6.96
   5   0  -9  108.44    5.26
   5   0  -9   99.62   12.80
  -5   0   9  119.83    6.40
  -5   0   8   17.56    1.51
   5   0  -8   17.90    5.33
   5   0  -8   17.99    2.13
   5   0  -8   16.23    1.69
  -5   0   8   15.18    2.96
  -5   0   8   19.28    2.47
  -5   0   8   17.57    2.26
  -5   0   7    3.95    0.73
   5   0  -7   -2.45    3.46
   5   0  -7    3.22    1.04
  -5   0   7    3.33    0.95
  -5   0   7    3.05    1.15
   5   0  -7    3.70    0.88
  -5   0   7    4.79    1.28
  -5   0   6    0.57    0.43
  -5   0   6    0.57    0.74
   5   0  -6    0.70    0.61
  -5   0   6    1.36    1.16
   5   0  -6   -0.12    0.23
  -5   0   6    0.88    0.81
  -5   0   5    8.62    1.14
  -5   0   5    9.20    1.44
   5   0  -5    8.89    1.43
  -5   0   5    7.33    2.61
   5   0  -5    7.61    1.59
  -5   0   5    8.02    1.52
  -5   0   4   92.53    4.36
   5   0  -4   87.70    3.04
  -5   0   4   87.88    8.28
   5   0  -4   93.36    4.94
  -5   0   4   78.37    4.34
   5   0  -4   94.92    5.89
  -5   0   4   87.03    5.31
  -5   0   4   92.36    5.30
  -5   0   3   41.44    2.81
   5   0  -3   40.34    2.10
   5   0  -3   42.13    3.18
  -5   0   3   36.45    2.55
  -5   0   3   35.13    5.29
   5   0  -3   37.86    3.58
  -5   0   3   36.47    3.38
  -5   0   3   42.28    3.42
  -5   0   2   19.02    2.32
  -5   0   2   17.50    1.80
   5   0  -2   18.03    1.52
   5   0  -2   17.04    2.12
  -5   0   2   17.27    1.50
  -5   0   2   15.85    3.47
   5   0  -2   19.99    2.56
  -5   0   2   17.05    2.46
  -5   0   1   84.01    4.44
   5   0  -1   84.01    3.99
  -5   0   1   72.07    3.09
  -5   0   1   66.02    7.77
   5   0  -1   83.82    4.98
   5   0  -1   86.40    5.71
  -5   0   1   77.86    5.29
  -5   0   1   81.02    5.23
   5   0   0   67.33    3.77
  -5   0   0   69.94    7.83
   5   0   0   68.93    4.70
   5   0   0   54.54    2.17
   5   0   0   82.15    5.74
  -5   0   0   66.33    5.11
  -5   0   0   71.05    5.00
  -5   0  -1   20.29    2.66
   5   0   1   22.25    2.18
   5   0   1   21.40    2.66
  -5   0  -1   24.32    4.89
   5   0   1   22.49    1.49
   5   0   1   20.56    2.83
  -5   0  -1   18.83    2.69
  -5   0  -2   -0.58    1.18
   5   0   2   -0.10    0.34
  -5   0  -2    0.11    2.04
   5   0   2    1.42    1.04
   5   0   2    0.05    0.24
   5   0   3   44.50    3.56
  -5   0  -3   44.38    2.96
  -5   0  -3   36.02    5.92
   5   0   3   37.91    4.00
   5   0   3   40.74    2.66
  -5   0  -3   42.79    4.31
  -5   0  -4   23.28    3.27
   5   0   4   20.49    2.55
  -5   0  -4   21.55    2.14
  -5   0  -4   23.10    5.04
   5   0   4   17.36    2.66
   5   0   4   19.85    1.93
  -5   0  -5   11.67    2.52
   5   0   5    6.24    1.51
  -5   0  -5   10.00    1.61
  -5   0  -5   11.64    3.90
   5   0   5    7.10    1.84
   5   0   5    7.94    1.30
  -5   0  -6   10.97    2.55
   5   0   6   12.67    2.22
  -5   0  -6   14.40    1.99
  -5   0  -6   10.28    3.49
   5   0   6   15.11    1.93
  -5   0  -7    8.87    2.33
   5   0   7   10.59    2.07
  -5   0  -7    9.28    1.63
  -5   0  -7    7.45    3.00
   5   0   7    8.52    1.52
  -5   0  -8   11.39    2.90
   5   0   8    8.28    1.92
  -5   0  -8   11.79    3.68
  -5   0  -8    8.73    1.67
   5   0   8    9.18    1.67
  -5   0  -9    2.21    1.85
   5   0   9   -0.19    0.56
  -5   0  -9   -0.88    2.00
  -5   0  -9    1.99    1.14
   5   0   9    0.81    0.45
  -5   0 -10    2.25    2.01
   5   0  10    1.94    1.28
  -5   0 -10   -4.42    3.13
  -5   0 -10    2.92    1.32
   5   0  10    0.23    0.47
  -5   0 -11   10.64    3.03
   5   0  11   14.36    2.80
  -5   0 -11   10.05    3.68
  -5   0 -11   14.18    2.50
   5   0  11   12.04    2.27
  -5   0 -12   11.05    3.41
   5   0  12   17.93    3.15
  -5   0 -12   17.91    3.00
   5   0  12   17.45    2.81
  -5   0 -13   20.64    4.53
   5   0  13   24.74    3.89
  -5   0 -13   26.41    3.60
   5   0  13   22.97    3.34
   5   0  14   72.47    6.91
  -5   0 -14   64.56    6.00
   5   0  14   66.68    6.00
  -5   0 -14   47.62    6.87
  -5   0 -15    1.23    1.68
   5   0  15    0.81    0.86
  -5  -1  19    2.48    1.27
   5   1 -19   -1.61    3.00
   5   1 -18    5.00    3.84
  -5  -1  18    2.88    1.32
  -5  -1  18    6.80    1.95
   5   1 -17    4.76    3.71
  -5  -1  17   18.02    3.55
  -5  -1  17   15.76    2.87
   5   1 -16    7.22    4.24
  -5  -1  16   13.31    2.92
  -5  -1  16   14.18    2.57
  -5  -1  15   -0.07    1.19
  -5  -1  15   -0.45    0.69
   5   1 -14   -2.40    3.93
  -5  -1  14   -0.12    0.88
  -5  -1  14    1.16    0.79
   5   1 -13   -0.35    3.10
   5   1 -13   -0.02    0.89
  -5  -1  13    1.94    1.42
  -5  -1  13    0.76    0.56
   5   1 -12   -1.40    2.84
   5   1 -12    0.80    0.53
  -5  -1  12    1.86    1.11
  -5  -1  12    0.70    0.70
   5   1 -11    7.68    4.32
   5   1 -11   15.40    2.31
   5   1 -11   11.70    1.80
  -5  -1  11   10.96    1.97
  -5  -1  11   12.41    2.41
   5   1 -10  212.48    9.63
   5   1 -10  201.32    8.76
  -5  -1  10  211.87   10.43
   5   1 -10  179.19   18.79
  -5  -1  10  235.70    9.91
   5   1  -9   85.32   12.08
   5   1  -9  100.18    5.95
  -5  -1   9   94.54    8.36
   5   1  -9   96.97    5.27
  -5  -1   9   96.61    6.40
   5   1  -9  103.01    5.64
  -5  -1   9  107.29    6.13
  -5  -1   8    0.37    0.57
  -5  -1   8    1.69    0.98
   5   1  -8   -0.58    0.60
   5   1  -8   -0.25    0.35
  -5  -1   8    0.35    1.60
   5   1  -8    0.03    0.51
  -5  -1   7    6.61    1.54
   5   1  -7    7.43    1.50
   5   1  -7    5.83    1.12
  -5  -1   7    7.39    2.68
   5   1  -7    8.86    1.70
  -5  -1   7    9.55    1.72
  -5  -1   6   13.19    1.91
   5   1  -6   11.75    1.80
  -5  -1   6   11.22    2.94
   5   1  -6   12.72    1.98
  -5  -1   6   13.45    1.98
   5   1  -5   23.22    1.39
   5   1  -5   24.94    2.62
  -5  -1   5   20.27    2.27
  -5  -1   5   22.89    4.45
   5   1  -5   23.00    2.82
  -5  -1   5   24.62    2.70
  -5  -1   5   26.08    2.75
  -5  -1   4   -0.04    0.56
   5   1  -4    0.02    0.18
   5   1  -4    0.09    0.49
  -5  -1   4   -0.61    1.29
   5   1  -4   -0.03    0.66
  -5  -1   4    0.49    0.58
  -5  -1   4    0.39    0.40
   5   1  -3   57.96    2.85
   5   1  -3   57.79    4.12
  -5  -1   3   52.76    7.04
  -5  -1   3   47.05    3.15
   5   1  -3   55.89    4.49
  -5  -1   3   55.28    4.26
  -5  -1   3   54.48    4.11
   5   1  -2   27.77    2.04
   5   1  -2   28.38    2.97
  -5  -1   2   21.47    1.81
  -5  -1   2   24.00    4.96
   5   1  -2   26.63    3.08
  -5  -1   2   23.00    2.77
  -5  -1   2   25.46    2.85
   5   1  -1   60.90    3.40
  -5  -1   1   62.03    8.08
   5   1  -1   59.78    4.45
  -5  -1   1   51.52    2.61
   5   1  -1   60.19    4.82
  -5  -1   1   57.37    4.58
  -5  -1   1   59.56    4.61
  -5  -1   0   -0.69    0.73
   5   1   0    1.14    0.62
   5   1   0    0.49    0.76
  -5  -1   0   -2.25    1.99
   5   1   0    1.00    0.73
  -5  -1   0    1.95    1.26
  -5  -1  -1    3.30    1.22
   5   1   1    2.95    0.89
  -5  -1  -1    4.45    3.13
   5   1   1    2.11    1.10
   5   1   1    3.80    0.61
   5   1   1    1.86    1.15
  -5  -1  -1    4.26    1.54
   5   1   2    2.48    0.54
  -5  -1  -2    1.49    1.01
   5   1   2    1.40    0.83
   5   1   2    0.30    0.41
  -5  -1  -2   -0.12    1.82
   5   1   2    2.17    0.92
  -5  -1  -3    0.77    0.81
   5   1   3    0.95    0.73
  -5  -1  -3    1.96    1.36
   5   1   3    0.86    0.49
  -5  -1  -4   30.73    3.89
   5   1   4   36.17    3.42
  -5  -1  -4   29.54    5.62
   5   1   4   32.72    2.54
  -5  -1  -5   -0.74    1.19
   5   1   5   -0.08    0.47
  -5  -1  -5   -0.06    0.58
   5   1   5    0.80    0.52
  -5  -1  -6   14.53    2.80
   5   1   6   15.79    2.46
  -5  -1  -6   17.76    2.21
  -5  -1  -6   17.45    4.46
   5   1   6   15.61    1.98
  -5  -1  -7    5.24    1.77
   5   1   7    8.30    1.86
  -5  -1  -7    7.05    1.53
  -5  -1  -7    4.27    2.53
   5   1   7    5.83    1.28
  -5  -1  -8   -1.05    1.70
   5   1   8    0.63    0.57
  -5  -1  -8    1.71    0.85
  -5  -1  -8    3.52    3.20
   5   1   8    2.21    1.01
  -5  -1  -9   -0.66    1.72
   5   1   9   -0.29    0.63
  -5  -1  -9    0.76    0.68
  -5  -1  -9    1.65    2.57
   5   1   9    1.12    0.53
  -5  -1 -10    7.94    2.48
   5   1  10    6.99    1.97
  -5  -1 -10    8.59    1.85
  -5  -1 -10    6.73    3.20
   5   1  10    5.97    1.51
  -5  -1 -11   36.50    5.87
   5   1  11   48.24    5.09
  -5  -1 -11   53.85    4.86
  -5  -1 -11   33.24    6.29
   5   1  11   45.52    4.38
  -5  -1 -12   32.14    5.68
   5   1  12   41.34    4.97
  -5  -1 -12   47.70    4.75
  -5  -1 -12   32.39    6.85
   5   1  12   40.88    4.36
  -5  -1 -13   -0.40    1.32
   5   1  13    3.06    1.40
  -5  -1 -13    1.10    0.93
   5   1  13    1.06    0.67
  -5  -1 -14   11.15    3.39
  -5  -1 -14   15.87    2.84
   5   1  14   13.08    2.61
   5   2 -19    9.77    6.17
   5   2 -18    2.51    3.89
  -5  -2  18    2.48    1.61
  -5  -2  18    1.85    1.18
  -5  -2  17    0.46    0.91
   5   2 -17    4.19    5.28
  -5  -2  17    0.64    0.99
   5   2 -16   -0.16    3.61
  -5  -2  16    1.10    1.29
  -5  -2  16    0.68    0.66
   5   2 -15   10.83    6.13
  -5  -2  15   11.09    2.31
  -5  -2  15    7.52    2.16
  -5  -2  14   -0.72    1.22
   5   2 -14    1.89    3.70
   5   2 -14    0.39    0.92
  -5  -2  14    0.59    0.95
  -5  -2  13    4.43    1.70
   5   2 -13    1.90    2.76
   5   2 -13    3.34    1.46
  -5  -2  13    3.93    1.41
  -5  -2  12    5.15    1.72
   5   2 -12    9.16    5.64
   5   2 -12    5.31    1.57
   5   2 -12    7.70    1.77
  -5  -2  12    4.56    1.36
   5   2 -11    1.34    3.35
  -5  -2  11    5.05    1.36
   5   2 -11    3.93    1.23
   5   2 -11    4.72    1.33
  -5  -2  11    4.17    1.24
   5   2 -10    2.60    3.57
  -5  -2  10    0.69    0.74
   5   2 -10    1.34    1.19
   5   2 -10    0.71    0.60
  -5  -2  10    0.36    1.44
  -5  -2  10   -1.04    0.83
   5   2  -9    5.69    1.57
  -5  -2   9    4.45    1.33
   5   2  -9    3.24    1.07
  -5  -2   9    8.28    3.17
  -5  -2   9    5.19    1.43
   5   2  -8  198.71    9.22
  -5  -2   8  191.40   14.29
   5   2  -8  178.44    8.16
  -5  -2   8  182.25    9.22
  -5  -2   8  198.14    8.94
   5   2  -7   20.49    2.59
  -5  -2   7   18.25    4.53
   5   2  -7   18.74    2.35
  -5  -2   7   21.64    2.62
  -5  -2   7   17.34    2.44
   5   2  -6    8.74    1.77
  -5  -2   6    6.92    3.00
   5   2  -6    8.52    1.63
  -5  -2   6    8.53    1.64
  -5  -2   6    8.08    1.59
  -5  -2   5    8.91    1.64
   5   2  -5    8.63    0.99
   5   2  -5    7.74    1.71
  -5  -2   5    5.29    2.75
   5   2  -5    6.78    1.50
  -5  -2   5    8.30    1.62
  -5  -2   5    7.08    1.43
  -5  -2   4   17.75    2.41
   5   2  -4   16.99    1.50
   5   2  -4   17.76    2.36
  -5  -2   4   17.28    5.01
   5   2  -4   13.17    2.17
  -5  -2   4   17.01    2.26
  -5  -2   4   12.72    1.74
   5   2  -3   67.21    3.46
   5   2  -3   69.08    4.97
  -5  -2   3   78.68    9.60
  -5  -2   3   51.29    3.54
  -5  -2   3   70.45    4.95
  -5  -2   3   68.02    4.82
  -5  -2   2    6.64    1.69
   5   2  -2    6.73    1.11
  -5  -2   2    4.68    0.93
   5   2  -2    6.60    1.51
  -5  -2   2    2.52    2.20
  -5  -2   2    5.16    1.25
   5   2  -1   86.27    4.43
  -5  -2   1   85.40    9.90
   5   2  -1   82.93    5.79
  -5  -2   1   79.85    5.59
  -5  -2   1   77.91    5.57
  -5  -2   0   18.04    2.70
   5   2   0   21.17    2.24
   5   2   0   22.69    2.96
  -5  -2   0   17.36    4.68
  -5  -2   0   18.72    2.82
  -5  -2  -1    3.23    2.59
  -5  -2  -1    0.41    0.84
   5   2   1    0.99    0.59
   5   2   1    0.82    0.75
  -5  -2  -1    1.45    1.08
  -5  -2  -2   13.15    2.46
   5   2   2   11.61    1.83
   5   2   2   13.47    2.47
  -5  -2  -2   18.13    4.73
  -5  -2  -2    9.13    2.05
  -5  -2  -3   21.94    3.27
   5   2   3   26.09    2.83
   5   2   3   24.65    2.13
  -5  -2  -3   29.96    6.44
   5   2   3   21.30    3.23
   5   2   4   92.01    5.87
  -5  -2  -4   75.88    9.94
   5   2   4   89.10    6.98
   5   2   4   87.86    4.69
  -5  -2  -4   94.90    7.34
  -5  -2  -5   -0.61    0.98
   5   2   5    0.89    0.98
   5   2   5    1.49    0.73
  -5  -2  -6    3.08    1.58
   5   2   6    5.45    1.37
  -5  -2  -6    2.33    1.66
   5   2   6    4.94    1.16
  -5  -2  -7    1.52    1.48
   5   2   7    1.20    0.79
  -5  -2  -7    0.87    1.81
   5   2   7    1.63    0.81
  -5  -2  -8    0.10    0.95
   5   2   8    0.71    0.98
  -5  -2  -8    3.32    2.99
   5   2   8    0.57    0.64
  -5  -2  -9    2.09    1.39
   5   2   9    3.39    1.48
  -5  -2  -9    7.07    1.68
  -5  -2  -9    4.96    2.33
   5   2   9    4.98    1.32
  -5  -2 -10    1.90    1.13
   5   2  10    4.68    1.79
  -5  -2 -10    4.40    1.29
  -5  -2 -10   -1.14    2.46
   5   2  10    4.85    1.47
  -5  -2 -11   27.08    5.21
   5   2  11   37.23    4.72
  -5  -2 -11   41.41    4.16
  -5  -2 -11   26.73    6.15
   5   2  11   37.19    4.05
  -5  -2 -12   -0.28    1.42
   5   2  12    2.29    1.41
  -5  -2 -12    0.85    1.01
   5   2  12    0.79    0.85
  -5  -2 -13    2.89    2.09
   5   2  13    5.23    1.91
  -5  -2 -13    6.32    1.91
   5   2  13    4.74    1.78
   5   2  14    0.18    0.74
   5   3 -18   -6.68    6.14
   5   3 -17    2.26    3.71
  -5  -3  17    2.06    1.32
  -5  -3  17    1.30    1.30
  -5  -3  16   -0.76    0.96
   5   3 -16    1.78    4.08
  -5  -3  16    0.69    0.67
  -5  -3  15    0.42    0.97
   5   3 -15    1.32    1.27
  -5  -3  15   -0.90    1.22
   5   3 -14   26.25    8.19
  -5  -3  14   28.95    4.25
   5   3 -14   27.84    3.81
  -5  -3  14   29.95    3.80
   5   3 -13    5.42    5.49
   5   3 -13    7.59    1.99
  -5  -3  13    7.43    2.34
  -5  -3  13    8.30    2.11
   5   3 -12   10.68    5.16
   5   3 -12    8.20    2.09
   5   3 -12    8.86    2.00
  -5  -3  12    8.04    2.28
  -5  -3  12    7.83    1.87
   5   3 -11    2.87    4.25
   5   3 -11    3.32    1.33
   5   3 -11    4.27    1.34
  -5  -3  11    6.51    1.47
  -5  -3  11    5.67    1.52
   5   3 -10   32.83    3.75
   5   3 -10   33.14    3.54
  -5  -3  10   31.07    3.93
  -5  -3  10   32.11    5.98
  -5  -3  10   38.88    3.92
  -5  -3   9    6.93    1.83
   5   3  -9    5.77    1.52
   5   3  -9    4.86    1.45
  -5  -3   9    6.83    3.67
  -5  -3   9    5.28    1.37
   5   3  -8  122.62    7.43
  -5  -3   8  121.67   12.28
  -5  -3   8  104.29    6.95
  -5  -3   8  122.87    7.00
   5   3  -7    7.03    1.96
  -5  -3   7    7.68    1.65
  -5  -3   7   11.98    4.83
  -5  -3   7    5.29    1.45
  -5  -3   6    0.26    0.58
  -5  -3   6    0.16    0.53
   5   3  -6    2.12    0.99
  -5  -3   6   -2.09    3.04
  -5  -3   6    0.04    0.66
  -5  -3   5   12.36    1.86
   5   3  -5   14.35    1.53
  -5  -3   5   12.95    1.97
   5   3  -5   14.11    2.29
  -5  -3   5   20.78    5.38
  -5  -3   5   14.69    2.22
  -5  -3   4    9.37    1.79
   5   3  -4    9.09    1.28
   5   3  -4    9.89    1.91
  -5  -3   4    7.12    1.39
  -5  -3   4   11.82    4.23
  -5  -3   4   10.36    1.96
  -5  -3   3   -0.02    0.64
   5   3  -3    0.02    0.49
   5   3  -3    0.41    0.97
  -5  -3   3    0.15    0.52
  -5  -3   3    1.15    0.70
   5   3  -2   18.22    1.92
   5   3  -2   18.00    2.71
  -5  -3   2   23.66    5.84
  -5  -3   2   17.17    2.60
  -5  -3   2   23.92    3.02
  -5  -3   1   -0.64    1.00
   5   3  -1    1.46    0.74
   5   3  -1    1.16    1.06
  -5  -3   1    1.92    2.30
  -5  -3   1   -0.45    0.80
  -5  -3   0    0.87    1.15
   5   3   0    0.52    0.65
   5   3   0    2.09    1.30
  -5  -3   0    6.20    2.82
  -5  -3   0    0.70    0.98
  -5  -3  -1   10.55    2.41
   5   3   1   14.37    2.05
   5   3   1   10.10    2.12
  -5  -3  -1   10.32    3.95
  -5  -3  -1    9.64    2.09
   5   3   2   33.22    3.20
   5   3   2   29.57    3.75
  -5  -3  -2   30.77    6.79
  -5  -3  -2   20.68    3.08
  -5  -3  -2   32.91    4.20
  -5  -3  -3    2.09    1.37
   5   3   3    1.07    0.83
   5   3   3    1.25    1.22
  -5  -3  -3    2.61    3.00
  -5  -3  -4   -2.75    1.89
   5   3   4   -0.25    0.56
   5   3   4    0.96    1.33
  -5  -3  -4   -1.11    1.92
  -5  -3  -5    1.47    1.26
   5   3   5    2.26    1.20
  -5  -3  -5   -1.78    2.99
   5   3   5    4.69    1.63
  -5  -3  -6    9.13    2.74
   5   3   6    3.19    1.04
   5   3   6    2.61    1.62
  -5  -3  -6    1.81    2.93
   5   3   6    4.07    1.10
  -5  -3  -7    7.40    2.64
   5   3   7    6.51    1.85
  -5  -3  -7    9.26    4.18
   5   3   7    3.83    1.21
   5   3   8    3.26    1.10
  -5  -3  -8    4.34    2.24
   5   3   8    6.24    1.73
  -5  -3  -8    5.10    3.68
   5   3   9   66.85    6.05
  -5  -3  -9   57.52    9.20
   5   3   9   64.47    5.16
  -5  -3  -9   54.73    7.16
  -5  -3 -10   33.84    5.63
   5   3  10   44.78    5.09
  -5  -3 -10   35.22    7.36
   5   3  10   40.09    4.20
  -5  -3 -11    2.97    2.07
   5   3  11    2.14    1.26
  -5  -3 -11    2.29    2.14
   5   3  11    2.17    0.98
   5   4 -17   -1.10    3.84
   5   4 -16    0.62    2.63
  -5  -4  16   -0.74    1.41
   5   4 -16   -0.78    1.02
  -5  -4  16    2.19    1.41
   5   4 -15   -1.36    1.50
  -5  -4  15   -0.96    1.27
  -5  -4  15    1.49    0.84
   5   4 -14    6.74    4.50
   5   4 -14    6.70    2.28
  -5  -4  14    8.52    2.59
  -5  -4  14    7.18    2.16
  -5  -4  13    8.69    2.37
   5   4 -13   13.11    7.98
   5   4 -13    9.37    2.23
   5   4 -13    8.48    2.16
  -5  -4  13    9.71    2.08
   5   4 -12    2.04    2.93
  -5  -4  12    0.82    1.15
   5   4 -12    3.64    1.57
   5   4 -12    0.92    0.60
  -5  -4  12    2.39    1.29
   5   4 -11    3.81    1.51
  -5  -4  11    1.88    1.25
   5   4 -11    1.98    0.74
  -5  -4  11    2.61    1.10
   5   4 -10   28.72    3.70
   5   4 -10   27.31    3.37
  -5  -4  10   29.16    3.97
  -5  -4  10   33.08    3.73
  -5  -4  10   37.00    7.04
  -5  -4   9    4.02    1.36
   5   4  -9    7.34    1.90
  -5  -4   9    6.59    3.00
  -5  -4   9    7.42    1.80
  -5  -4   8    8.77    2.00
   5   4  -8   11.18    2.41
  -5  -4   8   12.96    4.58
  -5  -4   8   11.67    2.16
   5   4  -7   24.20    3.38
  -5  -4   7   22.60    3.09
  -5  -4   7   26.30    3.19
  -5  -4   7   28.45    7.21
  -5  -4   6    0.47    0.54
   5   4  -6    1.20    1.13
  -5  -4   6    3.82    4.00
  -5  -4   6    0.19    0.64
   5   4  -5   33.26    3.93
  -5  -4   5   24.28    3.08
  -5  -4   5   28.14    6.77
  -5  -4   5   31.02    3.26
  -5  -4   4    2.00    0.86
   5   4  -4    1.12    0.78
   5   4  -4    1.01    1.11
  -5  -4   4   -3.04    2.58
  -5  -4   4    0.96    0.64
  -5  -4   3    2.86    1.15
   5   4  -3    3.56    0.96
   5   4  -3    4.89    1.58
  -5  -4   3    5.72    3.51
  -5  -4   3    6.42    1.58
  -5  -4   2    0.84    0.59
   5   4  -2    0.80    0.57
   5   4  -2    0.62    0.73
  -5  -4   2   -0.21    2.41
  -5  -4   2    2.02    1.00
   5   4  -1   58.20    4.09
   5   4  -1   58.30    5.23
  -5  -4   1   45.69    4.48
  -5  -4   1   53.60    8.88
  -5  -4   1   57.59    5.17
   5   4   0   67.58    4.57
   5   4   0   67.38    5.86
  -5  -4   0   62.21    5.34
  -5  -4   0   68.92   10.41
  -5  -4   0   60.74    5.66
  -5  -4  -1   22.15    3.48
   5   4   1   23.52    2.73
   5   4   1   23.89    3.57
  -5  -4  -1   18.97    5.58
  -5  -4  -1   18.50    2.91
  -5  -4  -2    7.54    1.98
   5   4   2    6.01    1.36
   5   4   2    6.56    2.07
  -5  -4  -2    6.81    4.40
  -5  -4  -2    7.71    2.01
  -5  -4  -3   -1.05    1.32
   5   4   3    0.86    0.56
   5   4   3   -0.40    1.07
  -5  -4  -3   -2.56    3.20
  -5  -4  -4   32.57    4.82
   5   4   4   29.70    3.51
   5   4   4   33.57    4.56
  -5  -4  -4   27.04    6.63
  -5  -4  -5   17.42    3.64
   5   4   5   14.64    2.48
   5   4   5   16.33    3.45
  -5  -4  -5   10.72    4.63
  -5  -4  -6    4.39    1.99
   5   4   6    0.81    0.92
   5   4   6    3.21    1.79
  -5  -4  -6    0.78    2.56
  -5  -4  -7    1.09    1.26
   5   4   7    4.36    1.39
  -5  -4  -7    3.16    3.35
   5   4   7    1.58    0.94
   5   4   8   -0.71    0.94
  -5  -4  -8   -0.54    1.01
   5   4   8    1.26    0.85
  -5  -4  -8    2.14    2.99
   5   4   9   -0.51    1.08
  -5  -4  -9    5.71    2.94
   5   4   9   -1.14    1.14
  -5  -4  -9    4.54    3.26
  -5  -4 -10    7.45    2.68
   5   4  10   10.91    2.63
  -5  -4 -10    6.40    2.87
   5   4  10   10.01    2.93
   5   5 -16    0.12    2.43
   5   5 -15   -5.61    5.13
   5   5 -15    4.23    1.99
  -5  -5  15   -2.03    1.53
  -5  -5  15   -0.25    0.71
  -5  -5  14   -1.06    1.42
   5   5 -14    2.69    4.44
   5   5 -14    2.45    1.34
  -5  -5  14   -1.36    1.29
   5   5 -13    7.44    3.29
   5   5 -13    3.08    1.43
  -5  -5  13    4.62    2.03
   5   5 -13    2.40    1.06
  -5  -5  13    2.25    1.29
   5   5 -12    3.04    1.62
   5   5 -12    0.46    0.66
  -5  -5  12    1.55    1.19
  -5  -5  12    2.87    1.96
  -5  -5  11    4.35    1.49
   5   5 -11    2.94    1.44
   5   5 -11    7.11    1.84
  -5  -5  11    5.27    1.77
  -5  -5  10    4.47    1.66
   5   5 -10    5.62    1.91
   5   5 -10    4.92    1.85
  -5  -5  10    0.23    1.70
  -5  -5  10    5.04    1.58
  -5  -5   9    0.06    0.77
   5   5  -9    0.48    0.77
  -5  -5   9    0.19    0.69
   5   5  -8   15.07    2.77
  -5  -5   8   11.13    2.17
  -5  -5   8   15.05    5.38
   5   5  -7    3.81    1.24
  -5  -5   7    4.12    1.43
  -5  -5   7    3.50    2.34
  -5  -5   6    4.87    1.35
   5   5  -6    5.55    1.56
  -5  -5   6    6.58    1.72
  -5  -5   6    6.01    3.36
   5   5  -5   24.44    3.55
  -5  -5   5   22.16    3.10
  -5  -5   5   24.77    6.86
  -5  -5   5   22.67    2.84
  -5  -5   4    6.92    1.61
   5   5  -4    7.31    1.46
   5   5  -4    6.72    1.76
  -5  -5   4    7.25    1.71
  -5  -5   4    9.00    5.01
   5   5  -3   32.55    3.09
   5   5  -3   32.82    4.10
  -5  -5   3   26.55    3.46
  -5  -5   3   22.94    6.55
  -5  -5   3   29.68    3.43
  -5  -5   2   13.03    2.44
   5   5  -2   13.46    1.98
   5   5  -2   13.08    2.65
  -5  -5   2   10.76    2.22
  -5  -5   2   20.66    6.18
   5   5  -1   37.73    3.56
   5   5  -1   37.08    4.39
  -5  -5   1   32.40    3.93
  -5  -5   1   31.79    7.77
  -5  -5   1   36.92    4.16
   5   5   0   62.01    4.74
   5   5   0   57.95    5.75
  -5  -5   0   54.41    5.16
  -5  -5   0   73.66   11.64
  -5  -5   0   57.04    5.52
  -5  -5  -1    6.77    2.00
   5   5   1    7.77    1.73
   5   5   1   11.99    2.75
  -5  -5  -1   10.92    4.12
  -5  -5  -1    6.08    1.75
   5   5   2  100.28    6.49
   5   5   2  104.86    8.19
  -5  -5  -2   83.98   12.46
  -5  -5  -2   79.70    7.22
  -5  -5  -3    1.08    1.41
   5   5   3    0.09    0.72
   5   5   3    0.45    1.19
  -5  -5  -3    0.69    3.10
  -5  -5  -4   10.19    3.21
   5   5   4    8.16    1.83
   5   5   4   10.91    2.60
  -5  -5  -4    6.54    4.36
  -5  -5  -5    5.78    2.72
   5   5   5    9.58    2.21
   5   5   5    3.72    1.34
  -5  -5  -5   11.42    5.32
  -5  -5  -6    8.51    2.71
   5   5   6   12.93    2.47
   5   5   6   10.13    2.49
  -5  -5  -6    3.67    2.74
  -5  -5  -7   13.78    3.49
   5   5   7   16.64    2.90
   5   5   7   16.98    3.60
  -5  -5  -7   11.48    4.99
  -5  -5  -8    2.85    1.61
   5   5   8    2.14    1.29
  -5  -5  -8    1.68    3.18
   5   5   8    4.03    2.02
  -5  -5  -9    1.82    1.78
   5   5   9    3.36    1.64
  -5  -5  -9    0.56    2.18
   5   5   9    5.46    2.41
  -5  -5 -10    0.25    2.34
   5   6 -15   -1.76    3.25
   5   6 -14    3.47    5.06
  -5  -6  14    0.20    0.73
  -5  -6  13    4.79    2.19
   5   6 -13    0.39    0.80
   5   6 -13   -0.04    1.07
  -5  -6  13    3.69    1.58
   5   6 -12   32.02    4.57
   5   6 -12   30.04    4.32
  -5  -6  12   33.86    4.92
  -5  -6  12   34.85    4.51
   5   6 -11   10.69    2.53
   5   6 -11   10.45    2.43
  -5  -6  11   11.74    2.68
  -5  -6  11   12.48    2.68
  -5  -6  10    5.83    1.94
   5   6 -10    5.06    1.82
   5   6 -10    4.72    1.54
  -5  -6  10    7.24    2.05
  -5  -6  10   12.70    4.97
   5   6  -9    1.58    1.04
  -5  -6   9    1.95    1.15
  -5  -6   9    5.40    4.88
   5   6  -8   -1.38    1.40
  -5  -6   8    2.24    1.42
  -5  -6   8   -3.13    3.35
   5   6  -7    2.94    1.58
  -5  -6   7    0.04    0.55
  -5  -6   7   -2.02    2.34
  -5  -6   6    2.91    1.24
   5   6  -6    3.41    1.53
  -5  -6   6    5.36    2.74
   5   6  -5   14.68    2.96
  -5  -6   5   11.52    2.34
  -5  -6   5   22.63    6.83
  -5  -6   4    1.57    0.62
   5   6  -4    1.74    0.70
   5   6  -4    3.95    1.79
  -5  -6   4    3.11    1.35
  -5  -6   4    3.16    2.59
   5   6  -3   41.72    3.80
   5   6  -3   40.66    4.86
  -5  -6   3   34.50    4.12
  -5  -6   3   52.90   10.40
  -5  -6   3   40.67    4.31
  -5  -6   2    7.71    1.79
   5   6  -2    9.57    1.90
   5   6  -2   11.11    2.57
  -5  -6   2   10.71    2.39
  -5  -6   2    1.80    3.13
  -5  -6   1   -1.14    1.28
   5   6  -1    0.07    0.60
   5   6  -1   -1.69    1.47
  -5  -6   1    0.67    0.67
  -5  -6   1    0.74    3.83
  -5  -6   0    1.76    1.29
   5   6   0    1.04    0.50
   5   6   0    1.15    0.92
  -5  -6   0   -0.01    3.00
  -5  -6  -1   -0.56    1.29
   5   6   1    0.68    0.92
   5   6   1   -0.46    1.00
  -5  -6  -1   -3.89    4.08
  -5  -6  -2   12.37    2.85
   5   6   2   14.29    2.63
   5   6   2   21.06    3.83
  -5  -6  -2   18.01    6.66
  -5  -6  -3    5.16    1.78
   5   6   3   11.31    2.37
   5   6   3    7.47    2.46
  -5  -6  -3    0.90    3.76
  -5  -6  -4   13.32    3.59
   5   6   4   17.99    3.01
   5   6   4   14.96    3.25
  -5  -6  -4    3.89    2.76
  -5  -6  -5    4.31    2.03
   5   6   5    3.94    1.54
   5   6   5    4.53    2.00
  -5  -6  -5    2.86    2.31
  -5  -6  -6    1.55    1.09
   5   6   6    3.34    1.64
   5   6   6    0.32    1.23
  -5  -6  -6    7.73    5.11
  -5  -6  -7   -0.04    1.85
  -5  -6  -7    0.29    1.06
   5   6   7   -0.71    1.09
  -5  -6  -8   -4.95    3.97
   5   7 -13    5.70    2.03
   5   7 -12   54.32    6.32
  -5  -7  12   55.02    6.56
  -5  -7  11    2.33    1.39
   5   7 -11    0.64    0.79
  -5  -7  11    3.42    1.64
   5   7 -10    2.49    1.65
   5   7 -10    1.37    1.38
  -5  -7  10    0.27    0.97
   5   7  -9    4.39    2.03
  -5  -7   9    3.18    1.48
  -5  -7   9    0.06    2.84
   5   7  -8    3.86    1.62
  -5  -7   8    3.11    1.55
  -5  -7   8    1.38    3.68
   5   7  -7   -0.79    1.00
  -5  -7   7   -0.17    0.62
  -5  -7   7   -1.19    2.99
   5   7  -6    2.15    1.29
  -5  -7   6    4.95    1.67
  -5  -7   6    8.49    5.41
  -5  -7   5    8.41    2.40
   5   7  -5   12.29    2.86
  -5  -7   5   22.11    7.89
   5   7  -4    0.68    0.88
  -5  -7   4    0.48    0.74
   5   7  -3    2.07    0.97
   5   7  -3    1.06    0.98
  -5  -7   3    1.34    3.06
   5   7  -2   -0.42    0.72
   5   7  -2    1.75    1.21
  -5  -7   2   -1.70    4.32
   5   7  -1    5.42    1.54
   5   7  -1    3.97    1.62
  -5  -7   1    4.22    2.74
   5   7   0    2.09    1.05
   5   7   0    5.53    2.15
  -5  -7   0    4.27    3.37
  -5  -7  -1    0.74    0.97
   5   7   1    3.57    1.15
   5   7   1    0.55    1.54
  -5  -7  -1   -0.88    3.56
  -5  -7  -2    2.26    1.61
   5   7   2    1.62    1.37
   5   7   2    0.97    1.19
  -5  -7  -2   -1.08    4.69
  -5  -7  -3    0.18    0.76
   5   7   3    0.88    1.22
   5   7   3    1.96    1.66
  -5  -7  -3   -3.07    4.60
  -5  -7  -4    2.26    1.52
   5   7   4    3.95    1.76
  -5  -7  -5    2.43    1.90
  -5  -8   9    2.16    1.27
  -5  -8   9    5.13    3.75
  -5  -8   8    8.85    4.77
  -5  -8   7    4.00    4.86
  -5  -8   6    4.37    3.85
  -5  -8   5   37.84   10.00
  -5  -8   4   -4.79    4.72
  -5  -8   3    3.07    3.89
   5   8  -2    2.65    1.18
   5   8  -1   23.95    3.41
   5   8   0    2.82    1.31
   5   8   1    4.40    1.70
  -6  12   1    1.88    0.83
   6 -11  -8   10.92    4.61
   6 -11  -6    1.16    0.60
   6 -11  -5    3.04    1.23
  -6  11   4   -0.40    0.74
   6 -11  -4   -0.54    1.06
  -6  11   3    7.50    2.20
   6 -11  -3    3.69    1.46
  -6  11   2    0.45    0.64
  -6  11   2    0.52    0.72
   6 -11  -2    3.16    1.43
  -6  11   1    1.61    0.97
  -6  11   1    3.51    1.30
   6 -11  -1    1.46    0.65
  -6  11   0    0.98    0.62
  -6  11   0    1.60    1.04
   6 -11   0    1.74    1.52
  -6  11  -1    3.48    1.71
  -6  11  -1    1.04    0.88
   6 -11   1    3.73    1.58
  -6  11  -2    5.07    1.63
  -6  11  -2    5.70    1.55
   6 -11   2    6.03    1.91
  -6  11  -3    3.56    1.31
  -6  11  -3    0.54    0.67
   6 -11   3   -0.03    0.70
  -6  11  -4    4.79    1.68
  -6  11  -4    4.55    1.33
   6 -11   4    5.83    2.09
  -6  11  -5    0.03    1.02
  -6  11  -6    1.28    1.04
   6 -10 -10   58.19   11.45
   6 -10 -10   56.64    5.84
   6 -10  -9    2.63    1.34
   6 -10  -9   12.28    5.78
   6 -10  -8    0.78    1.45
  -6  10   8   -0.65    0.90
  -6  10   8    0.04    0.57
   6 -10  -7    6.70    2.04
  -6  10   7    4.79    1.73
  -6  10   7    5.15    1.78
   6 -10  -7    0.98    2.57
   6 -10  -6    3.88    1.38
  -6  10   6    2.87    1.36
  -6  10   6    4.22    1.87
   6 -10  -6   -1.29    2.24
   6 -10  -5    6.42    2.01
  -6  10   5    4.58    2.00
   6 -10  -4    0.25    0.64
  -6  10   4    0.15    0.73
  -6  10   4   -0.31    0.62
   6 -10  -3    0.71    0.78
  -6  10   3    1.34    1.12
  -6  10   3    3.37    1.24
  -6  10   2    1.53    0.68
  -6  10   2    2.29    1.42
   6 -10  -2    2.70    1.51
  -6  10   1   -0.92    0.92
  -6  10   1    0.64    0.84
   6 -10  -1   -0.24    0.67
  -6  10   0    3.86    1.62
  -6  10   0    4.09    1.25
   6 -10   0    5.58    1.72
  -6  10  -1    2.87    1.52
  -6  10  -1    1.31    0.72
   6 -10   1    2.25    1.01
  -6  10  -2    1.92    1.06
  -6  10  -2    3.53    1.25
   6 -10   2    2.55    1.15
  -6  10  -3    0.06    0.79
  -6  10  -3   -0.09    0.71
   6 -10   3    0.62    0.79
  -6  10  -4    2.10    0.99
  -6  10  -4    1.92    1.13
   6 -10   4    4.14    1.64
  -6  10  -5    0.65    1.01
  -6  10  -5    1.28    0.79
   6 -10   5   -0.57    1.05
  -6  10  -6    0.14    0.86
  -6  10  -6   -0.51    0.63
   6 -10   6    0.52    0.47
  -6  10  -7    7.45    1.96
  -6  10  -7    9.12    1.97
   6 -10   7    8.44    2.19
   6 -10   7   10.55    2.41
  -6  10  -8    0.61    0.61
   6 -10   8    1.82    1.51
   6 -10   8    0.54    0.70
  -6  10  -9    3.29    1.50
   6 -10   9    2.53    1.23
   6  -9 -11    2.77    1.23
  -6   9  11    2.51    1.54
  -6   9  11    1.77    1.06
   6  -9 -11    3.62    2.12
   6  -9 -10    6.00    1.91
  -6   9  10    2.53    1.24
  -6   9  10    6.37    1.85
   6  -9 -10   11.78    5.77
   6  -9  -9   11.63    2.64
  -6   9   9    9.52    2.20
  -6   9   9   11.81    2.59
   6  -9  -9   15.83    6.32
   6  -9  -8   10.48    2.48
  -6   9   8    6.33    2.10
  -6   9   8   11.52    2.61
   6  -9  -8   16.12    5.87
  -6   9   7   24.72    3.71
  -6   9   7   25.23    3.65
   6  -9  -7   29.35    7.43
   6  -9  -7   25.11    3.70
   6  -9  -6    4.89    1.73
  -6   9   6    1.58    0.91
  -6   9   6    4.96    1.74
   6  -9  -6   -0.23    2.33
   6  -9  -5    1.13    0.92
  -6   9   5   -0.01    0.56
  -6   9   5   -1.73    1.00
  -6   9   5   -0.90    0.69
   6  -9  -4   -1.29    1.16
  -6   9   4    0.77    1.17
  -6   9   4    1.13    0.71
  -6   9   4    0.43    0.70
   6  -9  -4   -0.52    1.67
  -6   9   3   26.37    3.59
  -6   9   3   24.17    2.96
   6  -9  -3   26.32    3.74
  -6   9   2   27.52    3.71
  -6   9   2   31.44    3.39
   6  -9  -2   36.71    4.28
   6  -9  -1    9.52    2.26
  -6   9   1    9.13    2.05
  -6   9   1    8.13    1.69
   6  -9   0    4.86    1.66
  -6   9   0    4.89    1.61
  -6   9   0    3.41    1.02
  -6   9  -1    6.59    1.77
  -6   9  -1    7.10    1.53
   6  -9   1    7.33    1.88
  -6   9  -2   55.37    5.07
  -6   9  -2   54.16    4.61
   6  -9   2   69.84    5.82
  -6   9  -3   -0.42    0.50
  -6   9  -3    0.01    0.48
   6  -9   3    0.60    0.72
  -6   9  -4    4.58    1.42
  -6   9  -4    2.30    1.05
   6  -9   4    3.96    1.47
  -6   9  -5   33.43    3.92
  -6   9  -5   30.43    3.50
   6  -9   5   38.96    4.28
  -6   9  -6    4.94    1.68
  -6   9  -6    2.46    1.13
   6  -9   6    4.33    1.51
   6  -9   6    3.87    1.36
  -6   9  -7    8.91    1.91
  -6   9  -7    5.66    1.61
   6  -9   7    8.54    1.99
   6  -9   7    8.91    2.17
  -6   9  -8   -0.62    0.53
  -6   9  -8    0.01    0.49
   6  -9   8    0.60    0.78
   6  -9   8    0.31    0.53
  -6   9  -9   12.72    2.47
  -6   9  -9   10.06    2.57
  -6   9  -9   11.63    2.32
   6  -9   9   15.11    2.71
   6  -9   9   14.18    2.58
  -6   9 -10   -0.71    0.71
  -6   9 -10   -0.52    0.88
  -6   9 -10    0.56    0.70
   6  -9  10   -0.57    0.49
   6  -9  10    0.99    0.86
  -6   9 -11    1.27    0.98
  -6   9 -11    1.37    1.08
  -6   8  14    6.36    2.15
  -6   8  13    0.54    0.66
  -6   8  13    0.32    0.81
   6  -8 -12    1.14    1.07
  -6   8  12    0.26    0.97
   6  -8 -12   -3.08    3.60
  -6   8  12    0.29    0.76
   6  -8 -11    0.96    0.96
  -6   8  11   -0.33    1.14
   6  -8 -11    2.59    3.32
  -6   8  11    1.21    0.89
   6  -8 -10    1.48    1.02
  -6   8  10   -0.06    0.80
   6  -8 -10    2.25    2.74
  -6   8  10   -0.22    0.82
   6  -8  -9   -1.19    0.88
  -6   8   9    0.36    1.22
  -6   8   9   -0.86    1.11
   6  -8  -9   -1.67    2.33
   6  -8  -8    0.45    0.56
  -6   8   8    0.81    1.01
  -6   8   8    1.20    1.19
   6  -8  -8   -3.03    2.57
  -6   8   7    1.02    1.02
  -6   8   7    1.96    1.09
   6  -8  -6    5.35    1.77
  -6   8   6    2.78    0.99
  -6   8   6    4.40    1.05
  -6   8   6    5.60    1.67
   6  -8  -6   -0.10    3.32
   6  -8  -5    5.07    1.51
  -6   8   5    5.20    1.28
  -6   8   5    4.41    1.44
  -6   8   5    6.27    1.72
   6  -8  -5    2.25    1.72
   6  -8  -4    3.28    1.35
  -6   8   4    0.86    0.51
  -6   8   4    1.82    0.89
  -6   8   4    1.59    0.74
   6  -8  -4    0.84    1.53
   6  -8  -3    5.92    1.62
  -6   8   3    4.68    1.24
  -6   8   3    5.20    1.48
  -6   8   3    6.16    1.59
   6  -8  -3    7.30    3.28
  -6   8   2   21.97    3.05
  -6   8   2   26.58    3.00
   6  -8  -2   31.27    3.81
   6  -8  -1    6.60    1.74
  -6   8   1    2.81    0.97
  -6   8   1    4.38    1.16
  -6   8   0   70.13    5.66
  -6   8   0   85.52    5.63
   6  -8   0   92.15    6.54
   6  -8   1   -2.18    1.28
  -6   8  -1   -1.25    0.92
  -6   8  -1    0.13    0.64
  -6   8  -2   62.42    5.29
  -6   8  -2   69.98    5.08
   6  -8   2   65.64    5.50
  -6   8  -3    2.97    1.24
  -6   8  -3    2.08    0.91
   6  -8   3    2.65    1.14
  -6   8  -4   58.00    5.09
  -6   8  -4   63.61    4.95
   6  -8   4   69.00    5.41
  -6   8  -5   38.61    4.01
  -6   8  -5   38.55    3.83
   6  -8   5   44.60    4.35
  -6   8  -6    2.60    1.07
  -6   8  -6    0.53    0.73
  -6   8  -6    1.50    0.86
   6  -8   6   -0.19    0.55
   6  -8   6    1.51    1.05
  -6   8  -7    0.23    0.61
  -6   8  -7    0.89    0.90
  -6   8  -7    0.84    0.60
   6  -8   7   -0.63    0.59
   6  -8   7    0.66    0.76
  -6   8  -8    5.03    1.60
  -6   8  -8    7.34    1.98
  -6   8  -8    6.64    1.63
   6  -8   8    5.04    1.44
   6  -8   8    7.79    1.81
  -6   8  -9    3.17    1.35
  -6   8  -9    3.48    1.56
  -6   8  -9    1.58    0.63
   6  -8   9    2.83    1.24
   6  -8   9    0.46    0.46
  -6   8 -10    2.80    1.04
  -6   8 -10    1.21    1.10
  -6   8 -10    0.51    0.48
   6  -8  10    2.32    1.00
  -6   8 -11    3.57    1.39
  -6   8 -11    1.85    1.39
  -6   8 -11    1.60    0.94
   6  -8  11    2.86    1.31
  -6   8 -12    4.63    1.55
  -6   8 -12    6.85    2.56
  -6   8 -12    4.98    1.71
  -6   7  14   12.25    2.76
  -6   7  14   13.42    2.79
   6  -7 -14   15.06    5.55
   6  -7 -13    5.27    1.78
  -6   7  13    5.46    1.85
  -6   7  13    5.85    1.91
   6  -7 -13   -1.06    3.36
   6  -7 -12   16.61    3.03
  -6   7  12   16.14    2.99
  -6   7  12   12.00    2.59
   6  -7 -12   11.83    4.33
  -6   7  11    5.80    1.84
   6  -7 -11    3.58    1.53
  -6   7  11    6.38    1.62
   6  -7 -11    4.40    3.02
   6  -7 -10   -0.78    0.88
  -6   7  10   -0.11    0.67
   6  -7 -10    1.43    2.66
  -6   7  10    2.68    1.44
   6  -7  -9    2.59    1.23
  -6   7   9    3.85    1.39
   6  -7  -9   -0.70    3.06
  -6   7   9    5.67    1.85
   6  -7  -8    3.56    1.28
  -6   7   8    2.12    1.27
   6  -7  -8    1.52    2.86
  -6   7   8    3.56    1.30
  -6   7   7   56.46    5.14
  -6   7   7   58.94    5.13
   6  -7  -7   52.73    9.75
   6  -7  -7   62.20    5.58
   6  -7  -6    2.60    1.38
  -6   7   6    0.95    0.55
  -6   7   6    0.93    0.56
   6  -7  -6    2.56    3.23
  -6   7   5   29.73    3.54
  -6   7   5   30.37    3.40
  -6   7   5   33.36    3.12
   6  -7  -5   23.83    5.83
   6  -7  -5   32.72    3.97
   6  -7  -4    0.68    0.67
  -6   7   4    1.29    0.82
  -6   7   4    0.01    0.67
  -6   7   4    0.69    0.50
   6  -7  -4   -2.08    3.48
   6  -7  -3    1.07    0.96
  -6   7   3    0.78    1.01
  -6   7   3    1.28    0.73
  -6   7   3    1.30    0.80
   6  -7  -3    5.12    3.34
   6  -7  -2    5.20    1.43
  -6   7   2    3.93    1.32
  -6   7   2    5.34    1.35
  -6   7   2    4.48    1.27
   6  -7  -2    2.00    2.20
  -6   7   1   18.00    2.71
  -6   7   1   24.13    2.77
   6  -7  -1   20.50    2.97
  -6   7   0   23.70    3.07
  -6   7   0   26.16    2.95
   6  -7   0   26.38    3.25
   6  -7   1    0.42    0.51
  -6   7  -1   -0.64    0.98
  -6   7  -1    0.41    0.53
   6  -7   2    7.35    1.82
  -6   7  -2    4.84    1.31
  -6   7  -2    6.13    1.46
   6  -7   3    1.71    0.94
  -6   7  -3    2.79    1.37
  -6   7  -3    2.31    0.91
  -6   7  -4    1.77    0.94
  -6   7  -4    2.13    0.98
  -6   7  -4    4.17    1.32
   6  -7   4    3.08    1.21
  -6   7  -5    5.81    1.57
  -6   7  -5    7.13    1.75
  -6   7  -5    4.54    1.22
   6  -7   5    5.56    1.47
   6  -7   5    6.04    1.55
  -6   7  -6    3.20    1.33
  -6   7  -6    2.54    1.08
  -6   7  -6    2.90    0.98
   6  -7   6    4.69    1.27
   6  -7   6    4.70    1.43
  -6   7  -7    0.66    0.66
  -6   7  -7   -0.01    1.02
  -6   7  -7    2.34    1.17
   6  -7   7    0.60    0.58
   6  -7   7    0.82    0.79
  -6   7  -8   -0.95    1.01
  -6   7  -8    0.57    0.84
  -6   7  -8    0.69    0.55
   6  -7   8    0.33    0.64
   6  -7   8    1.65    1.17
  -6   7  -9    0.51    0.94
  -6   7  -9    0.36    0.88
  -6   7  -9    0.57    0.62
   6  -7   9   -0.82    0.80
   6  -7   9    0.67    0.71
  -6   7 -10    0.69    0.69
  -6   7 -10    0.09    0.96
  -6   7 -10    0.33    0.51
   6  -7  10    1.10    0.88
  -6   7 -11    7.72    1.95
  -6   7 -11    7.66    2.17
  -6   7 -11    8.10    1.80
   6  -7  11   10.54    2.22
  -6   7 -12   -1.67    1.29
  -6   7 -12    1.53    0.97
   6  -7  12    0.41    1.07
  -6   7 -13   -1.27    1.00
  -6   7 -13   -1.40    1.07
  -6   6  15   28.76    4.16
   6  -6 -15   17.80    5.84
   6  -6 -14   12.34    2.68
  -6   6  14   12.07    2.64
  -6   6  14   14.24    2.83
   6  -6 -14   18.31    7.59
   6  -6 -13    5.63    1.76
  -6   6  13    5.19    1.55
  -6   6  13    5.68    1.67
   6  -6 -13    5.65    5.29
   6  -6 -12   10.37    2.45
  -6   6  12    9.53    2.19
  -6   6  12    8.94    2.01
   6  -6 -12    2.81    3.88
   6  -6 -11   15.65    2.90
  -6   6  11   17.57    2.87
  -6   6  11   13.71    2.57
   6  -6 -11   12.22    5.47
   6  -6 -10    5.67    1.67
  -6   6  10    9.93    2.08
  -6   6  10    3.37    1.17
   6  -6 -10    5.96    3.85
   6  -6  -9    0.53    0.82
  -6   6   9    1.27    1.01
  -6   6   9    0.93    0.84
   6  -6  -9    3.31    3.75
  -6   6   8   39.61    4.09
  -6   6   8   35.56    3.86
   6  -6  -8   44.23    4.69
   6  -6  -8   40.13    8.77
  -6   6   7  274.81   12.18
  -6   6   7  283.49   12.11
   6  -6  -7  278.36   22.28
   6  -6  -7  300.32   13.57
  -6   6   6   44.25    4.26
  -6   6   6   47.02    4.18
   6  -6  -6   45.18    4.58
   6  -6  -6   40.96    8.07
   6  -6  -5   10.10    2.18
  -6   6   5    9.32    1.93
  -6   6   5   10.19    1.83
   6  -6  -5   13.74    5.18
   6  -6  -4    2.21    1.11
  -6   6   4    5.64    1.67
  -6   6   4    5.70    1.29
  -6   6   4    6.33    1.44
   6  -6  -4    0.96    2.87
   6  -6  -3    3.82    1.60
  -6   6   3    2.74    1.06
  -6   6   3    2.62    0.97
  -6   6   3    3.77    1.21
   6  -6  -3    4.57    2.55
   6  -6  -2   15.22    2.53
  -6   6   2   11.71    1.80
  -6   6   2   12.31    2.14
  -6   6   2   10.58    1.71
   6  -6  -2    8.01    2.77
  -6   6   1   35.31    3.52
  -6   6   1   35.39    3.24
  -6   6   1   35.33    3.29
   6  -6  -1   34.86    3.77
   6  -6  -1   34.03    5.55
   6  -6   0   20.42    2.70
  -6   6   0   18.34    2.59
  -6   6   0   22.95    2.68
   6  -6   1    3.48    1.20
  -6   6  -1    3.90    1.32
  -6   6  -1    3.37    1.20
   6  -6   2   11.17    1.96
  -6   6  -2    8.42    1.86
  -6   6  -2   11.36    1.93
   6  -6   3    1.57    0.98
  -6   6  -3    0.80    0.51
  -6   6  -3    3.12    1.06
  -6   6  -3    0.97    0.70
   6  -6   4    9.09    1.82
  -6   6  -4    8.97    1.81
  -6   6  -4    8.44    1.80
  -6   6  -4   11.38    1.96
   6  -6   4   11.03    1.79
  -6   6  -5   11.28    2.07
  -6   6  -5   13.92    2.38
  -6   6  -5   17.05    2.35
   6  -6   5   16.17    2.23
   6  -6   5   15.05    2.27
  -6   6  -6    3.11    1.24
  -6   6  -6    2.21    0.81
  -6   6  -6    1.90    0.74
   6  -6   6    2.40    0.91
   6  -6   6    1.33    0.70
  -6   6  -7   -1.71    1.03
  -6   6  -7    0.46    0.88
  -6   6  -7    0.53    0.53
   6  -6   7    0.19    0.50
   6  -6   7   -0.12    0.45
  -6   6  -8    7.61    1.84
  -6   6  -8    7.28    2.07
  -6   6  -8    7.07    1.48
   6  -6   8    4.50    1.63
   6  -6   8    7.80    1.76
   6  -6   8    9.34    1.64
  -6   6  -9    4.47    1.45
  -6   6  -9    3.17    1.51
  -6   6  -9    4.53    1.45
   6  -6   9    4.12    1.58
   6  -6   9    4.56    1.30
  -6   6 -10    6.96    1.73
  -6   6 -10    7.64    2.09
  -6   6 -10    7.09    1.67
   6  -6  10    8.89    2.11
  -6   6 -11    4.65    1.78
  -6   6 -11    2.90    1.27
   6  -6  11    4.66    1.37
  -6   6 -12   57.91    6.01
  -6   6 -12   60.21    4.99
   6  -6  12   59.29    5.50
  -6   6 -13    0.64    0.89
  -6   6 -13    0.72    0.93
   6  -6  13    0.12    0.82
  -6   5  16    5.60    2.04
   6  -5 -16    8.34    5.48
   6  -5 -15   13.52    2.91
  -6   5  15   13.43    2.82
   6  -5 -15   22.83    7.80
   6  -5 -14   13.83    2.79
  -6   5  14   18.59    3.17
   6  -5 -14    6.81    3.52
   6  -5 -13    5.06    1.73
  -6   5  13    3.78    1.40
  -6   5  13    6.21    1.91
   6  -5 -13    3.96    3.39
   6  -5 -12    2.66    1.43
  -6   5  12    1.02    0.72
  -6   5  12    0.10    0.61
   6  -5 -12   -2.91    2.38
  -6   5  11    0.91    0.52
  -6   5  11    0.48    0.65
   6  -5 -11    2.11    3.88
   6  -5 -10    1.83    1.41
  -6   5  10    2.29    0.89
  -6   5  10    2.03    0.88
   6  -5 -10    4.75    3.78
   6  -5  -9   -0.38    3.80
   6  -5  -9   -1.34    1.08
  -6   5   9   -1.83    1.11
  -6   5   9    0.58    0.47
  -6   5   8  207.53    9.72
  -6   5   8  214.91    9.92
   6  -5  -8  195.52   18.81
  -6   5   8  202.25    9.47
   6  -5  -8  208.73   11.07
   6  -5  -7   11.90    4.09
   6  -5  -7   11.08    2.33
  -6   5   7   10.48    1.89
  -6   5   7   14.08    2.33
  -6   5   7   10.16    1.97
   6  -5  -6    3.27    2.00
   6  -5  -6    3.88    1.21
  -6   5   6    3.02    0.88
  -6   5   6    3.58    1.21
  -6   5   6    4.50    1.28
  -6   5   5    0.94    0.83
   6  -5  -5    0.08    1.71
   6  -5  -5   -1.79    1.01
  -6   5   5   -0.25    0.67
   6  -5  -4   -1.65    2.13
   6  -5  -4   -0.40    0.91
  -6   5   4    0.81    0.61
  -6   5   4   -0.72    0.76
   6  -5  -3    2.99    2.56
   6  -5  -3    5.25    1.57
  -6   5   3    4.65    1.14
  -6   5   3    4.14    1.16
  -6   5   3    4.99    1.20
   6  -5  -2   12.35    4.24
   6  -5  -2   10.36    1.95
  -6   5   2   10.47    1.88
  -6   5   2   11.94    1.75
  -6   5   2   11.25    1.65
  -6   5   1   84.03    5.47
  -6   5   1   89.64    4.98
  -6   5   1   93.36    5.38
   6  -5  -1   84.56    9.11
   6  -5  -1   91.69    6.12
   6  -5   0    8.26    2.68
   6  -5   0    8.88    1.80
  -6   5   0   10.39    1.84
  -6   5   0   12.50    1.85
   6  -5   1    0.01    0.50
  -6   5  -1    0.74    0.66
  -6   5  -1    0.64    0.83
  -6   5  -2    9.45    1.58
   6  -5   2    9.84    1.82
  -6   5  -2   10.32    1.82
  -6   5  -2    8.62    1.43
  -6   5  -2    8.84    1.64
   6  -5   3    7.40    1.55
  -6   5  -3    8.44    1.61
  -6   5  -3    5.27    1.35
  -6   5  -3    8.55    1.64
  -6   5  -3    8.48    1.58
   6  -5   3    7.38    1.37
   6  -5   4   12.71    1.94
  -6   5  -4   16.47    2.18
  -6   5  -4   12.03    1.88
  -6   5  -4   12.46    2.15
  -6   5  -4    9.13    1.56
   6  -5   4   14.82    2.03
   6  -5   5   12.96    1.97
  -6   5  -5   12.56    1.94
  -6   5  -5   12.74    2.10
  -6   5  -5   12.84    2.15
   6  -5   5   12.74    1.89
  -6   5  -5   10.97    1.85
  -6   5  -6    8.22    1.61
  -6   5  -6    7.29    1.72
  -6   5  -6    6.05    1.53
  -6   5  -6    7.55    1.58
   6  -5   6   10.34    1.81
   6  -5   6    9.46    1.67
  -6   5  -7   17.96    2.45
  -6   5  -7   18.36    2.50
  -6   5  -7   17.59    2.63
  -6   5  -7   17.39    2.72
   6  -5   7   17.94    2.47
   6  -5   7   16.32    2.89
   6  -5   7   18.27    2.25
  -6   5  -8   -0.32    0.59
  -6   5  -8   -0.74    0.70
  -6   5  -8    0.66    0.53
   6  -5   8   -0.43    0.56
   6  -5   8    0.44    0.42
  -6   5  -9    1.11    0.76
  -6   5  -9    0.63    0.73
  -6   5  -9   -1.23    0.56
   6  -5   9   -0.37    0.78
   6  -5   9    0.38    0.55
  -6   5 -10   30.28    4.03
  -6   5 -10   33.01    3.53
   6  -5  10   26.25    3.34
   6  -5  10   25.43    3.65
  -6   5 -11    0.48    0.99
  -6   5 -11   -0.16    0.68
   6  -5  11    0.45    0.58
  -6   5 -12   17.61    3.20
  -6   5 -12   14.71    2.37
   6  -5  12   15.81    2.77
  -6   5 -13   24.93    3.89
   6  -5  13   29.31    3.85
  -6   5 -14   14.30    3.11
   6  -5  14   21.83    3.39
  -6   4  17    8.73    2.45
   6  -4 -17   21.88    7.96
  -6   4  16    1.94    1.24
   6  -4 -16    0.71    2.79
  -6   4  15    0.89    1.13
   6  -4 -15    1.97    4.64
  -6   4  14    2.61    1.32
   6  -4 -14    5.64    5.14
   6  -4 -13   -2.95    4.50
  -6   4  13    3.76    1.52
   6  -4 -12   14.74    6.77
  -6   4  12   20.66    2.71
  -6   4  12   18.43    2.95
   6  -4 -11    5.26    3.67
  -6   4  11    1.22    0.88
  -6   4  11    0.70    0.76
  -6   4  11    0.97    0.59
   6  -4 -10   61.37   10.66
  -6   4  10   56.52    4.50
  -6   4  10   57.40    4.87
  -6   4  10   52.13    4.24
   6  -4  -9   67.24   10.94
  -6   4   9   76.97    5.21
  -6   4   9   73.66    5.41
  -6   4   9   70.55    5.06
   6  -4  -8   70.77   11.00
  -6   4   8   61.39    4.64
  -6   4   8   66.50    4.89
  -6   4   8   59.74    4.64
  -6   4   7   19.60    2.40
   6  -4  -7   17.19    5.10
  -6   4   7   21.04    2.63
  -6   4   7   19.03    2.63
   6  -4  -6    1.47    2.76
  -6   4   6   -0.03    0.70
  -6   4   6    1.04    0.63
  -6   4   6    0.77    0.68
   6  -4  -5    3.19    3.56
  -6   4   5    2.50    0.81
  -6   4   5    2.56    1.02
  -6   4   5    2.71    1.14
  -6   4   4    3.54    1.05
   6  -4  -4    0.17    2.78
  -6   4   4    2.76    1.02
  -6   4   4    2.72    1.22
  -6   4   3   24.38    2.74
   6  -4  -3   25.44    5.67
  -6   4   3   26.50    2.45
   6  -4  -3   28.01    3.23
  -6   4   2   20.57    2.49
   6  -4  -2   20.31    4.84
  -6   4   2   24.05    2.30
   6  -4  -2   23.25    3.03
   6  -4  -1   -0.25    0.68
   6  -4  -1    0.12    1.85
  -6   4   1   -0.06    0.63
   6  -4  -1    0.17    0.32
  -6   4   1   -0.42    0.50
  -6   4   1   -0.29    0.43
  -6   4   0    6.56    1.31
   6  -4   0    3.78    1.19
   6  -4   0    1.55    1.21
  -6   4   0    3.91    1.24
  -6   4   0    5.08    1.01
  -6   4   0    3.96    1.03
  -6   4  -1   12.33    1.89
   6  -4   1   10.62    1.82
   6  -4   1    8.05    2.56
  -6   4  -1   12.19    1.85
  -6   4  -1   10.18    1.30
  -6   4  -1   10.29    1.65
   6  -4   1    9.94    1.35
   6  -4   2    3.26    1.27
  -6   4  -2    6.73    1.51
  -6   4  -2    5.55    1.37
  -6   4  -2    3.46    0.89
  -6   4  -2    4.91    1.06
   6  -4   2    4.36    0.91
   6  -4   3    5.68    1.30
  -6   4  -3    7.03    1.57
  -6   4  -3    5.38    1.28
  -6   4  -3    5.11    1.22
  -6   4  -3    5.49    1.26
   6  -4   3    7.16    1.26
   6  -4   4    8.11    1.49
  -6   4  -4    9.30    1.69
  -6   4  -4   10.21    1.89
  -6   4  -4    8.70    1.50
  -6   4  -4   11.19    1.80
   6  -4   4   10.30    1.58
   6  -4   5    0.76    0.58
  -6   4  -5    0.80    1.10
  -6   4  -5    0.43    0.49
  -6   4  -5    0.26    0.56
  -6   4  -5    0.83    0.72
   6  -4   5    0.57    0.60
  -6   4  -6   50.81    4.43
  -6   4  -6   46.73    4.20
  -6   4  -6   57.03    4.25
   6  -4   6   47.56    3.82
   6  -4   6   51.38    5.23
   6  -4   6   52.47    3.76
  -6   4  -6   51.65    4.56
  -6   4  -7    9.57    2.13
  -6   4  -7    8.14    1.93
  -6   4  -7    5.47    1.42
   6  -4   7    6.21    1.74
  -6   4  -7    8.48    1.79
   6  -4   7    9.21    1.67
  -6   4  -8   -0.56    0.62
  -6   4  -8    0.77    0.83
  -6   4  -8   -0.36    0.54
  -6   4  -8   -0.22    0.42
   6  -4   8   -1.20    0.87
   6  -4   8   -0.43    0.44
  -6   4  -9    1.21    0.94
  -6   4  -9    1.37    0.72
  -6   4  -9    0.94    1.27
   6  -4   9    1.76    1.23
   6  -4   9    1.72    0.85
  -6   4 -10    3.84    1.54
  -6   4 -10    4.58    1.66
  -6   4 -10    2.21    1.00
   6  -4  10    5.35    1.84
   6  -4  10    4.06    1.22
  -6   4 -11    0.86    0.76
  -6   4 -11   -0.84    0.93
   6  -4  11    0.17    0.73
   6  -4  11   -0.06    0.41
   6  -4  12    7.77    2.30
  -6   4 -12    7.42    2.17
   6  -4  12    9.61    2.09
   6  -4  13   15.71    3.33
  -6   4 -13   15.11    3.02
   6  -4  13   16.45    2.94
  -6   4 -14   20.30    3.61
   6  -4  14   21.91    3.39
  -6   3  17    2.35    1.36
   6  -3 -17    4.59    4.74
   6  -3 -16    0.41    3.04
  -6   3  16    1.54    1.16
   6  -3 -15   17.49    6.56
  -6   3  15   14.03    2.82
   6  -3 -14   -1.24    3.65
  -6   3  14   -0.03    0.82
  -6   3  14    2.75    1.08
   6  -3 -13    1.47    2.62
  -6   3  13   -0.26    0.79
  -6   3  13    0.75    0.74
   6  -3 -12   25.80    8.04
  -6   3  12   15.63    2.64
  -6   3  12   16.02    2.36
   6  -3 -11   -1.52    4.12
  -6   3  11    0.33    0.53
  -6   3  11    0.13    0.77
  -6   3  11    0.14    0.39
   6  -3 -10    1.74    2.49
  -6   3  10    3.99    1.08
  -6   3  10    6.41    1.79
  -6   3  10    3.59    1.08
  -6   3   9   18.88    2.45
   6  -3  -9   21.86    6.48
  -6   3   9   21.53    2.78
  -6   3   9   22.32    2.80
   6  -3  -8   -0.26    2.60
  -6   3   8    0.61    0.65
  -6   3   8    0.84    0.79
  -6   3   8   -0.19    0.57
   6  -3  -7    3.34    2.45
  -6   3   7    4.32    1.25
  -6   3   7    4.62    1.13
  -6   3   7    3.61    1.11
  -6   3   6    6.83    1.46
   6  -3  -6    7.39    4.10
  -6   3   6    6.24    1.29
  -6   3   6    6.87    1.48
  -6   3   5   24.58    2.63
   6  -3  -5   22.97    5.78
  -6   3   5   24.32    2.42
  -6   3   5   22.59    2.89
  -6   3   4    3.79    1.03
   6  -3  -4    4.72    3.44
  -6   3   4    3.49    0.92
   6  -3  -4    3.18    0.62
  -6   3   4    2.26    0.90
  -6   3   3    1.19    0.68
  -6   3   3    2.26    0.85
   6  -3  -3    3.15    3.00
   6  -3  -3    0.62    0.38
  -6   3   3    0.99    1.00
  -6   3   2    7.36    1.43
  -6   3   2    6.07    1.36
   6  -3  -2    6.97    3.11
   6  -3  -2    7.50    1.13
  -6   3   2    6.50    1.78
  -6   3   2    7.97    1.18
  -6   3   1    1.98    0.82
  -6   3   1    2.97    1.01
   6  -3  -1    2.82    1.98
   6  -3  -1    1.78    0.67
  -6   3   1    1.62    0.55
   6  -3  -1    2.80    0.61
  -6   3   0   50.30    4.27
  -6   3   0   24.54    2.12
  -6   3   0   30.43    1.89
   6  -3   0   36.52    2.46
   6  -3   0   55.02    8.07
   6  -3   0   24.74    3.20
  -6   3   0   37.56    3.72
   6  -3   1    0.41    0.46
  -6   3  -1    1.99    0.75
  -6   3  -1    0.70    0.46
   6  -3   1   -2.35    1.65
  -6   3  -1    0.49    0.24
   6  -3   1    0.73    0.35
  -6   3  -2   95.41    5.67
  -6   3  -2   88.47    4.43
  -6   3  -2   96.18    5.31
   6  -3   2   91.66    4.51
   6  -3   2   78.70    8.16
   6  -3   2   89.63    5.40
  -6   3  -2  106.57    6.14
  -6   3  -3  131.99    6.20
  -6   3  -3  133.41    6.88
   6  -3   3  128.20    5.94
  -6   3  -3  141.35    7.79
   6  -3   4    0.26    0.42
  -6   3  -4    0.11    0.74
  -6   3  -4   -0.24    0.56
  -6   3  -4    0.57    0.36
  -6   3  -4    0.61    0.44
   6  -3   4    1.84    0.99
   6  -3   4    0.75    0.57
  -6   3  -5   43.91    3.93
  -6   3  -5   47.30    3.85
  -6   3  -5   42.12    3.57
   6  -3   5   45.66    3.43
   6  -3   5   42.17    4.63
   6  -3   5   44.54    3.32
  -6   3  -5   47.20    4.40
  -6   3  -6   19.78    3.04
  -6   3  -6   14.82    2.77
  -6   3  -6   17.15    2.56
  -6   3  -6   13.32    2.18
   6  -3   6   13.34    2.03
   6  -3   6   22.83    3.72
  -6   3  -7    2.15    1.19
  -6   3  -7    2.43    1.23
  -6   3  -7    1.56    0.78
   6  -3   7    1.43    0.93
   6  -3   7    2.27    0.74
   6  -3   8    5.94    1.88
   6  -3   8    5.56    1.32
  -6   3  -8    3.89    1.54
   6  -3   8    9.87    2.19
  -6   3  -8    9.95    2.05
  -6   3  -8    7.32    1.51
  -6   3  -9   27.71    3.88
   6  -3   9   28.21    3.83
  -6   3  -9   27.82    3.57
  -6   3  -9   27.54    2.93
   6  -3   9   29.53    3.30
   6  -3   9   29.20    3.97
  -6   3 -10   11.04    2.40
   6  -3  10    9.46    2.37
  -6   3 -10   13.82    2.59
  -6   3 -10   10.97    1.82
   6  -3  10   11.36    2.49
   6  -3  10   12.84    2.21
  -6   3 -11   10.11    2.49
   6  -3  11    7.38    2.17
  -6   3 -11    9.77    2.34
   6  -3  11    8.29    1.85
  -6   3 -12   15.13    3.24
   6  -3  12   10.58    2.70
  -6   3 -12   11.83    2.62
   6  -3  12   12.16    2.38
   6  -3  13    8.42    2.44
  -6   3 -13    6.73    2.14
   6  -3  13    5.83    1.61
  -6   3 -14    6.02    1.89
   6  -3  14    4.27    1.45
   6  -2 -18    5.61    3.85
   6  -2 -17   11.69    6.30
  -6   2  17    5.97    1.77
   6  -2 -16    1.18    3.71
  -6   2  16    1.56    0.89
  -6   2  16    4.28    1.39
   6  -2 -15    6.21    5.40
  -6   2  15    9.47    2.31
  -6   2  15    9.96    1.97
   6  -2 -14    5.52    4.39
  -6   2  14    1.42    1.38
  -6   2  14    0.77    0.49
   6  -2 -13   16.73    5.91
  -6   2  13   26.22    3.55
  -6   2  13   25.55    3.12
   6  -2 -12    4.36    4.54
  -6   2  12    6.35    1.65
  -6   2  12    6.66    1.66
   6  -2 -11   -2.45    3.46
  -6   2  11    0.73    0.77
  -6   2  11    0.05    0.42
   6  -2 -10   25.21    7.52
  -6   2  10   31.58    3.45
  -6   2  10   30.85    3.28
  -6   2   9    0.08    0.37
   6  -2  -9    4.51    4.28
  -6   2   9    0.92    0.67
  -6   2   9    1.10    0.46
  -6   2   8   27.64    2.61
   6  -2  -8   29.74    8.09
  -6   2   8   26.04    2.91
  -6   2   8   31.11    3.29
  -6   2   7    2.28    0.88
   6  -2  -7    3.35    4.25
   6  -2  -7    2.21    0.66
  -6   2   7    1.66    0.63
  -6   2   7    2.30    0.86
  -6   2   6   10.50    1.60
   6  -2  -6    6.04    3.11
   6  -2  -6   10.87    1.44
  -6   2   6   12.80    1.72
  -6   2   6   12.10    1.96
  -6   2   5  310.94   10.95
  -6   2   5  302.55   10.71
   6  -2  -5  296.04    9.97
   6  -2  -5  260.88   20.37
  -6   2   5  303.38   12.35
  -6   2   4    5.89    1.24
   6  -2  -4   11.75    4.09
  -6   2   4    7.58    1.30
   6  -2  -4    6.50    1.10
  -6   2   4    5.27    1.51
  -6   2   3   12.06    1.98
  -6   2   3    9.55    1.60
  -6   2   3    6.99    1.08
   6  -2  -3    8.69    1.05
   6  -2  -3   13.67    5.11
  -6   2   3    9.55    2.97
   6  -2  -3    9.88    1.36
  -6   2   3   10.63    2.02
  -6   2   2   30.11    2.82
  -6   2   2   28.45    2.15
   6  -2  -2   29.34    2.27
   6  -2  -2   24.55    5.14
   6  -2  -2   28.36    2.48
  -6   2   2   25.90    4.93
  -6   2   2   24.24    3.27
  -6   2   2   28.97    2.98
  -6   2   1    4.89    1.27
  -6   2   1    4.89    1.24
   6  -2  -1    3.88    0.83
  -6   2   1    5.12    2.94
   6  -2  -1    4.75    1.07
  -6   2   1    4.54    1.41
  -6   2   1    4.83    0.85
  -6   2   0   42.88    3.47
  -6   2   0   39.49    2.24
   6  -2   0   42.37    3.26
   6  -2   0   40.68    3.39
  -6   2   0   50.24    6.76
   6  -2   0   42.80    2.30
  -6   2   0   50.00    4.11
  -6   2  -1  157.03    7.41
   6  -2   1  151.81    7.10
  -6   2  -1  142.16   12.03
  -6   2  -1  164.88    5.66
   6  -2   1  138.61    5.43
   6  -2   1  139.07    8.57
  -6   2  -1  150.93    7.84
  -6   2  -2 1101.59   30.82
   6  -2   2 1124.43   30.84
  -6   2  -2 1111.51   40.92
  -6   2  -2 1131.81   28.48
   6  -2   2 1070.12   28.15
   6  -2   2 1153.17   34.06
   6  -2   2  965.72   29.89
  -6   2  -2 1123.94   32.00
  -6   2  -3   43.29    3.70
   6  -2   3   40.78    3.71
  -6   2  -3   41.78    2.97
  -6   2  -3   40.59    6.54
   6  -2   3   41.43    2.84
   6  -2   3   40.32    4.47
   6  -2   3   35.44    3.03
  -6   2  -3   43.50    4.14
   6  -2   4    4.97    1.06
  -6   2  -4    8.02    1.99
  -6   2  -4    5.40    1.33
   6  -2   4    6.45    1.60
  -6   2  -4    7.22    4.09
  -6   2  -4    7.31    1.30
   6  -2   4    6.39    1.80
   6  -2   4    6.54    1.18
   6  -2   5    0.76    0.49
  -6   2  -5    0.12    0.93
   6  -2   5    0.13    0.47
  -6   2  -5    0.53    0.54
   6  -2   5    0.45    0.60
   6  -2   5    1.74    0.70
  -6   2  -6   -0.35    0.64
   6  -2   6    1.60    1.13
  -6   2  -6    0.39    0.53
   6  -2   6    0.49    0.64
   6  -2   6   -0.06    0.31
  -6   2  -7   12.61    2.52
   6  -2   7   11.96    2.38
  -6   2  -7   10.71    1.90
   6  -2   7   14.60    2.74
   6  -2   7   12.63    1.89
  -6   2  -8   23.52    3.51
   6  -2   8   30.01    3.93
  -6   2  -8   27.15    3.22
   6  -2   8   28.53    3.05
   6  -2   8   25.39    3.78
   6  -2   9   39.56    4.65
  -6   2  -9   38.48    3.99
   6  -2   9   39.11    3.87
   6  -2   9   36.46    4.47
  -6   2  -9   31.28    4.34
  -6   2 -10   -1.54    1.63
   6  -2  10    0.93    0.87
  -6   2 -10   -0.18    0.55
   6  -2  10    0.42    0.59
  -6   2 -11   -1.26    1.66
   6  -2  11    0.17    1.13
  -6   2 -11    2.37    1.30
   6  -2  11   -0.02    0.66
  -6   2 -12    1.26    1.67
   6  -2  12    0.59    0.78
  -6   2 -12    1.04    0.65
   6  -2  12    0.38    0.82
   6  -2  13   -0.58    1.03
  -6   2 -13    1.30    0.81
   6  -2  13   -0.04    0.55
  -6   2 -14    3.14    1.83
  -6   2 -14    0.12    0.61
   6  -2  14    1.29    0.98
   6  -1 -18    7.80    6.07
  -6   1  18    2.10    1.12
   6  -1 -17   21.35    6.95
  -6   1  17   30.69    4.54
  -6   1  17   29.40    3.72
   6  -1 -16    2.75    3.90
  -6   1  16   -1.07    1.05
  -6   1  16   -1.01    1.06
   6  -1 -15    8.88    4.04
  -6   1  15   21.95    3.06
  -6   1  15   18.15    3.15
  -6   1  14    1.28    1.08
   6  -1 -14    3.98    4.53
  -6   1  14    1.48    0.91
  -6   1  13    8.66    2.03
   6  -1 -13    3.94    4.05
  -6   1  13    9.68    1.82
  -6   1  12    9.94    2.05
   6  -1 -12    1.60    2.53
  -6   1  12   12.93    2.12
  -6   1  11    1.56    1.02
   6  -1 -11    3.74    1.22
  -6   1  11   -0.26    0.64
  -6   1  10   12.57    2.34
   6  -1 -10   19.31    6.99
   6  -1 -10   12.25    1.78
  -6   1  10   11.94    2.09
  -6   1   9    1.29    0.78
   6  -1  -9   -0.63    2.83
   6  -1  -9    0.91    0.42
  -6   1   9    0.43    0.61
  -6   1   8   17.84    1.85
   6  -1  -8    9.34    4.37
   6  -1  -8   15.22    1.93
  -6   1   8   13.91    3.02
  -6   1   8   17.95    2.58
  -6   1   8   16.03    2.30
  -6   1   7    5.93    1.15
   6  -1  -7    1.96    2.73
  -6   1   7    4.74    2.26
   6  -1  -7    5.88    1.18
  -6   1   7    5.68    1.48
  -6   1   7    7.16    1.49
  -6   1   6   20.17    2.07
   6  -1  -6   17.23    5.08
   6  -1  -6   22.55    2.32
  -6   1   6   17.97    2.24
  -6   1   6   21.16    4.09
  -6   1   6   19.24    2.63
  -6   1   5   93.65    4.94
  -6   1   5   92.22    8.81
   6  -1  -5  101.78    5.21
  -6   1   5   83.07    4.76
   6  -1  -5   84.50   11.69
  -6   1   5   93.66    6.06
  -6   1   4    6.54    1.46
  -6   1   4    5.98    1.27
  -6   1   4   10.04    3.45
   6  -1  -4    6.27    1.17
  -6   1   4    4.68    0.91
  -6   1   4    5.02    1.26
  -6   1   3    4.43    1.07
  -6   1   3    3.99    1.00
   6  -1  -3    4.10    0.67
  -6   1   3    3.63    0.74
  -6   1   3    5.21    1.80
   6  -1  -3    4.01    0.98
  -6   1   3    3.12    1.17
  -6   1   2   -0.77    0.73
  -6   1   2    0.33    0.41
  -6   1   2    0.17    0.21
   6  -1  -2    0.30    0.31
  -6   1   2    0.83    1.28
   6  -1  -2    0.20    0.45
   6  -1  -2    0.46    1.08
  -6   1   2   -0.60    0.74
  -6   1   1    0.81    0.33
  -6   1   1    1.39    1.03
  -6   1   1    0.92    0.68
   6  -1  -1    1.42    0.56
  -6   1   1    0.71    1.40
   6  -1  -1    1.43    0.74
   6  -1  -1   -0.71    1.02
  -6   1   1   -0.57    1.10
  -6   1   0  190.08    8.20
   6  -1   0  187.44    7.58
  -6   1   0  173.01   13.25
   6  -1   0  193.68    8.74
   6  -1   0  182.04    9.79
  -6   1   0  160.88    9.33
  -6   1   0  191.25    9.08
  -6   1  -1  275.14   10.69
   6  -1   1  278.66   10.37
  -6   1  -1  249.59   16.64
   6  -1   1  274.12   11.44
   6  -1   1  275.51   12.66
  -6   1  -1  270.29   11.74
   6  -1   2  326.81   12.37
  -6   1  -2  289.39   18.52
  -6   1  -2  356.84   10.85
   6  -1   2  348.65   14.76
  -6   1  -2  322.08   13.61
   6  -1   3    2.04    0.79
  -6   1  -3    2.38    1.10
   6  -1   3    3.12    0.96
  -6   1  -3    3.75    0.93
  -6   1  -3   -0.14    1.55
   6  -1   3    3.39    1.30
   6  -1   3    3.94    0.86
   6  -1   4    2.28    0.81
  -6   1  -4    2.55    1.15
   6  -1   4    1.88    0.92
  -6   1  -4    4.34    2.68
  -6   1  -4    2.76    0.85
   6  -1   4    2.00    0.88
   6  -1   4    2.73    0.82
  -6   1  -5    6.16    1.80
   6  -1   5    5.73    1.46
  -6   1  -5    3.32    2.77
  -6   1  -5    3.50    0.82
   6  -1   5    4.05    1.64
   6  -1   5    2.73    0.88
  -6   1  -6   10.21    2.41
   6  -1   6   10.54    2.15
  -6   1  -6   12.34    3.77
  -6   1  -6   14.78    2.08
   6  -1   6   11.26    2.46
   6  -1   6   12.18    1.81
  -6   1  -7   -0.07    0.82
   6  -1   7    0.61    0.94
  -6   1  -7    4.72    2.87
  -6   1  -7    0.10    0.46
   6  -1   7    1.10    0.66
   6  -1   7    0.69    0.71
  -6   1  -8   23.50    3.88
   6  -1   8   24.47    2.86
   6  -1   8   27.72    3.67
  -6   1  -8   25.03    2.99
  -6   1  -8   20.85    5.11
   6  -1   9   35.82    4.32
  -6   1  -9   33.02    3.67
   6  -1   9   33.09    3.48
  -6   1  -9   33.51    4.82
  -6   1 -10    1.47    1.41
   6  -1  10   -0.79    1.01
  -6   1 -10   -0.67    0.84
   6  -1  10    0.11    0.54
  -6   1 -11    1.26    0.89
   6  -1  11    3.19    1.39
  -6   1 -11    4.63    1.57
   6  -1  11    2.73    1.10
  -6   1 -12    3.53    1.86
   6  -1  12    1.55    1.22
  -6   1 -12    1.44    1.08
   6  -1  12    0.72    0.50
  -6   1 -13    4.72    2.29
   6  -1  13   10.33    2.72
  -6   1 -13    6.03    1.79
   6  -1  13    5.11    1.58
  -6   1 -14    0.26    1.50
   6  -1  14    0.43    0.83
   6   0 -18    4.18    4.22
  -6   0  18    3.50    1.71
   6   0 -17   61.46   12.74
  -6   0  17   61.83    6.58
  -6   0  17   64.89    5.91
   6   0 -16    4.98    4.13
  -6   0  16    1.45    0.98
  -6   0  16    0.98    0.85
   6   0 -15    2.42    3.48
  -6   0  15    0.72    1.45
  -6   0  15    0.02    0.66
   6   0 -14    5.33    4.48
  -6   0  14    4.38    1.75
  -6   0  14    2.34    1.04
   6   0 -13   -1.70    2.93
  -6   0  13    4.90    1.52
   6   0 -13    3.22    1.08
  -6   0  13    2.93    1.18
   6   0 -12   31.59    8.37
   6   0 -12   37.77    3.80
  -6   0  12   39.61    4.37
  -6   0  12   40.47    4.05
   6   0 -11    6.60    3.51
  -6   0  11   19.81    2.99
   6   0 -11   15.10    2.37
  -6   0  11   16.17    2.51
   6   0 -10   50.78    9.59
   6   0 -10   57.76    4.61
  -6   0  10   65.98    5.29
   6   0 -10   67.82    5.15
  -6   0  10   64.97    5.02
   6   0  -9   18.70    5.52
   6   0  -9   19.95    2.48
  -6   0   9   22.06    2.88
  -6   0   9   25.02    4.23
   6   0  -9   22.31    2.85
  -6   0   9   20.17    2.68
   6   0  -8   35.50    7.46
   6   0  -8   48.28    3.87
  -6   0   8   45.64    5.96
  -6   0   8   39.35    3.77
   6   0  -8   44.42    4.28
  -6   0   8   42.93    4.04
  -6   0   7   13.70    2.03
   6   0  -7   14.42    4.87
   6   0  -7   15.08    2.13
  -6   0   7   17.15    3.81
   6   0  -7   15.10    2.43
  -6   0   7   15.59    2.46
  -6   0   6    1.16    0.51
  -6   0   6   -0.13    0.34
   6   0  -6    1.00    0.43
  -6   0   6   -0.94    1.66
   6   0  -6    0.90    0.88
  -6   0   6    0.64    0.58
  -6   0   5   14.40    2.12
  -6   0   5   11.11    1.59
  -6   0   5   10.85    1.45
   6   0  -5   11.77    1.84
  -6   0   5   10.23    3.15
   6   0  -5   15.25    2.59
  -6   0   5   11.81    2.16
  -6   0   4   -0.06    0.69
  -6   0   4    0.24    0.37
  -6   0   4    0.95    1.48
   6   0  -4    0.64    0.71
   6   0  -4    0.69    0.73
  -6   0   4   -0.61    0.84
  -6   0   4    0.31    0.36
   6   0  -3   19.47    1.73
   6   0  -3   31.61    3.29
  -6   0   3   20.95    5.10
   6   0  -3   42.30    4.66
  -6   0   3   33.83    4.06
  -6   0   3   30.29    3.39
  -6   0   2   -0.52    0.82
   6   0  -2    0.32    0.31
  -6   0   2   -0.03    0.18
  -6   0   2   -0.32    1.87
   6   0  -2    0.21    0.53
   6   0  -2    1.08    0.59
  -6   0   2    0.45    0.53
  -6   0   1   11.32    1.93
   6   0  -1   13.15    1.59
  -6   0   1   12.56    3.88
   6   0  -1   11.42    2.03
   6   0  -1   10.83    2.20
  -6   0   1   15.16    2.59
   6   0   0   94.73    5.34
  -6   0   0   87.54   10.51
   6   0   0  111.90    7.15
   6   0   0  152.91    8.95
  -6   0   0  110.06    7.91
  -6   0   0  105.30    7.14
  -6   0  -1    1.52    0.78
   6   0   1    1.72    0.70
  -6   0  -1    2.62    2.40
   6   0   1    0.07    0.91
   6   0   1    1.15    1.33
  -6   0  -2    4.92    1.53
   6   0   2    4.99    1.23
  -6   0  -2    3.87    2.72
   6   0   2    5.22    1.67
   6   0   2    5.38    1.60
   6   0   3   39.63    3.98
  -6   0  -3   35.61    7.17
   6   0   3   68.04    5.97
  -6   0  -3   43.83    4.97
  -6   0  -4    0.64    1.15
   6   0   4   -0.13    0.47
  -6   0  -4    0.98    0.63
  -6   0  -4    2.04    2.56
   6   0   4    2.97    1.50
  -6   0  -5   -0.80    1.18
   6   0   5   -0.02    0.50
  -6   0  -5    1.48    0.88
   6   0   5    0.53    0.87
  -6   0  -6   -0.60    0.93
   6   0   6    0.77    1.06
  -6   0  -6    0.06    0.36
  -6   0  -6   -1.86    2.16
  -6   0  -7   20.11    3.67
   6   0   7   24.16    3.42
  -6   0  -7   21.19    2.62
  -6   0  -7   21.58    5.35
   6   0   7   17.85    2.29
  -6   0  -8   11.46    2.90
   6   0   8   17.42    2.98
  -6   0  -8   11.50    3.75
  -6   0  -8   16.12    2.44
   6   0   8   16.32    2.29
  -6   0  -9    0.49    0.89
   6   0   9   -0.35    0.62
  -6   0  -9   -0.47    1.47
  -6   0  -9   -0.98    0.86
   6   0   9    0.36    0.47
  -6   0 -10   -0.31    0.87
   6   0  10    0.54    0.91
  -6   0 -10    0.48    1.72
  -6   0 -10    3.51    1.47
   6   0  10    0.49    0.88
  -6   0 -11    3.94    1.78
   6   0  11    3.09    1.31
  -6   0 -11    3.83    1.39
   6   0  11    5.22    1.59
  -6   0 -12   21.06    4.53
   6   0  12   27.64    4.15
  -6   0 -12   30.00    3.80
  -6   0 -13    2.84    2.14
  -6   0 -13   -0.61    0.58
   6   1 -18    1.63    4.20
  -6  -1  18   -0.44    0.92
   6   1 -17   27.38    8.45
  -6  -1  17   26.01    4.33
  -6  -1  17   27.58    3.94
   6   1 -16    1.58    4.34
  -6  -1  16    4.21    1.53
  -6  -1  16    5.91    1.78
   6   1 -15   -0.51    2.58
  -6  -1  15    8.57    2.39
  -6  -1  15    7.71    1.79
   6   1 -14   -1.96    3.88
   6   1 -14    4.40    1.55
  -6  -1  14    2.27    1.30
  -6  -1  14    2.40    1.13
   6   1 -13   -0.42    3.45
   6   1 -13    6.17    1.72
  -6  -1  13    7.09    2.00
  -6  -1  13    5.60    1.69
   6   1 -12    1.91    2.83
   6   1 -12    2.22    0.97
  -6  -1  12    4.43    1.70
  -6  -1  12    4.61    1.25
   6   1 -11    7.41    4.51
   6   1 -11   16.69    2.73
  -6  -1  11   18.76    2.96
  -6  -1  11   21.98    3.03
   6   1 -10  202.78    9.75
  -6  -1  10  200.99   10.31
   6   1 -10  193.53   20.03
  -6  -1  10  207.23   10.08
   6   1  -9   12.27    5.03
   6   1  -9   12.63    2.21
  -6  -1   9   11.20    3.20
  -6  -1   9   13.64    2.26
   6   1  -9   16.55    2.44
  -6  -1   9   12.96    2.11
  -6  -1   8   18.30    2.61
   6   1  -8   19.51    2.53
  -6  -1   8   17.89    4.17
   6   1  -8   21.82    2.86
  -6  -1   8   18.44    2.59
   6   1  -7    0.49    0.93
  -6  -1   7   -0.38    1.80
  -6  -1   7    0.77    0.61
   6   1  -7    0.07    0.58
  -6  -1   7    0.79    0.61
   6   1  -6    1.68    0.93
  -6  -1   6    0.52    0.40
   6   1  -6   -0.73    0.95
  -6  -1   6   -0.80    0.70
  -6  -1   5    6.31    1.60
  -6  -1   5    6.74    1.39
   6   1  -5    7.88    1.74
  -6  -1   5    5.62    2.55
   6   1  -5    9.47    1.97
  -6  -1   5    6.40    1.47
   6   1  -4   32.95    3.35
  -6  -1   4   32.12    2.69
  -6  -1   4   33.50    6.12
   6   1  -4   30.52    3.59
  -6  -1   4   35.57    3.74
  -6  -1   4   32.66    3.39
   6   1  -3  155.07    5.86
  -6  -1   3  131.35   12.38
   6   1  -3  155.93    8.06
   6   1  -3  151.73    8.73
  -6  -1   3  148.56    8.40
  -6  -1   3  154.68    8.17
   6   1  -2   38.98    2.73
   6   1  -2   45.06    4.04
  -6  -1   2   36.24    6.12
   6   1  -2   42.11    4.36
  -6  -1   2   38.36    4.01
  -6  -1   2   37.67    3.83
  -6  -1   1    0.36    0.80
   6   1  -1    1.16    0.61
   6   1  -1    1.03    0.84
   6   1  -1    0.80    0.67
  -6  -1   1   -0.14    1.08
   6   1   0   84.80    4.80
  -6  -1   0   73.89    9.06
   6   1   0   93.63    6.35
   6   1   0   82.42    6.38
  -6  -1   0   67.19    5.86
  -6  -1   0   83.94    6.15
  -6  -1  -1    0.69    0.99
   6   1   1    0.20    0.58
  -6  -1  -1   -2.59    1.70
   6   1   1    0.24    0.56
   6   1   1    0.64    0.89
  -6  -1  -1    0.87    0.86
  -6  -1  -2   10.98    2.38
   6   1   2    8.07    1.61
  -6  -1  -2    6.77    2.99
   6   1   2    9.69    2.35
  -6  -1  -3    1.62    1.28
   6   1   3    0.36    0.60
  -6  -1  -3   -0.84    1.80
   6   1   3   -0.43    0.94
  -6  -1  -4    2.72    1.07
   6   1   4    6.11    1.56
  -6  -1  -4    8.98    3.88
   6   1   4    8.02    2.26
   6   1   5   51.13    4.65
  -6  -1  -5   50.96    8.42
  -6  -1  -5   44.20    5.19
  -6  -1  -6    0.17    1.13
   6   1   6    3.12    1.48
  -6  -1  -6    0.29    1.62
  -6  -1  -7   -2.17    1.27
   6   1   7    1.74    1.02
  -6  -1  -7    2.24    2.53
  -6  -1  -8   -0.46    0.99
   6   1   8   -1.57    1.01
  -6  -1  -8    1.21    0.85
  -6  -1  -8   -1.28    1.44
  -6  -1  -9   -0.54    1.35
   6   1   9    1.20    1.26
  -6  -1  -9    0.46    0.67
  -6  -1  -9   -1.70    1.56
  -6  -1 -10   -0.54    1.42
   6   1  10    0.05    0.75
  -6  -1 -10    4.17    3.09
  -6  -1 -10    2.43    1.05
  -6  -1 -11   13.77    3.39
   6   1  11   14.82    3.22
  -6  -1 -11   15.29    4.93
  -6  -1 -11   18.94    2.88
  -6  -1 -12   31.14    5.56
   6   1  12   35.09    4.93
  -6  -1 -12   35.40    4.13
   6   2 -17    8.51    5.04
  -6  -2  17    4.94    1.98
  -6  -2  17    7.36    2.08
   6   2 -16   -4.14    5.81
  -6  -2  16    1.73    1.70
  -6  -2  16    0.96    0.86
   6   2 -15   16.05    6.90
   6   2 -15   15.65    3.04
  -6  -2  15   14.87    3.13
  -6  -2  15   15.52    2.89
   6   2 -14   -1.38    2.63
   6   2 -14    2.18    1.36
  -6  -2  14    3.67    1.71
  -6  -2  14    4.08    1.46
   6   2 -13    5.76    3.02
   6   2 -13    6.04    1.73
  -6  -2  13    5.13    2.05
  -6  -2  13    6.32    1.87
   6   2 -12    0.21    4.49
   6   2 -12    0.58    1.13
  -6  -2  12    0.44    0.52
  -6  -2  12    0.54    1.02
   6   2 -11   23.74    7.03
   6   2 -11   25.82    3.47
  -6  -2  11   25.31    3.57
  -6  -2  11   26.23    3.39
  -6  -2  10    3.69    1.27
   6   2 -10    4.80    3.08
   6   2 -10    5.64    1.73
  -6  -2  10    7.72    1.91
   6   2  -9   53.70    4.79
  -6  -2   9   44.94    4.44
  -6  -2   9   45.57    6.99
  -6  -2   9   49.00    4.55
   6   2  -8   42.96    4.20
  -6  -2   8   40.07    3.99
  -6  -2   8   38.32    6.36
  -6  -2   8   48.53    4.47
   6   2  -7  149.99    8.23
  -6  -2   7  133.07   12.71
  -6  -2   7  134.53    7.50
  -6  -2   7  149.92    8.27
  -6  -2   6    0.38    0.82
  -6  -2   6    0.79    0.83
   6   2  -6    0.41    0.60
  -6  -2   6   -0.52    1.77
  -6  -2   6    0.78    1.02
  -6  -2   5    1.96    1.09
   6   2  -5    0.44    0.59
  -6  -2   5    2.55    3.22
  -6  -2   5    0.53    0.47
  -6  -2   5    2.52    1.02
  -6  -2   4    4.80    1.47
   6   2  -4    3.85    1.42
  -6  -2   4    4.88    2.74
  -6  -2   4    4.00    1.29
  -6  -2   3   -0.19    0.67
   6   2  -3    1.56    1.33
  -6  -2   3   -1.26    2.60
  -6  -2   3    0.62    0.60
   6   2  -2   40.79    2.95
   6   2  -2   39.57    4.15
  -6  -2   2   34.86    6.63
  -6  -2   2   36.67    4.06
  -6  -2   2   37.43    3.97
  -6  -2   1    1.92    1.06
   6   2  -1    0.44    0.40
   6   2  -1   -0.99    0.92
  -6  -2   1   -1.05    2.27
  -6  -2   1   -0.74    0.99
  -6  -2   0    2.33    0.93
   6   2   0    1.21    0.66
   6   2   0    3.11    1.40
  -6  -2   0    0.80    1.74
  -6  -2   0    1.03    0.87
  -6  -2  -1    9.83    2.36
   6   2   1    8.02    1.52
   6   2   1   10.16    2.28
  -6  -2  -1    7.11    3.44
  -6  -2  -1    7.57    1.93
  -6  -2  -2   14.01    2.73
   6   2   2   14.04    2.16
  -6  -2  -2   10.39    3.73
   6   2   2   12.02    2.36
  -6  -2  -3    2.90    1.60
   6   2   3    3.43    1.18
  -6  -2  -3    3.39    3.13
   6   2   3    6.51    2.00
  -6  -2  -4   23.24    3.79
   6   2   4   22.68    2.99
  -6  -2  -4   18.04    5.13
   6   2   4   24.86    3.95
  -6  -2  -5   23.99    4.16
   6   2   5   28.20    3.48
  -6  -2  -5   25.21    6.24
   6   2   5   28.20    4.28
  -6  -2  -6    3.16    1.44
   6   2   6    1.29    1.13
  -6  -2  -6    0.83    2.27
   6   2   6    2.27    1.74
  -6  -2  -7    5.62    2.38
   6   2   7    6.46    1.95
  -6  -2  -7    6.40    3.48
  -6  -2  -8   -2.01    1.79
   6   2   8    0.35    0.63
  -6  -2  -8   -0.17    1.63
  -6  -2  -9    7.55    3.02
   6   2   9    6.00    1.95
  -6  -2  -9    6.15    3.24
  -6  -2 -10    5.36    2.11
   6   2  10   10.76    2.64
  -6  -2 -10    2.32    1.58
   6   2  11   59.78    6.29
  -6  -2 -11   45.16    8.27
  -6  -2 -11   52.65    7.32
   6   3 -16    4.50    5.24
   6   3 -16    4.04    1.64
  -6  -3  16    5.70    2.20
  -6  -3  16    4.49    1.94
   6   3 -15    9.33    7.07
   6   3 -15   13.89    2.95
  -6  -3  15   14.72    2.79
  -6  -3  15   13.25    2.82
  -6  -3  14    6.42    2.12
   6   3 -14    4.15    4.37
   6   3 -14    7.64    2.23
  -6  -3  14    2.85    1.15
  -6  -3  13   21.67    3.63
   6   3 -13   19.27    6.28
   6   3 -13   21.29    3.39
  -6  -3  13   19.88    3.12
  -6  -3  12    2.24    1.18
   6   3 -12   -0.81    2.70
   6   3 -12    1.64    1.23
  -6  -3  12    0.42    0.78
  -6  -3  11    2.43    1.53
   6   3 -11   10.21    5.72
   6   3 -11    3.02    1.51
  -6  -3  11    2.88    1.49
   6   3 -10   22.08    3.29
  -6  -3  10   22.25    3.35
  -6  -3  10   25.12    3.26
   6   3  -9   53.92    5.12
  -6  -3   9   51.67    4.90
  -6  -3   9   50.95    8.13
  -6  -3   9   53.03    4.91
   6   3  -8    0.98    0.98
  -6  -3   8   -0.33    0.64
  -6  -3   8    0.57    2.71
  -6  -3   8   -0.01    0.59
   6   3  -7    8.68    1.98
  -6  -3   7    6.81    1.67
  -6  -3   7   13.78    5.06
  -6  -3   7    9.00    2.08
  -6  -3   6    8.66    1.92
   6   3  -6    6.71    1.95
  -6  -3   6    5.40    1.43
  -6  -3   6    5.84    3.83
  -6  -3   6    6.77    1.78
  -6  -3   5   -0.38    0.71
   6   3  -5   -1.34    1.13
  -6  -3   5   -0.17    2.21
  -6  -3   5   -0.62    0.79
  -6  -3   4    0.19    0.82
   6   3  -4    0.56    0.93
  -6  -3   4    0.76    1.95
  -6  -3   4    2.42    1.23
  -6  -3   3    1.45    0.52
   6   3  -3    2.03    1.06
  -6  -3   3    2.73    2.66
  -6  -3   3    3.48    1.32
  -6  -3   2    1.90    1.37
   6   3  -2    2.02    0.59
   6   3  -2    1.62    0.81
  -6  -3   2    1.79    2.90
  -6  -3   2    2.07    1.39
  -6  -3   1    1.20    1.00
   6   3  -1    1.67    0.76
   6   3  -1    0.17    0.83
  -6  -3   1    1.86    1.17
  -6  -3   0    1.05    2.56
  -6  -3   0    0.48    0.75
   6   3   0    1.28    0.72
   6   3   0    1.60    1.21
  -6  -3   0   -0.95    0.98
  -6  -3  -1    5.27    1.71
   6   3   1    6.81    1.53
   6   3   1    3.98    1.49
  -6  -3  -1    5.25    3.78
  -6  -3  -1    4.91    1.68
  -6  -3  -2   -0.50    0.92
   6   3   2    0.60    0.70
   6   3   2    1.17    0.96
  -6  -3  -3    3.45    1.80
   6   3   3    4.02    1.37
   6   3   3    4.48    1.70
  -6  -3  -3    0.46    2.79
  -6  -3  -4   18.22    3.38
   6   3   4   25.59    3.33
  -6  -3  -4   20.11    6.29
   6   3   4   22.61    3.87
  -6  -3  -5   -1.53    1.75
   6   3   5    1.32    1.13
   6   3   5    1.21    1.25
  -6  -3  -6    4.73    2.15
   6   3   6    3.30    1.37
  -6  -3  -6    6.23    4.22
   6   3   6    2.30    1.70
  -6  -3  -7    6.61    2.57
   6   3   7    3.51    1.27
  -6  -3  -7    4.25    2.31
   6   3   7    3.07    1.96
  -6  -3  -8    6.59    2.65
   6   3   8    4.19    1.57
  -6  -3  -8    8.72    4.41
   6   3   8    3.44    1.80
   6   3   9    9.78    2.86
  -6  -3  -9    7.11    2.40
   6   3   9   12.12    2.70
  -6  -3  -9    5.61    2.80
   6   3  10   47.43    5.47
  -6  -3 -10   34.41    7.70
  -6  -3 -11   10.18    4.22
   6   4 -15   28.76    9.69
   6   4 -15   29.63    4.41
  -6  -4  15   30.00    4.73
  -6  -4  14    0.32    1.08
   6   4 -14   -0.61    0.98
  -6  -4  14    0.99    0.87
   6   4 -13    2.47    3.30
  -6  -4  13    1.65    1.27
   6   4 -13    2.05    1.62
  -6  -4  13    0.62    1.03
   6   4 -12    1.54    1.20
  -6  -4  12    1.25    1.33
  -6  -4  12    1.35    1.19
   6   4 -11    0.58    0.79
  -6  -4  11    5.26    1.92
  -6  -4  11    2.06    1.14
   6   4 -10    1.24    1.25
  -6  -4  10    1.16    0.78
  -6  -4  10    1.17    0.87
  -6  -4   9    1.51    0.75
   6   4  -9    2.22    1.26
  -6  -4   9    6.52    3.80
  -6  -4   9    1.85    0.81
  -6  -4   8   11.08    2.27
   6   4  -8   11.19    2.51
  -6  -4   8    8.37    3.72
  -6  -4   8   11.85    2.39
   6   4  -7    2.76    1.25
  -6  -4   7    6.88    4.03
  -6  -4   7    2.98    0.97
  -6  -4   6    1.02    0.82
   6   4  -6    0.94    0.83
  -6  -4   6   -0.82    3.20
  -6  -4   6   -0.93    1.00
  -6  -4   5    1.19    0.80
   6   4  -5    3.50    1.54
  -6  -4   5    5.76    3.48
  -6  -4   5    5.41    1.81
  -6  -4   4   -0.99    0.64
   6   4  -4   -0.09    1.45
  -6  -4   4   -2.06    2.88
  -6  -4   4    0.65    1.08
  -6  -4   3    2.10    1.18
   6   4  -3    0.68    0.74
  -6  -4   3    6.48    3.77
  -6  -4   3    2.11    1.17
  -6  -4   2    0.80    1.20
   6   4  -2    0.80    0.69
   6   4  -2   -0.39    0.69
  -6  -4   2   -0.77    1.25
   6   4  -1   63.67    4.56
   6   4  -1   64.59    6.15
  -6  -4   1   63.94   10.77
  -6  -4   1   49.17    5.31
  -6  -4   1   58.88    5.67
  -6  -4   0    6.96    2.02
   6   4   0    6.26    1.43
   6   4   0    9.74    2.42
  -6  -4   0    9.34    4.55
  -6  -4   0    5.54    1.85
  -6  -4  -1   -0.28    0.94
   6   4   1    1.28    1.08
   6   4   1   -0.24    0.87
  -6  -4  -1    3.00    1.78
  -6  -4  -1   -0.22    1.18
  -6  -4  -2   28.49    4.31
   6   4   2   35.60    3.78
   6   4   2   40.17    5.03
  -6  -4  -2   26.40    7.20
  -6  -4  -3   48.20    9.61
   6   4   3   44.12    4.37
   6   4   3   54.25    5.98
  -6  -4  -3   40.57    5.31
  -6  -4  -4    3.83    1.91
   6   4   4    1.47    1.04
   6   4   4    3.95    2.01
  -6  -4  -4    1.47    2.36
  -6  -4  -5    8.53    2.65
   6   4   5    3.29    1.33
   6   4   5    7.84    2.52
  -6  -4  -5    5.61    2.57
  -6  -4  -6    3.90    2.29
   6   4   6    5.57    1.82
  -6  -4  -6    0.78    2.22
   6   4   6    4.12    1.96
  -6  -4  -7   -0.11    1.49
   6   4   7   -2.15    1.49
  -6  -4  -7   -4.19    2.92
   6   4   7    0.50    1.45
  -6  -4  -8   16.38    4.00
   6   4   8   20.90    3.45
  -6  -4  -8   23.47    6.93
   6   4   8   19.83    4.08
  -6  -4  -9    6.90    4.63
   6   5 -14   -3.91    5.39
  -6  -5  14    3.19    1.80
   6   5 -13    7.89    5.56
   6   5 -13    4.01    1.51
  -6  -5  13   -0.34    1.38
  -6  -5  13    2.19    0.98
   6   5 -12    2.09    1.37
  -6  -5  12    0.80    0.81
  -6  -5  12    0.39    0.87
  -6  -5  11    1.39    0.67
   6   5 -11    1.15    0.99
  -6  -5  11    2.12    1.23
   6   5 -10   33.56    4.52
  -6  -5  10   26.77    3.99
  -6  -5  10   31.31    4.19
   6   5  -9   11.33    2.65
  -6  -5   9   15.60    4.68
  -6  -5   9   15.13    2.88
   6   5  -8   11.93    2.62
  -6  -5   8    6.68    3.38
  -6  -5   8   12.63    2.57
   6   5  -7    3.69    1.59
  -6  -5   7    6.37    4.33
  -6  -5   7    5.14    1.82
  -6  -5   6    6.01    1.57
   6   5  -6    8.31    2.30
  -6  -5   6   13.42    6.47
  -6  -5   6    5.66    1.72
  -6  -5   5   13.44    2.42
   6   5  -5   13.23    2.64
  -6  -5   5   19.23    6.00
  -6  -5   5   12.88    2.60
  -6  -5   4    3.59    1.50
   6   5  -4    2.93    1.71
  -6  -5   4    0.11    3.08
  -6  -5   4   -0.18    0.77
  -6  -5   3    6.37    1.87
   6   5  -3    5.45    1.79
  -6  -5   3   -1.57    3.10
  -6  -5   3    4.83    1.92
  -6  -5   2   22.29    3.29
   6   5  -2   20.56    3.50
  -6  -5   2   17.08    4.66
  -6  -5   2   16.51    2.97
   6   5  -1   96.36    6.21
   6   5  -1  107.56    8.33
  -6  -5   1   83.11   12.64
  -6  -5   1   92.90    7.49
  -6  -5   1   92.05    7.36
  -6  -5   0    3.08    1.41
   6   5   0    2.90    1.19
   6   5   0    2.36    1.19
  -6  -5   0    8.74    4.81
  -6  -5   0    2.85    1.50
  -6  -5  -1   23.72    3.92
   6   5   1   25.14    3.18
   6   5   1   24.46    3.98
  -6  -5  -1   20.53    6.15
  -6  -5  -1   19.91    3.56
  -6  -5  -2   12.86    2.93
   6   5   2   13.32    2.40
   6   5   2   12.33    3.18
  -6  -5  -2   17.84    6.83
  -6  -5  -3   34.35    5.03
   6   5   3   35.01    4.09
   6   5   3   43.20    5.71
  -6  -5  -3   36.79    8.32
  -6  -5  -4    6.02    3.97
  -6  -5  -4   -0.63    1.01
   6   5   4    3.21    1.25
   6   5   4    4.62    2.35
  -6  -5  -5    3.63    1.59
   6   5   5    4.92    1.56
   6   5   5    4.77    1.54
  -6  -5  -5    4.70    3.04
  -6  -5  -6   10.69    3.12
   6   5   6   11.78    2.66
   6   5   6   10.26    3.10
  -6  -5  -6   10.65    5.39
  -6  -6  13    5.16    2.08
  -6  -6  12   11.13    2.73
   6   6 -11    3.88    1.63
  -6  -6  11    1.67    0.63
   6   6 -10    2.78    1.49
  -6  -6  10    1.48    1.24
   6   6  -9    0.76    1.28
  -6  -6   9   -0.20    2.95
  -6  -6   9    0.69    0.83
   6   6  -8    3.43    1.56
  -6  -6   8    4.57    4.02
  -6  -6   8    2.89    1.54
   6   6  -7    0.83    1.44
  -6  -6   7    0.15    0.84
   6   6  -6    4.69    1.98
  -6  -6   6    2.15    2.32
  -6  -6   6    3.61    1.32
   6   6  -5    1.10    1.00
  -6  -6   5    0.20    3.06
  -6  -6   5    3.91    1.61
   6   6  -4    4.20    2.04
  -6  -6   4    8.42    5.05
  -6  -6   4    7.50    2.25
  -6  -6   3    3.99    1.51
   6   6  -3    6.27    2.16
  -6  -6   3    8.49    4.77
  -6  -6   3    4.44    1.57
  -6  -6   2    1.02    1.08
   6   6  -2    2.32    1.41
  -6  -6   2    1.51    1.25
  -6  -6   1    6.48    1.85
   6   6  -1    7.63    2.40
  -6  -6   1    0.55    3.61
  -6  -6   0    1.11    1.03
   6   6   0    0.51    0.84
   6   6   0    0.80    0.88
  -6  -6  -1   15.93    3.29
   6   6   1   11.85    2.38
   6   6   1    8.99    2.68
  -6  -6  -1   14.73    5.84
  -6  -6  -2    0.57    1.06
   6   6   2    1.42    1.29
   6   6   2    0.07    0.87
  -6  -6  -2   -1.06    3.64
  -6  -6  -3   -1.02    0.92
   6   6   3   -1.32    1.12
   6   6   3    3.75    1.81
  -6  -6  -3    2.83    3.57
  -6  -6  -4   -0.35    1.05
   6   6   4    2.34    1.34
  -6  -7   9   -0.66    2.74
  -6  -7   8    0.54    2.05
  -6  -7   8   -0.43    0.89
  -6  -7   7   -6.25    5.20
  -6  -7   7    0.95    0.76
  -6  -7   6    8.80    5.77
  -6  -7   6   10.54    2.62
  -6  -7   5   -4.41    5.09
  -6  -7   4   -0.45    3.29
  -6  -7   3   -4.06    3.99
   6   7   1    4.97    1.62
  -7  11   3    0.14    0.46
  -7  11   2   12.68    2.43
  -7  11   1    0.60    0.94
  -7  11   0    0.19    0.55
  -7  11  -1    3.89    1.55
   7 -10  -9   14.29    5.77
   7 -10  -8    6.06    1.81
   7 -10  -8    6.68    3.88
   7 -10  -7    1.51    1.05
  -7  10   7    0.38    0.66
  -7  10   7   -1.78    1.21
   7 -10  -6   -0.06    0.90
  -7  10   6    0.18    0.67
  -7  10   6   -0.19    0.69
   7 -10  -5    0.67    0.84
  -7  10   5    0.88    1.37
   7 -10  -4    1.17    1.22
  -7  10   4    0.69    0.67
  -7  10   4    0.48    0.45
   7 -10  -3    3.99    1.64
  -7  10   3    2.51    0.87
  -7  10   3    2.06    0.90
   7 -10  -2   -0.44    1.14
  -7  10   2   -0.08    0.70
  -7  10   2    1.34    0.92
   7 -10  -1   13.15    2.73
  -7  10   1   11.40    2.42
  -7  10   1   12.10    2.31
  -7  10   0    6.64    1.91
  -7  10   0    4.39    1.49
   7 -10   0    3.88    1.58
  -7  10  -1   -0.50    0.97
  -7  10  -1   -0.20    0.82
   7 -10   1    0.96    1.06
  -7  10  -2   -0.01    0.64
  -7  10  -2   -0.11    0.52
   7 -10   2   -0.42    0.98
  -7  10  -3   -1.24    0.79
  -7  10  -3    1.53    1.07
   7 -10   3    2.49    1.32
  -7  10  -4    4.45    1.45
  -7  10  -4    4.53    1.40
   7 -10   4    6.14    1.81
  -7  10  -5    2.12    1.11
  -7  10  -5    2.54    0.95
   7 -10   5    3.41    1.40
   7 -10   5    2.78    1.29
  -7  10  -6    3.83    1.55
   7 -10   6    2.53    1.31
   7 -10   6    0.94    0.53
   7 -10   7   -0.06    0.55
   7  -9 -11   -0.66    0.91
  -7   9  11    1.66    1.31
   7  -9 -10   15.31    3.14
  -7   9  10   15.70    3.17
  -7   9  10   15.47    3.05
   7  -9 -10   17.58    6.65
   7  -9  -9    0.53    0.65
  -7   9   9    0.75    1.14
  -7   9   9    0.09    0.74
   7  -9  -9    1.81    2.56
   7  -9  -8   -0.12    0.61
  -7   9   8   -0.78    1.09
  -7   9   8   -0.99    0.98
   7  -9  -8    1.49    2.85
   7  -9  -7    1.68    1.05
  -7   9   7   -0.54    0.79
  -7   9   7    1.19    0.89
   7  -9  -6   -0.74    0.70
  -7   9   6   -0.40    0.72
  -7   9   6   -0.87    1.09
   7  -9  -6   -0.02    2.15
   7  -9  -5   12.58    2.70
  -7   9   5   10.07    2.24
  -7   9   5    8.74    2.22
  -7   9   5   10.31    1.89
   7  -9  -4   -0.55    1.07
  -7   9   4    0.69    0.55
  -7   9   4   -0.42    0.72
   7  -9  -3    8.75    2.20
  -7   9   3    5.68    1.78
  -7   9   3    6.99    1.73
   7  -9  -2    1.69    1.22
  -7   9   2    1.98    1.10
  -7   9   2    0.15    0.52
   7  -9  -1    0.26    0.59
  -7   9   1    1.74    1.11
  -7   9   1   -0.25    0.50
   7  -9   0   -0.73    0.88
  -7   9   0   -1.33    0.96
  -7   9   0    1.41    0.99
  -7   9  -1   22.42    3.34
  -7   9  -1   25.98    3.34
   7  -9   1   25.48    3.59
  -7   9  -2   11.07    2.38
  -7   9  -2   12.32    2.29
   7  -9   2   12.26    2.49
  -7   9  -3   36.43    4.30
  -7   9  -3   35.90    3.96
   7  -9   3   38.13    4.33
  -7   9  -4    8.08    1.86
  -7   9  -4   12.85    2.33
   7  -9   4   15.72    2.88
  -7   9  -5    2.38    0.83
  -7   9  -5    1.60    1.08
   7  -9   5    0.85    0.86
   7  -9   5    2.78    1.34
  -7   9  -6   11.89    2.38
  -7   9  -6   12.47    2.36
   7  -9   6   13.93    2.55
   7  -9   6   18.52    2.97
  -7   9  -7    2.42    1.04
  -7   9  -7    5.68    1.71
   7  -9   7    3.86    1.37
   7  -9   7    4.38    1.56
  -7   9  -8    9.09    2.03
  -7   9  -8    9.75    2.14
   7  -9   8    8.66    2.14
   7  -9   8   10.01    2.09
  -7   9  -9    1.73    1.13
   7  -8 -13    1.03    0.66
  -7   8  13    1.07    0.72
  -7   8  12   24.70    3.98
  -7   8  12   26.18    4.06
   7  -8 -12   21.20    8.09
   7  -8 -12   26.11    4.12
   7  -8 -11    5.04    1.88
  -7   8  11    2.04    1.35
   7  -8 -11   -1.63    2.84
  -7   8  11    1.58    0.70
   7  -8 -10   -0.35    0.97
  -7   8  10    1.33    0.85
  -7   8  10   -0.72    0.91
   7  -8 -10   -0.06    2.06
   7  -8  -9    1.62    1.07
  -7   8   9    2.93    1.51
  -7   8   9    2.37    1.12
   7  -8  -9   -0.80    2.93
   7  -8  -8    0.53    0.54
  -7   8   8    0.15    0.77
  -7   8   8    0.12    0.69
   7  -8  -7    6.18    1.67
  -7   8   7    5.91    1.47
  -7   8   7    6.15    1.83
   7  -8  -7    7.29    4.00
   7  -8  -6    1.32    1.05
  -7   8   6    2.37    1.22
  -7   8   6    2.04    0.88
   7  -8  -6    2.32    2.13
   7  -8  -5   -0.32    1.11
  -7   8   5    0.26    0.80
  -7   8   5    0.24    0.56
  -7   8   5   -0.42    0.83
  -7   8   4   28.57    3.72
  -7   8   4   31.54    3.62
  -7   8   4   29.92    3.31
   7  -8  -4   33.57    4.20
   7  -8  -3   18.33    3.06
  -7   8   3   21.21    3.05
  -7   8   3   18.88    2.81
  -7   8   3   15.16    2.29
   7  -8  -2    4.89    1.74
  -7   8   2    1.79    0.95
  -7   8   2    2.62    1.11
   7  -8  -1    2.54    0.94
  -7   8   1    2.71    1.08
  -7   8   1    3.28    1.34
   7  -8   0   14.98    2.65
  -7   8   0   15.65    2.56
  -7   8   0   17.23    2.57
  -7   8  -1   53.26    4.96
  -7   8  -1   70.29    5.39
   7  -8   1   59.79    5.47
   7  -8   2    5.77    1.52
  -7   8  -2    6.60    1.78
  -7   8  -2    9.73    2.06
  -7   8  -3   21.00    3.17
  -7   8  -3   23.89    3.09
   7  -8   3   22.93    3.18
  -7   8  -4  101.34    7.06
  -7   8  -4   95.23    6.58
   7  -8   4   93.85    6.28
   7  -8   4  103.82    7.10
  -7   8  -5   11.25    2.29
  -7   8  -5    9.41    2.07
   7  -8   5   14.31    2.42
   7  -8   5   12.13    2.29
  -7   8  -6    3.07    1.12
  -7   8  -6    8.48    1.83
   7  -8   6    8.36    1.84
   7  -8   6    7.20    1.80
  -7   8  -7    0.26    0.80
  -7   8  -7    0.62    0.63
   7  -8   7    1.70    1.13
   7  -8   7    0.06    0.53
  -7   8  -8    2.31    1.22
  -7   8  -8    0.69    0.69
   7  -8   8    0.13    0.83
   7  -8   8    0.38    0.69
  -7   8  -9    1.11    0.90
  -7   8  -9   -0.08    0.76
   7  -8   9   -0.48    0.68
  -7   8 -10    0.36    0.83
  -7   8 -10    3.58    1.48
   7  -8  10    0.24    0.71
   7  -7 -14    0.96    1.14
  -7   7  13   25.28    3.72
  -7   7  13   32.24    4.34
   7  -7 -13   26.99    8.63
   7  -7 -13   27.46    4.19
  -7   7  12   27.23    3.82
  -7   7  12   31.80    4.20
   7  -7 -12   36.01    8.75
   7  -7 -12   33.93    4.65
  -7   7  11    8.42    2.32
   7  -7 -11    7.59    2.18
  -7   7  11    6.79    1.99
   7  -7 -11    9.84    5.58
   7  -7 -10    3.11    1.39
  -7   7  10    2.11    1.20
   7  -7 -10    4.98    4.38
  -7   7  10    3.21    1.53
   7  -7  -9    7.93    2.15
  -7   7   9    5.73    1.64
   7  -7  -9    6.42    4.71
  -7   7   9    8.21    2.04
   7  -7  -8    1.34    1.26
  -7   7   8    0.61    0.52
  -7   7   8    0.47    0.71
   7  -7  -8    4.60    3.38
   7  -7  -7    3.36    1.51
  -7   7   7    5.80    1.71
  -7   7   7    5.43    1.58
   7  -7  -7    8.85    3.50
   7  -7  -6   17.19    2.96
  -7   7   6   14.19    2.39
  -7   7   6   15.71    2.45
   7  -7  -6   19.93    6.27
   7  -7  -5    3.87    1.58
  -7   7   5    3.32    1.34
   7  -7  -5    5.82    3.73
   7  -7  -4    2.18    1.37
  -7   7   4   -0.25    0.75
  -7   7   4    1.59    0.47
  -7   7   4    0.56    0.60
   7  -7  -4   -0.10    2.86
   7  -7  -3    7.54    1.84
  -7   7   3   11.35    2.17
  -7   7   3    7.20    1.66
  -7   7   3    8.76    1.74
   7  -7  -2    0.00    1.03
  -7   7   2    0.75    0.63
  -7   7   2    1.83    0.98
  -7   7   2    1.28    0.68
   7  -7  -1    2.96    1.17
  -7   7   1    0.89    0.61
  -7   7   1    1.37    0.75
   7  -7   0    2.96    1.23
  -7   7   0    3.78    1.27
  -7   7   0    2.36    1.16
   7  -7   1    3.73    1.26
  -7   7  -1    1.75    0.94
  -7   7  -1    3.91    1.24
   7  -7   2    1.20    0.91
  -7   7  -2   -0.03    0.54
  -7   7  -2   -0.14    0.71
   7  -7   3   12.54    2.21
  -7   7  -3   15.29    2.47
  -7   7  -3   13.05    2.23
   7  -7   3   14.31    2.15
  -7   7  -4   17.93    2.84
  -7   7  -4   19.10    2.72
   7  -7   4   19.55    2.56
   7  -7   4   20.54    2.95
  -7   7  -5    0.75    0.80
  -7   7  -5    1.57    0.83
   7  -7   5    1.48    0.76
   7  -7   5    1.04    1.00
  -7   7  -6    1.93    1.03
  -7   7  -6    0.83    0.63
   7  -7   6    0.59    0.51
   7  -7   6    0.74    0.62
  -7   7  -7    0.61    0.82
  -7   7  -7    0.72    0.63
   7  -7   7    0.37    0.59
   7  -7   7   -0.04    0.35
  -7   7  -8    1.14    0.97
  -7   7  -8   -0.73    0.63
   7  -7   8   -0.99    1.51
   7  -7   8   -1.10    1.24
  -7   7  -9   -1.19    1.07
  -7   7  -9    0.30    0.50
   7  -7   9   -1.14    0.93
  -7   7 -10    1.31    0.91
  -7   7 -10    1.03    0.61
   7  -7  10    0.45    0.72
  -7   7 -11    7.37    1.93
   7  -7  11    7.58    1.96
   7  -6 -15    0.81    0.75
   7  -6 -14    3.65    1.38
  -7   6  14    3.61    1.61
   7  -6 -14    3.46    2.78
  -7   6  13   21.45    3.41
   7  -6 -13   24.75    4.06
   7  -6 -13   20.32    6.65
   7  -6 -12    6.82    2.32
  -7   6  12    6.20    1.87
  -7   6  12    4.30    1.58
   7  -6 -12    4.59    2.50
   7  -6 -11    1.82    1.14
  -7   6  11    1.09    0.76
  -7   6  11    1.10    0.84
   7  -6 -11   -1.56    4.41
   7  -6 -10    3.83    1.32
  -7   6  10    2.14    0.75
  -7   6  10    5.40    1.66
   7  -6 -10    5.05    2.97
   7  -6  -9    0.58    0.67
  -7   6   9    0.83    0.56
  -7   6   9    1.15    0.78
   7  -6  -9   -1.81    3.34
  -7   6   8   17.77    2.65
   7  -6  -8   19.98    3.47
  -7   6   8   17.69    2.74
   7  -6  -8   18.42    5.89
   7  -6  -7    2.99    1.32
  -7   6   7   -0.17    0.72
  -7   6   7   -1.48    0.88
   7  -6  -7   -1.93    3.62
  -7   6   6   86.84    6.22
  -7   6   6   92.08    6.11
   7  -6  -6   86.23   12.24
   7  -6  -6   97.87    7.27
   7  -6  -5    0.17    0.86
  -7   6   5    0.47    0.89
  -7   6   5    0.69    0.74
   7  -6  -4    8.75    2.02
  -7   6   4    6.17    1.57
  -7   6   4    9.63    1.80
   7  -6  -4   11.20    3.46
   7  -6  -3    9.44    2.18
  -7   6   3    9.43    1.99
  -7   6   3    8.13    1.60
  -7   6   3   10.22    1.79
   7  -6  -3   11.91    4.31
   7  -6  -2   12.02    2.16
  -7   6   2    9.83    1.98
  -7   6   2   10.25    1.72
  -7   6   2   11.65    1.98
   7  -6  -2   17.77    5.03
   7  -6  -1   11.81    2.37
  -7   6   1    9.15    1.89
  -7   6   1   12.37    2.12
  -7   6   0   19.29    2.77
  -7   6   0   21.95    2.79
   7  -6   0   24.56    3.24
  -7   6  -1   18.59    2.74
  -7   6  -1   20.78    2.66
   7  -6   1   20.40    2.85
   7  -6   2    0.20    0.42
  -7   6  -2   -0.54    0.65
  -7   6  -2    0.60    0.74
   7  -6   2    0.52    0.47
   7  -6   3    1.17    0.63
  -7   6  -3    0.96    0.84
  -7   6  -3    2.24    1.11
   7  -6   3    2.40    0.90
   7  -6   4   -0.04    0.61
  -7   6  -4   -0.21    0.63
  -7   6  -4   -1.41    1.09
   7  -6   4    0.20    0.35
  -7   6  -5   23.96    3.27
  -7   6  -5   18.04    2.60
   7  -6   5   20.46    2.64
   7  -6   5   18.58    2.56
  -7   6  -6    4.21    1.46
  -7   6  -6    4.27    1.40
   7  -6   6    4.90    1.33
   7  -6   6    4.52    1.31
  -7   6  -7    0.27    0.75
  -7   6  -7    0.33    0.60
   7  -6   7    1.24    0.87
   7  -6   7    1.08    0.83
  -7   6  -8    4.70    1.40
  -7   6  -8    4.86    1.48
   7  -6   8    4.02    1.64
   7  -6   8    6.40    1.67
  -7   6  -9    0.22    0.65
  -7   6  -9    0.85    0.74
   7  -6   9    1.15    1.46
   7  -6   9   -0.35    0.52
  -7   6 -10    3.51    1.32
   7  -6  10    3.05    1.07
  -7   6 -11   22.37    3.13
   7  -6  11   18.68    2.92
  -7   6 -12   11.17    2.16
   7  -6  12   10.95    2.40
   7  -5 -16    2.29    1.38
   7  -5 -15   -0.12    1.27
  -7   5  15    0.42    0.94
  -7   5  14    6.49    2.02
   7  -5 -14   -1.81    3.15
  -7   5  13    1.03    0.82
   7  -5 -13   -2.16    4.06
  -7   5  12    5.14    1.58
   7  -5 -12    2.64    3.45
   7  -5 -11    0.66    2.36
  -7   5  11    2.03    0.81
  -7   5  11    1.58    0.75
  -7   5  10    1.01    0.73
  -7   5  10    0.89    0.50
   7  -5  -9    8.41    3.87
  -7   5   9   11.86    2.19
  -7   5   9    8.50    1.89
  -7   5   9    9.38    2.08
   7  -5  -8   58.51   10.66
  -7   5   8   62.41    4.95
  -7   5   8   64.08    5.09
  -7   5   8   60.93    5.18
   7  -5  -8   62.43    5.92
   7  -5  -7   80.92   12.21
  -7   5   7   91.38    6.02
  -7   5   7   90.52    5.89
  -7   5   7   84.31    6.29
   7  -5  -7   81.67    6.86
  -7   5   6    9.31    1.78
   7  -5  -6   13.06    2.59
   7  -5  -6   11.83    4.83
  -7   5   6    9.99    1.88
  -7   5   6   11.45    2.27
   7  -5  -5    2.96    1.32
   7  -5  -5    1.86    3.31
  -7   5   5    3.12    1.16
  -7   5   5    2.47    0.85
   7  -5  -4    5.96    1.56
   7  -5  -4    5.32    3.31
  -7   5   4    4.96    1.31
  -7   5   4    6.77    1.47
   7  -5  -3    2.55    1.02
   7  -5  -3    1.36    2.03
  -7   5   3    2.43    0.97
  -7   5   3    1.55    0.64
   7  -5  -2   21.90    5.11
  -7   5   2   28.12    3.21
  -7   5   2   26.05    2.66
   7  -5  -2   23.37    3.20
  -7   5   1   81.42    5.59
  -7   5   1   72.80    4.47
  -7   5   1   75.28    5.14
   7  -5  -1   61.42    8.24
   7  -5  -1   77.66    5.88
   7  -5   0    3.53    1.11
  -7   5   0    1.54    0.75
  -7   5   0    4.15    1.26
  -7   5  -1   11.36    1.98
   7  -5   1   10.79    2.21
  -7   5  -1    7.54    1.72
  -7   5  -1   10.50    1.89
   7  -5   1   12.25    1.66
  -7   5  -2    1.68    1.04
   7  -5   2    2.28    0.98
  -7   5  -2    0.86    0.49
  -7   5  -2    2.45    1.07
   7  -5   2    3.06    0.87
   7  -5   3    1.06    0.43
  -7   5  -3    4.21    1.17
  -7   5  -3    4.16    1.39
  -7   5  -3    2.23    1.05
   7  -5   3    3.28    0.95
   7  -5   4   12.07    1.98
  -7   5  -4   13.54    2.22
  -7   5  -4   11.92    2.21
  -7   5  -4   10.12    1.86
   7  -5   4   11.43    1.81
   7  -5   5    2.28    0.76
  -7   5  -5    3.72    1.20
  -7   5  -5    1.78    0.82
  -7   5  -5    2.17    0.96
   7  -5   5    3.68    0.99
  -7   5  -6   40.05    4.07
  -7   5  -6   42.24    4.02
   7  -5   6   43.02    3.82
   7  -5   6   38.39    4.77
   7  -5   6   41.09    3.65
  -7   5  -6   42.82    4.19
  -7   5  -7    8.55    1.94
  -7   5  -7    6.77    1.52
   7  -5   7    6.75    2.03
   7  -5   7    9.80    1.85
  -7   5  -8    0.98    0.51
  -7   5  -8    2.16    1.00
   7  -5   8    2.36    1.26
   7  -5   8    1.56    0.64
  -7   5  -9   -0.35    0.53
  -7   5  -9    0.58    0.92
   7  -5   9   -1.33    1.01
   7  -5   9    0.19    0.67
  -7   5 -10    3.02    1.37
  -7   5 -10    4.82    1.40
   7  -5  10    5.07    1.79
   7  -5  10    4.20    1.46
  -7   5 -11    4.42    1.42
  -7   5 -11    5.06    1.45
   7  -5  11    4.82    1.52
  -7   5 -12    1.53    1.15
   7  -5  12    1.16    0.99
  -7   5 -13   11.08    2.58
  -7   4  16   15.02    2.96
   7  -4 -16   12.59    6.49
   7  -4 -15    1.01    3.94
  -7   4  15    0.44    0.96
   7  -4 -14   -2.64    3.53
  -7   4  14    3.98    1.62
   7  -4 -13   -2.46    5.38
  -7   4  13    1.59    0.75
   7  -4 -12   -1.68    3.10
  -7   4  12    0.63    0.53
   7  -4 -11   44.23    9.72
  -7   4  11   41.28    4.31
  -7   4  11   38.12    4.09
   7  -4 -10   23.96    7.39
  -7   4  10   23.95    3.01
  -7   4  10   22.95    3.10
  -7   4  10   24.50    3.26
  -7   4   9  152.02    7.97
  -7   4   9  156.71    8.37
   7  -4  -9  152.58   17.60
  -7   4   9  151.01    8.58
   7  -4  -8    3.15    2.21
  -7   4   8    5.60    1.39
  -7   4   8    5.41    1.52
  -7   4   8    6.24    1.59
   7  -4  -7   25.74    7.38
  -7   4   7   11.69    2.04
  -7   4   7   13.11    2.09
  -7   4   7   14.42    2.57
   7  -4  -6   11.77    4.30
  -7   4   6   13.29    2.14
  -7   4   6   12.96    1.93
  -7   4   6   12.84    2.45
  -7   4   5    3.02    1.14
   7  -4  -5    0.88    2.84
  -7   4   5    1.83    0.98
  -7   4   5    1.47    1.11
   7  -4  -4   -1.52    3.19
  -7   4   4    0.91    0.78
  -7   4   4   -0.47    0.97
  -7   4   4    0.26    0.58
   7  -4  -3    9.47    2.04
   7  -4  -3   11.96    4.13
  -7   4   3    8.48    1.82
  -7   4   3    8.04    1.41
   7  -4  -2    0.30    0.99
  -7   4   2    0.07    0.63
   7  -4  -2   -0.10    1.95
  -7   4   2   -0.20    0.54
  -7   4   1    3.81    1.08
   7  -4  -1    3.72    1.46
  -7   4   1    4.08    1.26
   7  -4  -1    1.45    1.75
  -7   4   1    3.21    0.80
  -7   4   0    0.00    0.60
   7  -4   0    1.41    1.05
  -7   4   0    1.17    0.93
   7  -4   0   -3.75    2.71
  -7   4  -1   20.11    2.57
   7  -4   1   15.27    2.34
  -7   4  -1   15.20    2.43
   7  -4   2    1.16    0.77
  -7   4  -2   -0.26    0.61
  -7   4  -2   -0.42    0.57
   7  -4   3    2.92    1.07
  -7   4  -3    2.18    1.01
  -7   4  -3    1.29    0.60
  -7   4  -3    1.31    0.48
   7  -4   3    3.10    0.89
   7  -4   4    6.91    1.38
  -7   4  -4    9.82    2.03
  -7   4  -4    7.07    1.77
  -7   4  -4   10.20    1.93
   7  -4   4    6.72    1.95
   7  -4   4    8.15    1.44
   7  -4   5    1.58    0.79
  -7   4  -5    1.77    1.16
  -7   4  -5   -0.56    0.66
  -7   4  -5    0.25    0.70
   7  -4   5    1.67    1.02
   7  -4   5    1.38    0.63
  -7   4  -6   18.59    2.87
  -7   4  -6   19.40    2.82
  -7   4  -6   24.93    3.00
   7  -4   6   22.54    2.63
   7  -4   6   22.55    3.67
  -7   4  -7    6.68    1.90
  -7   4  -7    3.25    1.45
  -7   4  -7    3.57    1.24
  -7   4  -7    4.50    1.37
   7  -4   7    4.29    1.85
   7  -4   7    3.09    1.05
  -7   4  -8    0.76    0.82
   7  -4   8    2.49    1.55
  -7   4  -8   -0.09    0.83
  -7   4  -8    0.49    0.41
   7  -4   8    1.94    1.14
   7  -4   8   -0.60    0.73
  -7   4  -9    4.20    1.45
   7  -4   9    6.18    2.10
  -7   4  -9    3.16    1.24
  -7   4  -9    2.61    0.99
   7  -4   9    1.34    1.21
   7  -4   9    2.71    1.23
   7  -4  10    0.93    1.15
  -7   4 -10    0.90    0.95
  -7   4 -10    1.20    0.58
   7  -4  10   -0.35    0.68
   7  -4  10    0.47    0.60
   7  -4  11    0.92    1.00
  -7   4 -11    0.10    0.90
   7  -4  11    2.04    1.15
   7  -4  12   15.50    3.35
  -7   4 -12   12.09    2.59
   7  -4  12   13.08    2.52
  -7   4 -13   50.28    5.47
   7  -4  13   48.29    5.17
   7  -3 -16   14.30    6.15
  -7   3  16   12.84    2.90
   7  -3 -15    3.96    2.83
  -7   3  15    3.94    1.32
   7  -3 -14    3.82    3.66
  -7   3  14    6.82    1.92
  -7   3  14    8.35    1.79
   7  -3 -13    1.41    3.22
  -7   3  13    2.30    1.09
  -7   3  13    2.67    1.10
   7  -3 -12    1.63    4.38
  -7   3  12    4.11    1.47
  -7   3  12    2.28    1.07
   7  -3 -11   48.65   10.48
  -7   3  11   44.03    4.41
  -7   3  11   43.59    4.36
   7  -3 -10    3.70    2.98
  -7   3  10    1.03    0.66
  -7   3  10   -0.25    0.66
   7  -3  -9   12.36    5.71
  -7   3   9    7.64    1.52
  -7   3   9    9.56    1.91
  -7   3   9    9.28    1.91
   7  -3  -8    0.90    2.36
  -7   3   8    4.00    1.16
  -7   3   8    3.85    1.24
  -7   3   8    3.70    1.32
  -7   3   7    6.06    1.37
   7  -3  -7    7.33    2.99
  -7   3   7    4.93    1.25
  -7   3   7    4.02    1.21
  -7   3   6   10.50    1.82
   7  -3  -6    5.61    4.22
  -7   3   6    9.32    1.62
  -7   3   6    7.63    1.79
  -7   3   5    1.57    0.82
   7  -3  -5    2.20    2.13
  -7   3   5    1.28    0.42
  -7   3   5    0.19    0.74
  -7   3   4   27.66    2.92
   7  -3  -4   33.65    7.24
  -7   3   4   26.36    2.48
  -7   3   4   25.74    3.48
  -7   3   3    4.14    1.26
   7  -3  -3    0.65    2.45
  -7   3   3    4.35    1.72
  -7   3   3    4.56    1.03
  -7   3   2    1.46    1.05
  -7   3   2   -0.17    0.64
   7  -3  -2    2.88    2.44
  -7   3   2    0.66    0.41
  -7   3   1    5.73    1.51
  -7   3   1    3.24    1.22
   7  -3  -1    7.30    3.35
   7  -3  -1    3.89    1.10
   7  -3  -1    5.70    1.25
  -7   3   0    7.03    1.75
   7  -3   0    4.82    1.36
  -7   3   0    5.42    1.49
   7  -3   0    4.57    2.85
   7  -3   0    5.32    1.19
   7  -3   0    6.58    1.44
   7  -3   1    0.28    0.35
  -7   3  -1    0.14    0.89
  -7   3  -1   -0.12    0.50
   7  -3   1    0.45    1.55
   7  -3   1    0.73    0.59
   7  -3   1    0.94    0.64
  -7   3  -2   17.83    2.65
  -7   3  -2   21.44    2.73
   7  -3   2   13.92    2.20
   7  -3   2   13.83    2.73
   7  -3   2   14.65    2.20
   7  -3   3    0.14    0.46
  -7   3  -3   -0.44    0.88
  -7   3  -3    0.29    0.51
   7  -3   3   -0.79    0.98
   7  -3   3    1.12    0.68
  -7   3  -4   54.02    4.65
   7  -3   4   49.34    4.60
   7  -3   4   47.38    5.22
   7  -3   4   47.88    3.81
  -7   3  -4   52.66    4.89
  -7   3  -5    4.50    1.45
  -7   3  -5    3.05    1.08
   7  -3   5    4.26    1.58
  -7   3  -5    5.17    1.30
   7  -3   5    5.27    1.92
  -7   3  -6   -0.53    1.13
   7  -3   6   -0.53    0.94
  -7   3  -6    1.34    0.82
  -7   3  -7    1.13    1.20
   7  -3   7    2.49    1.16
  -7   3  -7    0.77    0.66
   7  -3   7    0.39    0.87
  -7   3  -8   14.06    2.67
   7  -3   8   17.05    3.14
  -7   3  -8   20.25    2.75
   7  -3   8   20.35    3.56
  -7   3  -9    1.08    1.45
   7  -3   9   -0.05    0.77
  -7   3  -9    0.80    0.83
   7  -3   9   -1.28    1.04
  -7   3 -10    5.07    1.97
   7  -3  10    4.32    1.63
  -7   3 -10    5.99    1.71
   7  -3  10    7.75    2.33
  -7   3 -11    1.36    1.50
   7  -3  11   -2.60    1.53
  -7   3 -11   -0.92    0.93
  -7   3 -12    6.60    2.20
   7  -3  12    4.71    1.89
  -7   3 -12    2.73    0.98
  -7   3 -13    7.65    2.06
  -7   2  16   -0.09    1.04
  -7   2  16    0.85    0.68
   7  -2 -15    9.97    5.77
  -7   2  15    6.33    1.94
  -7   2  15    6.95    1.97
  -7   2  14    0.57    0.87
  -7   2  14   -0.99    1.00
   7  -2 -13   -2.35    5.13
  -7   2  13    0.45    0.86
  -7   2  13   -0.91    1.36
   7  -2 -12   -4.00    4.36
  -7   2  12   -0.31    0.71
  -7   2  12   -0.13    0.88
   7  -2 -11   13.11    5.85
  -7   2  11    8.92    1.97
  -7   2  11    9.79    1.99
   7  -2 -10    6.69    4.90
  -7   2  10    5.59    1.42
  -7   2  10    6.39    1.64
   7  -2  -9    3.10    2.87
  -7   2   9    7.83    1.71
  -7   2   9    9.74    2.17
  -7   2   8    2.08    0.73
   7  -2  -8    1.68    2.97
  -7   2   8    2.37    0.92
  -7   2   8    2.47    1.06
  -7   2   7    0.23    0.46
  -7   2   7    0.11    0.63
  -7   2   7   -0.16    0.61
  -7   2   6    9.14    1.51
   7  -2  -6    5.73    2.66
  -7   2   6    8.15    1.46
  -7   2   6    8.34    2.05
  -7   2   5    5.52    1.21
   7  -2  -5   11.93    4.92
  -7   2   5    5.80    1.17
  -7   2   5    5.65    1.58
  -7   2   4    2.69    0.93
  -7   2   4    2.21    0.67
   7  -2  -4    1.17    2.30
   7  -2  -4    2.96    0.93
  -7   2   4    3.87    1.35
  -7   2   3    0.32    0.71
  -7   2   3    0.54    0.70
  -7   2   3    0.97    0.57
   7  -2  -3    3.56    3.34
  -7   2   3    1.98    3.13
   7  -2  -3   -0.44    0.36
  -7   2   3    0.14    0.84
  -7   2   2    0.88    0.55
  -7   2   2    0.94    0.84
   7  -2  -2    1.53    2.29
  -7   2   2    0.81    1.63
   7  -2  -2   -0.06    0.54
  -7   2   2    1.72    1.25
  -7   2   1   20.69    2.57
   7  -2  -1   21.32    2.23
   7  -2  -1   16.44    4.85
   7  -2  -1   21.04    2.51
  -7   2   1   18.52    4.67
   7  -2  -1   24.30    3.63
  -7   2   1   21.89    2.87
  -7   2   0    4.40    1.41
  -7   2   0    4.63    1.36
   7  -2   0    4.63    0.99
  -7   2   0    4.46    2.59
   7  -2   0    3.80    1.18
   7  -2   0    5.50    1.60
  -7   2  -1    2.08    1.20
  -7   2  -1    0.27    0.64
   7  -2   1    0.42    0.54
  -7   2  -1    2.21    2.42
   7  -2   1    1.58    0.92
   7  -2   1   -0.03    0.75
  -7   2  -2   14.91    2.59
  -7   2  -2   17.12    2.48
   7  -2   2   18.24    2.46
  -7   2  -2   15.27    4.38
   7  -2   2   20.20    3.42
   7  -2   2   16.06    2.30
   7  -2   3    4.95    1.18
  -7   2  -3    7.60    1.97
   7  -2   3    5.51    1.39
  -7   2  -3    4.20    2.12
   7  -2   3    5.19    1.74
  -7   2  -4   -0.12    1.02
   7  -2   4    1.15    0.74
  -7   2  -4    0.90    0.50
   7  -2   4    2.13    1.47
  -7   2  -5    2.34    1.41
   7  -2   5    0.49    0.59
  -7   2  -5   -0.34    0.57
   7  -2   5   -0.24    0.97
  -7   2  -6    3.75    1.55
   7  -2   6    5.03    1.68
  -7   2  -6    4.03    1.18
   7  -2   6    5.19    1.73
  -7   2  -7    0.05    0.75
   7  -2   7   -1.20    1.06
  -7   2  -7    0.03    0.45
   7  -2   7   -2.22    1.09
  -7   2  -8    0.98    1.05
   7  -2   8    2.35    1.24
  -7   2  -8    1.48    0.82
   7  -2   8    1.41    1.18
  -7   2  -9    1.99    1.29
   7  -2   9    3.38    1.60
  -7   2  -9    2.50    0.90
  -7   2 -10    1.92    1.39
   7  -2  10    0.23    1.04
  -7   2 -10    3.66    1.34
  -7   2 -11   -0.64    1.25
   7  -2  11    1.38    1.22
  -7   2 -11    1.05    0.74
  -7   2 -12    0.91    1.44
  -7   2 -12    2.29    1.19
  -7   1  18   11.98    2.79
  -7   1  17   10.02    2.64
  -7   1  17    6.54    1.99
  -7   1  16   -0.50    0.86
  -7   1  16    1.02    0.96
   7  -1 -15    9.82    6.26
  -7   1  15    5.10    1.71
  -7   1  15    3.96    1.49
   7  -1 -14   -2.44    3.97
  -7   1  14    1.70    0.86
  -7   1  14    0.81    1.07
   7  -1 -13   11.13    6.03
  -7   1  13    8.29    2.04
  -7   1  13    5.94    1.57
   7  -1 -12   27.79    7.52
  -7   1  12   25.31    3.42
  -7   1  12   27.21    3.59
   7  -1 -11   34.37    9.25
  -7   1  11   38.47    4.12
  -7   1  11   41.75    4.40
   7  -1 -10   -2.52    4.32
  -7   1  10   -0.32    0.86
  -7   1  10    2.21    0.96
   7  -1  -9   14.71    6.47
  -7   1   9   19.84    2.69
  -7   1   9   21.57    3.00
   7  -1  -8   11.53    5.48
  -7   1   8   10.19    3.02
  -7   1   8   12.74    2.08
  -7   1   8   10.24    2.12
   7  -1  -7   16.14    5.99
  -7   1   7    9.64    3.29
   7  -1  -7    9.43    1.60
  -7   1   7    7.39    1.42
   7  -1  -7    7.89    1.97
  -7   1   7    9.55    2.11
  -7   1   6    0.45    0.57
   7  -1  -6    4.01    4.26
  -7   1   6    1.96    1.93
   7  -1  -6    0.71    0.64
  -7   1   6    0.14    0.41
   7  -1  -6   -0.50    0.83
  -7   1   6    0.48    0.71
  -7   1   5    2.64    0.76
   7  -1  -5    4.74    3.01
  -7   1   5    3.72    1.74
   7  -1  -5    3.98    1.14
  -7   1   5    3.08    0.96
   7  -1  -5    5.22    1.78
  -7   1   5    3.30    1.26
  -7   1   4   21.17    2.46
   7  -1  -4   23.50    2.64
  -7   1   4   19.85    4.86
   7  -1  -4   26.65    3.79
  -7   1   4   24.01    3.40
  -7   1   4   24.86    3.05
  -7   1   3    7.83    1.80
  -7   1   3    3.58    1.06
  -7   1   3    2.94    1.97
   7  -1  -3    6.66    1.45
   7  -1  -3    6.31    2.04
  -7   1   3    5.16    1.67
  -7   1   2   14.64    2.36
  -7   1   2   12.55    2.04
  -7   1   2   16.01    4.20
   7  -1  -2   12.92    2.04
   7  -1  -2   13.49    2.58
  -7   1   2   14.34    2.69
  -7   1   1   -0.54    0.93
  -7   1   1    1.06    0.79
  -7   1   1    0.96    1.91
   7  -1  -1   -0.38    0.77
   7  -1  -1    0.48    0.75
  -7   1   1   -0.73    0.99
   7  -1   0   37.47    3.17
   7  -1   0   43.65    4.06
  -7   1   0   43.14    7.04
   7  -1   0   35.99    4.45
  -7   1   0   40.37    4.09
  -7   1  -1    8.51    1.87
   7  -1   1   10.50    1.77
  -7   1  -1   12.87    4.01
   7  -1   1    9.80    2.01
   7  -1   1    8.01    2.06
  -7   1  -2    1.16    1.03
   7  -1   2    2.24    0.90
  -7   1  -2    5.84    2.99
   7  -1   2    2.22    1.06
   7  -1   2    2.25    0.98
  -7   1  -3    4.77    1.67
   7  -1   3    4.30    1.26
  -7   1  -3    9.01    3.80
   7  -1   3    5.62    1.95
  -7   1  -4   15.00    2.95
   7  -1   4   13.73    2.40
  -7   1  -4   20.85    2.23
  -7   1  -4   10.70    3.94
   7  -1   4   12.85    2.61
  -7   1  -5   -0.19    1.26
   7  -1   5    0.75    0.82
  -7   1  -5    1.50    1.73
  -7   1  -5    0.70    0.38
   7  -1   5    1.65    0.85
  -7   1  -6    3.17    1.48
   7  -1   6    4.92    1.52
  -7   1  -6    7.05    2.58
  -7   1  -6    4.73    1.20
   7  -1   6    4.72    1.72
  -7   1  -7    8.29    2.38
   7  -1   7   10.65    2.43
  -7   1  -7    6.97    3.24
  -7   1  -7    9.67    1.82
  -7   1  -8   16.57    3.45
   7  -1   8   14.78    2.75
  -7   1  -8   15.08    2.24
  -7   1  -9    4.42    1.96
   7  -1   9    3.76    1.36
  -7   1  -9    5.67    1.63
  -7   1 -10   -1.10    1.14
   7  -1  10    1.06    1.05
  -7   1 -10   -1.29    0.93
  -7   1 -11    0.01    0.96
   7  -1  11   -0.36    0.80
  -7   1 -11    0.51    0.91
  -7   1 -12   -0.26    0.73
  -7   0  17    6.03    1.93
  -7   0  16   18.11    3.43
   7   0 -16   20.58    7.58
  -7   0  16   16.37    3.07
  -7   0  15    6.34    2.07
   7   0 -15    4.78    4.34
  -7   0  15    9.72    2.39
  -7   0  14    0.82    0.58
  -7   0  14    4.11    1.63
  -7   0  13    7.85    2.14
   7   0 -13   11.47    6.20
  -7   0  13    9.92    2.09
  -7   0  12    2.30    1.19
   7   0 -12    2.64    3.44
  -7   0  12    1.63    1.03
  -7   0  11    3.67    1.53
   7   0 -11    8.30    5.22
  -7   0  11    4.49    1.32
  -7   0  10    3.79    1.38
   7   0 -10    2.10    3.43
   7   0 -10    2.92    1.14
  -7   0  10    1.89    1.07
   7   0  -9  152.32    7.98
  -7   0   9  134.22   11.40
  -7   0   9  138.46    7.92
   7   0  -9  157.53    9.10
   7   0  -9  138.96   17.42
  -7   0   9  150.22    8.78
   7   0  -8   14.01    6.02
   7   0  -8   25.13    2.91
  -7   0   8   28.10    3.09
  -7   0   8   20.24    4.65
   7   0  -8   29.96    3.80
  -7   0   8   31.03    3.73
   7   0  -7   -2.81    2.84
   7   0  -7    0.31    0.61
  -7   0   7    3.02    1.82
   7   0  -7    1.41    1.03
  -7   0   7    0.85    0.94
  -7   0   7   -0.31    0.40
  -7   0   6    5.51    3.30
   7   0  -6    5.50    1.37
   7   0  -6    5.11    1.56
  -7   0   6    3.55    1.44
  -7   0   6    3.46    1.02
  -7   0   5    7.55    1.96
  -7   0   5    6.47    2.69
   7   0  -5    6.27    1.53
   7   0  -5    8.64    2.02
  -7   0   5    4.59    1.50
  -7   0   4    9.30    1.89
  -7   0   4    5.96    3.08
   7   0  -4    8.85    1.75
   7   0  -4    6.08    1.72
  -7   0   4    6.47    1.82
  -7   0   3    0.38    0.76
  -7   0   3   -2.78    2.57
   7   0  -3   -0.62    0.77
   7   0  -3   -1.05    1.34
  -7   0   3   -1.33    0.87
  -7   0   2   17.19    2.64
  -7   0   2   13.30    4.05
   7   0  -2   16.81    2.59
   7   0  -2   18.64    3.13
  -7   0   2   16.59    2.92
  -7   0   1    6.65    1.75
  -7   0   1    6.91    3.15
   7   0  -1    9.50    2.12
   7   0  -1    5.71    1.63
  -7   0   1    4.74    1.61
   7   0   0   65.45    4.53
  -7   0   0   77.68   10.61
   7   0   0   87.83    6.68
  -7   0   0   71.23    7.09
  -7   0   0   77.81    6.76
  -7   0  -1   12.67    2.48
   7   0   1   11.79    1.83
  -7   0  -1   17.49    5.01
   7   0   1   13.09    2.56
   7   0   1   13.11    2.67
  -7   0  -2    0.12    0.88
   7   0   2   -0.19    0.69
   7   0   2   -0.04    0.76
   7   0   2   -0.30    0.58
  -7   0  -3    1.47    0.94
   7   0   3    6.28    1.59
  -7   0  -3    2.19    2.13
   7   0   3    5.50    1.79
   7   0   3    6.42    2.27
  -7   0  -4    2.25    1.33
   7   0   4   -1.23    1.19
  -7   0  -4   -2.84    2.47
   7   0   4    0.33    0.76
   7   0   4    1.50    1.29
  -7   0  -5    4.99    1.74
   7   0   5    6.58    1.66
  -7   0  -5    2.84    2.34
  -7   0  -6    4.41    2.00
   7   0   6    3.84    1.54
  -7   0  -6    0.40    1.57
  -7   0  -7   -0.62    1.16
   7   0   7    1.30    0.76
  -7   0  -8   -0.26    0.98
   7   0   8    0.00    0.78
  -7   0  -8   -1.99    2.77
  -7   0  -8    0.68    0.51
  -7   0  -9    1.96    1.36
   7   0   9    2.90    1.44
  -7   0  -9    3.52    2.52
  -7   0  -9    4.60    1.36
  -7   0 -10    1.60    1.66
   7   0  10    1.02    1.37
  -7   0 -10    4.00    3.31
  -7   0 -10   -0.06    0.59
  -7   0 -11   13.92    2.54
   7   1 -16   -0.91    4.22
  -7  -1  16    1.61    1.27
  -7  -1  16   -1.02    0.89
   7   1 -15    0.16    2.72
  -7  -1  15    0.43    0.80
  -7  -1  15    0.10    0.88
   7   1 -14    1.33    2.60
  -7  -1  14    4.14    1.76
  -7  -1  14    5.16    1.92
  -7  -1  13   -0.38    0.89
  -7  -1  13    0.95    0.89
   7   1 -12   -0.67    4.47
  -7  -1  12    1.57    1.28
   7   1 -12    0.74    0.56
  -7  -1  12    0.64    0.62
   7   1 -11   18.79    6.75
   7   1 -11   23.88    3.19
  -7  -1  11   19.31    3.00
  -7  -1  11   29.21    3.90
   7   1 -10    4.98    5.21
  -7  -1  10    1.92    1.04
   7   1 -10    1.99    1.04
  -7  -1  10    0.68    0.68
   7   1  -9   26.41    8.17
   7   1  -9   39.56    4.04
  -7  -1   9   32.43    3.59
  -7  -1   9   28.27    5.45
  -7  -1   9   36.34    4.17
  -7  -1   8    1.04    0.98
   7   1  -8    1.56    1.20
  -7  -1   8   -1.13    1.89
   7   1  -8    0.60    0.93
  -7  -1   8    0.33    0.58
   7   1  -7   39.49    3.94
  -7  -1   7   26.61    2.95
  -7  -1   7   33.26    6.24
   7   1  -7   33.22    4.01
  -7  -1   7   36.10    4.16
   7   1  -6   25.13    3.24
  -7  -1   6   14.78    4.40
   7   1  -6   18.81    3.17
  -7  -1   6   23.93    3.37
  -7  -1   5    5.22    1.53
   7   1  -5    6.75    1.77
  -7  -1   5    6.35    3.74
   7   1  -5    5.98    1.64
  -7  -1   5    3.50    1.16
  -7  -1   4    0.93    0.71
   7   1  -4    1.73    1.15
  -7  -1   4    5.34    2.68
   7   1  -4    2.02    1.16
  -7  -1   4    1.00    0.86
  -7  -1   3    1.97    1.16
   7   1  -3    0.91    0.92
  -7  -1   3   -2.56    2.33
   7   1  -3    0.81    1.00
  -7  -1   3   -0.15    0.75
  -7  -1   2   61.48    8.93
   7   1  -2   61.94    5.27
   7   1  -2   60.78    5.82
  -7  -1   2   49.70    5.28
  -7  -1   2   60.39    5.35
  -7  -1   1   12.82    2.43
  -7  -1   1   13.28    4.02
   7   1  -1   12.20    2.42
   7   1  -1   12.62    2.62
  -7  -1   1   11.25    2.61
   7   1   0   24.40    2.62
   7   1   0   24.98    3.51
  -7  -1   0   22.41    5.76
   7   1   0   21.76    3.65
  -7  -1   0   20.79    3.51
  -7  -1   0   32.01    4.06
  -7  -1  -1    5.47    1.85
   7   1   1    4.97    1.30
  -7  -1  -1    3.88    3.68
   7   1   1    4.28    1.42
  -7  -1  -2   -0.14    0.74
   7   1   2    0.48    0.62
   7   1   2    1.36    1.10
  -7  -1  -3    3.73    1.82
   7   1   3    3.46    1.29
  -7  -1  -3    2.15    2.50
   7   1   3    3.49    1.51
  -7  -1  -4    2.61    1.35
   7   1   4    2.15    1.08
  -7  -1  -4    2.61    3.63
   7   1   4    0.94    0.74
  -7  -1  -5   24.31    4.02
   7   1   5   27.56    3.58
  -7  -1  -5   18.86    5.49
   7   1   5   24.73    4.21
  -7  -1  -6    8.55    2.45
   7   1   6    8.21    2.10
  -7  -1  -6    1.03    1.59
   7   1   6    9.92    2.66
  -7  -1  -7   -2.46    1.87
   7   1   7    0.88    0.66
  -7  -1  -8    1.20    1.47
   7   1   8    1.52    0.69
  -7  -1  -8   -2.83    3.34
  -7  -1  -9   -1.46    1.41
   7   1   9    0.16    1.25
   7   1  10    0.38    1.06
  -7  -1 -10    2.12    2.50
  -7  -1 -11    3.34    2.19
  -7  -2  16    1.03    0.76
   7   2 -15   13.75    7.65
  -7  -2  15    4.54    1.90
  -7  -2  15    3.57    1.43
   7   2 -14    2.90    3.38
   7   2 -14    0.27    0.70
  -7  -2  14    2.95    1.79
  -7  -2  14    2.22    1.36
   7   2 -13   -2.25    2.94
   7   2 -13    6.55    2.04
  -7  -2  13    4.38    1.53
  -7  -2  13    6.99    2.19
   7   2 -12    0.78    3.67
   7   2 -12   -0.06    0.71
  -7  -2  12   -1.04    1.09
  -7  -2  12   -0.43    0.65
   7   2 -11   -3.77    3.88
   7   2 -11   -3.10    1.55
  -7  -2  11    0.34    0.62
  -7  -2  11    0.34    0.73
   7   2 -10    8.65    6.04
   7   2 -10    4.69    1.34
  -7  -2  10    5.32    1.64
  -7  -2  10    5.82    1.67
   7   2  -9   18.61    3.02
  -7  -2   9   13.23    4.05
  -7  -2   9   16.37    2.62
  -7  -2   9   14.86    2.77
   7   2  -8   87.51    6.53
  -7  -2   8   77.86   10.05
  -7  -2   8   78.06    6.49
   7   2  -7   32.40    3.96
  -7  -2   7   24.42    5.65
  -7  -2   7   27.35    3.67
   7   2  -6    7.86    1.91
  -7  -2   6    8.90    3.70
  -7  -2   6    8.69    2.25
  -7  -2   5    9.07    1.95
   7   2  -5    7.22    1.84
  -7  -2   5    6.25    3.14
  -7  -2   5    7.26    2.04
  -7  -2   4   21.85    3.16
   7   2  -4   25.72    3.53
  -7  -2   4   19.69    5.28
  -7  -2   4   22.04    3.36
  -7  -2   3    0.06    0.71
   7   2  -3    0.40    0.69
  -7  -2   3   -1.72    2.61
  -7  -2   3    0.63    1.07
  -7  -2   2    5.63    1.88
   7   2  -2    3.79    1.44
  -7  -2   2    9.95    4.53
  -7  -2   2    3.75    1.67
  -7  -2   1    9.36    2.19
   7   2  -1    8.61    2.07
  -7  -2   1    3.74    3.07
  -7  -2   1    9.03    2.55
  -7  -2   0    2.62    1.30
  -7  -2   0    1.36    2.02
   7   2   0    2.98    1.42
  -7  -2   0    2.48    1.60
  -7  -2  -1    1.89    1.54
   7   2   1    1.32    0.83
  -7  -2  -1    1.83    2.45
   7   2   1    1.57    1.08
  -7  -2  -2   -0.38    0.83
   7   2   2    2.60    1.09
  -7  -2  -2   -1.71    2.28
   7   2   2    0.01    0.95
   7   2   3   38.05    4.06
   7   2   3   44.76    5.48
  -7  -2  -3   35.75    7.53
  -7  -2  -3   39.99    4.96
  -7  -2  -4    1.54    0.85
   7   2   4    2.49    1.22
  -7  -2  -4    5.64    3.42
   7   2   4    3.22    1.77
  -7  -2  -5    2.43    1.24
   7   2   5   -0.33    1.07
  -7  -2  -5    7.62    3.62
   7   2   5    4.60    2.23
  -7  -2  -6    4.16    2.09
   7   2   6    2.18    1.24
  -7  -2  -6    2.66    2.76
   7   2   6    4.26    1.61
  -7  -2  -7   -1.51    1.65
   7   2   7    0.62    0.95
  -7  -2  -7   -1.85    2.11
   7   2   7   -1.23    1.49
  -7  -2  -8    3.40    2.29
   7   2   8    0.29    1.30
  -7  -2  -8    1.78    2.40
   7   2   8    1.03    1.37
   7   2   9   -0.11    0.95
  -7  -2  -9    1.88    2.27
   7   3 -15   -1.90    1.64
  -7  -3  15    0.11    0.64
   7   3 -14    1.66    3.08
   7   3 -14    3.46    1.48
  -7  -3  14    4.26    1.71
  -7  -3  14    1.86    1.10
   7   3 -13   23.41    8.00
   7   3 -13   19.89    3.48
  -7  -3  13   20.13    3.52
  -7  -3  13   20.35    3.53
   7   3 -12    1.04    5.09
   7   3 -12    0.76    1.12
  -7  -3  12    2.11    1.26
  -7  -3  12    0.85    0.95
   7   3 -11    4.17    4.90
   7   3 -11    0.72    1.13
  -7  -3  11    0.91    0.96
  -7  -3  11   -1.11    1.09
   7   3 -10    0.82    0.81
  -7  -3  10    2.12    1.37
   7   3  -9   26.21    3.72
  -7  -3   9   26.27    6.24
  -7  -3   9   31.59    4.13
   7   3  -8    4.89    1.68
  -7  -3   8    7.07    3.43
  -7  -3   8    6.84    2.02
   7   3  -7   24.75    3.69
  -7  -3   7   25.73    6.07
  -7  -3   7   30.77    4.09
  -7  -3   6    4.16    1.29
   7   3  -6    7.02    1.90
  -7  -3   6    5.63    3.40
  -7  -3   6    4.68    1.66
  -7  -3   5   -1.13    0.77
   7   3  -5    0.51    0.81
  -7  -3   5    2.88    1.82
  -7  -3   5    1.50    1.16
  -7  -3   4    2.63    1.56
   7   3  -4    3.57    0.97
  -7  -3   4   -0.50    3.39
  -7  -3   4    1.04    0.76
  -7  -3   3    3.96    1.38
   7   3  -3    0.60    0.65
  -7  -3   3    1.43    2.23
  -7  -3   3    2.21    0.58
  -7  -3   2    0.18    0.59
   7   3  -2    1.87    1.29
  -7  -3   2    4.88    3.65
  -7  -3   2    1.15    1.17
  -7  -3   1    2.67    0.77
   7   3  -1    2.30    1.07
  -7  -3   1    1.77    2.93
  -7  -3   1    2.29    1.37
  -7  -3   0   20.70    3.38
   7   3   0   22.74    3.71
  -7  -3   0   10.10    3.35
  -7  -3   0   15.09    3.14
  -7  -3  -1    2.06    1.60
   7   3   1    2.88    1.27
   7   3   1    3.29    1.76
  -7  -3  -1   -1.77    2.40
  -7  -3  -2    2.91    1.98
   7   3   2    3.50    1.26
  -7  -3  -2   -1.81    2.89
   7   3   2    3.67    1.75
  -7  -3  -3    0.05    0.83
   7   3   3    1.29    1.04
   7   3   3    0.23    0.81
  -7  -3  -4    0.96    1.29
   7   3   4    1.33    1.03
  -7  -3  -4    3.07    1.48
   7   3   4    2.95    1.60
  -7  -3  -5    1.72    1.49
   7   3   5    1.03    0.89
  -7  -3  -5    0.40    1.89
   7   3   5    2.17    1.57
  -7  -3  -6    2.56    1.51
   7   3   6    7.89    2.16
  -7  -3  -6    9.70    4.60
   7   3   6    4.64    1.96
   7   3   7    0.41    0.86
  -7  -3  -7   -2.65    2.93
   7   3   7    1.14    1.80
  -7  -4  14    3.16    1.90
   7   4 -13    0.44    0.79
  -7  -4  13    1.90    1.25
   7   4 -12    2.08    3.11
   7   4 -12    0.69    1.24
  -7  -4  12    1.06    1.17
   7   4 -11    0.41    0.77
  -7  -4  11    1.06    1.11
   7   4 -10   -0.56    0.70
  -7  -4  10    0.21    0.64
   7   4  -9    1.94    1.64
  -7  -4   9    0.37    2.87
  -7  -4   9   -0.82    1.04
   7   4  -8    0.41    1.07
  -7  -4   8   -0.66    1.16
   7   4  -7   13.29    2.74
  -7  -4   7    5.27    2.25
  -7  -4   7   13.61    2.92
  -7  -4   6    0.40    0.94
   7   4  -6    3.31    1.44
  -7  -4   6    4.23    3.07
  -7  -4   6   -0.10    0.60
  -7  -4   5    5.58    1.67
   7   4  -5    3.76    1.55
  -7  -4   5    0.05    2.42
  -7  -4   5    3.49    1.59
  -7  -4   4    6.20    1.95
   7   4  -4    5.18    1.78
  -7  -4   4    0.65    2.13
  -7  -4   4    4.50    1.62
  -7  -4   3    1.97    1.38
   7   4  -3   -0.36    0.71
  -7  -4   3   -1.85    2.35
  -7  -4   3    1.80    1.36
  -7  -4   2   16.12    3.09
   7   4  -2   19.66    3.58
  -7  -4   2   18.20    5.60
  -7  -4   2   13.39    2.96
  -7  -4   1    0.81    1.04
   7   4  -1   -0.89    0.87
  -7  -4   1    2.26    1.21
   7   4   0   39.93    5.24
  -7  -4   0   53.60   10.19
  -7  -4   0   30.77    4.61
  -7  -4   0   41.85    5.20
   7   4   1   45.40    5.60
  -7  -4  -1   27.68    7.36
  -7  -4  -1   47.21    5.78
  -7  -4  -2   -0.05    0.90
   7   4   2   -1.03    1.23
   7   4   2    0.39    1.35
  -7  -4  -2    0.06    3.21
  -7  -4  -3   29.92    4.74
   7   4   3   28.55    3.64
   7   4   3   29.06    4.63
  -7  -4  -3   15.14    5.76
  -7  -4  -4   10.08    2.78
   7   4   4   11.81    2.41
  -7  -4  -4   14.17    6.28
   7   4   4   19.32    3.94
  -7  -4  -5    1.92    1.70
   7   4   5    0.25    0.60
   7   4   6    0.76    0.87
   7   5 -10   -0.52    1.27
  -7  -5  10   -1.40    1.14
   7   5  -9    3.23    1.47
  -7  -5   9   -2.27    3.51
  -7  -5   9    1.90    1.05
   7   5  -8    0.36    1.18
  -7  -5   8    1.29    3.68
  -7  -5   8    0.75    0.67
   7   5  -7    1.78    1.13
  -7  -5   7    2.52    3.19
  -7  -5   7    0.07    0.69
  -7  -5   6    2.86    1.38
   7   5  -6    2.40    1.44
  -7  -5   6    4.94    3.78
  -7  -5   6    0.47    1.03
  -7  -5   5    1.29    1.01
   7   5  -5   -1.56    1.26
  -7  -5   5    0.59    1.24
  -7  -5   4   22.03    3.41
   7   5  -4   24.04    4.02
  -7  -5   4   18.31    6.12
  -7  -5   4   21.86    3.78
  -7  -5   3   -0.17    0.91
   7   5  -3    2.59    1.57
  -7  -5   3   -0.13    2.29
  -7  -5   3    1.60    1.46
   7   5  -2   36.09    5.05
  -7  -5   2   28.31    8.10
  -7  -5   2   26.61    4.29
  -7  -5   2   31.07    4.37
  -7  -5   1    2.59    1.44
   7   5  -1    0.13    1.15
  -7  -5   1    0.97    2.10
  -7  -5   1   -0.16    0.91
  -7  -5   0    2.70    1.40
   7   5   0    2.05    1.27
  -7  -5   0    7.37    4.61
  -7  -5   0    5.54    2.10
  -7  -5  -1    9.00    2.62
   7   5   1    8.85    2.35
  -7  -5  -1    6.80    3.64
  -7  -5  -2    6.24    2.48
  -7  -5  -3   16.91    3.69
   7   5   3   14.05    2.68
   7   5   4   -2.02    1.33
  -7  -6   8  -11.54    5.27
  -7  -6   7   -0.14    1.91
  -7  -6   7    2.51    1.46
  -7  -6   6    5.82    3.18
  -7  -6   6    0.76    0.62
  -7  -6   5    1.40    1.09
  -7  -6   4    1.73    1.27
  -7  -6   2    4.31    1.74
  -7  -6   1   -0.32    0.71
  -7  -6   0    2.00    0.93
  -8  10   4    1.04    0.91
  -8  10   3   -0.15    0.49
   8 -10  -2    4.37    1.64
  -8  10   2    7.36    2.08
  -8  10   2    5.49    1.57
   8 -10  -1    3.02    1.49
  -8  10   1    2.18    1.39
  -8  10   1    2.52    1.20
   8 -10   0    1.70    1.14
  -8  10   0    0.65    0.62
  -8  10   0    1.02    1.14
  -8  10  -1    4.14    1.42
   8 -10   1    2.61    1.31
   8 -10   2    1.59    1.21
   8 -10   4    1.41    1.07
   8  -9 -10    4.37    3.81
  -8   9   9   -0.44    0.99
   8  -9  -9    1.31    2.48
   8  -9  -8    0.17    0.63
  -8   9   8    0.32    0.59
  -8   9   8    1.43    1.14
   8  -9  -7    2.75    1.50
  -8   9   7    1.61    1.21
  -8   9   7    2.80    1.35
   8  -9  -6    4.30    1.86
  -8   9   6    3.94    1.59
  -8   9   6    3.47    1.49
   8  -9  -5    0.13    0.79
  -8   9   5   -0.70    1.05
  -8   9   5   -0.02    0.63
   8  -9  -4    1.51    1.11
  -8   9   4   -0.55    0.98
  -8   9   4   -0.32    0.96
   8  -9  -3    0.05    0.83
  -8   9   3    0.38    1.09
  -8   9   3   -0.12    0.60
  -8   9   2   27.26    3.83
  -8   9   2   30.54    3.68
   8  -9  -2   29.67    4.21
   8  -9  -1   12.72    2.65
  -8   9   1   14.26    2.83
  -8   9   1   12.21    2.38
   8  -9   0    0.78    0.61
  -8   9   0   -0.99    0.97
  -8   9   0   -0.24    0.60
  -8   9  -1   32.03    4.15
  -8   9  -1   35.49    4.14
   8  -9   1   33.79    4.38
  -8   9  -2   22.16    3.54
  -8   9  -2   27.75    3.60
   8  -9   2   34.44    4.35
  -8   9  -3   13.44    2.68
  -8   9  -3   15.80    2.79
   8  -9   3   13.36    2.36
   8  -9   3   16.08    3.00
  -8   9  -4   -0.39    0.58
  -8   9  -4   -0.52    0.67
   8  -9   4    0.24    0.50
   8  -9   4    0.87    0.89
  -8   9  -5   31.42    4.11
  -8   9  -5   32.84    4.00
   8  -9   5   28.46    3.58
   8  -9   5   37.24    4.38
   8  -9   6    3.97    1.39
   8  -9   6    3.15    1.28
   8  -9   7   -0.41    0.73
  -8   8  12    1.07    0.80
   8  -8 -11    5.67    2.13
  -8   8  11    6.86    2.05
   8  -8 -11    3.11    3.43
   8  -8 -10    0.10    0.93
  -8   8  10    2.74    1.32
  -8   8  10    0.42    0.97
   8  -8  -9    1.07    0.69
  -8   8   9    1.58    1.27
   8  -8  -8   -1.53    1.30
  -8   8   8    0.35    0.83
  -8   8   8   -1.49    1.04
   8  -8  -8   -1.76    2.40
   8  -8  -7    4.21    1.66
  -8   8   7    4.24    1.58
  -8   8   7    3.91    1.28
   8  -8  -7    9.08    4.96
   8  -8  -6   10.89    2.53
  -8   8   6   10.61    2.34
  -8   8   6    9.99    2.19
   8  -8  -5    5.96    2.04
  -8   8   5    5.22    1.70
  -8   8   5    5.01    1.49
   8  -8  -4    3.38    1.32
  -8   8   4    3.75    1.51
  -8   8   4    2.74    1.24
   8  -8  -3    2.96    1.14
  -8   8   3    1.83    1.22
  -8   8   3    3.95    1.36
   8  -8  -2    0.50    0.63
  -8   8   2    1.61    1.11
  -8   8   2    1.31    0.91
   8  -8  -1    9.24    2.30
  -8   8   1    7.65    2.00
  -8   8   1    6.98    1.73
   8  -8   0    2.57    1.05
  -8   8   0    1.74    1.06
  -8   8   0    3.46    1.28
  -8   8  -1   22.00    3.17
  -8   8  -1   18.73    2.89
   8  -8   1   25.22    3.54
   8  -8   2    5.92    1.63
  -8   8  -2    4.20    1.55
  -8   8  -2    5.53    1.61
   8  -8   3    2.05    1.11
  -8   8  -3    2.05    1.15
  -8   8  -3    1.41    0.75
   8  -8   3    2.45    1.00
  -8   8  -4    4.38    1.65
  -8   8  -4    1.22    0.80
   8  -8   4    1.09    0.60
   8  -8   4    1.23    0.95
  -8   8  -5   18.08    3.05
  -8   8  -5   21.35    3.14
   8  -8   5   19.21    3.02
   8  -8   5   15.60    2.47
  -8   8  -6    0.80    0.98
  -8   8  -6    2.58    1.19
   8  -8   6    0.24    0.58
   8  -8   6    3.33    1.32
  -8   8  -7    1.07    1.06
  -8   8  -7   -0.33    0.67
   8  -8   7    0.32    0.66
   8  -8   8   -0.02    0.48
   8  -8   9    1.08    1.00
   8  -7 -13    1.94    1.12
  -8   7  12    4.75    1.65
   8  -7 -12    5.66    2.12
  -8   7  12    5.85    1.81
   8  -7 -12    7.07    6.01
   8  -7 -11   10.55    2.76
  -8   7  11    7.88    2.07
   8  -7 -11   15.57    6.26
  -8   7  11   12.68    2.52
   8  -7 -10    7.92    2.29
  -8   7  10    7.67    1.97
   8  -7 -10    8.57    5.22
  -8   7  10    5.59    1.85
   8  -7  -9    1.00    1.07
  -8   7   9   -0.43    0.82
  -8   7   9   -0.66    0.61
   8  -7  -8    0.22    0.74
  -8   7   8    0.36    0.69
  -8   7   8    0.54    0.74
   8  -7  -8    3.46    3.71
  -8   7   7   40.14    4.47
  -8   7   7   44.79    4.48
   8  -7  -7   42.55    5.11
   8  -7  -7   34.80    8.16
  -8   7   6   96.20    7.07
  -8   7   6   98.31    6.70
   8  -7  -6  103.73    8.05
   8  -7  -6   82.69   12.21
   8  -7  -5    0.07    0.63
  -8   7   5    0.87    1.19
  -8   7   5    0.41    0.52
   8  -7  -4   17.75    3.09
  -8   7   4   11.92    2.43
  -8   7   4   11.34    2.04
   8  -7  -3   -0.64    1.08
  -8   7   3   -0.16    0.74
  -8   7   3    0.86    0.52
   8  -7  -2    0.11    0.83
  -8   7   2    1.80    1.01
  -8   7   2    1.92    1.01
   8  -7  -1    1.20    1.07
  -8   7   1    1.74    1.13
  -8   7   1    0.77    0.81
   8  -7   0    2.09    1.05
  -8   7   0    4.06    1.69
  -8   7   0    2.38    0.92
   8  -7   1    2.15    1.22
  -8   7  -1    2.99    1.07
  -8   7  -1    0.87    0.75
   8  -7   2    0.19    0.58
  -8   7  -2   -0.89    0.70
  -8   7  -2    0.77    0.76
   8  -7   3   -0.04    0.63
  -8   7  -3    0.97    1.08
  -8   7  -3    0.47    0.45
   8  -7   4    0.09    0.56
  -8   7  -4    0.36    0.87
  -8   7  -4    0.78    0.87
  -8   7  -5    0.50    0.75
  -8   7  -5   -0.32    0.54
   8  -7   5    2.69    1.17
  -8   7  -6    6.58    1.77
  -8   7  -6    4.53    1.42
  -8   7  -7    0.45    0.81
  -8   7  -7   -0.60    0.66
   8  -7   7   -1.66    1.21
  -8   7  -8    0.70    0.75
  -8   7  -8    1.36    1.09
   8  -7   8    1.78    1.40
  -8   7  -9   -0.38    0.61
   8  -6 -14   18.71    3.64
   8  -6 -13    5.54    2.12
  -8   6  13    6.25    1.91
   8  -6 -13    8.57    6.09
   8  -6 -12    1.28    0.80
  -8   6  12    0.70    1.17
   8  -6 -12    2.38    3.44
   8  -6 -11    0.50    0.87
  -8   6  11    1.28    1.19
  -8   6  11   -1.10    0.82
   8  -6 -11   -0.95    3.60
   8  -6 -10    2.01    1.32
  -8   6  10    2.76    1.34
  -8   6  10    3.24    1.32
   8  -6 -10   -1.96    3.49
  -8   6   9    1.41    1.06
   8  -6  -9    2.16    1.11
  -8   6   9    0.94    0.86
   8  -6  -9    1.59    2.02
   8  -6  -8   -3.19    4.25
   8  -6  -8    1.85    1.17
  -8   6   8    2.78    1.24
  -8   6   8    2.45    1.23
  -8   6   7  115.92    7.62
  -8   6   7  131.48    7.67
   8  -6  -7  115.74   15.31
   8  -6  -7  128.93    9.08
   8  -6  -6   23.83    6.09
   8  -6  -6   24.65    3.70
  -8   6   6   22.83    3.15
  -8   6   6   23.95    2.98
   8  -6  -5    0.98    1.39
  -8   6   5   -0.27    0.57
  -8   6   5    0.43    0.68
   8  -6  -4    1.15    1.84
   8  -6  -4    0.69    0.71
  -8   6   4    2.03    1.12
  -8   6   4    4.83    1.51
   8  -6  -3    0.43    0.81
  -8   6   3    0.67    0.58
  -8   6   3    1.36    0.76
   8  -6  -2    0.62    0.58
  -8   6   2   -0.71    0.89
  -8   6   2    0.18    0.51
  -8   6   1   23.59    3.25
   8  -6  -1   30.43    3.79
  -8   6   0   29.43    3.52
  -8   6   0   27.59    3.26
   8  -6   0   26.35    3.45
   8  -6   1    3.07    1.20
  -8   6  -1    2.30    0.64
  -8   6  -1    4.61    1.57
   8  -6   2    1.01    0.62
  -8   6  -2    1.81    0.81
  -8   6  -2    0.95    0.94
   8  -6   3    2.63    1.13
  -8   6  -3    2.51    1.30
  -8   6  -3    3.92    1.55
   8  -6   4    8.44    1.88
  -8   6  -4    9.79    2.26
  -8   6  -4    5.50    1.35
   8  -6   5   -0.56    0.62
  -8   6  -5   -0.38    0.62
  -8   6  -5   -0.29    0.79
  -8   6  -6    9.20    1.97
  -8   6  -6   10.31    2.16
   8  -6   6    7.80    2.44
  -8   6  -7   -0.91    0.73
  -8   6  -7    1.30    0.87
   8  -6   7    1.55    1.70
  -8   6  -8    6.27    1.81
  -8   6  -8    4.68    1.63
   8  -6   8    6.15    2.15
  -8   6  -9   -1.00    0.96
   8  -6   9    0.49    0.64
  -8   6 -10    0.48    0.66
  -8   5  14    1.27    0.91
   8  -5 -14    4.33    5.09
   8  -5 -13   -3.05    4.14
  -8   5  13    1.51    1.05
   8  -5 -12   -1.94    3.04
  -8   5  12   -0.33    0.58
   8  -5 -11    2.43    2.43
  -8   5  11    1.46    1.00
  -8   5  10   -0.15    0.86
  -8   5  10    0.19    0.57
   8  -5  -9   10.82    4.93
  -8   5   9   11.33    2.23
  -8   5   9   12.27    2.31
  -8   5   9   10.24    2.21
  -8   5   8  102.98    6.86
  -8   5   8  111.77    6.97
   8  -5  -8  105.30   14.73
  -8   5   8  105.38    7.73
   8  -5  -8   99.46    8.05
  -8   5   7   11.69    2.05
   8  -5  -7   11.67    2.60
   8  -5  -7   17.63    5.87
  -8   5   7   10.10    1.99
  -8   5   7   12.05    2.56
   8  -5  -6   13.47    2.73
   8  -5  -6   10.07    3.96
  -8   5   6   13.48    2.35
  -8   5   6   15.10    2.20
   8  -5  -5    0.39    0.89
   8  -5  -5    2.23    3.39
  -8   5   5   -0.28    0.61
  -8   5   5    0.60    0.72
   8  -5  -4    3.45    1.69
   8  -5  -4   -1.58    3.36
  -8   5   4    2.20    0.94
  -8   5   4    0.87    0.43
   8  -5  -3    1.78    0.98
   8  -5  -3   -0.73    2.14
  -8   5   3    3.61    1.37
  -8   5   3    2.91    0.95
   8  -5  -2    5.08    1.39
  -8   5   2    5.25    1.42
   8  -5  -1   15.84    2.63
  -8   5   1   20.14    2.91
   8  -5   0    1.73    0.80
  -8   5   0    3.11    0.92
  -8   5  -1    2.48    1.02
   8  -5   1    4.52    1.50
  -8   5  -1    0.59    0.83
  -8   5  -2    2.25    0.91
   8  -5   2    2.39    1.01
  -8   5  -2    4.25    1.43
   8  -5   3    1.71    0.94
  -8   5  -3    0.68    0.73
  -8   5  -3    0.33    0.76
   8  -5   4    5.95    1.51
  -8   5  -4    6.23    1.73
  -8   5  -4    8.03    1.86
   8  -5   4    5.68    2.02
  -8   5  -5    1.49    0.96
  -8   5  -5    0.51    0.90
  -8   5  -5    1.04    0.83
   8  -5   5   -0.36    1.10
  -8   5  -6    7.77    1.91
  -8   5  -6    4.57    1.57
  -8   5  -6    4.25    1.38
   8  -5   6    3.21    1.47
  -8   5  -7   14.76    2.68
  -8   5  -7    8.65    2.01
   8  -5   7   14.55    3.12
   8  -5   8   -0.42    0.82
  -8   5  -8   -0.34    0.73
   8  -5   8    1.96    1.33
   8  -5   9   -0.41    1.21
  -8   5  -9    1.06    0.72
   8  -5   9    2.68    1.60
   8  -5  10   -0.42    1.21
   8  -5  10    1.06    1.09
  -8   4  15    0.75    0.69
   8  -4 -14   -1.51    3.22
  -8   4  14    0.75    0.75
   8  -4 -13    8.93    5.25
  -8   4  13    9.04    2.19
   8  -4 -12    6.22    4.72
  -8   4  12    5.09    1.68
   8  -4 -11    6.53    4.96
  -8   4  11    1.85    1.12
  -8   4  11    1.02    1.10
   8  -4 -10   14.33    5.27
  -8   4  10   13.05    2.34
  -8   4  10   12.90    2.76
  -8   4   9    0.75    0.69
  -8   4   9    0.74    0.55
  -8   4   9    0.16    0.81
  -8   4   8   33.11    3.49
   8  -4  -8   27.49    8.66
  -8   4   8   27.19    3.13
  -8   4   8   29.28    3.95
  -8   4   7    0.20    0.62
  -8   4   7    1.03    0.81
  -8   4   7   -0.72    0.78
  -8   4   6   -0.23    0.39
   8  -4  -6   -1.02    3.35
  -8   4   6    0.03    0.63
  -8   4   6   -0.73    1.18
  -8   4   5    1.07    0.61
   8  -4  -5   -3.46    4.34
  -8   4   5    0.05    0.82
  -8   4   5    1.36    0.64
  -8   4   4    8.25    1.88
   8  -4  -4    4.95    3.16
   8  -4  -3    1.21    0.94
  -8   4   3    0.60    0.59
   8  -4  -3   -0.93    2.63
   8  -4  -2    0.22    0.57
  -8   4   2    1.19    0.81
   8  -4  -2    3.41    2.73
  -8   4   1    2.66    1.19
   8  -4  -1    1.09    0.50
  -8   4   1    1.75    1.05
  -8   4   0   10.34    2.25
   8  -4   0    8.89    2.00
  -8   4   0   20.09    3.15
  -8   4  -1    1.08    0.90
   8  -4   1    0.87    0.81
  -8   4  -1   -0.01    0.50
   8  -4   2    0.07    0.40
  -8   4  -2   -1.00    0.94
  -8   4  -2    1.21    0.53
   8  -4   2    0.44    0.39
   8  -4   2    1.70    1.25
   8  -4   3    7.55    1.65
  -8   4  -3    9.77    2.15
  -8   4  -3    8.93    2.01
   8  -4   3    6.95    1.74
   8  -4   3   12.05    2.76
  -8   4  -4   62.33    5.53
   8  -4   4   40.49    4.60
   8  -4   4   64.61    6.74
  -8   4  -5    5.53    1.67
  -8   4  -5    6.61    2.04
   8  -4   5    6.68    1.81
   8  -4   5    5.04    1.82
  -8   4  -6   -1.32    0.89
   8  -4   6    0.92    0.60
   8  -4   6   -1.28    1.58
  -8   4  -7    4.74    1.66
   8  -4   7    4.96    1.80
   8  -4   7    3.82    1.66
  -8   4  -8    2.39    1.35
   8  -4   8    2.46    1.69
   8  -4   8    3.78    1.77
   8  -4   9    3.94    1.84
   8  -4   9    2.72    1.13
   8  -4  10    0.55    0.97
   8  -4  10   -0.16    0.89
   8  -3 -15   10.43    7.10
  -8   3  15    3.62    1.66
   8  -3 -14   14.46    6.17
  -8   3  14    9.75    2.36
  -8   3  14    8.59    2.10
  -8   3  13    0.24    1.02
  -8   3  13    0.61    0.66
   8  -3 -12   17.18    7.26
  -8   3  12   23.15    3.37
  -8   3  12   19.35    3.23
  -8   3  11    0.45    0.73
  -8   3  11    0.31    0.69
   8  -3 -10    0.08    2.43
  -8   3  10   -0.56    0.81
  -8   3  10    1.11    1.04
   8  -3  -9   12.73    7.16
  -8   3   9    6.94    1.59
  -8   3   9    5.39    1.63
   8  -3  -8   -0.83    3.75
  -8   3   8   -0.63    0.73
  -8   3   8   -0.61    0.93
  -8   3   7   11.19    2.00
   8  -3  -7    3.15    3.16
  -8   3   7    7.98    1.60
  -8   3   7    5.80    1.76
  -8   3   6    0.18    0.63
   8  -3  -6    0.98    3.17
  -8   3   6   -0.80    0.68
  -8   3   6    1.35    1.22
  -8   3   5   22.93    2.84
   8  -3  -5   21.01    6.08
  -8   3   5   21.16    3.50
  -8   3   4   53.27    4.59
   8  -3  -4   49.84    9.45
  -8   3   4   52.05    5.50
  -8   3   3    1.27    0.91
   8  -3  -3   -0.77    3.78
  -8   3   2    8.09    1.98
  -8   3   2    6.85    1.74
   8  -3  -2    7.68    3.99
  -8   3   1    0.39    0.71
   8  -3  -1    2.52    1.34
  -8   3   1    1.52    0.98
   8  -3  -1   -0.89    2.94
   8  -3  -1    2.66    1.40
  -8   3   0    1.24    1.19
   8  -3   0    0.26    0.56
  -8   3   0    1.24    0.60
   8  -3   0    1.23    1.14
  -8   3  -1   11.64    2.25
   8  -3   1   10.54    2.13
  -8   3  -1   11.12    2.21
   8  -3   1   13.86    2.94
  -8   3  -2  130.59    7.87
   8  -3   2  127.06    7.43
   8  -3   2  126.33    9.35
   8  -3   2  113.61    7.06
  -8   3  -2  130.91    8.24
  -8   3  -3  101.99    6.90
   8  -3   3   96.55    6.63
   8  -3   3   99.41    8.28
  -8   3  -3   98.17    7.19
   8  -3   4   37.39    4.15
   8  -3   4   42.01    5.38
  -8   3  -4   39.25    4.57
  -8   3  -5    5.85    1.69
   8  -3   5    5.89    1.73
   8  -3   5    8.37    2.40
  -8   3  -6    1.29    0.97
   8  -3   6    2.36    1.38
   8  -3   6   -0.01    0.79
  -8   3  -7    3.71    1.75
   8  -3   7    1.68    1.03
   8  -3   7    0.99    0.61
  -8   3  -8    0.40    0.95
   8  -3   8    2.36    1.10
   8  -3   8    1.67    1.30
  -8   3  -9   27.87    4.20
   8  -3   9   33.15    4.65
   8  -3   9   25.42    4.38
  -8   3 -10    3.41    1.56
   8  -3  10    0.89    0.63
  -8   3 -11    0.05    1.13
  -8   2  16    0.44    1.26
   8  -2 -15    2.55    4.49
  -8   2  15    1.73    1.20
  -8   2  15    1.04    0.85
  -8   2  14    2.75    1.44
  -8   2  14    4.40    1.72
   8  -2 -13   -2.21    4.14
  -8   2  13    1.63    0.96
  -8   2  13    0.03    0.51
   8  -2 -12   -1.12    3.13
  -8   2  12    2.09    1.35
  -8   2  12    1.12    0.91
   8  -2 -11   31.14    8.78
  -8   2  11   16.47    2.70
  -8   2  11   15.79    2.91
   8  -2 -10    7.85    5.18
  -8   2  10    3.06    1.19
  -8   2  10    5.82    1.85
   8  -2  -9   -0.64    3.84
  -8   2   9    3.30    1.29
  -8   2   9    2.78    1.29
   8  -2  -8   -1.89    3.74
  -8   2   8    0.17    0.48
  -8   2   8   -0.46    0.60
   8  -2  -7    3.57    2.25
  -8   2   7    0.36    0.84
  -8   2   7    1.47    1.32
  -8   2   6    4.33    1.24
   8  -2  -6    6.53    4.44
  -8   2   6    6.47    2.07
  -8   2   5   64.87    4.87
   8  -2  -5   49.73    9.78
   8  -2  -5   71.35    6.63
  -8   2   5   70.48    6.35
  -8   2   4   29.08    3.18
   8  -2  -4   26.13    7.44
   8  -2  -4   27.76    4.07
  -8   2   4   28.82    4.03
  -8   2   3    2.27    1.19
  -8   2   3    2.23    0.91
   8  -2  -3    4.81    3.55
   8  -2  -3    0.73    1.10
  -8   2   3    2.51    1.52
  -8   2   2    3.29    1.50
  -8   2   2    2.40    0.97
   8  -2  -2    6.48    3.57
  -8   2   2    8.23    3.09
   8  -2  -2    3.58    1.40
  -8   2   1    0.64    0.64
   8  -2  -1   -1.63    2.18
   8  -2  -1    1.06    0.84
  -8   2   0   17.33    2.87
  -8   2   0   19.01    2.75
  -8   2   0   12.90    4.28
   8  -2   0   17.12    2.56
   8  -2   0   20.42    3.57
   8  -2   1   12.78    2.22
  -8   2  -1   14.80    2.72
   8  -2   1   14.86    2.56
   8  -2   1   12.72    2.73
   8  -2   2  396.33   15.03
   8  -2   2  400.63   16.41
   8  -2   2  391.13   18.29
  -8   2  -2  417.35   16.95
   8  -2   3   65.49    5.28
   8  -2   3   67.66    5.97
   8  -2   3   62.90    6.62
  -8   2  -3   58.72    5.70
  -8   2  -4    6.16    2.12
   8  -2   4    5.85    1.61
   8  -2   4    5.10    1.80
  -8   2  -5    8.19    2.20
   8  -2   5    2.47    1.11
   8  -2   5    2.27    1.32
  -8   2  -6    4.34    1.90
   8  -2   6    3.63    1.39
   8  -2   6    3.82    1.82
  -8   2  -7   -2.15    1.59
   8  -2   7   -0.49    0.83
   8  -2   7    1.38    1.03
  -8   2  -8    1.48    1.35
   8  -2   8    1.30    1.15
  -8   2  -9   17.76    3.72
   8  -2   9   20.65    3.52
  -8   2 -10    5.09    2.04
   8  -2  10    6.60    2.18
  -8   1  16   22.71    3.86
   8  -1 -15    2.42    4.03
  -8   1  15    3.30    1.25
  -8   1  15    3.71    1.86
   8  -1 -14   -4.41    4.37
  -8   1  14   -0.01    0.86
  -8   1  14   -0.30    1.08
   8  -1 -13   -3.50    3.35
  -8   1  13    3.24    1.35
  -8   1  13    7.14    1.97
   8  -1 -12   -2.29    2.55
  -8   1  12    0.78    0.95
  -8   1  12   -0.93    1.00
   8  -1 -11    8.52    5.49
  -8   1  11   13.18    2.49
  -8   1  11   16.13    2.97
   8  -1 -10    9.31    5.78
  -8   1  10   14.33    2.40
  -8   1  10   18.30    3.18
   8  -1  -9    9.83    4.92
  -8   1   9   11.70    2.05
   8  -1  -9   11.54    2.55
  -8   1   9   14.40    2.75
   8  -1  -8    0.49    4.08
  -8   1   8    1.45    1.47
   8  -1  -8    4.10    1.71
  -8   1   8    1.44    1.12
   8  -1  -7   11.01    4.43
  -8   1   7    6.70    2.82
   8  -1  -7    9.70    2.46
  -8   1   7   10.50    2.57
   8  -1  -6    6.70    5.41
  -8   1   6    8.84    3.27
   8  -1  -6    5.37    1.70
  -8   1   6    6.02    1.97
  -8   1   5   17.59    2.32
   8  -1  -5   13.45    5.81
  -8   1   5   13.67    4.25
   8  -1  -5   17.79    3.47
  -8   1   5   11.02    2.51
  -8   1   4    2.73    1.19
  -8   1   4    3.28    1.14
   8  -1  -4   -1.98    2.87
  -8   1   4    6.99    3.28
   8  -1  -4    2.84    1.01
   8  -1  -4    4.31    1.67
  -8   1   4    4.05    1.34
  -8   1   3    6.90    1.73
  -8   1   3    9.22    3.98
   8  -1  -3    7.20    1.60
   8  -1  -3    6.93    2.08
  -8   1   3    9.17    2.68
  -8   1   2    1.35    0.71
   8  -1  -2   -0.08    0.60
   8  -1  -2    0.26    0.84
  -8   1   2    0.55    1.21
  -8   1   1    5.15    1.60
  -8   1   1   -0.99    2.98
   8  -1  -1    1.89    0.66
   8  -1  -1    0.96    0.89
  -8   1   0   14.58    2.74
  -8   1   0   17.07    4.94
   8  -1   0   14.39    2.49
   8  -1   0   18.09    3.45
  -8   1  -1    4.19    1.70
  -8   1  -1    0.27    2.42
   8  -1   1    2.49    1.37
   8  -1   1    1.72    1.03
  -8   1  -2   25.21    3.74
   8  -1   2   28.46    3.83
  -8   1  -2   18.62    5.68
   8  -1   2   28.17    4.40
  -8   1  -3    3.41    1.49
   8  -1   3    3.33    1.22
  -8   1  -3    7.15    3.61
   8  -1   3    3.63    1.56
   8  -1   3    4.14    1.85
  -8   1  -4    1.47    0.97
   8  -1   4    0.53    0.47
  -8   1  -4   -2.77    2.23
   8  -1   4    0.25    0.81
   8  -1   4    0.98    1.16
  -8   1  -5    1.52    1.22
   8  -1   5   -0.47    0.88
  -8   1  -5    2.82    2.23
   8  -1   5   -0.67    1.17
   8  -1   5   -0.69    1.27
  -8   1  -6    0.56    0.86
   8  -1   6    2.86    1.12
  -8   1  -6    4.96    2.56
  -8   1  -7   -1.67    1.43
   8  -1   7    0.03    0.72
  -8   1  -8   -0.18    0.71
   8  -1   8   -0.07    0.72
  -8   1  -9   13.10    3.14
   8  -1   9   16.99    3.22
  -8   0  15    2.36    1.29
  -8   0  15    0.32    0.72
   8   0 -14   13.03    7.78
  -8   0  14    5.81    1.88
  -8   0  14    7.87    2.10
  -8   0  13   -0.59    0.96
  -8   0  13   -0.33    0.64
   8   0 -12   24.08    8.78
  -8   0  12   14.57    2.91
  -8   0  12   12.26    2.40
   8   0 -11   -1.50    3.60
  -8   0  11    0.76    1.26
  -8   0  11    0.44    0.93
   8   0 -10   28.85    9.59
  -8   0  10   38.20    4.01
  -8   0  10   36.55    4.65
   8   0  -9   91.95   14.99
  -8   0   9   96.46    7.56
   8   0  -8   -2.27    3.46
  -8   0   8    0.87    1.67
   8   0  -8    0.50    0.55
  -8   0   8   -0.32    0.90
   8   0  -7    0.08    2.56
  -8   0   7    3.71    2.17
   8   0  -7    3.39    1.44
  -8   0   7    4.50    1.81
   8   0  -6    1.02    4.15
  -8   0   6   -0.71    2.02
   8   0  -6    0.70    1.03
   8   0  -6   -0.14    1.21
  -8   0   6    0.41    1.08
  -8   0   5   -3.27    2.77
   8   0  -5    0.28    0.49
   8   0  -5   -0.84    1.21
  -8   0   5    0.23    1.17
  -8   0   4    9.63    2.17
  -8   0   4    7.00    3.72
   8   0  -4    8.37    2.13
   8   0  -4   14.13    3.01
  -8   0   4    8.14    2.60
  -8   0   3   21.03    3.22
   8   0  -3   21.16    3.07
  -8   0   3   13.66    4.21
   8   0  -3   16.04    3.09
  -8   0   3   16.90    3.30
   8   0  -2   26.22    3.42
  -8   0   2   23.90    5.67
   8   0  -2   23.50    3.85
  -8   0   2   20.24    3.49
  -8   0   2   33.81    4.09
  -8   0   1    0.23    0.94
  -8   0   1    2.03    1.51
   8   0  -1   -1.48    1.37
   8   0  -1   -1.03    1.24
  -8   0   1    1.47    1.49
   8   0   0   36.16    4.50
  -8   0   0   43.04    8.44
   8   0   0   56.11    6.26
  -8   0   0   37.24    4.64
  -8   0  -1   16.21    3.16
  -8   0  -1    5.73    2.89
   8   0   1   11.67    2.61
   8   0   1    9.67    2.39
  -8   0  -2    7.84    2.16
  -8   0  -2    3.18    2.81
   8   0   2    3.81    1.51
   8   0   2    4.05    1.67
  -8   0  -3    0.72    0.93
   8   0   3   -0.15    0.84
   8   0   3    0.34    1.21
  -8   0  -4    6.98    2.30
   8   0   4    9.17    2.07
  -8   0  -4   15.31    5.02
   8   0   4   13.47    3.08
  -8   0  -5    3.42    1.73
   8   0   5    2.42    1.14
  -8   0  -5    1.20    2.00
   8   0   5    4.92    1.98
  -8   0  -6    3.77    1.83
   8   0   6    6.74    2.07
  -8   0  -6    2.05    2.02
   8   0   6    6.40    2.15
  -8   0  -7    6.34    2.14
   8   0   7    9.56    2.27
  -8   0  -7    3.58    2.28
   8   0   7    7.36    2.63
  -8   0  -8   -2.40    1.86
   8   0   8   -0.33    0.90
  -8   0  -8    3.83    3.19
  -8  -1  15    2.17    1.16
  -8  -1  14    3.43    1.30
  -8  -1  14    5.54    2.00
  -8  -1  13    1.24    0.83
  -8  -1  13   -0.30    0.98
  -8  -1  12    0.59    0.52
  -8  -1  12    0.31    0.82
   8   1 -11    0.27    3.81
  -8  -1  11    0.63    0.78
   8   1 -10   35.30   10.06
  -8  -1  10   53.12    5.67
   8   1  -9   17.31    6.99
   8   1  -9   11.33    2.24
  -8  -1   9    9.21    2.45
   8   1  -8   37.63    9.69
   8   1  -8   38.59    4.27
  -8  -1   8   34.69    6.71
   8   1  -8   37.94    4.73
  -8  -1   8   39.29    4.79
   8   1  -7   -1.76    1.13
  -8  -1   7   -1.24    2.21
   8   1  -7    0.49    1.11
  -8  -1   7    0.92    0.80
   8   1  -6   29.93    3.86
  -8  -1   6   26.54    5.94
   8   1  -6   30.39    4.25
  -8  -1   6   30.52    4.36
  -8  -1   5   19.82    3.08
   8   1  -5   17.59    2.88
  -8  -1   5   17.11    4.64
   8   1  -5   15.81    3.12
  -8  -1   5   11.65    2.80
  -8  -1   4    0.11    0.81
  -8  -1   4    0.36    1.44
   8   1  -4   -0.36    0.81
   8   1  -4   -0.16    1.04
  -8  -1   4    1.39    1.06
  -8  -1   3   15.99    2.87
  -8  -1   3   12.09    4.33
   8   1  -3   15.28    2.78
   8   1  -3   14.85    3.09
  -8  -1   3   10.62    2.72
  -8  -1   2   19.28    3.20
  -8  -1   2   18.24    5.38
   8   1  -2   22.83    3.43
   8   1  -2   16.05    3.16
  -8  -1   2   20.80    3.61
  -8  -1   1   27.11    3.84
   8   1  -1   27.52    3.79
  -8  -1   1   31.64    7.04
  -8  -1   1   22.37    3.89
  -8  -1   0   11.04    2.42
  -8  -1   0    8.85    4.52
   8   1   0    8.67    2.23
  -8  -1  -1    1.95    1.40
  -8  -1  -1   -4.19    3.73
   8   1   1    1.71    0.98
  -8  -1  -2    8.34    2.47
  -8  -1  -2   10.31    4.75
   8   1   2    7.90    2.28
  -8  -1  -3   -0.07    0.93
  -8  -1  -3    5.91    3.07
   8   1   3    2.42    1.55
  -8  -1  -4    0.88    1.02
   8   1   4    0.63    0.58
  -8  -1  -4   -0.16    2.20
   8   1   4    1.54    1.32
  -8  -1  -5   12.97    3.12
   8   1   5   16.14    2.83
  -8  -1  -5   13.07    4.72
   8   1   5   15.65    3.52
  -8  -1  -6    1.89    1.48
   8   1   6    6.13    1.81
  -8  -1  -6    8.44    4.36
   8   1   6   10.81    3.12
   8   1   7   -0.45    0.84
  -8  -1  -7   -1.67    2.62
   8   1   7   -0.35    1.52
   8   1   8   -0.06    0.95
   8   2 -12    0.34    3.39
  -8  -2  12    2.81    1.56
   8   2 -11    0.94    3.49
   8   2 -11   -0.81    0.97
  -8  -2  11    0.43    1.14
   8   2 -10    0.55    0.81
  -8  -2  10    1.11    0.94
   8   2  -9   -0.15    1.06
  -8  -2   9    0.58    1.24
   8   2  -8   69.03    6.23
  -8  -2   8   68.33   10.11
  -8  -2   8   68.71    6.73
   8   2  -7   12.94    2.57
  -8  -2   7   13.93    4.63
  -8  -2   7   11.50    2.65
   8   2  -6   17.04    3.16
  -8  -2   6   13.74    4.93
  -8  -2   6   12.57    2.82
  -8  -2   5    1.49    1.43
   8   2  -5    1.24    0.97
  -8  -2   5   -0.25    2.28
  -8  -2   5   -0.22    0.67
  -8  -2   4    1.34    1.19
   8   2  -4    0.86    0.73
  -8  -2   4   -2.92    2.10
  -8  -2   4    0.33    0.67
  -8  -2   3    1.92    1.25
   8   2  -3    0.14    0.88
  -8  -2   3    0.87    2.64
  -8  -2   3    1.70    1.36
  -8  -2   2   -0.63    0.93
   8   2  -2   -0.12    0.86
  -8  -2   2    2.81    2.80
  -8  -2   2   -0.46    1.00
  -8  -2   1    1.57    1.50
  -8  -2   1   -1.35    2.24
   8   2  -1    0.91    0.82
  -8  -2   1    1.25    1.01
  -8  -2   0   -0.84    1.43
  -8  -2   0   -2.20    2.77
   8   2   0    0.01    1.05
  -8  -2  -1    0.69    0.88
  -8  -2  -1    4.90    3.47
   8   2   1    1.59    1.66
  -8  -2  -2    2.97    1.57
  -8  -2  -2    6.04    3.58
   8   2   2    4.19    1.67
  -8  -2  -3   -0.69    1.41
  -8  -2  -3   -2.71    2.82
   8   2   3    2.58    1.71
  -8  -2  -4    2.89    1.33
  -8  -2  -4    1.43    1.86
   8   2   4    2.54    1.39
  -8  -2  -5    6.28    2.07
   8   2   5    5.93    1.93
  -8  -2  -5   14.64    5.41
   8   2   5    7.71    2.55
   8   2   6    1.48    0.65
   8   3 -12    0.40    0.97
   8   3 -11   -0.11    0.97
   8   3 -10    4.63    1.80
  -8  -3  10    6.18    2.23
   8   3  -9    0.17    0.73
  -8  -3   9   -1.65    1.81
   8   3  -8   -0.56    1.02
  -8  -3   8   -1.34    3.09
  -8  -3   8   -1.84    1.29
   8   3  -7    3.48    1.50
  -8  -3   7    1.06    1.67
  -8  -3   7    2.89    1.72
   8   3  -6    2.32    1.41
  -8  -3   6   -0.06    0.88
  -8  -3   5    0.26    1.07
   8   3  -5    2.17    1.30
  -8  -3   5   -1.61    2.24
  -8  -3   5    0.50    1.17
  -8  -3   4    3.50    1.62
   8   3  -4    3.63    1.64
  -8  -3   4    1.82    2.20
  -8  -3   4    3.26    1.72
  -8  -3   3    1.27    1.08
   8   3  -3    0.60    1.27
  -8  -3   3    1.82    1.85
  -8  -3   3    1.20    1.39
  -8  -3   2    2.33    1.40
   8   3  -2    1.00    0.78
  -8  -3   2   -4.13    3.62
  -8  -3   2    1.12    1.46
  -8  -3   1    1.45    0.97
   8   3  -1    1.85    1.50
  -8  -3   1    6.73    3.82
  -8  -3   1    1.75    1.73
  -8  -3   0   10.24    2.44
   8   3   0   12.94    3.12
  -8  -3   0   19.01    6.11
  -8  -3  -1    2.23    1.64
   8   3   1   -0.08    0.84
  -8  -3  -2    2.32    1.74
  -8  -3  -2   -1.92    1.65
   8   3   2    5.00    2.08
  -8  -3  -3    4.14    1.74
   8   3   3    2.93    1.82
   8   4 -10   11.35    2.92
   8   4  -9    3.43    1.65
   8   4  -8   24.20    3.94
  -8  -4   8   18.05    5.93
  -8  -4   8   22.95    4.09
   8   4  -7    9.44    2.60
  -8  -4   7    1.97    2.17
  -8  -4   7    7.64    2.37
   8   4  -6    1.15    1.05
  -8  -4   6    1.80    2.30
  -8  -4   6    4.72    1.96
  -8  -4   5    2.39    1.33
   8   4  -5    1.88    1.50
  -8  -4   5    2.04    3.06
  -8  -4   5    3.87    1.93
  -8  -4   4    1.02    1.28
   8   4  -4    0.74    0.88
  -8  -4   4    2.02    1.66
  -8  -4   3   -0.52    0.67
   8   4  -3    0.07    0.86
  -8  -4   3   -3.00    3.72
  -8  -4   3   -1.71    1.76
  -8  -4   2    0.28    0.85
   8   4  -2    0.99    1.11
  -8  -4   2    2.92    3.26
  -8  -4   2    4.87    2.27
  -8  -4   1   28.53    4.43
   8   4  -1   31.47    4.77
  -8  -4   1   26.80    7.68
  -8  -4   1   25.43    4.38
  -8  -4   0   30.05    4.60
  -8  -5   5    7.38    2.10
  -8  -5   4   -0.76    0.72
  -9   9   7    0.05    0.85
  -9   9   6    1.71    0.95
   9  -9  -2    3.85    1.68
   9  -9  -1    0.76    0.93
  -9   9   1   -0.30    0.81
   9  -9   0    3.87    1.64
   9  -9   1    0.08    0.50
   9  -9   2   36.47    4.66
  -9   8  10    0.38    0.60
   9  -8 -10    2.02    3.05
  -9   8   9    0.48    0.89
  -9   8   9    1.36    0.70
  -9   8   8    1.70    1.02
  -9   8   8    0.11    0.75
   9  -8  -7    3.02    1.86
  -9   8   7    1.98    1.10
  -9   8   7    1.29    1.06
   9  -8  -6    3.24    1.58
  -9   8   6    2.73    1.39
  -9   8   6    4.58    1.58
   9  -8  -5    1.41    1.35
  -9   8   5   -0.84    0.93
  -9   8   5   -0.20    0.51
   9  -8  -4    5.11    1.85
  -9   8   4    4.26    1.54
  -9   8   4    4.71    1.57
   9  -8  -3   15.39    3.05
  -9   8   3   10.57    2.42
   9  -8  -2    7.41    2.30
  -9   8   2    3.28    1.37
   9  -8  -1   -0.41    0.80
  -9   8   1    0.86    0.98
   9  -8   0    9.67    2.46
  -9   8   0    9.47    2.19
  -9   8   0   10.12    2.24
   9  -8   1    0.04    0.68
  -9   8  -1   -1.59    1.14
  -9   8  -1   -0.37    0.81
   9  -8   2    3.43    1.38
  -9   8  -2    2.89    1.52
  -9   8  -2    2.29    1.09
   9  -8   3   -0.61    0.62
  -9   8  -3    1.52    1.05
  -9   8  -3    0.61    0.87
   9  -8   4   21.23    3.30
  -9   7  11    3.28    1.34
   9  -7 -11   -1.80    3.75
  -9   7  10    0.14    0.71
  -9   7  10   -0.67    0.78
   9  -7  -9    5.45    2.10
  -9   7   9    5.00    1.78
  -9   7   9    8.28    2.11
   9  -7  -9   11.43    5.85
   9  -7  -8   -0.05    0.68
  -9   7   8    2.82    1.31
  -9   7   8    0.22    0.73
   9  -7  -8    1.50    1.98
   9  -7  -7    2.22    1.37
  -9   7   7    2.47    1.38
  -9   7   7    2.02    1.26
   9  -7  -6   11.51    2.61
  -9   7   6   10.76    2.43
  -9   7   6   11.83    2.23
   9  -7  -5   16.31    3.26
  -9   7   5   15.83    2.92
  -9   7   5   12.44    2.17
   9  -7  -4    1.91    1.17
  -9   7   4    0.74    1.06
   9  -7  -3    0.84    1.30
  -9   7   3   -0.45    0.83
   9  -7  -2    0.43    0.91
  -9   7   2    0.28    0.67
   9  -7  -1    0.55    0.55
  -9   7   1   -0.33    0.64
   9  -7   0    5.99    1.85
  -9   7   0    6.97    1.77
   9  -7   1   -0.52    0.46
  -9   7  -1   -0.94    0.94
   9  -7   2    1.83    0.93
  -9   7  -2    3.84    1.38
   9  -7   3   -0.78    0.95
  -9   7  -3    1.55    1.14
  -9   7  -3    2.38    1.18
   9  -7   4    1.07    1.05
  -9   7  -4    0.89    0.88
  -9   7  -4   -0.28    0.53
  -9   7  -5    1.25    0.92
   9  -7   5    2.00    1.16
   9  -7   6    2.34    1.50
  -9   6  12    0.54    0.65
   9  -6 -12    8.51    5.04
  -9   6  11    2.33    1.25
   9  -6 -11    5.10    2.03
   9  -6 -11   -1.50    2.93
  -9   6  10    0.37    0.89
   9  -6 -10    1.74    0.76
   9  -6  -9    1.14    3.24
   9  -6  -9    0.41    1.08
  -9   6   9    1.09    0.86
  -9   6   9   -0.21    0.83
   9  -6  -8    4.88    2.01
   9  -6  -8    0.76    1.37
  -9   6   8    1.46    0.73
  -9   6   8    0.54    0.51
   9  -6  -7   55.41   10.94
  -9   6   7   68.56    5.80
  -9   6   7   59.66    5.05
   9  -6  -7   58.70    6.27
   9  -6  -6    0.76    0.79
  -9   6   6    2.68    1.11
   9  -6  -5   19.58    3.40
  -9   6   5   15.17    2.73
   9  -6  -4    1.54    1.08
  -9   6   4    2.06    1.00
   9  -6  -3    1.29    0.96
  -9   6   3    2.67    1.22
   9  -6  -2    7.79    2.29
  -9   6   2    5.79    1.74
   9  -6  -1    2.82    1.36
  -9   6   1    0.70    0.66
  -9   6   0   37.96    4.36
   9  -6   0   38.45    4.42
   9  -6   1    1.16    0.92
  -9   6  -1   -0.42    0.71
   9  -6   2    4.57    1.51
  -9   6  -2    3.14    1.32
   9  -6   3    1.59    0.85
  -9   6  -3    2.32    1.17
  -9   6  -4    2.95    1.46
   9  -6   4    0.98    1.22
  -9   6  -5    6.42    1.91
   9  -6   5    8.41    2.67
   9  -6   6    2.65    1.72
   9  -6   7    7.75    2.20
   9  -6   7   12.31    3.15
  -9   5  13    0.38    0.74
   9  -5 -12   -3.67    5.28
  -9   5  12   -0.29    0.56
   9  -5 -11    4.50    4.30
  -9   5  11    2.66    1.24
   9  -5 -10    7.96    5.29
  -9   5  10   14.98    2.62
   9  -5  -9    2.96    1.09
   9  -5  -9    7.69    5.05
  -9   5   9    4.53    1.40
  -9   5   9    3.67    1.64
  -9   5   8   16.96    2.64
   9  -5  -8   17.87    3.42
   9  -5  -8   14.62    6.04
  -9   5   8   17.84    2.75
  -9   5   8   16.40    3.31
  -9   5   7   56.90    5.28
   9  -5  -7   47.79   10.13
   9  -5  -7   58.07    6.12
   9  -5  -6    5.93    1.90
   9  -5  -6   12.97    5.17
  -9   5   6    4.89    1.56
   9  -5  -5    6.91    2.19
   9  -5  -5    6.75    4.25
  -9   5   5    2.78    0.88
   9  -5  -4    1.52    1.30
  -9   5   4    0.28    0.85
   9  -5  -3    7.74    2.31
  -9   5   3    4.16    1.55
   9  -5  -2    7.36    2.02
  -9   5   2    9.42    2.16
   9  -5  -1    4.70    1.61
  -9   5   1    5.00    1.38
   9  -5   0    6.47    1.78
  -9   5   0    5.30    1.51
  -9   5  -1    1.92    1.27
   9  -5   1    1.04    0.85
  -9   5  -1    0.17    0.49
  -9   5  -2   -0.67    0.82
   9  -5   2   -0.21    0.50
  -9   5  -2   -0.72    0.94
   9  -5   2    1.92    1.69
  -9   5  -3   -0.48    0.54
  -9   5  -3    0.76    0.73
   9  -5   3   -1.11    1.00
  -9   5  -4   -1.69    1.10
  -9   5  -4   -0.36    0.90
   9  -5   4   -0.72    0.85
  -9   5  -5    5.34    1.57
  -9   5  -5   11.08    2.42
   9  -5   5    9.25    2.85
   9  -5   6    5.87    1.90
   9  -5   6    8.42    2.50
   9  -5   7   15.00    3.10
   9  -5   7   15.25    3.51
   9  -5   8    0.37    0.69
   9  -4 -13    9.73    5.04
  -9   4  13    3.07    1.47
   9  -4 -12    3.24    4.39
  -9   4  12    0.32    0.72
   9  -4 -11    8.38    4.40
  -9   4  11    3.01    1.19
  -9   4  11    1.68    1.00
   9  -4 -10   58.03   12.42
  -9   4  10   58.53    5.16
  -9   4  10   53.63    5.92
   9  -4  -9    1.14    3.48
  -9   4   9    7.90    1.78
  -9   4   9    8.92    2.39
   9  -4  -8   24.31    8.17
  -9   4   8   15.38    3.17
  -9   4   7    1.18    0.84
  -9   4   7   -0.94    1.30
  -9   4   6    3.76    1.29
   9  -4  -6    3.44    3.38
  -9   4   6    4.64    1.98
  -9   4   5    0.34    0.85
   9  -4  -5   -4.14    3.42
   9  -4  -4    2.99    1.38
  -9   4   4    3.00    1.20
   9  -4  -4   -3.12    1.81
   9  -4  -3    8.42    2.14
  -9   4   3    7.70    1.90
   9  -4  -2    1.64    1.04
  -9   4   2    2.05    0.97
   9  -4  -1    0.73    0.99
  -9   4   1    1.38    0.82
   9  -4  -1    4.56    1.90
  -9   4   0    0.92    1.30
   9  -4   0   -0.96    0.77
  -9   4   0   -0.31    0.77
   9  -4   0   -0.82    1.37
  -9   4  -1    5.98    1.96
   9  -4   1    5.18    1.64
  -9   4  -1    5.95    1.71
   9  -4   1    5.60    2.30
  -9   4  -2    3.63    1.42
  -9   4  -2    2.89    1.44
   9  -4   2    6.84    2.25
  -9   4  -3    4.20    1.57
  -9   4  -3    4.66    1.60
   9  -4   3    6.78    2.39
  -9   4  -4   -0.14    0.60
  -9   4  -4   -0.03    0.98
   9  -4   4   -1.56    1.44
  -9   4  -5    5.99    1.76
   9  -4   5    5.28    1.99
  -9   4  -6   -0.81    0.84
   9  -4   6    1.24    0.89
   9  -4   6    2.36    1.79
  -9   4  -7    1.01    0.78
   9  -4   7    2.14    1.46
   9  -4   7   -0.63    0.79
   9  -4   8    3.75    1.84
  -9   3  14   -0.44    0.52
   9  -3 -13    5.70    5.45
  -9   3  13    2.56    1.39
  -9   3  13    2.33    1.33
  -9   3  12    3.62    1.35
  -9   3  12    2.68    1.38
  -9   3  11   -1.22    0.92
  -9   3  11   -0.23    0.72
   9  -3 -10    0.40    4.46
  -9   3  10   -0.47    0.93
   9  -3  -9    3.10    2.97
  -9   3   9    0.62    1.02
   9  -3  -8    2.45    4.16
  -9   3   8    0.87    0.84
   9  -3  -7    8.06    4.80
  -9   3   7    2.68    1.10
  -9   3   6    5.61    1.61
  -9   3   6    5.66    2.11
  -9   3   5    2.21    0.88
   9  -3  -5    5.43    4.62
  -9   3   5    1.93    1.31
  -9   3   4    1.19    0.69
   9  -3  -4    3.43    1.89
  -9   3   3    1.50    0.84
   9  -3  -3    0.91    2.48
   9  -3  -3    2.81    1.55
  -9   3   2   -1.14    1.16
  -9   3   2    1.23    0.90
   9  -3  -2    0.06    0.95
  -9   3   1   -0.04    1.11
   9  -3  -1   -0.22    0.61
  -9   3   1    0.70    1.05
   9  -3  -1   -0.37    0.90
  -9   3   0    3.34    1.37
   9  -3   0    0.64    0.57
  -9   3   0    1.37    0.88
   9  -3   0    0.01    0.76
  -9   3  -1    3.42    1.49
   9  -3   1    1.05    0.57
  -9   3  -1    1.50    0.85
   9  -3   1   -0.56    0.95
  -9   3  -2    1.46    0.88
   9  -3   2    0.44    1.00
  -9   3  -3    8.96    2.23
   9  -3   3   12.12    2.81
  -9   3  -4    0.57    0.76
   9  -3   4    0.80    1.08
  -9   3  -5    6.26    1.83
   9  -3   5    3.61    1.92
  -9   3  -6   -0.69    0.94
   9  -3   6    0.30    0.64
  -9   3  -7    0.54    1.28
   9  -3   7    1.14    1.01
   9  -3   7    0.70    1.35
  -9   3  -8    0.54    0.75
   9  -3   8    3.06    1.48
  -9   2  14    2.14    1.40
  -9   2  14   -0.59    0.97
   9  -2 -13    1.62    3.00
  -9   2  13    0.87    0.90
  -9   2  13    0.11    0.89
   9  -2 -12   -1.14    4.87
  -9   2  12    6.11    1.68
  -9   2  12    7.46    2.13
   9  -2 -11   -6.15    5.49
  -9   2  11    0.35    0.65
   9  -2 -10   15.00    4.96
  -9   2  10   29.29    4.41
   9  -2  -9   -0.30    3.80
   9  -2  -9    1.63    0.89
  -9   2   9   -0.10    1.13
   9  -2  -8    0.09    4.04
   9  -2  -8    2.92    1.57
  -9   2   8    1.03    1.05
   9  -2  -7    1.79    4.89
   9  -2  -7   -1.41    1.18
  -9   2   7   -0.82    1.35
   9  -2  -6    1.20    2.62
   9  -2  -6    7.84    2.56
  -9   2   6    3.28    1.57
   9  -2  -5    0.93    2.57
   9  -2  -5    0.37    0.69
  -9   2   5    1.42    1.73
  -9   2   4    3.72    1.30
   9  -2  -4    2.80    2.89
   9  -2  -4    2.00    1.06
  -9   2   4    2.32    1.45
  -9   2   3    7.64    2.12
  -9   2   3    4.45    1.54
   9  -2  -3    4.62    4.71
   9  -2  -3    5.65    2.00
  -9   2   2    0.77    1.00
  -9   2   2    2.21    1.30
   9  -2  -2   -0.47    0.83
  -9   2   1    0.35    0.73
   9  -2  -1   -0.05    1.03
  -9   2   0   -0.10    1.04
   9  -2   0    0.53    0.75
   9  -2   0   -1.26    0.74
  -9   2  -1    6.57    1.86
   9  -2   1    9.57    2.58
  -9   2  -2    0.63    1.09
   9  -2   2    2.81    1.58
  -9   2  -3    5.89    2.18
   9  -2   3    7.27    2.41
  -9   2  -4    7.38    2.28
   9  -2   4    3.12    1.52
  -9   2  -5    3.02    1.38
   9  -2   5    1.74    1.27
   9  -2   5    3.04    1.80
  -9   2  -6    0.81    0.85
   9  -2   6   -1.44    1.22
   9  -2   6    0.41    0.85
   9  -2   7   -1.50    1.15
  -9   1  14    1.93    1.02
  -9   1  13    0.24    1.15
   9  -1 -12   20.77    8.36
  -9   1  12   14.75    3.13
   9  -1 -11    2.83    4.04
  -9   1  11    1.32    1.05
   9  -1 -10   -4.82    4.86
  -9   1  10    1.13    0.95
   9  -1  -9    9.67    5.38
   9  -1  -9   12.43    2.83
  -9   1   9    9.52    2.57
   9  -1  -8   34.90    9.76
   9  -1  -8   39.95    5.28
  -9   1   8   41.40    5.22
   9  -1  -7    1.92    3.61
  -9   1   7    4.63    2.65
   9  -1  -7    5.65    2.07
  -9   1   7    8.16    2.36
   9  -1  -6    2.49    4.05
  -9   1   6    1.47    2.12
   9  -1  -6   -0.97    1.08
  -9   1   6   -0.27    0.68
   9  -1  -5   -1.82    4.56
  -9   1   5    0.96    1.90
   9  -1  -5    1.67    1.30
  -9   1   5    2.36    1.61
   9  -1  -4   -3.12    3.03
  -9   1   4    4.61    2.03
   9  -1  -4    0.23    0.87
  -9   1   4    1.77    1.60
  -9   1   3   12.85    2.74
   9  -1  -3   12.58    5.12
  -9   1   3   18.24    5.45
   9  -1  -3   10.01    2.67
  -9   1   3    6.06    2.55
  -9   1   2    1.81    1.28
  -9   1   2    1.38    1.71
   9  -1  -2    1.49    1.17
  -9   1   1    2.68    1.01
  -9   1   1    5.24    3.00
   9  -1  -1    2.41    1.49
  -9   1   0   10.11    2.66
  -9   1   0    9.39    4.47
   9  -1   0    7.61    2.48
  -9   1  -1    4.92    1.83
  -9   1  -1    5.41    3.04
   9  -1   1    7.44    2.00
   9  -1   1    6.42    2.22
  -9   1  -2    1.22    1.02
  -9   1  -2    4.58    4.09
   9  -1   2    1.10    0.80
   9  -1   2    5.88    2.27
  -9   1  -3   -2.17    1.34
  -9   1  -3   -0.52    1.73
   9  -1   3   -1.15    1.09
   9  -1   3    1.99    1.25
  -9   1  -4    2.75    1.56
  -9   1  -4    3.45    3.89
   9  -1   4    1.67    0.91
   9  -1   4    4.39    1.95
  -9   1  -5   -0.05    0.94
   9  -1   5   -2.31    1.43
   9  -1   6    2.66    1.73
  -9   0  12   -0.50    1.30
   9   0 -11   -5.11    6.36
  -9   0  11    2.50    1.41
   9   0 -10   -2.68    3.02
  -9   0  10    9.53    2.48
   9   0  -9   19.28    6.56
  -9   0   9   24.15    4.03
   9   0  -8   29.39    9.25
   9   0  -8   30.82    4.55
  -9   0   8   30.58    4.66
   9   0  -7   -1.61    3.54
  -9   0   7    2.39    3.03
   9   0  -7    0.87    1.32
  -9   0   7    1.51    1.80
   9   0  -6    1.87    2.60
  -9   0   6    5.84    3.79
   9   0  -6    1.49    1.10
  -9   0   6    2.21    1.04
  -9   0   5   -0.57    1.87
   9   0  -5    0.21    0.75
  -9   0   5    1.31    1.35
  -9   0   4    6.81    1.87
  -9   0   4    7.10    3.51
   9   0  -4    5.73    1.93
  -9   0   4    3.25    1.34
  -9   0   3    9.03    2.43
  -9   0   3    0.67    2.64
   9   0  -3   10.80    2.79
  -9   0   3    7.32    2.59
  -9   0   2    1.59    0.81
  -9   0   2    2.53    2.19
   9   0  -2    4.39    1.75
   9   0  -2    5.73    2.41
  -9   0   2    0.07    0.99
  -9   0   1   14.19    2.97
  -9   0   1   14.15    4.97
   9   0  -1    9.09    2.24
   9   0  -1    9.13    2.76
  -9   0   0   13.99    3.06
  -9   0   0    4.37    2.06
   9   0   0   14.03    2.91
   9   0   0   15.62    3.30
  -9   0  -1    0.97    0.93
  -9   0  -1   -3.84    3.23
   9   0   1   -1.54    1.31
   9   0   1   -2.17    1.85
  -9   0  -2    2.15    1.53
  -9   0  -2    3.84    3.56
   9   0   2    3.82    1.42
  -9   0  -3   -0.87    1.56
  -9   0  -3   -1.04    2.84
   9   0   3    1.05    1.04
  -9   0  -4    0.92    0.89
  -9   0  -4    1.34    2.17
   9   0   4   -0.78    1.46
   9   0   5    3.93    1.50
   9   1 -10    5.25    4.61
  -9  -1  10    4.71    1.88
   9   1  -9    2.45    3.03
  -9  -1   9   -0.64    1.60
   9   1  -8    7.00    6.10
  -9  -1   8    3.93    1.53
   9   1  -7   38.98   10.72
  -9  -1   7   50.72    8.59
   9   1  -7   47.82    5.80
  -9  -1   7   50.27    6.00
  -9  -1   6    2.02    2.51
   9   1  -6   -0.42    0.68
  -9  -1   6    0.16    0.99
  -9  -1   5    6.08    3.74
  -9  -1   5    4.24    1.84
  -9  -1   4    1.24    0.97
  -9  -1   4    1.32    1.69
   9   1  -4    0.83    0.83
  -9  -1   4    2.56    1.69
  -9  -1   3    4.29    1.53
  -9  -1   3    6.39    3.94
   9   1  -3    2.97    1.01
  -9  -1   3    2.81    1.55
  -9  -1   2   11.02    2.72
  -9  -1   2    4.72    3.26
   9   1  -2    9.41    2.32
  -9  -1   2   10.52    3.00
  -9  -1   1   -0.46    0.99
  -9  -1   1    2.18    2.08
   9   1  -1    0.82    1.11
  -9  -1   0   10.09    2.67
  -9  -1   0   10.62    4.94
   9   1   0   11.64    2.79
  -9  -1  -1    1.09    0.84
  -9  -1  -1    0.39    1.80
   9   1   1   -0.03    0.68
  -9  -1  -2    0.81    1.35
  -9  -1  -2    6.10    3.59
   9   1   2    1.11    1.05
   9   1   3    0.35    1.04
   9   2  -7   32.02    4.50
  -9  -2   7   37.58    8.11
  -9  -2   7   29.73    4.74
   9   2  -6    4.92    1.74
  -9  -2   6    2.34    1.50
  -9  -2   6    5.30    1.99
  -9  -2   5    0.60    0.79
   9   2  -5    1.30    1.21
  -9  -2   5   -0.50    0.89
  -9  -2   4    2.10    1.63
  -9  -2   4   -1.66    2.86
   9   2  -4    0.24    0.70
  -9  -2   4    1.52    1.29
  -9  -2   3    0.48    0.85
  -9  -2   3    3.66    3.31
   9   2  -3    2.47    1.00
  -9  -2   3    3.79    2.23
  -9  -2   2   -0.56    0.96
  -9  -2   2    0.37    1.95
   9   2  -2   -0.07    0.91
  -9  -2   2    1.17    1.30
  -9  -2   1    1.53    0.89
  -9  -2   1    0.91    2.94
   9   2  -1    0.48    0.79
   9   2   0   -0.36    0.97
   9   2   1    1.86    1.65
   9   3  -8    1.92    1.28
   9   3  -7    0.44    0.59
  -9  -3   7    4.12    2.61
   9   3  -6    6.65    2.05
  -9  -3   6    2.45    3.16
   9   3  -5   -0.28    0.89
   9   3  -4    1.92    1.57
   9   3  -3    1.05    1.37
 -10   7   8    0.26    0.48
 -10   7   7    5.05    1.61
 -10   7   6   63.66    6.02
 -10   7   5   12.84    2.65
  10  -7  -4   -0.07    0.79
 -10   7   4    1.00    0.82
  10  -7  -3   -0.40    1.02
 -10   7   3   -0.47    0.69
  10  -7  -2    0.47    0.94
 -10   7   2    0.10    0.72
  10  -7  -1    1.78    1.27
 -10   7   1    2.07    1.18
  10  -7   0    4.59    1.71
  10  -7   1    2.31    1.34
  10  -7   2    0.39    0.54
  10  -6 -10   -2.69    2.95
  10  -6  -9   -4.10    3.35
 -10   6   7   53.19    5.35
  10  -6  -6    1.13    1.00
 -10   6   6    0.90    0.81
  10  -6  -5   -0.04    0.84
 -10   6   5    1.79    1.11
  10  -6  -4   -0.56    1.00
 -10   6   4   -0.93    0.90
  10  -6  -3   -0.33    0.92
 -10   6   3   -1.13    1.27
  10  -6  -2    5.47    1.74
 -10   6   2    6.37    1.94
  10  -6  -1    0.79    0.84
 -10   6   1    2.00    1.38
  10  -6   0    9.91    2.36
 -10   6   0   13.11    2.74
  10  -6   1    4.31    1.40
 -10   6  -1    2.99    1.50
  10  -5 -10   -2.75    3.35
  10  -5  -9    7.66    2.47
  10  -5  -8    9.30    2.73
  10  -5  -8    3.51    3.13
  10  -5  -7   20.10    3.72
  10  -5  -6    1.20    1.43
 -10   5   6    1.70    0.96
  10  -5  -5    0.30    1.01
 -10   5   5    0.58    0.56
  10  -5  -4    3.30    1.37
 -10   5   4    2.18    1.34
  10  -5  -3    1.99    1.25
 -10   5   3    0.53    0.56
  10  -5  -2    2.77    1.48
 -10   5   2    2.38    1.10
  10  -5  -1   -0.04    0.90
 -10   5   1    0.03    0.91
  10  -5  -1    1.14    1.10
  10  -5   0    0.12    0.56
 -10   5   0    0.70    0.76
  10  -5   0    2.28    1.86
 -10   5  -1    2.01    1.19
  10  -5   1    1.50    1.65
 -10   5  -2   -0.41    1.14
 -10   5  -2    1.15    0.76
 -10   5  -3    1.69    0.99
 -10   5  -4   -0.07    0.53
 -10   4  11    8.30    2.77
  10  -4 -10   -0.48    4.13
 -10   4  10    0.43    0.98
  10  -4  -9    5.19    4.96
 -10   4   9   -0.01    1.00
  10  -4  -8   -1.15    2.30
 -10   4   8    1.69    1.47
  10  -4  -7    1.40    2.28
  10  -4  -5    0.43    0.67
 -10   4   5    0.29    0.66
  10  -4  -5    1.25    1.07
  10  -4  -4    9.62    2.62
 -10   4   4    7.84    2.04
  10  -4  -4   12.58    3.54
  10  -4  -3    4.84    1.69
 -10   4   3    5.26    1.69
  10  -4  -3    6.73    2.46
  10  -4  -2    0.66    1.09
 -10   4   2    1.25    1.06
  10  -4  -2   -0.33    1.12
  10  -4  -1    3.20    1.39
 -10   4   1    4.23    1.62
  10  -4  -1    1.71    1.42
 -10   4   0   -0.05    0.66
 -10   4   0    1.09    1.01
  10  -4   0    0.11    0.82
 -10   4  -1   -1.41    1.04
 -10   4  -1   -2.13    1.40
  10  -4   1   -0.94    0.66
 -10   4  -2    1.90    1.46
  10  -4   2    0.37    0.74
 -10   4  -3   37.56    4.66
 -10   4  -4    0.78    0.86
 -10   3  11    1.84    1.32
  10  -3 -10    1.05    3.51
 -10   3  10    0.02    0.82
  10  -3  -9   10.28    6.24
  10  -3  -9    7.62    2.57
 -10   3   9    7.82    2.58
  10  -3  -8    1.85    3.64
  10  -3  -8   -1.01    1.43
 -10   3   8    1.32    1.54
  10  -3  -7    1.00    0.96
 -10   3   7    0.09    1.35
  10  -3  -6    3.77    5.06
  10  -3  -6    2.47    1.35
 -10   3   6    1.95    1.08
  10  -3  -5   -0.71    3.41
  10  -3  -5    0.69    1.38
  10  -3  -4   40.23    5.60
  10  -3  -3    0.04    0.67
 -10   3   3    2.30    1.27
  10  -3  -3    1.06    1.12
  10  -3  -2    0.71    0.72
 -10   3   2   -0.86    0.73
 -10   3   1    1.78    0.98
  10  -3  -1    1.55    0.80
  10  -3  -1    1.55    1.19
 -10   3   0    0.65    0.92
  10  -3   0   -0.02    0.85
 -10   3  -1   12.54    2.82
  10  -3   1   12.81    3.34
 -10   3  -2   10.24    2.49
 -10   3  -3  155.78   10.45
  10  -2 -10   -1.60    3.90
  10  -2  -9   -0.79    3.89
  10  -2  -9    6.82    2.57
 -10   2   9    8.97    2.64
  10  -2  -8    3.31    3.40
  10  -2  -8    2.05    1.68
 -10   2   8    1.36    1.26
  10  -2  -7    0.86    4.09
  10  -2  -7    3.05    1.84
 -10   2   7   -0.05    1.14
  10  -2  -6    3.16    3.48
  10  -2  -6    1.31    1.23
 -10   2   6    0.84    0.91
  10  -2  -5   -0.06    2.66
  10  -2  -5    1.08    1.71
 -10   2   5    1.85    1.67
  10  -2  -4   18.75    6.30
  10  -2  -4   20.86    4.24
  10  -2  -3    2.89    1.90
 -10   2   2    0.18    0.97
  10  -2  -2    2.05    1.57
 -10   2   1   -0.63    0.81
  10  -2  -1    1.19    1.63
 -10   2   0   -0.95    1.13
  10  -2   0    1.77    1.63
 -10   2  -1   29.79    4.45
  10  -1  -9   23.27    9.52
  10  -1  -8    6.30    5.28
  10  -1  -8    9.71    2.70
  10  -1  -7    0.49    3.57
  10  -1  -7    2.19    1.61
 -10   1   7    6.40    2.32
  10  -1  -6   -0.51    2.59
  10  -1  -6    3.19    2.25
 -10   1   6    3.16    1.82
  10  -1  -5   -2.97    2.54
  10  -1  -5    0.19    1.03
 -10   1   5   -0.03    1.54
  10  -1  -4   -3.67    5.10
 -10   1   4    1.09    1.98
  10  -1  -4    3.28    2.00
 -10   1   4   -1.87    1.37
 -10   1   3   -0.60    1.31
  10  -1  -3   -3.31    2.54
 -10   1   3   -1.23    2.52
  10  -1  -3    1.49    1.69
 -10   1   2    3.20    1.61
 -10   1   2    2.42    2.87
  10  -1  -2    2.61    1.70
 -10   1   1   -1.94    2.06
  10  -1  -1    2.02    1.28
  10   0  -7   10.98    5.77
  10   0  -7    8.53    2.67
  10   0  -6    2.50    3.81
 -10   0   6    3.70    3.41
  10   0  -6    1.81    1.19
  10   0  -5    0.94    2.73
 -10   0   5    4.55    3.26
  10   0  -5    1.54    1.00
  10   0  -4    4.27    4.12
 -10   0   4    2.97    2.48
  10   0  -4    3.50    2.00
 -10   0   3    7.38    3.86
  10   0  -3    3.98    1.96
   0   0   0    0.00    0.00
TITL O101 in P-1
REM P-1 (#2 in standard setting)
CELL 0.71073   7.307463   8.260469  13.819636  92.7342 100.6075 108.9890
ZERR    2.00   0.000617   0.000430   0.000920   0.0049   0.0063   0.0061
LATT  1
SFAC C H N O Br
UNIT 38.00 34.00 4.00 4.00 2.00
TREF
HKLF 4
END
_computing_structure_solution     'SHELXT 2014/5 (Sheldrick, 2014)'
;
_shelx_hkl_checksum              92029
_shelx_res_file
;
    o101.res created by SHELXL-2014/7
TITL o101_a.res in P-1
REM Old TITL O101 in P-1 #2
REM SHELXT solution in P-1
REM R1 0.133, Rweak 0.012, Alpha 0.036, Orientation as input
REM Formula found by SHELXT: C20 N2 O2
CELL 0.71073 7.307463 8.260469 13.819636 92.7342 100.6075 108.989
ZERR 2 0.000617 0.00043 0.00092 0.0049 0.0063 0.0061
LATT 1
SFAC C H N O
UNIT 40 28 4 4
L.S. 20
PLAN  20
BOND $H
MORE -1
CONF
fmap 2
acta 52
OMIT 6 -3 3
OMIT 7 0 0
OMIT 6 0 0
REM <olex2.extras>
REM <HklSrc "%.\\O101.hkl">
REM </olex2.extras>
WGHT    0.057700    0.282000
FVAR       0.60621
O2    4    0.818534    0.816393    0.582410    11.00000    0.04588    0.02181 =
         0.02315    0.00155    0.01141    0.01131
O1    4    0.693001    0.800009    1.007698    11.00000    0.04398    0.03394 =
         0.02112   -0.00354    0.01260    0.00560
N1    3    0.731258    0.527509    0.599539    11.00000    0.02563    0.01886 =
         0.01619    0.00023    0.00568    0.00632
AFIX  43
H1    2    0.713172    0.429609    0.567754    11.00000   -1.20000
AFIX   0
N2    3    0.769167    0.459561    0.415161    11.00000    0.01975    0.02152 =
         0.01873    0.00008    0.00432    0.00540
C11   1    0.786581    0.666915    0.549293    11.00000    0.02381    0.02266 =
         0.01669    0.00123    0.00415    0.00790
C16   1    0.783750    0.419138    0.320200    11.00000    0.01803    0.02402 =
         0.01805   -0.00137    0.00337    0.00598
C8    1    0.633994    0.494936    0.889644    11.00000    0.02252    0.02788 =
         0.01729    0.00345    0.00623    0.00771
AFIX  43
H8    2    0.611699    0.485865    0.953607    11.00000   -1.20000
AFIX   0
C3    1    0.694380    0.656605    0.855629    11.00000    0.01885    0.02362 =
         0.01606   -0.00110    0.00320    0.00636
C9    1    0.624233    0.208161    0.669806    11.00000    0.02337    0.02516 =
         0.02245    0.00702    0.00714    0.00723
C4    1    0.725654    0.670546    0.759116    11.00000    0.02068    0.02109 =
         0.01728    0.00125    0.00392    0.00553
AFIX  43
H4    2    0.763685    0.778225    0.736395    11.00000   -1.20000
AFIX   0
C6    1    0.642095    0.360391    0.731901    11.00000    0.01946    0.02144 =
         0.01856    0.00155    0.00414    0.00614
C5    1    0.699949    0.523158    0.696649    11.00000    0.01815    0.02313 =
         0.01583    0.00257    0.00468    0.00671
C15   1    0.834908    0.547109    0.255164    11.00000    0.01921    0.03084 =
         0.01644    0.00144    0.00305    0.00716
C12   1    0.806295    0.623242    0.445356    11.00000    0.02007    0.02167 =
         0.01649    0.00061    0.00360    0.00577
C2    1    0.725891    0.813393    0.924273    11.00000    0.02410    0.02726 =
         0.01835   -0.00218    0.00270    0.00834
C13   1    0.861254    0.759939    0.387043    11.00000    0.02796    0.02088 =
         0.01957    0.00158    0.00454    0.00573
AFIX  43
H13   2    0.888053    0.873391    0.412601    11.00000   -1.20000
AFIX   0
C7    1    0.607442    0.348724    0.828313    11.00000    0.02382    0.02252 =
         0.02192    0.00440    0.00708    0.00656
AFIX  43
H7    2    0.566146    0.241321    0.851111    11.00000   -1.20000
AFIX   0
C17   1    0.745652    0.243912    0.286049    11.00000    0.02500    0.02471 =
         0.02783   -0.00228    0.00608    0.00678
AFIX  43
H17   2    0.713829    0.159279    0.328191    11.00000   -1.20000
AFIX   0
C10   1    0.622408    0.088462    0.619677    11.00000    0.03576    0.02756 =
         0.02720    0.00196    0.00652    0.00983
AFIX 163
H10   2    0.620963   -0.006286    0.579998    11.00000   -1.20000
AFIX   0
C14   1    0.873812    0.720101    0.291724    11.00000    0.02664    0.02662 =
         0.02024    0.00625    0.00657    0.00593
AFIX  43
H14   2    0.907933    0.806923    0.251122    11.00000   -1.20000
AFIX   0
C20   1    0.844456    0.496399    0.157140    11.00000    0.02558    0.04183 =
         0.01771    0.00197    0.00485    0.01189
AFIX  43
H20   2    0.877648    0.579041    0.113985    11.00000   -1.20000
AFIX   0
C18   1    0.755978    0.200019    0.190694    11.00000    0.02850    0.03174 =
         0.03019   -0.00899    0.00385    0.01029
AFIX  43
H18   2    0.730229    0.085137    0.168487    11.00000   -1.20000
AFIX   0
C19   1    0.805108    0.326714    0.125864    11.00000    0.02952    0.04534 =
         0.01975   -0.00593    0.00374    0.01521
AFIX  43
H19   2    0.810767    0.294545    0.061367    11.00000   -1.20000
AFIX   0
C1    1    0.805203    0.987526    0.890001    11.00000    0.04831    0.02410 =
         0.02229   -0.00230    0.00438    0.01072
AFIX 137
H1A   2    0.808034    1.074831    0.939226    11.00000   -1.50000
H1B   2    0.721423    0.992560    0.828779    11.00000   -1.50000
H1C   2    0.936882    1.006563    0.880077    11.00000   -1.50000
AFIX   0
HKLF 4
REM  o101_a.res in P-1
REM R1 =  0.0558 for    3687 Fo > 4sig(Fo)  and  0.0802 for all    5173 data
REM    218 parameters refined using      0 restraints
END
WGHT      0.0577      0.2820
REM Highest difference peak  0.419,  deepest hole -0.258,  1-sigma level  0.053
Q1    1   0.8093  0.4832  0.2849  11.00000  0.05    0.42
Q2    1   0.8453  0.6855  0.4122  11.00000  0.05    0.39
Q3    1   0.5871  0.1569  0.6238  11.00000  0.05    0.39
Q4    1   0.7907  0.6444  0.4951  11.00000  0.05    0.37
Q5    1   0.8380  0.5152  0.2075  11.00000  0.05    0.33
Q6    1   0.7658  0.4429  0.3632  11.00000  0.05    0.32
Q7    1   0.6330  0.3551  0.7812  11.00000  0.05    0.32
Q8    1   0.7920  0.2802  0.1649  11.00000  0.05    0.31
Q9    1   0.6707  0.4411  0.7142  11.00000  0.05    0.31
Q10   1   0.7204  0.7358  0.8906  11.00000  0.05    0.30
Q11   1   0.6408  0.5813  0.8720  11.00000  0.05    0.30
Q12   1   0.7050  0.6356  0.8119  11.00000  0.05    0.29
Q13   1   0.8722  0.7248  0.3409  11.00000  0.05    0.28
Q14   1   0.7502  0.5943  0.5806  11.00000  0.05    0.28
Q15   1   0.7701  0.2192  0.2448  11.00000  0.05    0.27
Q16   1   0.7214  0.5411  0.6473  11.00000  0.05    0.27
Q17   1   0.7835  0.8883  0.9041  11.00000  0.05    0.25
Q18   1   0.8553  0.6256  0.2840  11.00000  0.05    0.24
Q19   1   0.7150  0.5952  0.7293  11.00000  0.05    0.24
Q20   1   0.8664  0.4141  0.1621  11.00000  0.05    0.24
;
_shelx_res_checksum              21055
loop_
_space_group_symop_operation_xyz
'x, y, z'
'-x, -y, -z'
loop_
_atom_site_type_symbol
_atom_site_label
_atom_site_fract_x
_atom_site_fract_y
_atom_site_fract_z
_atom_site_U_iso_or_equiv
_atom_site_adp_type
_atom_site_calc_flag
_atom_site_occupancy
O O2 0.81853(17) 0.81639(13) 0.58241(8) 0.0298(3) Uani d 1
O O1 0.69300(18) 0.80001(15) 1.00770(8) 0.0344(3) Uani d 1
N N1 0.73126(17) 0.52751(15) 0.59954(8) 0.0204(2) Uani d 1
H H1 0.7132 0.4296 0.5678 0.025 Uiso calc 1
N N2 0.76917(16) 0.45956(15) 0.41516(8) 0.0204(2) Uani d 1
C C11 0.7866(2) 0.66691(18) 0.54929(10) 0.0211(3) Uani d 1
C C16 0.78375(19) 0.41914(18) 0.32020(10) 0.0205(3) Uani d 1
C C8 0.6340(2) 0.49494(18) 0.88964(10) 0.0225(3) Uani d 1
H H8 0.6117 0.4859 0.9536 0.027 Uiso calc 1
C C3 0.69438(19) 0.65661(18) 0.85563(9) 0.0199(3) Uani d 1
C C9 0.6242(2) 0.20816(18) 0.66981(10) 0.0235(3) Uani d 1
C C4 0.72565(19) 0.67055(17) 0.75912(9) 0.0201(3) Uani d 1
H H4 0.7637 0.7782 0.7364 0.024 Uiso calc 1
C C6 0.64210(19) 0.36039(17) 0.73190(9) 0.0200(3) Uani d 1
C C5 0.69995(19) 0.52316(17) 0.69665(9) 0.0190(3) Uani d 1
C C15 0.8349(2) 0.54711(19) 0.25516(10) 0.0226(3) Uani d 1
C C12 0.80629(19) 0.62324(17) 0.44536(9) 0.0198(3) Uani d 1
C C2 0.7259(2) 0.81339(19) 0.92427(10) 0.0238(3) Uani d 1
C C13 0.8613(2) 0.75994(18) 0.38704(10) 0.0235(3) Uani d 1
H H13 0.8881 0.8734 0.4126 0.028 Uiso calc 1
C C7 0.6074(2) 0.34872(18) 0.82831(10) 0.0227(3) Uani d 1
H H7 0.5661 0.2413 0.8511 0.027 Uiso calc 1
C C17 0.7457(2) 0.24391(19) 0.28605(11) 0.0264(3) Uani d 1
H H17 0.7138 0.1593 0.3282 0.032 Uiso calc 1
C C10 0.6224(2) 0.0885(2) 0.61968(12) 0.0305(3) Uani d 1
H H10 0.6210 -0.0063 0.5800 0.037 Uiso calc 1
C C14 0.8738(2) 0.72010(19) 0.29172(10) 0.0249(3) Uani d 1
H H14 0.9079 0.8069 0.2511 0.030 Uiso calc 1
C C20 0.8445(2) 0.4964(2) 0.15714(10) 0.0283(3) Uani d 1
H H20 0.8776 0.5790 0.1140 0.034 Uiso calc 1
C C18 0.7560(2) 0.2000(2) 0.19069(12) 0.0309(3) Uani d 1
H H18 0.7302 0.0851 0.1685 0.037 Uiso calc 1
C C19 0.8051(2) 0.3267(2) 0.12586(11) 0.0315(3) Uani d 1
H H19 0.8108 0.2945 0.0614 0.038 Uiso calc 1
C C1 0.8052(3) 0.9875(2) 0.89000(11) 0.0326(4) Uani d 1
H H1A 0.8080 1.0748 0.9392 0.049 Uiso calc 1
H H1B 0.7214 0.9926 0.8288 0.049 Uiso calc 1
H H1C 0.9369 1.0066 0.8801 0.049 Uiso calc 1
loop_
_atom_site_aniso_label
_atom_site_aniso_U_11
_atom_site_aniso_U_22
_atom_site_aniso_U_33
_atom_site_aniso_U_12
_atom_site_aniso_U_13
_atom_site_aniso_U_23
O2 0.0459(7) 0.0218(5) 0.0232(5) 0.0113(5) 0.0114(5) 0.0015(4)
O1 0.0440(7) 0.0339(6) 0.0211(5) 0.0056(5) 0.0126(5) -0.0035(4)
N1 0.0256(6) 0.0189(5) 0.0162(5) 0.0063(4) 0.0057(4) 0.0002(4)
N2 0.0197(5) 0.0215(5) 0.0187(5) 0.0054(4) 0.0043(4) 0.0001(4)
C11 0.0238(6) 0.0227(6) 0.0167(6) 0.0079(5) 0.0042(5) 0.0012(5)
C16 0.0180(6) 0.0240(7) 0.0180(6) 0.0060(5) 0.0034(5) -0.0014(5)
C8 0.0225(6) 0.0279(7) 0.0173(6) 0.0077(5) 0.0062(5) 0.0034(5)
C3 0.0189(6) 0.0236(6) 0.0161(5) 0.0064(5) 0.0032(5) -0.0011(5)
C9 0.0234(7) 0.0252(7) 0.0224(6) 0.0072(5) 0.0071(5) 0.0070(5)
C4 0.0207(6) 0.0211(6) 0.0173(6) 0.0055(5) 0.0039(5) 0.0012(5)
C6 0.0195(6) 0.0214(6) 0.0186(6) 0.0061(5) 0.0041(5) 0.0015(5)
C5 0.0182(6) 0.0231(6) 0.0158(5) 0.0067(5) 0.0047(4) 0.0026(5)
C15 0.0192(6) 0.0308(7) 0.0164(6) 0.0072(5) 0.0031(5) 0.0014(5)
C12 0.0201(6) 0.0217(6) 0.0165(5) 0.0058(5) 0.0036(5) 0.0006(5)
C2 0.0241(7) 0.0273(7) 0.0184(6) 0.0083(6) 0.0027(5) -0.0022(5)
C13 0.0280(7) 0.0209(6) 0.0196(6) 0.0057(5) 0.0045(5) 0.0016(5)
C7 0.0238(7) 0.0225(6) 0.0219(6) 0.0066(5) 0.0071(5) 0.0044(5)
C17 0.0250(7) 0.0247(7) 0.0278(7) 0.0068(6) 0.0061(6) -0.0023(5)
C10 0.0358(8) 0.0276(7) 0.0272(7) 0.0098(6) 0.0065(6) 0.0020(6)
C14 0.0266(7) 0.0266(7) 0.0202(6) 0.0059(6) 0.0066(5) 0.0063(5)
C20 0.0256(7) 0.0418(9) 0.0177(6) 0.0119(6) 0.0048(5) 0.0020(6)
C18 0.0285(8) 0.0317(8) 0.0302(8) 0.0103(6) 0.0038(6) -0.0090(6)
C19 0.0295(8) 0.0453(9) 0.0197(6) 0.0152(7) 0.0037(6) -0.0059(6)
C1 0.0483(10) 0.0241(7) 0.0223(7) 0.0107(7) 0.0044(6) -0.0023(6)
loop_
_atom_type_symbol
_atom_type_description
_atom_type_scat_dispersion_real
_atom_type_scat_dispersion_imag
_atom_type_scat_source
C C 0.0033 0.0016 'International Tables Vol C Tables 4.2.6.8 and 6.1.1.4'
H H 0.0000 0.0000 'International Tables Vol C Tables 4.2.6.8 and 6.1.1.4'
N N 0.0061 0.0033 'International Tables Vol C Tables 4.2.6.8 and 6.1.1.4'
O O 0.0106 0.0060 'International Tables Vol C Tables 4.2.6.8 and 6.1.1.4'
loop_
_exptl_crystal_face_index_h
_exptl_crystal_face_index_k
_exptl_crystal_face_index_l
_exptl_crystal_face_perp_dist
0 11 -5 0.0705
0 -11 5 0.0738
-9 -1 2 0.0411
9 1 -2 0.0411
1 -1 -19 0.0246
-1 1 19 0.0246
-10 4 1 0.0706
10 -4 -1 0.0706
0 8 12 0.0445
loop_
_geom_angle_atom_site_label_1
_geom_angle_atom_site_label_2
_geom_angle_atom_site_label_3
_geom_angle
C11 N1 H1 115.9
C11 N1 C5 128.21(12)
C5 N1 H1 115.9
C12 N2 C16 117.64(12)
O2 C11 N1 125.11(12)
O2 C11 C12 121.14(12)
N1 C11 C12 113.75(11)
N2 C16 C15 121.91(12)
N2 C16 C17 118.75(13)
C17 C16 C15 119.33(12)
C3 C8 H8 120.0
C7 C8 H8 120.0
C7 C8 C3 119.98(12)
C8 C3 C4 120.17(12)
C8 C3 C2 118.92(12)
C4 C3 C2 120.92(12)
C10 C9 C6 175.76(16)
C3 C4 H4 119.9
C3 C4 C5 120.21(12)
C5 C4 H4 119.9
C5 C6 C9 119.94(12)
C7 C6 C9 120.52(12)
C7 C6 C5 119.51(12)
N1 C5 C6 117.23(12)
C4 C5 N1 123.36(12)
C4 C5 C6 119.41(12)
C14 C15 C16 117.90(12)
C14 C15 C20 122.96(14)
C20 C15 C16 119.14(13)
N2 C12 C11 117.50(12)
N2 C12 C13 124.71(12)
C13 C12 C11 117.78(12)
O1 C2 C3 120.60(13)
O1 C2 C1 120.68(13)
C3 C2 C1 118.69(12)
C12 C13 H13 121.0
C14 C13 C12 117.90(13)
C14 C13 H13 121.0
C8 C7 C6 120.69(13)
C8 C7 H7 119.7
C6 C7 H7 119.7
C16 C17 H17 120.1
C18 C17 C16 119.78(14)
C18 C17 H17 120.1
C9 C10 H10 180.0
C15 C14 H14 120.0
C13 C14 C15 119.92(13)
C13 C14 H14 120.0
C15 C20 H20 119.8
C19 C20 C15 120.33(15)
C19 C20 H20 119.8
C17 C18 H18 119.5
C17 C18 C19 120.92(14)
C19 C18 H18 119.5
C20 C19 C18 120.49(14)
C20 C19 H19 119.8
C18 C19 H19 119.8
C2 C1 H1A 109.5
C2 C1 H1B 109.5
C2 C1 H1C 109.5
H1A C1 H1B 109.5
H1A C1 H1C 109.5
H1B C1 H1C 109.5
loop_
_geom_bond_atom_site_label_1
_geom_bond_atom_site_label_2
_geom_bond_distance
O2 C11 1.2279(17)
O1 C2 1.2231(17)
N1 H1 0.8600
N1 C11 1.3595(18)
N1 C5 1.4025(16)
N2 C16 1.3704(17)
N2 C12 1.3197(17)
C11 C12 1.5082(18)
C16 C15 1.422(2)
C16 C17 1.421(2)
C8 H8 0.9300
C8 C3 1.397(2)
C8 C7 1.3799(19)
C3 C4 1.3979(18)
C3 C2 1.4962(19)
C9 C6 1.4435(19)
C9 C10 1.175(2)
C4 H4 0.9300
C4 C5 1.3979(18)
C6 C5 1.4115(18)
C6 C7 1.4033(18)
C15 C14 1.411(2)
C15 C20 1.4195(19)
C12 C13 1.4130(19)
C2 C1 1.501(2)
C13 H13 0.9300
C13 C14 1.3692(19)
C7 H7 0.9300
C17 H17 0.9300
C17 C18 1.372(2)
C10 H10 0.9300
C14 H14 0.9300
C20 H20 0.9300
C20 C19 1.367(2)
C18 H18 0.9300
C18 C19 1.411(2)
C19 H19 0.9300
C1 H1A 0.9600
C1 H1B 0.9600
C1 H1C 0.9600
loop_
_geom_hbond_atom_site_label_D
_geom_hbond_atom_site_label_H
_geom_hbond_atom_site_label_A
_geom_hbond_site_symmetry_A
_geom_hbond_distance_DH
_geom_hbond_distance_HA
_geom_hbond_distance_DA
_geom_hbond_angle_DHA
N1 H1 N2 1_555 0.86 2.23 2.666(2) 111
C10 H10 O2 1_545 0.93 2.36 3.103(2) 136
loop_
_geom_torsion_atom_site_label_1
_geom_torsion_atom_site_label_2
_geom_torsion_atom_site_label_3
_geom_torsion_atom_site_label_4
_geom_torsion
O2 C11 C12 N2 -179.91(13)
O2 C11 C12 C13 -0.5(2)
N1 C11 C12 N2 -0.07(18)
N1 C11 C12 C13 179.34(12)
N2 C16 C15 C14 0.9(2)
N2 C16 C15 C20 -179.00(12)
N2 C16 C17 C18 178.87(13)
N2 C12 C13 C14 1.2(2)
C11 N1 C5 C4 -1.0(2)
C11 N1 C5 C6 179.84(13)
C11 C12 C13 C14 -178.19(12)
C16 N2 C12 C11 178.94(11)
C16 N2 C12 C13 -0.4(2)
C16 C15 C14 C13 -0.1(2)
C16 C15 C20 C19 -0.1(2)
C16 C17 C18 C19 0.4(2)
C8 C3 C4 C5 -1.1(2)
C8 C3 C2 O1 -2.4(2)
C8 C3 C2 C1 175.51(13)
C3 C8 C7 C6 0.5(2)
C3 C4 C5 N1 -179.10(12)
C3 C4 C5 C6 0.04(19)
C9 C6 C5 N1 2.14(18)
C9 C6 C5 C4 -177.04(12)
C9 C6 C7 C8 176.73(13)
C4 C3 C2 O1 177.96(13)
C4 C3 C2 C1 -4.1(2)
C5 N1 C11 O2 -0.2(2)
C5 N1 C11 C12 180.00(12)
C5 C6 C7 C8 -1.6(2)
C15 C16 C17 C18 -0.9(2)
C15 C20 C19 C18 -0.5(2)
C12 N2 C16 C15 -0.63(19)
C12 N2 C16 C17 179.63(12)
C12 C13 C14 C15 -0.8(2)
C2 C3 C4 C5 178.53(12)
C7 C8 C3 C4 0.8(2)
C7 C8 C3 C2 -178.82(13)
C7 C6 C5 N1 -179.53(12)
C7 C6 C5 C4 1.28(19)
C17 C16 C15 C14 -179.36(13)
C17 C16 C15 C20 0.7(2)
C17 C18 C19 C20 0.3(2)
C14 C15 C20 C19 -179.97(14)
C20 C15 C14 C13 179.78(13)

_cod_database_fobs_code 2242238
