#------------------------------------------------------------------------------
#$Date: 2018-01-13 08:06:21 +0200 (Sat, 13 Jan 2018) $
#$Revision: 205172 $
#$URL: file:///home/coder/svn-repositories/cod/cif/2/24/23/2242324.cif $
#------------------------------------------------------------------------------
#
# This file is available in the Crystallography Open Database (COD),
# http://www.crystallography.net/. The original data for this entry
# were provided by IUCr Journals, http://journals.iucr.org/.
#
# The file may be used within the scientific community so long as
# proper attribution is given to the journal article from which the
# data were obtained.
#
data_2242324
loop_
_publ_author_name
'Noland, Wayland E.'
'Britton, Doyle'
'Sutton, Gregory K.'
'Schneerer, Andrew K.'
'Tritch, Kenneth J.'
_publ_section_title
;
 Crystal structures of 2,4,6-triiodobenzonitrile and 2,4,6-triiodophenyl
 isocyanide
;
_journal_issue                   2
_journal_name_full               'Acta Crystallographica Section E'
_journal_page_first              98
_journal_page_last               102
_journal_paper_doi               10.1107/S2056989017018217
_journal_volume                  74
_journal_year                    2018
_chemical_formula_iupac          'C7 H2 I3 N'
_chemical_formula_moiety         'C7 H2 I3 N'
_chemical_formula_sum            'C7 H2 I3 N'
_chemical_formula_weight         480.80
_chemical_melting_point          467
_chemical_name_common            I3NC
_chemical_name_systematic        '2,4,6-Triiodophenyl isocyanide'
_space_group_crystal_system      orthorhombic
_space_group_IT_number           74
_space_group_name_Hall           '-I 2b 2'
_space_group_name_H-M_alt        'I m m a'
_symmetry_space_group_name_Hall  '-I 2b 2'
_symmetry_space_group_name_H-M   'I m m a'
_atom_sites_solution_hydrogens   geom
_audit_creation_method           SHELXL-2014/6
_cell_angle_alpha                90
_cell_angle_beta                 90
_cell_angle_gamma                90
_cell_formula_units_Z            4
_cell_length_a                   7.0552(3)
_cell_length_b                   10.4947(5)
_cell_length_c                   13.1557(5)
_cell_measurement_reflns_used    2833
_cell_measurement_temperature    100(2)
_cell_measurement_theta_max      36.31
_cell_measurement_theta_min      2.48
_cell_volume                     974.08(7)
_computing_cell_refinement
;
SAINT (Bruker, 2012)
;
_computing_data_collection
;
APEX3 (Bruker, 2012)
;
_computing_data_reduction
;
SAINT (Bruker, 2012)
;
_computing_molecular_graphics
;
Mercury (Macrae <i>et al.</i>, 2008)
;
_computing_publication_material
;
publCIF (Westrip, 2010)
;
_computing_structure_refinement
;
SHELXL2014 (Sheldrick, 2015b)
;
_computing_structure_solution
;
SHELXT2014 (Sheldrick, 2015a)
;
_diffrn_ambient_temperature      100(2)
_diffrn_measured_fraction_theta_full 0.998
_diffrn_measured_fraction_theta_max 0.998
_diffrn_measurement_device_type  'Bruker VENTURE PHOTON-II'
_diffrn_measurement_method       '\f and \w scans'
_diffrn_radiation_type           MoK\a
_diffrn_radiation_wavelength     0.71073
_diffrn_reflns_av_R_equivalents  0.0257
_diffrn_reflns_limit_h_max       11
_diffrn_reflns_limit_h_min       -11
_diffrn_reflns_limit_k_max       12
_diffrn_reflns_limit_k_min       -17
_diffrn_reflns_limit_l_max       21
_diffrn_reflns_limit_l_min       -21
_diffrn_reflns_number            13040
_diffrn_reflns_theta_full        25.242
_diffrn_reflns_theta_max         36.335
_diffrn_reflns_theta_min         2.483
_exptl_absorpt_coefficient_mu    9.564
_exptl_absorpt_correction_T_max  0.3438
_exptl_absorpt_correction_T_min  0.2508
_exptl_absorpt_correction_type   multi-scan
_exptl_absorpt_process_details
;
(SADABS; Sheldrick, 1996)
;
_exptl_crystal_colour            colourless
_exptl_crystal_density_diffrn    3.279
_exptl_crystal_description       Block
_exptl_crystal_F_000             840
_exptl_crystal_size_max          0.145
_exptl_crystal_size_mid          0.086
_exptl_crystal_size_min          0.066
_refine_diff_density_max         0.720
_refine_diff_density_min         -0.480
_refine_ls_extinction_coef       0.00312(10)
_refine_ls_extinction_expression Fc^*^=kFc[1+0.001xFc^2^\l^3^/sin(2\q)]^-1/4^
_refine_ls_extinction_method
;
SHELXL2014 (Sheldrick, 2015b)
;
_refine_ls_goodness_of_fit_ref   1.143
_refine_ls_hydrogen_treatment    constr
_refine_ls_matrix_type           full
_refine_ls_number_parameters     40
_refine_ls_number_reflns         1314
_refine_ls_number_restraints     0
_refine_ls_restrained_S_all      1.143
_refine_ls_R_factor_all          0.0119
_refine_ls_R_factor_gt           0.0110
_refine_ls_shift/su_max          0.001
_refine_ls_shift/su_mean         0.000
_refine_ls_structure_factor_coef Fsqd
_refine_ls_weighting_details
'w=1/[\s^2^(Fo^2^)+(0.0044P)^2^+1.2499P] where P=(Fo^2^+2Fc^2^)/3'
_refine_ls_weighting_scheme      calc
_refine_ls_wR_factor_gt          0.0239
_refine_ls_wR_factor_ref         0.0243
_reflns_number_gt                1267
_reflns_number_total             1314
_reflns_threshold_expression     'I > 2\s(I)'
_cod_data_source_file            lh5864sup1.cif
_cod_data_source_block           I3NC
_cod_database_code               2242324
_shelx_space_group_comment
;
The symmetry employed for this shelxl refinement is uniquely defined
by the following loop, which should always be used as a source of
symmetry information in preference to the above space-group names.
They are only intended as comments.
;
_shelx_estimated_absorpt_t_min   0.338
_shelx_estimated_absorpt_t_max   0.571
_shelx_hkl_file
;
   4   0   0  985.68   28.50
  -4   0   0 1000.00   28.27
  -6   0   0  575.84   21.25
   6   0   0  521.97   21.05
  -8   0   0  305.29    7.45
   8   0   0  290.26    7.36
  10   0   0  142.46    4.27
 -10   0   0  134.59    4.24
   1   1   0    0.28    0.06
  -1  -1   0    0.32    0.04
  -1   1   0    0.34    0.06
  -1  -1   0    0.26    0.05
   3   1   0    0.39    0.09
  -3  -1   0    0.17    0.05
   3   1   0    0.15    0.07
  -3   1   0    0.33    0.08
   3  -1   0    0.08    0.05
  -3  -1   0    0.07    0.05
  -3  -1   0    0.27    0.08
  -3   1   0    0.06    0.04
  -3   1   0    0.16    0.07
  -3  -1   0    0.30    0.08
  -5  -1   0    0.10    0.04
   5  -1   0    0.18    0.09
   5   1   0    0.00    0.06
   5  -1   0    0.14    0.05
  -5  -1   0    0.07    0.07
   5   1   0    0.12    0.05
  -5   1   0    0.10    0.08
  -5   1   0    0.22    0.10
   5  -1   0    0.00    0.06
  -5   1   0    0.03    0.07
  -5  -1   0    0.24    0.10
  -5  -1   0    0.13    0.09
   7   1   0   -0.01    0.09
   7  -1   0   -0.05    0.07
   7  -1   0    0.07    0.04
  -7  -1   0    0.07    0.07
   7  -1   0    0.01    0.10
  -7  -1   0    0.23    0.15
  -9  -1   0   -0.15    0.12
  -9   1   0    0.74    0.28
   9  -1   0   -0.06    0.26
  11   1   0    0.13    0.21
 -11  -1   0    0.14    0.24
 -11   1   0    0.43    0.27
  11  -1   0   -0.24    0.14
   0   2   0   19.36    0.54
   0  -2   0   18.59    0.58
   0   2   0   19.28    0.59
   0  -2   0   19.46    0.55
  -2   2   0   19.57    0.65
  -2   2   0   19.75    0.62
   2  -2   0   19.12    0.61
   2   2   0   19.52    0.66
   2   2   0   19.62    0.65
   2   2   0   18.22    0.57
  -2   2   0   19.76    0.55
   2  -2   0   19.35    0.65
  -2  -2   0   19.38    0.58
  -2  -2   0   19.02    0.65
   2  -2   0   18.75    0.55
  -2  -2   0   20.16    0.65
   4   2   0   17.62    0.58
  -4  -2   0   17.44    0.71
  -4   2   0   17.45    0.68
  -4   2   0   17.51    0.74
  -4  -2   0   17.20    0.58
  -4  -2   0   17.88    0.71
  -4  -2   0   17.24    0.75
   4  -2   0   17.76    0.55
  -4   2   0   17.08    0.63
   4   2   0   16.88    0.73
   6  -2   0   10.66    0.41
   6  -2   0   11.73    0.63
   6  -2   0   11.50    0.71
  -6  -2   0   10.88    0.47
  -6   2   0   11.34    0.59
  -6  -2   0   10.19    0.67
   6   2   0   10.36    0.67
  -8  -2   0    4.76    0.30
   8  -2   0    4.51    0.26
   8   2   0    4.42    0.51
   8  -2   0    5.59    0.50
   8  -2   0    5.07    0.56
  -8  -2   0    4.39    0.51
  10   2   0    1.57    0.42
 -10  -2   0    2.12    0.48
 -10   2   0    2.15    0.51
  10  -2   0    2.70    0.55
   1   3   0    0.42    0.10
   1  -3   0    0.68    0.09
  -3   3   0    0.07    0.04
   3  -3   0    0.12    0.07
  -3  -3   0    0.09    0.04
   3  -3   0    0.12    0.05
  -3   3   0    0.04    0.04
  -5   3   0    0.96    0.19
  -5  -3   0    0.65    0.13
   5   3   0    0.54    0.17
   7  -3   0    0.27    0.14
   7  -3   0    0.01    0.10
   7   3   0    0.02    0.10
  -7  -3   0   -0.02    0.11
  -7  -3   0    0.02    0.06
   7  -3   0    0.06    0.05
   9  -3   0    0.00    0.15
   9   3   0   -0.05    0.12
  -9   3   0   -0.04    0.16
  -9  -3   0    0.07    0.20
 -11   3   0    0.41    0.30
 -11  -3   0   -0.17    0.22
   0   4   0  531.57   16.29
  -2  -4   0  476.50   14.52
   2   4   0  465.61   14.79
  -2   4   0  472.28   16.98
   2  -4   0  458.87   16.95
   4   4   0  332.55   13.16
   4  -4   0  312.55   14.45
  -4  -4   0  317.93   12.30
  -4   4   0  321.11   15.17
   6  -4   0  185.37    4.26
   6   4   0  190.99    4.78
  -6  -4   0  189.49    4.83
   6  -4   0  184.10    4.68
  -6  -4   0  183.18    4.39
  -6   4   0  183.41    4.41
   8  -4   0   97.52    2.85
  -8  -4   0   95.69    3.08
  -8  -4   0   88.34    2.46
   8   4   0   93.71    3.00
   8  -4   0  101.02    3.12
  10   4   0   44.53    2.01
 -10   4   0   45.58    2.06
 -10  -4   0   47.79    2.14
  10  -4   0   45.94    2.07
  -1  -5   0    0.07    0.06
  -1  -5   0    0.47    0.12
   1  -5   0    0.21    0.08
   1   5   0    0.09    0.07
   1  -5   0    0.11    0.07
  -1   5   0    0.37    0.11
   1   5   0    0.09    0.06
  -1  -5   0    0.10    0.06
  -1   5   0    0.13    0.07
   3   5   0    0.06    0.06
   3   5   0    0.22    0.09
  -3  -5   0    0.08    0.06
   3  -5   0    0.18    0.10
   3  -5   0    0.08    0.04
  -3   5   0    0.45    0.13
  -3   5   0    0.15    0.07
  -3  -5   0    0.09    0.08
  -3  -5   0    0.33    0.13
   3  -5   0    0.23    0.09
  -5   5   0    0.34    0.10
  -5  -5   0    0.14    0.09
   5  -5   0    0.52    0.18
   5   5   0    0.48    0.18
   7  -5   0   -0.03    0.07
  -7  -5   0    0.21    0.09
   7   5   0   -0.06    0.09
  -7  -5   0    0.00    0.08
   9   5   0    0.42    0.25
   9  -5   0   -0.07    0.11
   9  -5   0    0.22    0.15
  -9  -5   0    0.09    0.19
 -11   5   0    0.17    0.38
  11   5   0   -0.16    0.19
  11  -5   0    0.16    0.29
 -11  -5   0    0.02    0.20
   0  -6   0   74.34    2.04
   0   6   0   77.89    2.03
   0  -6   0   73.80    2.09
   0   6   0   75.84    2.15
   0  -6   0   76.31    2.17
  -2  -6   0   65.82    1.94
   2  -6   0   64.33    1.58
   2  -6   0   62.15    1.85
  -2   6   0   65.06    1.79
  -2  -6   0   67.11    1.84
  -2  -6   0   67.70    1.90
   2   6   0   65.48    1.89
   2   6   0   64.85    1.91
  -2   6   0   66.26    1.93
  -2  -6   0   62.96    1.89
   2  -6   0   64.53    1.95
   4   6   0   44.46    1.51
  -4   6   0   42.57    1.42
   4  -6   0   42.19    1.16
  -4  -6   0   44.35    1.40
  -4   6   0   41.78    1.37
  -4  -6   0   43.73    1.53
   4  -6   0   41.20    1.42
   6  -6   0   25.34    1.09
   6  -6   0   24.86    0.92
  -6  -6   0   24.77    1.20
   6   6   0   24.67    1.16
   8   6   0   13.20    0.93
  -8  -6   0   16.86    1.09
   8  -6   0   14.54    0.88
 -10  -6   0    5.92    0.73
  10  -6   0    6.64    0.77
  10  -6   0    6.45    0.64
  10   6   0    7.62    0.77
   1  -7   0    0.17    0.10
   1   7   0    0.36    0.13
  -1  -7   0    0.40    0.14
  -1  -7   0    0.14    0.09
   1  -7   0    0.42    0.14
  -1  -7   0    0.11    0.10
  -1   7   0    0.21    0.10
   1   7   0    0.24    0.11
   1  -7   0    0.48    0.17
  -1   7   0    0.16    0.09
  -1  -7   0    0.09    0.08
   3  -7   0    0.25    0.14
  -3   7   0    0.23    0.11
   3   7   0    0.36    0.16
  -3  -7   0    0.10    0.10
   3  -7   0    0.23    0.11
  -3  -7   0    0.07    0.07
   5  -7   0    0.14    0.11
  -5  -7   0    0.23    0.14
   5  -7   0    0.06    0.10
   5   7   0    0.16    0.11
   7  -7   0    0.80    0.25
  -7   7   0   -0.09    0.13
   7   7   0   -0.05    0.13
  -7  -7   0    0.10    0.16
   7  -7   0   -0.05    0.05
   9   7   0   -0.07    0.13
   9  -7   0    0.16    0.17
  -9  -7   0    0.10    0.17
   0  -8   0   41.96    1.53
   0   8   0   39.63    1.36
   0  -8   0   40.72    1.45
   0  -8   0   43.32    1.41
   0  -8   0   39.58    1.44
   2  -8   0   36.25    0.99
  -2  -8   0   35.65    1.30
  -2   8   0   35.09    1.21
   2  -8   0   33.78    1.30
   2  -8   0   35.21    1.47
  -2  -8   0   34.36    1.46
   4   8   0   26.81    1.20
   4  -8   0   27.77    1.28
   4  -8   0   26.33    1.14
   4  -8   0   26.08    0.79
  -4  -8   0   26.90    1.20
  -4  -8   0   26.92    1.22
   6  -8   0   18.28    1.10
   6  -8   0   15.77    0.84
  -6  -8   0   17.80    1.04
  -6  -8   0   17.56    1.04
   6   8   0   17.61    1.01
   6  -8   0   16.83    0.94
   8   8   0    9.76    0.83
   8  -8   0    9.63    0.76
  -8  -8   0    9.82    0.84
  -8  -8   0   11.98    0.93
 -10  -8   0    5.83    0.73
  10   8   0    5.37    0.71
  10  -8   0    4.44    0.62
 -10  -8   0    6.61    0.74
  10  -8   0    4.32    1.02
  -1  -9   0    0.10    0.09
   1  -9   0    0.17    0.12
   1  -9   0    0.22    0.14
   1  -9   0    0.20    0.11
  -1   9   0    0.16    0.09
  -3  -9   0    0.11    0.13
   3  -9   0    0.11    0.13
   3   9   0    0.27    0.16
  -3  -9   0    0.20    0.14
   3  -9   0    0.06    0.05
  -5  -9   0    1.16    0.29
  -5  -9   0    0.51    0.20
   7  -9   0   -0.14    0.10
  -7  -9   0    0.12    0.16
   7   9   0   -0.08    0.10
   7  -9   0    0.03    0.10
  -7  -9   0   -0.15    0.11
   9   9   0   -0.13    0.17
  -9  -9   0    0.92    0.29
   9  -9   0    0.05    0.16
   0 -10   0  320.74    7.70
   2 -10   0  310.64    7.45
   2 -10   0  309.04    7.63
  -2 -10   0  306.64    7.59
  -2 -10   0  307.86    7.38
   2 -10   0  307.70    6.82
  -4 -10   0  235.69    6.08
   4 -10   0  234.54    5.92
  -4 -10   0  235.04    5.92
   4 -10   0  229.94    5.13
   4 -10   0  232.47    6.13
   4  10   0  229.57    5.99
   6 -10   0  152.01    4.04
  -6 -10   0  149.87    4.31
   6 -10   0  132.58    5.54
   6 -10   0  157.62    4.25
   6  10   0  151.49    4.35
  -8 -10   0   86.65    3.10
   8  10   0   87.73    3.11
   8 -10   0   86.78    2.91
  -8 -10   0   86.71    3.13
   1 -11   0    0.08    0.10
   1 -11   0    0.03    0.06
  -1 -11   0   -0.04    0.09
  -1 -11   0    0.15    0.13
   1 -11   0    0.24    0.16
   1 -11   0    0.03    0.09
  -1 -11   0    0.22    0.15
  -3 -11   0   -0.06    0.10
   3 -11   0    0.33    0.08
   3 -11   0    0.17    0.12
  -3 -11   0    0.15    0.13
   3 -11   0    0.21    0.19
   5  11   0    0.10    0.16
   5 -11   0   -0.24    0.11
  -5 -11   0    0.08    0.13
  -5 -11   0    0.00    0.13
   5 -11   0    0.37    0.21
   7  11   0    0.41    0.23
   7 -11   0    0.15    0.18
  -7 -11   0    0.33    0.24
   7 -11   0   -0.06    0.14
   7 -11   0    0.16    0.15
  -7 -11   0    0.07    0.22
  -9 -11   0    0.01    0.24
   9 -11   0   -0.17    0.24
   9  11   0    0.27    0.25
  -9 -11   0   -0.10    0.23
   0 -12   0   32.71    1.37
   0 -12   0   32.48    1.54
   0 -12   0   32.20    1.46
  -2 -12   0   27.33    1.36
   2 -12   0   29.44    1.38
  -2 -12   0   29.89    1.35
  -2 -12   0   29.85    1.48
   2 -12   0   31.96    1.54
   4 -12   0   27.03    2.11
  -4 -12   0   27.28    2.05
   4 -12   0   21.29    1.21
  -4 -12   0   22.68    1.22
   6 -12   0   14.18    1.12
   6 -12   0   13.04    0.95
  -6 -12   0   14.50    1.01
  -6 -12   0   14.71    1.10
   8 -12   0    7.65    0.81
   8  12   0    7.75    1.51
  -8 -12   0    8.08    0.89
  -8 -12   0    7.29    0.94
  -1 -13   0    0.58    0.21
  -1 -13   0    0.17    0.13
  -1 -13   0   -0.05    0.13
   1 -13   0    0.33    0.17
   1 -13   0    0.23    0.17
   1 -13   0    0.20    0.09
  -3 -13   0   -0.16    0.13
   3 -13   0    0.07    0.14
  -3 -13   0   -0.02    0.12
   3 -13   0    0.03    0.16
   3 -13   0    0.20    0.07
  -5 -13   0   -0.25    0.13
   5 -13   0   -0.31    0.15
   5 -13   0   -0.16    0.16
  -5 -13   0   -0.28    0.17
   7 -13   0    0.09    0.22
  -7 -13   0    0.60    0.30
   7 -13   0    0.20    0.22
   0 -14   0  180.01    5.08
   0 -14   0  182.48    5.24
   0 -14   0  187.12    4.91
   2 -14   0  169.61    4.05
  -2 -14   0  165.85    4.79
  -2 -14   0  161.89    4.57
   2 -14   0  165.35    4.71
   2 -14   0  166.04    4.92
  -2 -14   0  164.15    4.85
   4 -14   0  135.01    4.33
  -4 -14   0  130.98    4.00
  -4 -14   0  134.67    4.26
   4 -14   0  132.83    4.07
   6 -14   0   89.38    3.12
  -6 -14   0   85.87    3.08
  -1 -15   0   -0.06    0.15
  -1 -15   0   -0.21    0.11
   1 -15   0    0.12    0.09
   1 -15   0    0.20    0.18
  -1 -15   0    0.32    0.24
   1 -15   0   -0.20    0.11
   3 -15   0   -0.07    0.18
  -3 -15   0    0.00    0.18
  -3 -15   0   -0.20    0.15
  -3 -15   0    0.01    0.20
   3 -15   0    0.09    0.14
   5 -15   0    0.03    0.27
   5 -15   0   -0.20    0.23
  -5 -15   0   -0.06    0.25
  -5 -15   0   -0.25    0.18
   0 -16   0    2.02    0.42
   0 -16   0    2.35    0.52
   0 -16   0    2.32    0.52
  -2 -16   0    1.37    0.34
   2 -16   0    1.50    0.42
   2 -16   0    2.27    0.54
  -2 -16   0    2.01    0.47
  -2 -16   0    2.18    0.51
   4 -16   0    1.55    0.48
  -4 -16   0    1.83    0.47
   4 -16   0    1.59    0.48
  -4 -16   0    1.25    0.41
  -4 -16   0    1.77    0.38
   1 -17   0    0.26    0.26
  -1 -17   0   -0.01    0.24
  -1 -17   0   -0.10    0.20
  -1 -17   0    0.12    0.20
   1 -17   0    0.46    0.46
  -1   0  -1    2.71    0.13
   1   0  -1    2.71    0.13
  -1   0  -1    2.70    0.12
  -1   0  -1    2.51    0.13
   1   0   1    2.45    0.13
  -1   0   1    2.71    0.11
  -1   0   1    2.55    0.13
   1   0   1    2.62    0.12
  -1   0   1    2.45    0.13
   1   0  -1    2.37    0.13
   3   0   1    1.42    0.12
  -3   0   1    1.50    0.14
  -3   0  -1    1.91    0.14
  -3   0   1    1.67    0.09
  -3   0  -1    1.54    0.15
   3   0  -1    1.75    0.09
  -3   0   1    1.74    0.16
   3   0  -1    1.41    0.15
  -3   0  -1    1.39    0.15
   3   0  -1    1.83    0.16
   3   0  -1    1.69    0.18
   3   0   1    1.77    0.17
   5   0   1    0.81    0.20
  -5   0   1    0.76    0.16
  -5   0  -1    0.80    0.13
   5   0   1    1.15    0.22
   5   0  -1    0.52    0.16
  -5   0   1    0.89    0.18
   5   0  -1    1.11    0.09
  -5   0  -1    0.70    0.16
   5   0   1    0.93    0.12
  -5   0   1    0.80    0.18
  -5   0  -1    1.23    0.22
  -7   0  -1    0.29    0.16
   7   0  -1    0.34    0.19
   7   0   1    0.41    0.10
   7   0   1    0.60    0.21
  -9   0  -1    0.16    0.18
   9   0  -1    0.10    0.19
  -9   0   1    0.08    0.14
   9   0   1    0.10    0.23
  11   0  -1    0.09    0.23
  11   0   1    0.31    0.23
 -11   0   1    0.19    0.21
 -11   0  -1   -0.03    0.20
   0  -1  -1   13.48    0.39
   0  -1   1   13.20    0.37
   0  -1  -1   12.59    0.37
   0  -1   1   13.26    0.38
   0  -1  -1   13.83    0.36
   0   1  -1   13.21    0.32
   0  -1   1   12.98    0.33
   0  -1   1   13.24    0.35
   0  -1  -1   12.04    0.33
   0   1   1   13.75    0.39
   0   1   1   13.17    0.38
   0   1  -1   13.44    0.38
   0   1  -1   13.07    0.37
   0   1   1   13.84    0.36
   0   1  -1   13.32    0.32
  -2  -1  -1   14.93    0.51
  -2  -1  -1   15.58    0.54
   2  -1   1   15.30    0.52
   2   1  -1   15.94    0.54
  -2   1   1   15.48    0.49
   2  -1   1   14.46    0.46
  -2  -1  -1   15.04    0.47
  -2   1   1   15.23    0.47
  -2   1   1   16.07    0.54
  -2  -1   1   15.36    0.42
  -2  -1   1   14.54    0.50
   2   1   1   15.63    0.53
  -2   1  -1   14.91    0.45
   2  -1  -1   14.69    0.38
  -2   1  -1   15.35    0.51
   2  -1  -1   14.34    0.48
   2   1   1   14.83    0.52
  -2   1  -1   15.25    0.52
  -2  -1   1   15.40    0.53
   4  -1   1   14.96    0.64
  -4   1   1   16.18    0.70
  -4   1   1   16.33    0.63
   4  -1   1   15.25    0.52
   4   1  -1   14.88    0.68
  -4  -1  -1   15.05    0.65
  -4  -1  -1   16.51    0.65
  -4  -1  -1   14.96    0.68
  -4   1   1   17.53    0.64
  -4  -1  -1   15.30    0.54
  -4   1  -1   16.07    0.61
   4  -1  -1   16.05    0.43
   4   1   1   16.12    0.70
   4  -1  -1   17.11    0.64
   4   1   1   15.83    0.54
  -4   1  -1   16.63    0.66
  -4  -1   1   15.77    0.65
   4  -1  -1   16.05    0.70
  -4  -1   1   15.69    0.48
  -4  -1   1   15.69    0.63
  -4   1  -1   16.32    0.69
  -6  -1  -1   10.86    0.48
   6  -1   1   10.54    0.71
   6  -1   1   11.23    0.45
  -6  -1  -1   11.70    0.71
   6  -1   1    9.57    0.65
   6   1  -1   10.62    0.67
  -6  -1   1   10.61    0.41
   6   1   1   10.35    0.66
  -6   1  -1   10.77    0.68
   6  -1  -1   11.00    0.68
   6  -1  -1   11.21    0.60
  -6  -1   1   10.61    0.68
   6   1   1   11.12    0.47
   6  -1  -1   10.95    0.33
   8  -1   1    4.60    0.55
   8   1  -1    5.53    0.58
   8  -1   1    4.87    0.28
  -8  -1  -1    5.70    0.59
   8  -1  -1    5.88    0.59
  -8  -1   1    5.26    0.56
  -8   1  -1    6.02    0.57
   8   1   1    5.90    0.57
  10  -1   1    2.22    0.53
 -10   1   1    2.43    0.53
 -10  -1  -1    1.91    0.45
  10   1  -1    2.65    0.54
  10   1   1    2.55    0.53
 -10  -1   1    2.31    0.50
  10  -1  -1    2.75    0.53
 -10   1  -1    2.56    0.53
  -1  -2  -1  380.65   11.02
  -1   2   1  395.97   11.89
   1   2  -1  372.75    9.78
   1  -2   1  380.76   11.51
  -1   2  -1  378.51   11.64
   1   2   1  406.49   11.30
  -1  -2   1  334.05    9.56
  -3  -2  -1  296.10   10.95
  -3   2   1  298.16   11.99
   3  -2   1  297.47   12.00
   3   2  -1  304.56   10.40
   3  -2  -1  284.01   11.63
  -3   2  -1  298.58   12.17
  -3  -2   1  284.81    9.88
  -5   2   1  181.37    4.30
  -5   2   1  188.70    4.34
  -5  -2  -1  185.41    4.19
  -5  -2  -1  176.33    4.38
   5  -2   1  180.20    4.12
  -5  -2  -1  180.63    4.42
  -5  -2   1  180.06    4.08
  -5  -2   1  181.28    4.37
  -5   2  -1  185.66    4.55
   5   2   1  185.56    4.18
  -5   2  -1  178.72    4.26
  -5  -2   1  177.63    4.45
  -5  -2   1  176.86    4.49
  -5   2  -1  181.97    4.39
   5  -2  -1  183.15    4.33
  -7  -2  -1  102.67    3.01
   7  -2   1   99.92    2.99
   7   2  -1   97.47    2.95
  -7  -2  -1   95.93    2.51
   7  -2   1   98.28    2.41
   7  -2   1   99.05    2.83
   7  -2  -1  105.97    3.02
  -7  -2   1   98.83    2.98
   7   2   1   97.09    2.93
   7   2   1  100.42    2.49
   7  -2  -1  103.02    2.78
  -7  -2   1   96.23    2.37
  -9  -2  -1   48.68    2.36
   9   2  -1   43.69    1.99
  -9   2   1   49.56    2.03
   9  -2   1   49.70    2.11
  -9   2  -1   46.79    1.97
   9   2   1   49.53    2.10
  -9  -2   1   44.91    2.83
  11   2  -1   21.86    1.50
 -11  -2  -1   22.47    1.46
  11  -2   1   18.63    1.37
 -11   2   1   22.73    1.46
 -11  -2   1   21.23    1.41
 -11   2  -1   22.73    1.42
  11  -2  -1   21.37    1.37
  11   2   1   22.85    1.49
   0  -3  -1   82.87    2.01
   0   3   1   86.27    2.07
   0  -3  -1   82.99    2.08
  -2   3   1   68.42    1.78
  -2  -3  -1   70.15    1.83
  -2  -3  -1   69.44    1.76
  -2   3   1   66.67    1.63
   2  -3   1   67.99    1.76
  -2  -3  -1   70.15    1.73
   2   3  -1   69.67    1.79
   2  -3   1   67.47    1.79
   2   3  -1   67.19    1.78
  -2   3   1   69.33    1.70
   2  -3   1   68.01    1.56
  -2   3  -1   66.15    1.74
   2   3   1   71.32    1.83
   2   3   1   68.30    1.76
   2  -3  -1   66.57    1.79
  -2  -3   1   70.52    1.80
  -2  -3   1   72.77    1.71
   2  -3  -1   68.46    1.70
  -2   3  -1   71.06    1.79
   2  -3  -1   64.66    1.64
  -2   3  -1   67.51    1.55
   2   3   1   70.86    1.73
  -2  -3   1   67.11    1.77
  -4  -3  -1   43.00    1.24
  -4   3   1   43.30    1.23
   4  -3   1   43.99    1.34
  -4   3   1   43.49    1.28
  -4   3   1   43.91    1.40
  -4  -3  -1   46.06    1.59
  -4  -3  -1   41.58    1.76
   4  -3   1   42.02    1.20
  -4  -3  -1   42.53    1.41
   4   3  -1   44.61    1.41
  -4   3  -1   43.57    1.19
  -4   3  -1   43.07    1.32
   4   3   1   43.34    1.38
  -4  -3   1   43.38    1.34
  -4  -3   1   42.71    1.40
  -4  -3   1   43.65    1.19
  -4   3  -1   41.78    1.55
   4   3   1   44.48    1.24
   4  -3  -1   44.39    1.13
  -4  -3   1   44.24    1.41
   4  -3  -1   42.57    1.24
  -4  -3   1   43.22    1.33
   6  -3   1   24.44    1.01
  -6   3   1   23.62    0.94
   6  -3   1   23.50    0.78
  -6  -3  -1   23.76    0.85
  -6  -3  -1   23.24    1.09
   6   3  -1   23.45    1.06
  -6  -3   1   23.95    1.10
  -6  -3   1   23.09    0.78
   6   3   1   23.11    1.06
   6  -3  -1   24.35    0.68
   6   3   1   23.96    0.84
   6  -3  -1   23.88    0.96
  -6   3  -1   23.86    0.89
   8  -3   1   12.47    0.78
  -8  -3  -1   13.65    0.92
   8   3  -1   11.59    0.82
   8  -3   1   11.36    0.48
   8  -3   1   11.97    0.86
  -8  -3  -1   10.66    0.57
   8  -3  -1   11.11    0.82
  -8  -3   1   11.35    0.85
   8  -3  -1   13.15    0.76
  -8  -3   1   11.70    0.49
   8   3   1   11.99    0.84
  10  -3   1    4.82    0.62
 -10   3   1    5.67    0.67
  10   3  -1    4.51    0.60
 -10  -3  -1    6.75    0.74
  10   3   1    5.79    0.65
 -10  -3   1    4.84    0.65
  10  -3  -1    6.63    0.71
 -10   3  -1    5.20    0.66
   1  -4   1    0.85    0.10
   1  -4   1    0.92    0.15
   1  -4   1    0.93    0.17
   1   4  -1    0.93    0.17
  -1   4   1    0.96    0.13
  -1  -4  -1    0.91    0.12
  -1  -4  -1    0.75    0.14
  -1   4   1    0.95    0.16
  -1   4  -1    1.50    0.17
   1  -4  -1    0.71    0.14
  -1  -4   1    1.48    0.17
   1   4   1    1.47    0.17
  -1  -4   1    1.34    0.16
   1  -4  -1    1.07    0.14
   1   4   1    0.75    0.13
  -1   4  -1    0.99    0.14
   1   4   1    1.13    0.15
  -3  -4  -1    1.36    0.18
  -3   4   1    1.32    0.16
  -3  -4  -1    1.60    0.18
   3   4  -1    1.70    0.21
  -3  -4  -1    1.28    0.22
   3  -4   1    1.38    0.19
  -3   4   1    1.44    0.13
  -3   4   1    1.49    0.19
   3   4   1    1.47    0.17
  -3   4  -1    1.52    0.19
  -3  -4   1    1.61    0.16
   3   4   1    1.99    0.22
  -3   4  -1    1.36    0.17
   3  -4  -1    1.89    0.22
  -3  -4   1    1.35    0.22
   3   4   1    1.17    0.17
   3  -4  -1    1.67    0.15
  -3  -4   1    1.62    0.20
   3  -4  -1    1.16    0.16
  -3   4  -1    1.28    0.11
  -5  -4  -1    1.58    0.36
   5  -4   1    2.01    0.20
  -5   4   1    1.86    0.23
  -5   4   1    2.01    0.21
  -5  -4  -1    1.26    0.20
  -5  -4   1    1.22    0.18
  -5   4  -1    1.26    0.15
   5  -4  -1    1.45    0.18
   5  -4  -1    1.56    0.22
   5   4   1    1.50    0.27
   5  -4  -1    1.28    0.14
   7   4  -1    0.63    0.22
   7  -4   1    0.67    0.21
  -7  -4  -1    0.50    0.15
   7  -4   1    0.89    0.21
  -7  -4  -1    0.99    0.28
  -7  -4   1    0.96    0.29
   7  -4  -1    0.79    0.10
   7  -4  -1    0.97    0.22
   7   4   1    1.05    0.27
  -7  -4   1    0.72    0.13
   9  -4   1    0.27    0.18
   9  -4   1    0.49    0.25
  -9  -4  -1    0.86    0.34
   9   4  -1    0.38    0.20
   9  -4  -1    0.49    0.26
  -9  -4   1    0.21    0.20
   9   4   1    0.22    0.18
  -9   4  -1    0.49    0.25
   9  -4  -1    0.44    0.17
 -11   4   1    0.27    0.26
  11  -4   1    0.74    0.38
 -11  -4  -1    0.47    0.28
  11   4  -1   -0.20    0.17
 -11   4  -1    0.40    0.27
  11  -4  -1    0.09    0.32
  11   4   1    0.23    0.22
 -11  -4   1   -0.40    0.22
   0   5   1  421.67   15.13
   0   5  -1  416.45   14.30
   0   5   1  436.44   15.14
   0  -5   1  396.93   14.21
   2   5  -1  367.96   12.66
  -2   5   1  388.46   15.57
   2  -5   1  328.71   13.98
  -2  -5  -1  403.63   16.00
  -2   5  -1  370.48   15.29
   2  -5  -1  358.96   14.77
  -2  -5   1  366.36   12.42
  -4   5   1  249.19    5.76
  -4  -5  -1  270.79    6.20
  -4   5   1  254.67    6.00
  -4   5   1  254.85    5.96
  -4  -5  -1  261.12    6.12
  -4  -5   1  262.52    5.93
  -4  -5   1  266.63    6.20
  -4   5  -1  251.96    5.68
  -4   5  -1  250.62    6.01
  -6   5   1  147.75    3.65
   6   5  -1  151.74    4.03
  -6  -5  -1  144.73    3.73
   6  -5   1  149.54    3.63
  -6  -5  -1  148.31    4.08
   6  -5   1  153.13    3.93
  -6  -5   1  146.95    3.66
  -6   5  -1  145.94    3.57
  -6  -5   1  157.13    4.10
   6  -5  -1  147.02    3.50
   6  -5  -1  154.50    3.94
   6   5   1  153.10    4.01
   8  -5   1   77.05    2.04
  -8  -5  -1   81.25    2.76
   8   5  -1   78.11    2.66
   8  -5   1   78.84    2.52
   8   5   1   79.95    2.66
   8  -5  -1   80.08    2.47
  -8  -5   1   79.57    2.72
   8  -5  -1   79.20    2.70
  -8  -5   1   74.35    2.13
 -10  -5  -1   39.92    1.93
  10   5  -1   38.44    1.86
  10  -5   1   37.37    1.68
  10  -5   1   38.25    1.89
 -10   5  -1   40.41    1.89
  10   5   1   37.72    1.82
 -10  -5   1   38.33    1.90
  10  -5  -1   37.88    1.86
  -1   6   1   78.09    2.18
  -1  -6  -1   78.07    2.06
   1  -6   1   73.88    1.98
   1  -6   1   71.89    2.14
   1   6  -1   75.56    2.16
  -1  -6  -1   80.32    2.11
   1   6  -1   75.54    2.03
   1  -6   1   77.13    2.13
  -1   6   1   75.71    2.04
  -1  -6  -1   71.17    2.07
  -1  -6  -1   74.64    2.17
  -1  -6   1   75.84    2.15
  -1  -6   1   75.46    2.17
  -1   6  -1   78.45    2.18
   1   6   1   77.99    2.11
   1   6   1   71.61    2.14
   1  -6  -1   75.89    2.13
   1  -6  -1   78.09    2.19
  -1  -6   1   71.74    2.01
  -1   6  -1   78.58    1.98
  -3  -6  -1   60.17    1.85
  -3   6   1   56.98    1.73
  -3   6   1   58.22    1.82
  -3  -6  -1   60.75    1.86
  -3  -6  -1   60.62    1.82
   3  -6   1   58.82    1.87
   3   6  -1   58.81    1.81
   3  -6   1   61.83    1.82
  -3   6   1   57.09    1.90
   3   6  -1   61.00    1.86
  -3  -6  -1   59.87    1.75
  -3   6  -1   58.72    1.82
  -3  -6   1   61.28    1.87
  -3   6  -1   57.50    1.77
   3  -6  -1   62.13    1.76
  -3  -6   1   61.58    1.83
   3   6   1   62.04    1.82
   3   6   1   58.80    1.84
  -3  -6   1   62.00    1.96
   3  -6  -1   60.17    1.55
   3  -6  -1   58.85    1.88
  -3  -6   1   58.71    1.83
  -3   6  -1   59.75    1.67
   5   6  -1   38.43    1.47
   5  -6   1   39.67    1.43
   5  -6   1   37.52    1.29
  -5   6   1   37.74    1.16
   5  -6   1   40.54    1.54
  -5  -6  -1   40.45    1.53
   5   6   1   40.76    1.47
   5  -6  -1   38.81    1.52
   5  -6  -1   40.28    1.38
  -5  -6   1   38.75    1.30
   5  -6  -1   39.28    1.19
  -5   6  -1   38.75    1.09
  -5  -6   1   40.79    1.52
  -7  -6  -1   22.44    1.20
   7  -6   1   22.56    0.87
   7   6  -1   22.90    1.18
   7  -6   1   22.06    1.09
  -7  -6   1   22.38    1.20
   7  -6  -1   22.03    1.04
   7   6   1   22.79    1.17
  -7   6  -1   21.18    0.82
   9   6  -1   12.02    0.92
   9  -6   1   11.53    0.86
   9  -6   1   11.20    0.93
  -9  -6  -1   11.34    0.94
   9  -6  -1   11.44    0.92
   9   6   1   11.52    0.91
   9  -6  -1   12.46    0.83
  -9  -6   1   11.68    0.94
  11  -6   1    5.68    0.72
 -11   6   1    3.36    0.63
  11   6  -1    5.28    0.68
 -11  -6  -1    4.00    0.69
  11   6   1    4.79    0.68
 -11  -6   1    4.17    0.75
  11  -6  -1    5.02    0.71
   0   7   1  191.22    4.57
   0  -7  -1  184.97    4.59
   0  -7  -1  197.23    4.75
   0   7   1  191.42    4.71
   0   7  -1  189.05    4.69
   0   7  -1  192.21    4.49
   0  -7  -1  185.80    4.53
   0  -7   1  185.37    4.65
   0  -7   1  187.87    4.64
   2   7  -1  167.01    4.14
  -2  -7  -1  173.24    4.29
  -2   7   1  166.74    4.32
   2   7  -1  168.14    4.26
  -2  -7  -1  172.22    4.22
  -2  -7  -1  167.56    4.13
  -2  -7  -1  157.84    4.14
   2  -7   1  162.04    4.26
   2  -7   1  163.30    4.18
  -2   7  -1  157.14    4.20
   2  -7  -1  169.10    4.16
   2  -7  -1  165.78    3.85
  -2  -7   1  167.00    4.11
  -2  -7   1  167.66    4.25
   2   7   1  169.21    4.21
  -2  -7   1  171.59    4.14
   2   7   1  169.34    4.20
  -2   7  -1  172.62    4.02
  -2  -7   1  173.46    4.29
   2  -7  -1  174.02    4.32
  -4  -7  -1  124.37    3.38
  -4  -7  -1  122.08    3.36
   4  -7   1  120.81    3.40
   4   7  -1  120.93    3.34
   4  -7  -1  123.78    3.23
   4  -7  -1  120.08    2.91
  -4  -7   1  121.63    3.32
  -4  -7   1  117.19    3.32
   4   7   1  124.16    3.32
  -4   7  -1  119.74    3.11
   4  -7  -1  124.70    3.43
   6  -7   1   77.42    2.38
   6   7  -1   72.35    2.42
   6  -7   1   76.07    2.16
  -6  -7  -1   73.95    2.49
   6  -7   1   75.98    2.52
   6  -7  -1   71.22    2.05
   6  -7  -1   73.62    2.27
  -6  -7   1   76.04    2.48
   6  -7  -1   69.12    2.45
   6   7   1   72.76    2.40
   8  -7   1   38.08    1.63
  -8  -7  -1   39.14    1.80
   8   7  -1   40.00    1.77
   8  -7  -1   39.38    1.58
   8   7   1   39.37    1.74
  -8  -7   1   39.34    1.78
  10  -7   1   18.87    1.30
  10   7  -1   18.81    1.28
  10  -7   1   17.50    1.13
 -10  -7  -1   18.07    1.31
  10   7   1   19.75    1.29
 -10  -7   1   20.45    1.35
  10  -7  -1   19.83    1.12
  10  -7  -1   20.56    1.35
  -1  -8  -1   80.39    2.41
   1  -8   1   86.29    2.55
  -1  -8  -1   87.09    2.45
   1  -8   1   84.03    2.31
  -1   8   1   82.89    2.35
   1  -8   1   87.49    2.48
   1   8  -1   84.70    2.35
  -1  -8  -1   88.03    2.57
   1  -8  -1   77.15    2.38
  -1  -8   1   86.04    2.54
  -1  -8   1   86.02    2.36
   1   8   1   83.26    2.42
   1  -8  -1   82.92    2.53
  -1   8  -1   90.73    2.32
   1  -8  -1   87.49    2.45
   1  -8  -1   83.34    2.39
   3  -8   1   70.49    2.29
   3  -8   1   68.71    2.17
  -3  -8  -1   70.39    2.20
   3   8  -1   71.52    2.25
  -3  -8  -1   72.93    2.28
  -3  -8   1   71.76    2.26
  -3   8  -1   67.28    2.00
   3  -8  -1   70.18    2.29
   3   8   1   68.81    2.39
   3  -8  -1   72.82    1.81
   3  -8  -1   69.52    2.13
  -3  -8   1   73.91    2.54
  -5  -8  -1   47.64    1.80
  -5  -8  -1   45.20    1.77
   5   8  -1   48.68    1.81
   5  -8   1   45.98    1.83
   5  -8   1   46.99    1.73
   5   8   1   47.51    1.76
   5  -8  -1   50.60    1.70
   5  -8  -1   46.99    1.34
   5  -8  -1   45.98    1.82
  -5  -8   1   48.41    1.81
  -5  -8   1   46.43    1.75
   7   8  -1   27.02    1.37
  -7  -8  -1   27.29    1.40
   7  -8   1   28.14    1.12
   7  -8   1   28.43    1.33
  -7  -8  -1   27.26    1.40
   7  -8  -1   26.85    1.03
   7   8   1   28.95    1.40
   7  -8  -1   26.95    1.24
  -7  -8   1   26.75    1.38
  -7  -8   1   26.61    1.38
   9   8  -1   14.05    1.05
  -9  -8  -1   12.81    1.04
   9  -8   1   13.36    0.95
  -9  -8  -1   13.35    1.04
   9   8   1   14.50    1.06
  -9  -8   1   14.22    1.08
  -9  -8   1   15.31    1.11
   9  -8  -1   15.23    0.95
   0  -9  -1  123.28    3.36
   0  -9   1  126.69    3.52
   0  -9   1  120.67    3.41
   0  -9  -1  130.69    3.56
   0  -9  -1  124.35    3.41
   0   9  -1  124.68    3.26
   0  -9   1  128.75    3.29
   2  -9   1  110.25    2.52
  -2  -9  -1  113.47    3.11
   2  -9   1  106.64    3.19
  -2  -9  -1  112.74    3.23
   2  -9   1  108.09    3.10
   2  -9  -1  108.89    3.07
   2  -9  -1  108.58    3.22
   2  -9  -1  110.55    2.69
  -2  -9   1  110.99    3.04
  -2   9  -1  107.27    2.88
  -2  -9   1  111.14    3.21
   4  -9   1   82.74    2.69
   4  -9   1   82.30    2.57
  -4  -9  -1   81.29    2.63
  -4  -9  -1   81.66    2.58
   4   9  -1   79.38    2.61
  -4  -9   1   81.35    2.63
   4  -9  -1   81.10    2.69
  -4  -9   1   85.10    2.57
   4   9   1   84.50    2.60
   4  -9  -1   80.38    2.49
   6  -9   1   49.72    1.89
   6  -9   1   51.38    2.08
  -6  -9  -1   48.73    1.97
   6  -9   1   47.31    1.71
   6   9  -1   49.61    1.96
  -6  -9  -1   48.49    1.97
  -6  -9   1   48.96    1.97
  -6  -9   1   47.72    1.91
   6   9   1   48.89    1.92
   6  -9  -1   50.35    1.83
   6  -9  -1   49.19    2.04
   8   9  -1   26.45    1.45
  -8  -9  -1   27.36    1.49
  -8  -9  -1   24.95    1.43
   8   9   1   24.77    1.39
  -8  -9   1   27.07    1.48
   8  -9  -1   26.83    1.31
  -8  -9   1   25.70    1.43
  10  -9   1   10.98    1.02
 -10  -9  -1   12.86    1.11
 -10  -9  -1   13.18    1.10
  10   9  -1   12.95    1.07
  10  -9   1   15.00    1.21
  10  -9  -1   12.15    0.95
  10  -9  -1   12.32    1.07
 -10  -9   1   11.83    1.03
 -10  -9   1   12.44    1.09
  10   9   1   12.68    1.06
   1 -10   1    0.56    0.16
   1 -10   1    0.80    0.25
  -1 -10  -1    1.04    0.26
  -1 -10  -1    0.52    0.20
   1 -10   1    0.47    0.18
   1 -10  -1    0.31    0.18
   1 -10  -1    0.27    0.14
   1 -10  -1    0.15    0.13
  -1 -10   1    0.35    0.16
  -1 -10   1    0.59    0.26
  -1 -10   1    0.32    0.16
   3 -10   1    0.20    0.15
  -3 -10  -1    0.79    0.24
   3 -10   1    0.34    0.05
   3 -10   1    0.12    0.13
  -3 -10  -1    0.55    0.22
   3 -10  -1    0.43    0.20
  -3 -10   1    0.29    0.15
  -3 -10   1    0.12    0.16
   3 -10  -1    0.40    0.17
  -5 -10  -1    0.20    0.16
   5 -10   1    0.15    0.16
   5  10  -1    0.15    0.16
  -5 -10  -1    0.42    0.20
   5 -10   1    0.26    0.20
  -5 -10   1    0.59    0.22
   5  10   1    0.24    0.16
   5 -10  -1    0.21    0.18
   5 -10  -1    0.20    0.16
  -5 -10   1    0.37    0.21
  -7 -10  -1    0.19    0.18
   7  10  -1    0.38    0.20
   7 -10   1    0.00    0.14
  -7 -10  -1    0.20    0.19
   7  10   1   -0.02    0.16
  -7 -10   1    0.39    0.20
  -7 -10   1    0.12    0.16
   7 -10  -1    0.18    0.12
   7 -10  -1    0.16    0.19
  -9 -10  -1    0.09    0.27
   9 -10   1   -0.28    0.19
  -9 -10  -1    0.39    0.45
   9  10   1    0.13    0.24
   9 -10  -1   -0.09    0.19
  -9 -10   1    0.29    0.28
   0 -11  -1   15.01    0.89
   0 -11   1   15.61    0.96
   0 -11  -1   14.54    0.94
   0 -11  -1   15.30    0.86
   0 -11   1   14.79    0.90
   0 -11   1   14.69    0.80
   2 -11   1   13.62    0.86
  -2 -11  -1   13.30    0.85
   2 -11   1   12.56    0.89
   2 -11   1   14.74    0.47
  -2 -11  -1   13.80    0.93
   2 -11  -1   14.36    0.95
  -2 -11   1   14.37    0.93
  -2 -11   1   14.19    0.82
   2 -11  -1   13.67    0.85
   2 -11  -1   12.68    0.56
  -4 -11  -1   10.89    0.79
  -4 -11  -1    9.64    0.81
   4 -11   1    9.68    0.76
   4 -11   1    9.87    0.83
  -4 -11   1    9.31    0.80
   4 -11  -1    9.72    0.84
   4 -11  -1   10.63    0.76
  -4 -11   1    9.89    0.73
   6 -11   1    7.01    0.68
   6 -11   1    6.51    0.59
  -6 -11  -1    6.32    0.70
   6  11  -1    5.86    0.65
   6 -11   1    6.99    0.76
  -6 -11  -1    6.30    0.67
  -6 -11   1    7.27    0.69
  -6 -11   1    6.73    0.71
   6 -11  -1    5.80    0.69
   6  11   1    6.30    0.65
   6 -11  -1    6.79    0.63
  -8 -11  -1    4.32    0.59
   8  11  -1    5.34    0.67
  -8 -11  -1    2.79    0.54
   8 -11   1    3.25    0.57
  -8 -11   1    4.14    0.69
   8 -11  -1    2.44    0.48
  -8 -11   1    3.97    0.67
   8  11   1    4.60    0.61
  -1 -12  -1   86.47    2.78
   1 -12   1   83.75    2.54
   1 -12   1   88.18    2.90
  -1 -12  -1   86.87    2.88
  -1 -12  -1   86.35    2.70
   1 -12   1   83.45    2.74
   1 -12  -1   86.20    2.65
   1 -12  -1   83.92    2.26
   1 -12  -1   84.54    2.87
   1 -12  -1   85.79    2.74
  -1 -12   1   87.81    2.87
  -1 -12   1   83.60    2.59
  -1 -12   1   81.54    2.75
  -3 -12  -1   73.33    2.47
   3 -12   1   70.62    2.62
  -3 -12  -1   70.74    2.58
   3 -12   1   71.50    2.48
  -3 -12   1   69.42    2.56
   3 -12  -1   68.99    2.41
  -3 -12   1   72.31    2.39
   3 -12  -1   70.23    2.62
   5 -12   1   48.59    2.12
  -5 -12  -1   50.10    2.14
  -5 -12  -1   51.68    2.06
   5 -12   1   47.35    2.14
  -5 -12   1   48.31    2.11
   5 -12  -1   48.21    2.16
   5 -12  -1   47.43    1.93
  -7 -12  -1   33.23    1.75
   7 -12   1   29.57    1.55
   7  12  -1   29.90    1.65
  -7 -12  -1   30.73    1.62
   7 -12   1   26.58    1.80
   7 -12   1   32.20    1.78
  -7 -12   1   30.49    1.69
   7  12   1   31.58    1.65
  -7 -12   1   29.63    1.58
   7 -12  -1   33.49    1.81
   7 -12  -1   30.62    1.51
   0 -13   1    6.46    0.64
   0 -13  -1    7.32    0.73
   0 -13  -1    8.45    0.71
   0 -13   1    8.10    0.61
   0 -13  -1    7.94    0.66
   0 -13   1    7.61    0.73
  -2 -13  -1    6.89    0.64
   2 -13   1    6.11    0.72
  -2 -13  -1    7.41    0.69
  -2 -13  -1    6.36    0.82
   2 -13   1    7.36    0.34
   2 -13   1    7.87    0.71
  -2 -13   1    8.27    0.67
  -2 -13   1    7.26    0.77
   2 -13  -1    8.39    0.71
   2 -13  -1    7.27    0.40
   2 -13  -1    7.22    0.88
  -2 -13   1    7.16    0.71
  -4 -13  -1    5.07    0.58
   4 -13   1    5.62    0.63
   4 -13   1    5.09    0.66
  -4 -13  -1    5.83    0.69
  -4 -13   1    5.02    0.63
   4 -13  -1    4.92    0.66
  -4 -13   1    5.09    0.90
   4 -13  -1    4.81    0.58
   4 -13  -1    4.95    0.26
   6 -13   1    2.92    0.49
  -6 -13  -1    4.46    0.60
   6 -13   1    2.40    0.46
   6 -13   1    3.26    0.65
  -6 -13  -1    3.20    0.60
   6 -13  -1    2.82    0.57
   6 -13  -1    3.03    0.55
  -6 -13   1    3.37    0.57
  -6 -13   1    3.85    0.69
   1 -14   1    2.87    0.52
   1 -14   1    2.98    0.58
  -1 -14  -1    3.06    0.43
  -1 -14  -1    1.81    0.41
  -1 -14  -1    2.27    0.47
   1 -14  -1    2.66    0.52
   1 -14  -1    2.56    0.72
  -1 -14   1    2.98    0.40
  -1 -14   1    2.21    0.47
  -1 -14   1    2.72    0.51
   3 -14   1    2.53    0.53
  -3 -14  -1    2.40    0.47
  -3 -14  -1    2.28    0.50
   3 -14   1    1.83    0.41
  -3 -14   1    2.23    0.48
  -3 -14   1    1.72    0.43
   3 -14  -1    2.74    0.56
   3 -14  -1    2.62    0.49
   5 -14   1    1.82    0.44
  -5 -14  -1    1.92    0.44
   5 -14   1    1.58    0.43
  -5 -14  -1    1.71    0.47
  -5 -14   1    1.42    0.38
  -5 -14   1    1.32    0.42
   5 -14  -1    2.24    0.52
   5 -14  -1    1.29    0.35
   7 -14   1    0.98    0.40
  -7 -14  -1    1.00    0.35
   7 -14   1    0.97    0.43
   7 -14   1    0.72    0.38
  -7 -14  -1    1.06    0.42
  -7 -14   1    1.04    0.39
   7 -14  -1    0.67    0.39
   7 -14  -1    0.72    0.36
   7 -14  -1   -0.10    0.28
  -7 -14   1    0.92    0.35
   0 -15   1   14.26    1.03
   0 -15  -1   14.93    0.96
   0 -15   1   15.06    1.09
   0 -15   1   16.59    0.95
   0 -15  -1   14.72    1.02
   0 -15  -1   13.79    1.06
   0 -15  -1   15.08    0.72
   2 -15   1   13.55    1.00
  -2 -15  -1   13.02    1.05
  -2 -15  -1   12.54    0.93
   2 -15   1   14.73    1.11
  -2 -15  -1   16.76    1.13
  -2 -15   1   13.14    1.02
   2 -15  -1   15.42    1.15
  -2 -15   1   14.76    0.94
  -2 -15   1   13.96    1.06
   2 -15  -1   13.25    0.99
  -4 -15  -1   11.57    1.00
  -4 -15  -1   11.79    0.94
   4 -15   1   10.61    0.91
   4 -15   1   10.83    1.02
  -4 -15  -1   11.59    0.95
   4 -15  -1   10.95    0.92
  -4 -15   1   10.88    0.85
  -4 -15   1   11.26    0.97
   4 -15  -1   10.08    0.97
  -4 -15   1   11.51    0.99
  -6 -15  -1    7.63    0.79
   6 -15   1    6.70    0.87
   6 -15   1    9.20    0.83
   6 -15   1    6.06    0.79
  -6 -15  -1    7.99    0.97
  -6 -15   1    6.90    0.83
   6 -15  -1    8.54    1.10
  -6 -15   1    7.73    0.79
   6 -15  -1    6.61    0.84
   1 -16   1   34.95    1.83
  -1 -16  -1   33.64    1.72
   1 -16   1   34.42    1.72
  -1 -16  -1   33.71    1.59
  -1 -16  -1   35.33    1.83
  -1 -16   1   34.63    1.54
  -1 -16   1   33.83    1.79
   1 -16  -1   33.29    1.67
   1 -16  -1   34.43    1.83
  -1 -16   1   35.58    1.77
   3 -16   1   30.69    1.61
  -3 -16  -1   28.73    1.80
  -3 -16  -1   28.52    1.49
  -3 -16   1   28.28    1.44
   3 -16  -1   26.47    1.49
   0 -17   1   25.78    1.55
   0 -17  -1   22.69    1.47
   0 -17   1   23.92    1.48
   2 -17   1   22.92    1.41
   2 -17   1   20.72    1.44
  -2 -17  -1   22.14    1.44
  -2 -17  -1   22.36    1.47
   2 -17  -1   22.79    1.63
  -2 -17   1   23.73    1.49
   2 -17  -1   22.84    1.51
  -2 -17   1   22.19    1.25
  -2 -17   1   23.10    1.45
   0   0   2   36.77    0.88
   0   0  -2   38.03    0.89
   2   0  -2   23.62    0.72
   2   0   2   24.02    0.73
   2   0   2   23.26    0.68
  -2   0   2   23.40    0.71
  -2   0  -2   23.79    0.69
  -2   0  -2   24.93    0.73
   2   0  -2   23.51    0.71
  -2   0  -2   23.35    0.71
  -2   0   2   24.65    0.65
  -4   0  -2   13.85    0.62
   4   0  -2   11.78    0.55
  -4   0  -2   12.54    0.49
  -4   0   2   12.46    0.52
   4   0   2   12.27    0.48
   4   0  -2   12.73    0.60
  -4   0  -2   12.51    0.57
   4   0   2   12.04    0.59
   4   0   2   11.87    0.57
  -4   0   2   11.87    0.55
  -6   0  -2    5.82    0.35
   6   0  -2    5.64    0.48
   6   0   2    5.93    0.46
   6   0   2    5.65    0.48
  -6   0   2    6.01    0.42
   8   0   2    3.23    0.26
   8   0  -2    3.09    0.43
  -8   0   2    3.46    0.47
   8   0   2    3.67    0.46
  -8   0  -2    3.91    0.47
  10   0  -2    1.55    0.43
  10   0   2    1.44    0.39
 -10   0   2    1.59    0.44
 -10   0  -2    1.37    0.41
  -1  -1  -2    9.31    0.34
  -1  -1  -2    9.94    0.34
  -1   1   2    9.61    0.33
   1  -1   2   10.07    0.37
  -1   1   2   10.04    0.26
  -1   1   2    9.86    0.28
  -1   1   2    9.87    0.34
   1  -1   2   10.18    0.33
   1   1  -2   11.61    0.41
  -1  -1  -2   10.23    0.37
   1   1  -2   10.08    0.35
   1   1   2    9.71    0.35
  -1   1  -2   10.01    0.32
  -1  -1   2   10.62    0.36
   1  -1  -2   10.15    0.34
  -1   1  -2    9.45    0.35
   1  -1  -2    9.53    0.28
   1   1   2    9.50    0.36
  -1  -1   2    9.93    0.34
   1   1   2    9.96    0.32
  -1   1  -2    9.54    0.35
   1  -1  -2    9.89    0.26
  -3   1   2    7.34    0.39
  -3   1   2    7.38    0.32
   3  -1   2    7.99    0.40
   3   1  -2    7.63    0.40
  -3  -1  -2    7.39    0.40
  -3  -1  -2    7.35    0.38
   3  -1   2    7.36    0.33
  -3   1   2    7.40    0.36
  -3  -1  -2    7.11    0.33
   3   1  -2    7.47    0.38
  -3  -1   2    7.62    0.24
   3   1   2    7.30    0.39
  -3   1  -2    8.23    0.40
  -3  -1   2    7.58    0.35
   3   1   2    7.83    0.39
   3   1   2    7.23    0.33
   3  -1  -2    6.94    0.36
  -3   1  -2    7.41    0.34
  -3  -1   2    7.43    0.38
  -3   1  -2    7.65    0.39
   3  -1  -2    7.68    0.33
   3  -1  -2    7.50    0.39
  -3  -1   2    7.25    0.39
   5  -1   2    4.81    0.29
  -5  -1  -2    4.68    0.36
  -5  -1  -2    4.82    0.31
   5   1  -2    5.25    0.41
  -5  -1  -2    4.76    0.38
  -5   1   2    4.42    0.38
   5  -1   2    5.18    0.39
  -5   1   2    5.30    0.37
  -5   1   2    4.47    0.32
  -5  -1  -2    4.16    0.38
   5   1   2    4.21    0.38
  -5   1  -2    4.69    0.37
  -5  -1   2    4.63    0.19
  -5  -1   2    4.70    0.34
   5  -1  -2    4.67    0.40
   5   1   2    4.83    0.30
  -5   1  -2    4.89    0.38
  -5   1  -2    4.70    0.33
  -5  -1   2    4.77    0.37
   5  -1  -2    4.61    0.33
  -7  -1  -2    2.28    0.24
   7   1  -2    3.32    0.40
   7  -1   2    2.93    0.35
  -7  -1  -2    2.77    0.38
   7  -1   2    2.86    0.38
   7  -1   2    2.26    0.22
   7   1   2    2.66    0.45
  -7  -1   2    2.24    0.38
   7   1   2    2.33    0.24
   7  -1  -2    2.80    0.45
  -7   1  -2    1.99    0.37
   9  -1   2    1.41    0.45
  -9  -1  -2    1.59    0.41
  -9   1   2    0.65    0.34
   9  -1  -2    0.51    0.40
   9   1   2    1.13    0.58
  -9   1  -2    1.11    0.33
 -11  -1  -2    0.52    0.36
 -11   1   2    0.62    0.33
  11   1  -2    0.50    0.27
  11  -1   2    0.74    0.31
 -11   1  -2    0.67    0.35
 -11  -1   2    0.76    0.34
  11   1   2    0.11    0.25
  11  -1  -2    0.75    0.34
   0   2   2  412.01   11.68
   0   2  -2  349.80   10.11
   0  -2   2  366.03   10.14
   0  -2  -2  395.43   11.62
   2   2  -2  334.18    9.15
  -2  -2  -2  329.83   11.32
   2  -2   2  335.64   11.83
  -2   2   2  333.86   11.91
  -2   2  -2  322.52   11.86
   2  -2  -2  330.23   11.57
  -2  -2   2  322.89    8.89
   2   2   2  330.17   11.50
  -4   2   2  207.14    4.98
  -4   2   2  213.35    4.86
  -4  -2  -2  206.81    4.94
  -4   2  -2  215.64    4.78
  -4  -2   2  212.28    4.88
  -4  -2   2  211.71    4.94
  -4   2  -2  218.60    4.99
  -4  -2   2  207.11    4.99
  -4   2  -2  206.62    4.93
  -6  -2  -2  116.17    2.89
  -6   2   2  111.77    2.98
  -6  -2  -2  115.92    3.25
   6  -2   2  116.47    3.12
   6   2  -2  111.33    3.18
  -6  -2   2  114.87    3.23
  -6  -2   2  105.01    2.78
  -6   2  -2  116.29    2.97
   6   2   2  119.23    3.21
   6  -2  -2  122.68    3.02
   6  -2  -2  126.41    3.26
   6   2   2  116.63    2.87
   8  -2   2   58.47    1.60
   8  -2   2   58.98    2.15
   8  -2   2   56.97    2.00
  -8  -2  -2   53.35    1.67
   8   2  -2   57.90    2.12
  -8  -2  -2   59.04    2.17
   8   2   2   57.74    1.65
  -8  -2   2   59.45    2.17
   8  -2  -2   57.76    2.12
   8   2   2   59.78    2.13
  -8   2  -2   59.32    2.12
 -10  -2  -2   27.23    1.52
  10   2  -2   29.32    1.54
 -10   2   2   28.61    1.57
  10  -2   2   27.75    1.52
 -10   2  -2   27.36    1.48
  10  -2  -2   25.65    1.44
 -10  -2   2   25.20    1.47
  10   2   2   24.59    1.42
  -1  -3  -2  497.61   15.19
   1   3  -2  514.75   13.13
   1   3  -2  500.01   13.09
  -1   3   2  520.69   16.09
   1  -3   2  496.23   15.13
  -1   3  -2  507.56   15.43
   1  -3  -2  512.99   15.91
   1   3   2  490.86   15.30
   3   3  -2  383.42   11.71
  -3  -3  -2  360.03   13.39
  -3   3   2  372.66   14.87
   3  -3   2  362.90   14.45
  -3   3  -2  383.11   15.01
  -3  -3   2  362.98   11.12
   3  -3  -2  356.45   14.09
   3   3   2  368.73   13.88
  -5   3   2  219.21    5.15
  -5  -3  -2  214.16    5.11
  -5  -3  -2  226.11    5.44
  -5   3   2  223.45    5.15
   5  -3  -2  231.81    5.18
  -5  -3   2  216.60    4.96
  -5  -3   2  217.53    5.25
  -5   3  -2  223.12    5.06
   7  -3   2  116.85    3.26
   7  -3   2  114.94    2.88
  -7  -3  -2  113.38    3.39
  -7  -3  -2  112.39    2.97
   7   3  -2  117.76    3.37
   7  -3  -2  119.42    3.13
  -7  -3   2  117.29    3.40
   7   3   2  120.19    3.38
   7  -3  -2  118.51    3.37
   7   3   2  117.27    2.96
  -7  -3   2  116.89    2.75
  -9  -3  -2   55.92    2.25
   9  -3   2   57.31    2.08
   9  -3   2   55.42    2.22
   9   3  -2   52.74    2.15
   9   3   2   57.66    2.20
  -9   3  -2   60.69    2.25
  -9  -3   2   59.29    2.29
   9  -3  -2   54.66    2.28
 -11   3   2   26.74    1.62
 -11  -3  -2   30.10    2.22
  11  -3   2   24.65    2.01
  11  -3  -2   27.50    1.85
 -11  -3   2   25.68    2.37
 -11   3  -2   26.34    1.55
   0  -4   2   27.50    0.95
   0   4  -2   28.23    0.93
   0   4   2   27.55    0.93
   0  -4   2   27.49    0.93
   0  -4  -2   29.11    0.87
   0   4  -2   27.74    0.79
   0   4   2   28.21    0.92
   0  -4   2   27.79    0.80
   0  -4  -2   29.17    0.95
   0  -4   2   29.58    0.94
   0  -4  -2   27.66    0.93
  -2  -4  -2   20.69    0.73
   2  -4   2   20.75    0.78
   2   4  -2   20.30    0.74
  -2  -4  -2   19.89    0.77
  -2  -4  -2   21.56    0.74
  -2   4   2   20.38    0.75
  -2   4   2   21.03    0.70
   2  -4   2   19.79    0.77
  -2   4   2   21.44    0.78
  -2   4  -2   20.70    0.76
   2  -4  -2   19.78    0.66
  -2  -4   2   20.92    0.80
  -2  -4   2   20.73    0.70
   2  -4  -2   20.58    0.78
  -2  -4   2   20.68    0.77
   2   4   2   20.99    0.80
  -2  -4   2   19.23    0.72
   2   4   2   19.39    0.71
   2  -4  -2   20.63    0.69
   2  -4  -2   20.40    0.66
   2   4   2   20.66    0.73
  -2   4  -2   20.49    0.76
  -4   4   2   10.82    0.48
  -4  -4  -2   11.07    0.59
  -4  -4  -2   10.46    0.61
  -4   4   2   10.53    0.50
  -4  -4  -2   10.90    0.58
   4  -4   2   10.67    0.60
  -4  -4  -2   11.73    0.54
  -4   4   2   10.45    0.59
   4  -4   2   12.28    0.61
   4   4  -2   10.82    0.61
   4  -4  -2   10.05    0.56
  -4   4  -2   10.50    0.58
   4   4   2   11.55    0.59
  -4   4  -2   10.50    0.56
   4  -4  -2   10.99    0.61
   4   4   2   11.01    0.53
  -4  -4   2    9.92    0.54
  -4  -4   2   10.61    0.59
  -4   4  -2   10.74    0.40
  -4  -4   2   12.59    0.66
   4   4   2   10.39    0.61
  -4  -4   2   11.31    0.49
   6   4  -2    5.46    0.49
   6  -4   2    5.50    0.36
  -6  -4  -2    5.84    0.52
   6  -4   2    5.22    0.46
  -6  -4  -2    5.26    0.39
   6  -4  -2    5.33    0.34
   6   4   2    5.42    0.39
  -6   4  -2    5.55    0.36
   6  -4  -2    5.63    0.24
   6  -4  -2    5.49    0.41
   6   4   2    6.14    0.50
  -6  -4   2    5.19    0.48
   6  -4  -2    5.67    0.41
  -6  -4   2    5.60    0.34
   8   4  -2    3.31    0.45
   8  -4   2    2.94    0.26
  -8  -4  -2    2.41    0.48
   8  -4   2    2.49    0.42
  -8  -4   2    2.11    0.43
  -8  -4   2    3.26    0.23
   8  -4  -2    3.15    0.44
   8  -4  -2    3.24    0.38
   8   4   2    2.92    0.41
  10   4  -2    1.70    0.45
 -10  -4  -2    1.53    0.41
  10  -4   2    1.18    0.38
  10  -4   2    1.79    0.39
 -10   4  -2    0.93    0.34
  10   4   2    2.13    0.47
  10  -4  -2    1.12    0.38
 -10  -4   2    1.53    0.42
   1  -5   2   57.69    1.53
   1   5  -2   62.49    1.62
  -1   5   2   60.85    1.74
  -1  -5  -2   64.08    1.68
   1  -5   2   56.51    1.76
  -1   5   2   63.91    1.71
  -1  -5  -2   61.61    1.64
   1  -5  -2   60.66    1.65
   1   5   2   61.49    1.75
  -1   5  -2   60.36    1.73
   1   5   2   58.72    1.65
   1  -5  -2   58.60    1.70
   1  -5  -2   60.68    1.61
   1   5   2   60.96    1.73
  -1  -5   2   56.57    1.59
  -1  -5   2   59.06    1.74
  -1   5  -2   59.11    1.53
  -1  -5   2   61.02    1.93
  -3  -5  -2   48.06    1.45
   3   5  -2   47.35    1.50
  -3  -5  -2   45.13    1.51
  -3   5   2   45.87    1.42
  -3  -5  -2   47.82    1.42
   3  -5   2   44.89    1.48
  -3   5   2   48.85    1.38
  -3  -5  -2   44.21    1.46
   3  -5   2   45.96    1.46
  -3   5   2   45.16    1.46
  -3   5  -2   45.94    1.75
  -3  -5   2   45.89    1.51
  -3  -5   2   48.25    1.40
  -3   5  -2   45.75    1.30
   3  -5  -2   43.76    1.28
  -3  -5   2   45.56    1.48
   3   5   2   47.69    1.41
  -3  -5   2   46.31    1.45
   3   5   2   46.16    1.43
   3  -5  -2   47.68    1.36
  -3  -5   2   47.58    1.37
   3  -5  -2   45.45    1.49
   3   5   2   45.83    1.51
  -3   5  -2   49.34    1.93
   5  -5   2   29.66    1.05
   5  -5   2   29.34    1.21
   5   5  -2   28.77    1.20
  -5  -5  -2   29.14    1.07
  -5   5   2   28.00    1.12
  -5   5   2   28.75    1.05
   5  -5   2   29.32    1.20
  -5  -5  -2   31.02    1.27
  -5  -5   2   29.60    1.20
   5  -5  -2   29.84    1.06
   5  -5  -2   28.34    1.00
  -5   5  -2   29.06    0.87
   5   5   2   30.96    1.19
   5  -5  -2   30.50    1.25
  -5  -5   2   29.59    1.00
   7  -5   2   15.35    0.69
   7  -5   2   16.67    0.92
  -7  -5  -2   15.16    0.96
   7   5  -2   15.69    0.95
  -7   5  -2   15.01    0.66
   7  -5  -2   16.15    0.64
   7   5   2   16.33    0.93
   7  -5  -2   16.75    0.82
  -7  -5   2   16.51    0.98
   7  -5  -2   14.64    0.51
   9  -5   2    7.63    0.71
  -9  -5  -2    7.39    0.75
   9   5  -2    7.74    0.75
   9  -5   2    7.38    0.75
   9  -5  -2    8.33    0.64
  -9   5  -2    7.83    0.72
   9   5   2    7.45    0.70
  -9  -5   2    7.87    0.76
   9  -5  -2    7.21    0.73
  11  -5   2    3.58    0.70
  11   5  -2    3.48    0.63
 -11   5   2    3.46    0.67
 -11  -5  -2    3.01    0.58
  11  -5  -2    3.10    0.62
 -11   5  -2    2.67    0.61
 -11  -5   2    3.24    0.65
  11   5   2    3.58    0.69
   0  -6  -2   87.12    2.38
   0   6  -2   89.35    2.16
   0   6   2   85.28    2.36
   0  -6   2   82.72    2.34
   0  -6  -2   84.97    2.24
   0  -6   2   87.00    2.17
   0  -6  -2   84.34    2.22
   0  -6   2   82.86    2.32
   0   6   2   84.13    2.28
   0  -6   2   83.61    2.34
   0   6  -2   82.07    2.33
   0  -6  -2   80.95    2.29
  -2  -6  -2   73.89    2.02
   2   6  -2   72.79    2.12
  -2   6   2   73.16    2.09
  -2  -6  -2   74.23    2.03
  -2  -6  -2   69.34    2.08
  -2   6   2   71.14    2.01
   2  -6   2   72.15    2.08
   2   6  -2   73.49    2.00
  -2  -6  -2   71.26    2.10
   2  -6   2   68.92    2.09
   2  -6  -2   72.82    1.85
  -2  -6   2   73.06    1.90
   2   6   2   72.03    2.10
  -2   6  -2   71.54    2.29
  -2  -6   2   70.61    2.08
   2  -6  -2   77.55    2.16
   2   6   2   73.02    2.03
  -2   6  -2   73.89    1.88
   2  -6  -2   73.27    1.93
  -2  -6   2   69.30    2.10
  -2   6  -2   71.90    2.06
  -2  -6   2   74.05    2.01
   4   6  -2   49.80    1.69
   4  -6   2   50.69    1.65
  -4   6   2   48.77    1.71
  -4  -6  -2   52.84    1.75
   4  -6   2   50.28    2.05
   4  -6  -2   48.24    1.75
   4   6   2   49.94    1.62
  -4  -6   2   49.96    1.64
  -4  -6   2   47.21    1.89
  -4  -6   2   48.25    1.50
  -4   6  -2   48.49    1.46
   4  -6  -2   47.72    1.51
   4  -6  -2   49.63    1.42
   6  -6   2   28.81    1.08
  -6  -6  -2   30.05    1.35
   6  -6   2   28.83    1.24
   6   6  -2   28.91    1.30
   6  -6  -2   26.83    0.88
   6  -6  -2   28.69    0.95
  -6  -6   2   29.78    1.32
  -6  -6   2   26.93    1.04
   6  -6  -2   29.11    1.04
   6   6   2   29.57    1.27
   6  -6  -2   29.41    1.14
  -6   6  -2   27.96    0.88
  -8  -6  -2   15.65    1.53
   8  -6   2   16.09    0.97
   8  -6   2   14.17    0.68
   8  -6  -2   14.25    0.83
   8   6   2   16.34    1.02
   8  -6  -2   15.28    1.00
  -8  -6   2   14.46    1.18
  10   6  -2    7.60    0.78
  10  -6   2    7.26    0.80
  10  -6   2    7.27    0.72
 -10  -6  -2    8.40    0.87
  10   6   2    8.25    0.81
 -10  -6   2    7.22    0.78
  10  -6  -2    7.63    0.81
 -10   6  -2    7.67    0.77
  -1  -7   2  381.48    8.79
   3   7  -2  339.51    7.73
  -3   7   2  334.88    7.72
  -3  -7  -2  327.86    7.70
  -3  -7   2  334.76    7.64
  -3  -7   2  333.44    7.56
  -3   7  -2  331.04    7.49
   3  -7  -2  324.57    7.74
   5  -7   2  217.02    5.67
   5   7  -2  226.52    5.66
  -5  -7  -2  217.27    5.67
   5  -7   2  228.07    5.61
  -5  -7  -2  227.45    5.67
   5  -7   2  219.29    5.42
  -5  -7   2  227.93    5.66
   5  -7  -2  214.82    5.26
   5  -7  -2  225.74    5.71
   5   7   2  228.38    5.59
   5  -7  -2  228.24    5.21
  -5  -7   2  230.56    5.63
   5  -7  -2  217.64    5.39
   7  -7   2  124.78    3.61
   7  -7   2  125.58    3.30
  -7  -7  -2  127.25    3.80
   7   7  -2  126.87    3.74
   7  -7  -2  126.23    3.39
  -7   7  -2  119.35    2.98
   7  -7  -2  117.44    2.99
   7   7   2  128.63    3.68
  -7  -7   2  126.10    3.72
   7  -7  -2  130.53    3.47
   9   7  -2   64.79    2.54
  -9  -7  -2   67.00    2.63
   9  -7   2   65.30    2.40
   9  -7  -2   66.52    2.25
  -9  -7   2   67.10    2.58
   9   7   2   64.11    2.47
   9  -7  -2   64.97    2.52
   0  -8  -2   56.85    1.82
   0  -8   2   58.88    1.90
   0  -8   2   57.24    1.85
   0   8   2   54.37    1.78
   0  -8  -2   59.77    1.93
   0  -8   2   59.25    1.70
   0   8  -2   57.32    1.67
   0  -8  -2   52.96    1.74
   2  -8   2   50.12    1.12
   2   8  -2   49.97    1.60
  -2  -8  -2   51.23    1.80
  -2  -8  -2   52.65    1.81
  -2  -8  -2   49.04    1.63
   2  -8  -2   49.89    1.63
   2  -8  -2   49.10    1.76
  -2  -8   2   50.82    1.60
  -2   8  -2   47.93    1.47
  -2  -8   2   50.64    1.84
   4   8  -2   37.39    1.50
   4  -8   2   37.37    1.46
   4  -8   2   37.56    1.52
  -4  -8  -2   36.39    1.47
  -4  -8  -2   36.09    1.47
   4  -8  -2   36.50    1.34
  -4  -8   2   36.73    1.41
   4   8   2   36.03    1.41
   4  -8  -2   37.51    1.53
  -4  -8   2   36.44    1.47
   4  -8  -2   36.93    1.13
  -4   8  -2   35.71    1.23
   4  -8  -2   31.56    1.22
  -6  -8  -2   21.71    1.18
  -6  -8  -2   21.56    1.17
   6  -8   2   20.83    1.11
   6   8  -2   21.58    1.17
   6  -8   2   22.17    1.21
   6  -8   2   21.04    0.99
  -6  -8   2   22.75    1.19
   6  -8  -2   22.52    1.04
   6  -8  -2   19.59    0.82
   6  -8  -2   21.40    1.20
  -6  -8   2   21.97    1.15
   6  -8  -2   22.03    0.84
   6   8   2   22.04    1.14
   8  -8   2   11.03    0.87
   8   8  -2   12.10    0.92
  -8  -8  -2   11.34    0.92
   8  -8   2   11.35    0.66
  -8  -8  -2   13.48    0.98
   8   8   2   10.90    0.86
   8  -8  -2   10.73    0.76
  -8  -8   2   10.68    0.88
  -8  -8   2   11.22    0.90
 -10  -8  -2    6.25    0.74
  10   8  -2    6.20    0.74
 -10  -8  -2    5.33    0.70
  10  -8   2    5.55    0.67
  10  -8   2    5.51    0.75
 -10  -8   2    4.96    0.70
 -10   8  -2    5.79    0.67
 -10  -8   2    4.95    0.68
  10  -8  -2    5.78    0.61
  10   8   2    5.42    0.70
   1  -9   2   43.06    1.39
   1   9  -2   41.47    1.42
  -1  -9  -2   46.68    1.70
  -1  -9  -2   42.72    1.57
   1  -9   2   44.08    1.65
   1  -9   2   43.10    1.58
   1  -9  -2   42.72    1.76
   1  -9  -2   40.88    1.51
   1  -9  -2   41.10    1.62
  -1   9  -2   42.78    1.42
  -1  -9   2   42.76    1.59
  -1  -9   2   40.83    1.42
  -1  -9   2   44.57    1.65
   3  -9   2   34.28    1.47
  -3  -9  -2   31.97    1.43
  -3  -9  -2   35.22    1.43
   3  -9   2   32.98    1.39
  -3  -9   2   34.60    1.33
   3  -9  -2   35.53    1.09
  -3   9  -2   33.52    1.18
  -3  -9   2   32.72    1.42
   3   9   2   36.29    1.42
   3  -9  -2   34.78    1.50
   3  -9  -2   34.08    1.33
   5  -9   2   24.75    1.21
  -5  -9  -2   23.48    1.22
   5   9  -2   22.83    1.20
  -5  -9  -2   23.03    1.20
   5  -9   2   23.30    1.25
  -5  -9   2   23.94    1.22
   5  -9  -2   22.40    1.07
   5  -9  -2   21.90    0.83
   5  -9  -2   24.28    1.28
   5   9   2   23.73    1.18
  -5  -9   2   22.65    1.14
  -7  -9  -2   13.60    0.98
   7   9  -2   12.14    0.93
   7  -9   2   13.50    0.93
   7  -9   2   13.39    0.79
  -7  -9  -2   15.11    1.03
   7  -9  -2   12.56    0.81
  -7  -9   2   13.11    0.96
   7   9   2   14.32    1.40
  -7  -9   2   12.91    0.98
   9   9  -2    7.40    0.79
  -9  -9  -2    7.57    0.80
  -9  -9  -2    7.13    0.78
   9  -9   2    7.02    0.74
  -9  -9   2    5.80    0.70
  -9  -9   2    7.41    0.81
   9   9   2    7.90    0.76
   9  -9  -2    6.89    0.64
   0 -10  -2    0.36    0.16
   0  10  -2    0.32    0.13
   0 -10   2    0.71    0.18
   0 -10   2    0.50    0.19
   0 -10   2    1.09    0.27
   0 -10  -2    0.13    0.11
   0 -10  -2    0.36    0.15
   2 -10   2    0.46    0.04
  -2 -10  -2    0.51    0.21
   2 -10   2    0.39    0.16
   2 -10   2    0.40    0.20
  -2 -10  -2    0.42    0.21
  -2 -10   2    0.42    0.17
   2 -10  -2    0.39    0.18
   2 -10  -2    0.26    0.17
   2 -10  -2    0.68    0.15
  -2 -10   2    0.98    0.27
  -2  10  -2    0.45    0.15
  -4 -10  -2    0.52    0.22
  -4 -10  -2    0.33    0.18
   4 -10   2    0.13    0.17
   4 -10   2    0.48    0.20
   4  10  -2    0.51    0.24
  -4 -10   2    0.33    0.17
   4 -10  -2    0.20    0.16
   4  10   2    0.25    0.19
   4 -10  -2    0.56    0.20
  -4 -10   2    0.76    0.26
   4 -10  -2    0.21    0.09
   6 -10   2    0.04    0.12
   6  10  -2    0.62    0.35
   6 -10   2    0.04    0.23
   6 -10   2    0.40    0.20
   6  10   2    0.32    0.20
  -6 -10   2    0.04    0.15
   6 -10  -2    1.06    0.28
  -8 -10  -2    0.10    0.22
   8  10  -2    0.31    0.22
  -8 -10  -2    0.17    0.19
   8 -10   2   -0.24    0.15
   8 -10   2    0.79    0.31
   8 -10  -2   -0.35    0.16
  -8 -10   2    0.09    0.19
   8  10   2    0.04    0.16
  -8 -10   2   -0.10    0.20
   8 -10  -2    0.07    0.16
   1 -11   2   94.42    2.68
  -1 -11  -2   96.28    2.91
   1 -11   2   96.19    3.03
   1 -11   2   94.24    2.26
   1 -11   2   97.11    2.95
  -1 -11  -2   96.62    3.04
   1 -11   2   94.06    2.27
  -1 -11   2   93.52    2.95
   1 -11  -2   96.01    2.53
   1 -11  -2   97.37    2.89
   1 -11  -2   96.35    2.90
   1 -11  -2   96.54    3.05
  -1 -11   2   99.16    2.77
  -1 -11   2   92.48    2.47
  -1 -11   2   97.60    3.03
   3 -11   2   77.77    2.60
  -3 -11  -2   79.87    2.61
   3 -11   2   78.69    2.72
  -3 -11  -2   81.71    2.76
   3 -11  -2   76.28    2.72
   3 -11  -2   77.56    2.51
  -3 -11   2   79.99    2.48
   3 -11  -2   78.54    2.08
  -3 -11   2   80.43    2.71
  -5 -11  -2   53.13    2.22
   5  11  -2   58.16    2.25
   5 -11   2   54.86    2.26
   5 -11   2   54.91    2.14
  -5 -11  -2   57.48    2.18
   5 -11  -2   54.61    2.01
   5  11   2   57.21    2.15
  -5 -11   2   56.43    2.47
   5 -11  -2   54.39    2.86
   5 -11  -2   53.83    1.53
  -5 -11   2   54.54    2.05
   7  11  -2   33.12    1.70
   7 -11   2   33.96    1.65
   7 -11   2   35.21    1.80
   7 -11   2   32.71    1.46
  -7 -11  -2   31.53    1.67
  -7 -11  -2   34.67    1.71
   7 -11  -2   31.82    1.74
  -7 -11   2   32.80    1.70
  -7 -11   2   33.27    1.63
   7 -11  -2   29.63    1.51
   7  11   2   33.21    1.65
   9 -11   2   18.07    1.90
   9  11  -2   16.41    1.25
  -9 -11  -2   16.29    1.23
  -9 -11  -2   17.79    1.28
  -9 -11   2   17.21    1.24
   9  11   2   19.01    1.31
  -9 -11   2   18.52    1.32
   0 -12   2   93.14    2.41
   0 -12   2   93.93    3.02
   0 -12   2   97.83    3.11
   0 -12   2   97.17    2.78
   0 -12  -2   96.21    2.98
   0 -12  -2   98.11    2.98
   0 -12  -2  100.43    3.17
   2 -12   2   85.84    2.84
   2 -12   2   86.12    2.95
  -2 -12  -2   87.63    2.96
  -2 -12  -2   90.89    2.87
   2 -12  -2   88.53    2.80
   2 -12  -2   90.31    3.02
  -2 -12   2   87.24    2.89
  -2 -12   2   89.11    2.70
  -2 -12   2   92.76    3.00
   2 -12  -2   86.12    2.33
  -4 -12  -2   65.51    2.40
   4 -12   2   68.71    3.35
   4 -12   2   68.72    2.46
   4 -12  -2   66.93    1.77
  -4 -12   2   66.60    2.30
   4 -12  -2   61.41    2.26
   6 -12   2   42.60    2.05
   6 -12   2   43.97    1.96
  -6 -12  -2   44.87    1.98
   6 -12   2   45.00    1.87
  -6 -12  -2   42.90    2.03
   6 -12  -2   45.11    2.11
   6 -12  -2   43.77    1.83
  -6 -12   2   43.96    2.04
   6  12   2   44.99    1.97
  -6 -12   2   45.77    1.91
   8  12  -2   25.45    1.55
   8 -12   2   25.86    1.51
  -8 -12  -2   26.54    1.55
  -8 -12  -2   26.77    1.61
  -8 -12   2   25.13    1.58
   8 -12  -2   25.03    1.35
  -1 -13  -2   10.77    0.82
   1 -13   2   11.94    0.87
   1 -13   2   10.74    0.40
  -1 -13  -2   11.97    0.91
   1 -13   2   10.03    0.39
   1 -13   2   10.29    0.84
  -1 -13  -2   10.55    0.80
  -1 -13   2   11.03    0.84
  -1 -13   2   10.91    0.86
   1 -13  -2   10.45    0.58
   1 -13  -2   10.72    0.80
   1 -13  -2   11.21    0.80
   1 -13  -2   10.19    0.86
   3 -13   2   10.22    0.88
  -3 -13  -2    9.02    0.79
  -3 -13  -2    9.18    0.84
   3 -13  -2    9.85    0.49
  -3 -13   2    9.81    0.85
  -3 -13   2   10.83    0.77
   3 -13  -2   10.39    0.80
   3 -13  -2    8.44    0.82
  -3 -13   2   10.38    0.85
  -5 -13  -2    6.86    0.76
   5 -13   2    7.38    0.75
   5 -13   2    6.99    0.77
  -5 -13  -2    7.48    0.72
   5 -13  -2    5.87    0.72
  -5 -13   2    6.41    0.73
   5 -13  -2    5.64    0.73
  -5 -13   2    7.39    0.68
   7 -13   2    3.42    0.60
   7 -13   2    5.53    0.62
  -7 -13   2    4.51    0.58
   7 -13  -2    2.95    0.51
   7 -13  -2    3.92    0.84
  -7 -13   2    5.66    1.09
   0 -14   2    0.47    0.26
   0 -14  -2    0.96    0.32
   0 -14  -2    1.65    0.37
   0 -14  -2    0.65    0.40
   0 -14   2    0.89    0.31
   0 -14   2    0.93    0.25
  -2 -14  -2    0.88    0.30
  -2 -14  -2    0.60    0.29
   2 -14   2    0.66    0.28
   2 -14   2    0.53    0.27
  -2 -14  -2    0.87    0.29
  -2 -14   2    1.00    0.32
   2 -14  -2    0.60    0.26
  -2 -14   2    0.26    0.23
  -2 -14   2    1.00    0.29
  -4 -14  -2    0.45    0.27
   4 -14   2    0.61    0.24
   4 -14   2    0.67    0.33
  -4 -14  -2    0.63    0.27
  -4 -14   2    1.03    0.35
   4 -14  -2    0.52    0.26
  -4 -14   2    0.72    0.27
   4 -14  -2    0.58    0.30
  -4 -14   2    0.64    0.23
  -6 -14  -2    0.59    0.31
   6 -14   2    0.40    0.25
   6 -14   2    0.44    0.28
  -6 -14   2    0.25    0.23
   6 -14  -2    0.25    0.22
  -1 -15  -2    0.21    0.19
   1 -15   2    0.22    0.19
   1 -15   2   -0.11    0.15
  -1 -15  -2    0.00    0.18
  -1 -15  -2    0.08    0.14
   1 -15  -2    0.09    0.15
  -1 -15   2    0.27    0.23
  -1 -15   2    0.79    0.22
  -1 -15   2    0.25    0.20
   1 -15  -2    0.69    0.14
   1 -15  -2    0.04    0.16
  -3 -15  -2    0.27    0.25
  -3 -15  -2    0.23    0.22
   3 -15   2    0.15    0.20
   3 -15   2    0.31    0.27
  -3 -15  -2   -0.02    0.17
  -3 -15   2   -0.19    0.16
  -3 -15   2    0.02    0.20
   3 -15  -2   -0.21    0.14
   3 -15  -2   -0.13    0.15
  -3 -15   2    0.44    0.24
  -5 -15  -2    0.11    0.26
   5 -15   2    0.12    0.21
  -5 -15  -2    0.22    0.20
   5 -15   2    0.56    0.34
   5 -15  -2   -0.06    0.22
  -5 -15   2    0.16    0.23
   5 -15  -2   -0.10    0.21
  -5 -15   2    1.49    0.43
  -5 -15   2   -0.08    0.22
   0 -16   2   21.91    1.39
   0 -16  -2   20.80    0.94
   0 -16   2   22.66    1.38
   0 -16  -2   22.74    1.27
   0 -16  -2   23.69    1.47
   0 -16  -2   23.07    1.34
   2 -16   2   22.22    1.44
  -2 -16  -2   21.27    1.33
   2 -16   2   22.30    1.36
  -2 -16  -2   20.89    1.37
  -2 -16  -2   21.91    1.30
   2 -16  -2   21.04    1.29
  -2 -16   2   21.08    1.15
  -2 -16   2   22.33    1.40
   2 -16  -2   20.87    1.41
  -2 -16   2   21.08    1.35
   4 -16   2   16.47    1.24
  -4 -16  -2   17.26    1.24
   4 -16   2   17.74    1.33
  -4 -16  -2   16.77    1.26
  -4 -16   2   16.27    1.22
  -4 -16   2   16.27    1.08
   4 -16  -2   15.76    1.13
   4 -16  -2   15.81    1.28
  -4 -16   2   17.70    1.27
   1 -17   2   43.27    2.09
  -1 -17  -2   36.43    1.73
  -1 -17  -2   37.08    1.93
  -1 -17  -2   39.21    1.99
   1 -17   2   36.44    1.87
  -1 -17   2   42.37    2.03
  -1 -17   2   38.01    1.89
   1 -17  -2   41.14    2.06
  -1 -17   2   35.81    1.57
  -1   0   3  628.16   14.91
  -1   0  -3  586.24   16.45
   1   0   3  597.56   16.49
  -1   0   3  623.79   15.16
   3   0  -3  460.26   14.29
   3   0   3  461.36   16.21
  -3   0  -3  503.54   16.63
  -3   0   3  468.23   14.26
  -5   0  -3  301.31    6.95
  -5   0   3  304.61    6.78
  -5   0   3  295.21    6.97
  -5   0   3  297.30    6.91
   7   0   3  159.11    4.19
   7   0   3  157.84    3.85
  -7   0  -3  159.76    4.26
   7   0  -3  165.44    4.29
  -7   0  -3  154.71    3.89
   7   0   3  162.90    4.31
  -9   0  -3   77.32    2.65
   9   0   3   71.54    2.68
  -9   0   3   69.02    2.70
  11   0  -3   35.83    1.82
 -11   0  -3   36.67    1.87
  11   0   3   36.50    2.03
 -11   0   3   33.47    1.85
   0   1   3  123.31    4.98
   0  -1   3  115.02    4.09
   0  -1  -3  115.52    4.87
   2   1   3   99.69    2.38
  -2  -1   3   98.28    2.36
  -4  -1  -3   63.36    1.82
  -4   1   3   62.43    1.74
   4  -1   3   64.44    1.68
  -4  -1  -3   64.00    1.82
   4  -1   3   64.67    1.81
   4   1  -3   60.17    1.76
   4   1  -3   64.33    1.81
  -4  -1  -3   62.63    1.68
  -4   1   3   63.20    1.80
  -4   1   3   64.93    1.64
  -4  -1   3   64.51    1.41
  -4   1  -3   65.68    1.80
   4   1   3   64.95    1.69
  -4  -1   3   62.75    1.77
  -4  -1   3   63.37    1.67
   4   1   3   63.14    1.80
   4  -1  -3   61.45    1.76
  -4   1  -3   62.41    1.78
   4  -1  -3   62.79    1.79
   4   1   3   63.25    1.79
   4  -1  -3   62.47    1.63
  -4   1  -3   62.19    1.68
  -6  -1  -3   35.12    1.16
   6  -1   3   34.87    1.12
  -6  -1  -3   37.30    1.40
   6   1  -3   37.32    1.39
   6  -1   3   36.05    1.34
   6  -1   3   36.97    1.41
  -6   1   3   35.57    1.20
   6   1   3   34.51    1.35
   6   1   3   35.64    1.15
  -6   1  -3   36.30    1.35
  -6   1  -3   36.46    1.24
  -6  -1   3   34.09    1.21
   6  -1  -3   37.18    1.38
   8  -1   3   18.59    1.08
  -8  -1  -3   18.36    1.06
  -8  -1  -3   17.33    0.81
   8  -1   3   18.64    1.01
   8   1  -3   17.79    1.04
   8  -1   3   18.56    0.75
  -8  -1   3   20.73    1.14
  -8   1  -3   18.52    1.05
   8   1   3   18.95    1.06
   8   1   3   19.15    0.78
   8  -1  -3   19.51    1.08
 -10  -1  -3    9.33    0.84
 -10   1   3    9.37    0.86
  10  -1   3    7.97    0.79
  10   1  -3    9.09    0.82
  10   1   3    8.11    0.78
  10  -1  -3    8.09    0.78
 -10   1  -3    8.53    0.81
 -10  -1   3    9.01    0.86
  -1  -2  -3  285.14   10.03
  -1   2  -3  281.67    9.72
   1   2   3  280.87   10.07
  -3  -2   3  205.11    4.74
   5   2  -3  121.19    3.14
  -5  -2  -3  117.95    3.16
  -5  -2  -3  115.78    2.92
  -5   2   3  112.57    2.97
   5  -2   3  121.06    3.11
   5  -2   3  117.33    2.90
  -5   2   3  118.22    2.90
  -5   2  -3  117.19    3.09
   5  -2  -3  114.39    3.00
  -5   2  -3  118.13    2.90
   5   2   3  116.07    3.10
   5  -2  -3  120.31    2.95
  -5  -2   3  116.86    2.65
   5   2   3  115.81    2.91
   5  -2  -3  123.24    3.13
   7  -2   3   64.35    2.08
   7   2  -3   64.51    2.14
  -7  -2  -3   64.19    2.17
   7  -2   3   62.23    2.15
   7  -2   3   61.33    1.75
  -7  -2  -3   58.86    1.81
   7   2   3   62.85    1.80
   7  -2  -3   63.90    2.13
  -7   2  -3   60.82    2.06
  -7  -2   3   63.61    2.17
   7   2   3   62.37    2.11
  -9  -2  -3   28.57    1.94
   9   2  -3   31.58    1.52
   9  -2   3   29.72    1.51
   9  -2   3   29.80    1.41
  -9  -2   3   29.53    1.51
  -9   2  -3   30.47    1.48
   9   2   3   29.77    1.48
 -11  -2  -3   13.80    1.14
 -11   2   3   15.16    1.35
  11  -2  -3   13.28    1.12
 -11   2  -3   14.22    1.13
  11   2   3   17.31    1.80
   0   3   3   68.08    1.74
   0  -3  -3   65.51    1.55
   0  -3   3   68.86    1.52
   0  -3  -3   67.85    1.65
   0  -3  -3   66.60    1.74
   0   3  -3   65.11    1.50
   0   3  -3   66.51    1.70
   0  -3   3   63.89    1.70
   0   3  -3   64.16    1.51
   0  -3   3   64.35    1.51
   0   3   3   64.80    1.64
   0  -3  -3   66.09    1.69
   0   3   3   67.16    1.70
   0  -3   3   61.94    1.66
   2  -3   3   59.10    1.58
  -2  -3  -3   57.94    1.53
   2  -3   3   56.80    1.55
  -2  -3  -3   57.25    1.48
  -2  -3  -3   57.10    1.61
  -2   3   3   57.86    1.54
   2   3  -3   57.32    1.58
  -2   3   3   60.88    1.58
  -2   3   3   55.58    1.40
  -2  -3  -3   58.91    1.53
  -2   3   3   57.44    1.47
   2  -3   3   53.78    1.51
   2  -3  -3   56.07    1.38
   2   3   3   50.56    1.45
  -2  -3   3   53.32    1.49
   2   3   3   58.17    1.53
  -2   3  -3   57.69    1.55
  -2   3  -3   57.77    1.27
  -2  -3   3   58.39    1.59
   2  -3  -3   56.01    1.39
  -2   3  -3   56.39    1.51
  -2  -3   3   55.44    1.49
   2  -3  -3   55.26    1.48
   2   3   3   57.51    1.61
  -4   3   3   39.40    1.15
  -4  -3  -3   40.93    1.38
   4  -3   3   39.88    1.32
  -4  -3  -3   40.06    1.23
  -4   3   3   38.95    1.31
  -4   3   3   41.00    1.22
   4   3  -3   41.61    1.35
  -4  -3  -3   40.04    1.31
  -4   3  -3   40.95    1.10
   4   3   3   41.71    1.24
  -4  -3   3   40.54    1.10
   4  -3  -3   40.03    1.15
   4   3   3   38.70    1.34
   4   3   3   39.69    1.29
  -4   3  -3   40.01    1.30
   4  -3  -3   41.24    0.98
  -4  -3   3   39.16    1.29
  -4  -3   3   39.40    1.34
  -4   3  -3   40.24    1.73
   4  -3  -3   39.67    1.24
  -4  -3   3   39.08    1.32
  -6  -3  -3   23.61    1.11
   6  -3   3   22.06    0.85
  -6  -3  -3   22.87    0.91
   6   3  -3   22.72    1.06
  -6   3   3   21.84    0.89
   6  -3   3   23.42    1.04
   6  -3  -3   24.85    1.09
   6  -3  -3   25.74    0.94
  -6  -3   3   23.95    0.72
  -6  -3   3   22.31    1.07
   6  -3  -3   24.67    1.16
   6   3   3   23.54    0.90
   6   3   3   24.45    1.08
   8  -3   3   11.91    0.80
   8  -3   3   11.81    0.57
   8   3  -3   11.40    0.82
   8  -3   3   10.67    0.82
  -8  -3  -3   11.45    0.86
   8   3   3   11.74    0.83
  -8   3  -3   11.89    0.82
   8  -3  -3   11.20    0.82
  -8  -3   3   12.06    0.86
   8   3   3   12.32    0.68
 -10  -3  -3    5.19    0.67
  10  -3   3    4.75    0.62
  10   3  -3    5.60    0.65
 -10   3  -3    5.23    0.63
  10  -3  -3    4.40    0.58
 -10  -3   3    5.76    0.70
  10   3   3    5.33    0.63
   1   4  -3  305.86    9.46
  -1   4   3  298.61   12.15
   1  -4   3  293.65   11.10
  -1  -4  -3  301.72   11.75
  -1   4   3  313.57   12.58
   1   4  -3  315.77    9.44
  -1   4  -3  306.73   11.57
   1   4   3  281.29   11.67
  -3   4   3  223.44    5.19
  -3   4   3  223.34    5.02
   3   4   3  213.92    5.24
  -3   4  -3  217.39    5.15
  -3   4  -3  219.16    5.17
  -3  -4   3  220.78    5.12
  -3  -4   3  231.08    5.28
  -5   4   3  135.32    3.34
  -5  -4  -3  135.82    3.41
   5   4  -3  138.02    3.61
  -5  -4  -3  138.59    3.67
   5  -4   3  136.68    3.38
  -5   4   3  130.42    3.35
   5   4   3  142.35    3.42
   5   4   3  136.57    3.54
  -5  -4   3  136.59    3.24
  -5  -4   3  135.40    3.82
   5  -4  -3  137.63    3.34
   5  -4  -3  136.38    3.41
   5  -4  -3  137.27    3.05
   5  -4  -3  132.00    3.10
  -5   4  -3  136.54    3.19
   7  -4   3   73.62    2.35
   7   4  -3   69.32    2.38
  -7  -4  -3   70.45    2.44
   7  -4   3   71.45    2.03
   7   4   3   73.59    2.38
   7  -4  -3   73.89    2.15
  -7   4  -3   71.06    2.01
  -7  -4   3   72.54    1.86
  -7  -4   3   71.90    2.41
   7  -4  -3   76.58    2.43
   7   4   3   82.17    2.23
  -9  -4  -3   37.85    1.79
   9  -4   3   37.54    1.66
   9   4  -3   38.22    1.74
   9  -4   3   38.50    1.80
  -9  -4   3   38.06    1.78
   9  -4  -3   38.87    1.75
   9   4   3   36.57    1.69
  -9   4  -3   39.13    1.71
  11  -4   3   17.36    1.27
 -11   4   3   18.71    1.35
  11   4  -3   17.31    1.24
 -11  -4  -3   17.45    1.33
  11   4   3   17.52    1.22
  11  -4  -3   16.68    1.38
 -11   4  -3   17.52    1.24
 -11  -4   3   17.01    1.27
   0  -5   3   52.00    1.69
   0  -5   3   50.60    1.34
   0   5   3   53.13    1.57
   0   5  -3   54.35    1.55
   0  -5   3   52.90    1.59
   0  -5  -3   51.36    1.56
   0  -5   3   50.22    1.53
   0   5  -3   50.01    1.33
   0  -5  -3   51.12    1.42
   0  -5  -3   52.94    1.47
   0   5   3   53.44    1.55
   0  -5   3   52.76    1.26
  -2  -5  -3   49.58    1.49
  -2   5   3   46.13    1.43
   2  -5   3   47.29    1.46
  -2   5   3   46.79    1.45
   2   5  -3   49.26    1.53
  -2  -5  -3   48.02    1.42
  -2  -5  -3   49.16    1.38
   2  -5   3   48.01    1.48
  -2  -5  -3   45.76    1.49
  -2  -5   3   44.85    1.49
   2  -5  -3   49.77    1.35
  -2  -5   3   45.74    1.32
  -2   5  -3   45.18    1.44
  -2  -5   3   46.11    1.37
   2   5   3   47.56    1.38
  -2   5  -3   47.53    1.44
   2  -5  -3   49.10    1.34
   2   5   3   47.14    1.51
  -2   5  -3   46.48    1.48
   2   5   3   50.31    1.43
  -2  -5   3   45.66    1.44
   2  -5  -3   47.26    1.48
   2  -5  -3   47.76    1.32
  -4  -5  -3   35.52    1.25
   4  -5   3   36.13    1.22
   4   5  -3   35.92    1.32
   4  -5   3   34.76    1.28
  -4  -5  -3   37.95    1.38
  -4   5   3   34.57    1.13
  -4  -5  -3   34.18    1.19
  -4   5   3   35.56    1.10
   4  -5   3   35.48    1.29
   4   5   3   36.19    1.20
   4  -5  -3   34.88    1.14
   4   5   3   36.17    1.24
  -4  -5   3   34.38    1.25
  -4  -5   3   36.23    1.13
   4  -5  -3   35.62    1.31
  -4   5  -3   37.51    1.45
   4  -5  -3   34.68    1.01
   4  -5  -3   31.33    1.37
  -4   5  -3   34.95    0.89
   6  -5   3   20.81    1.02
   6   5  -3   20.20    1.04
  -6  -5  -3   21.31    1.10
   6  -5   3   21.97    0.89
  -6   5  -3   20.67    0.73
  -6  -5   3   20.43    0.79
   6   5   3   22.00    0.95
  -6  -5   3   21.80    1.07
   6   5   3   22.57    1.04
   6  -5  -3   20.68    0.62
   6  -5  -3   20.77    0.88
   8  -5   3   10.59    0.79
   8   5  -3   11.15    0.84
   8  -5   3   11.11    0.79
  -8  -5  -3   10.96    0.86
   8   5   3   10.81    0.80
   8  -5  -3   10.74    0.67
   8  -5  -3   10.45    0.80
  -8  -5   3   10.45    0.50
  -8  -5   3   11.49    0.86
  10  -5   3    5.98    0.66
  10  -5   3    5.43    0.68
 -10  -5  -3    6.57    0.74
  10   5  -3    6.08    0.68
  10  -5  -3    4.69    0.64
 -10  -5   3    5.03    0.68
 -10   5  -3    5.76    0.68
  10   5   3    4.86    0.61
  -1  -6  -3    0.75    0.21
  -1   6   3    1.10    0.21
   1  -6   3    1.16    0.22
   1  -6   3    1.41    0.07
  -1  -6  -3    1.46    0.26
   1   6  -3    1.23    0.15
  -1   6   3    1.66    0.27
   1  -6   3    0.84    0.11
  -1  -6  -3    1.23    0.24
   1  -6   3    0.80    0.18
  -1  -6  -3    1.11    0.16
   1  -6  -3    1.11    0.22
   1   6   3    1.06    0.22
   1  -6  -3    1.06    0.18
  -1  -6   3    1.17    0.15
   1  -6  -3    1.35    0.24
  -1  -6   3    1.06    0.26
  -1   6  -3    1.00    0.20
  -1  -6   3    1.17    0.13
  -1   6  -3    1.01    0.12
  -1  -6   3    1.21    0.22
   1  -6  -3    1.79    0.21
  -3  -6  -3    0.46    0.15
  -3  -6  -3    0.83    0.19
  -3   6   3    0.50    0.15
   3   6  -3    1.00    0.23
   3  -6   3    1.78    0.29
  -3  -6  -3    0.78    0.21
   3  -6   3    0.86    0.21
  -3   6   3    0.59    0.17
   3  -6  -3    0.73    0.15
   3  -6  -3    0.77    0.18
   3   6   3    0.62    0.16
  -3   6  -3    1.15    0.14
  -3   6  -3    0.74    0.18
   3  -6  -3    1.69    0.28
  -3  -6   3    0.78    0.18
  -3  -6   3    1.08    0.21
   3  -6  -3    1.15    0.16
  -3  -6   3    0.89    0.18
   5  -6   3    1.14    0.23
  -5   6   3    0.55    0.15
  -5  -6  -3    0.94    0.26
   5  -6   3    0.69    0.21
   5  -6   3    0.56    0.20
  -5   6   3    0.46    0.14
  -5  -6   3    0.43    0.14
   5   6   3    0.85    0.22
   5  -6  -3    0.99    0.19
   5  -6  -3    0.58    0.19
   5  -6  -3    0.64    0.13
  -5  -6   3    0.35    0.17
  -5   6  -3    0.63    0.16
   5  -6  -3    0.40    0.13
   7  -6   3    0.62    0.21
   7   6  -3    0.29    0.18
  -7  -6  -3    0.34    0.18
   7  -6   3    0.14    0.12
  -7  -6   3    0.50    0.22
   7  -6  -3    0.50    0.17
  -7  -6   3    0.36    0.15
   7  -6  -3    0.31    0.09
   7   6   3    0.45    0.20
  -7   6  -3    0.59    0.14
   9   6  -3    0.31    0.25
  -9  -6  -3    0.50    0.26
   9  -6   3    0.20    0.19
   9  -6  -3    0.79    0.31
   9   6   3    0.25    0.16
  -9  -6   3    0.20    0.20
   9  -6  -3    0.33    0.17
  -9   6  -3    0.35    0.22
   0  -7  -3   42.16    1.48
   0   7  -3   43.09    1.49
   0   7   3   40.77    1.44
   0  -7   3   43.25    1.52
   0   7  -3   43.75    1.28
   0  -7   3   43.07    1.29
   0  -7   3   52.01    1.57
   0  -7  -3   45.09    1.41
   0  -7  -3   44.76    1.39
   0  -7   3   45.35    1.51
   0   7   3   42.34    1.50
   0  -7  -3   41.71    1.50
   0  -7   3   43.16    1.13
  -2  -7  -3   38.36    1.29
  -2  -7  -3   39.79    1.43
   2  -7   3   40.12    1.42
  -2  -7  -3   40.04    1.45
   2  -7   3   37.77    1.41
  -2   7   3   39.53    1.37
   2   7  -3   40.28    1.30
   2   7   3   38.30    1.32
   2  -7  -3   38.77    1.29
  -2  -7   3   40.79    1.43
  -2   7  -3   38.36    1.39
   2  -7  -3   39.34    1.21
   2  -7  -3   38.86    1.25
  -2  -7   3   38.99    1.28
   2  -7  -3   39.73    1.45
  -2   7  -3   39.14    1.15
  -2  -7   3   37.96    1.19
   4  -7   3   29.53    1.24
  -4  -7  -3   29.81    1.27
   4  -7   3   29.35    1.25
  -4  -7  -3   30.24    1.25
   4   7  -3   27.82    1.23
  -4  -7   3   29.70    1.23
   4   7   3   31.25    1.68
  -4  -7   3   29.14    1.17
   4  -7  -3   26.51    0.97
   4  -7  -3   28.88    1.07
   4  -7  -3   27.79    0.99
   4  -7  -3   28.84    1.26
  -4   7  -3   27.94    0.99
  -6  -7  -3   17.10    0.99
   6   7  -3   18.07    1.02
   6  -7   3   17.28    0.98
   6  -7   3   16.52    0.84
  -6  -7  -3   19.07    1.08
   6  -7  -3   16.97    0.71
   6  -7  -3   21.41    0.89
   6   7   3   17.24    0.95
   6  -7  -3   17.50    1.04
   6  -7  -3   16.74    0.66
   6  -7  -3   17.26    0.84
  -6  -7   3   18.10    1.00
   8   7  -3    9.51    0.81
   8  -7   3   10.17    0.61
   8  -7   3    8.00    1.02
  -8  -7  -3    9.02    0.81
   8  -7  -3    9.85    0.66
   8   7   3   10.24    0.80
  -8  -7   3    7.91    0.74
   8  -7  -3    9.22    0.78
  10  -7   3    4.45    0.63
  10  -7   3    4.00    0.94
 -10  -7  -3    4.26    1.07
  10   7   3    4.36    0.59
  10  -7  -3    3.54    0.64
 -10  -7   3    5.06    1.06
 -10   7  -3    4.21    0.56
  -1  -8  -3    9.61    0.64
  -1  -8  -3   11.22    0.61
   1  -8   3   10.22    0.50
   1  -8   3   10.53    0.67
   1  -8   3    9.82    0.32
   1   8  -3   10.51    0.54
  -1  -8  -3   11.17    0.70
   1  -8  -3    9.75    0.63
   1  -8  -3   10.64    0.68
   1  -8  -3   10.39    0.60
  -1  -8   3   10.39    0.67
  -1   8  -3   10.26    0.50
  -1  -8   3   10.47    0.55
  -1  -8   3    9.73    0.45
  -3  -8  -3    7.95    0.61
   3   8  -3    8.69    0.64
   3  -8   3    6.70    0.55
  -3  -8  -3    7.75    0.60
   3  -8   3    8.31    0.62
   3  -8  -3    7.61    0.51
  -3  -8   3    8.76    0.62
   3  -8  -3    8.22    0.63
  -3  -8   3    7.85    0.54
   3   8   3    8.15    0.56
   3  -8  -3    7.62    0.51
   3  -8  -3    8.32    0.46
  -3   8  -3    7.59    0.44
   5  -8   3    4.94    0.50
  -5  -8  -3    5.25    0.54
   5  -8   3    5.72    0.49
  -5  -8  -3    4.92    0.52
   5   8  -3    4.87    0.52
   5  -8   3    5.41    0.54
  -5  -8   3    5.63    0.52
   5  -8  -3    5.04    0.38
   5  -8  -3    5.68    0.57
   5  -8  -3    5.22    0.44
   5  -8  -3    5.37    0.39
   5   8   3    5.46    0.50
  -5  -8   3    6.10    0.56
   7  -8   3    2.52    0.35
  -7  -8  -3    2.84    0.51
  -7  -8  -3    2.71    0.59
   7   8  -3    3.58    0.51
   7  -8   3    2.42    0.43
  -7  -8   3    2.82    0.48
   7   8   3    2.99    0.44
  -7  -8   3    3.22    0.46
   7  -8  -3    3.39    0.39
  -9  -8  -3    1.23    0.38
   9   8  -3    1.57    0.41
  -9  -8  -3    1.04    0.34
   9  -8   3    1.56    0.40
   9  -8  -3    1.60    0.45
  -9  -8   3    1.58    0.40
   9  -8  -3    1.16    0.30
   9   8   3    1.97    0.47
  -9  -8   3    1.91    0.44
   0  -9  -3   43.85    1.58
   0  -9  -3   44.86    1.68
   0  -9   3   45.25    1.20
   0  -9   3   45.69    1.65
   0  -9   3   44.09    1.64
   0  -9  -3   43.15    1.51
   0  -9  -3   45.72    1.64
   0  -9   3   44.83    1.42
   0   9  -3   43.68    1.40
  -2  -9  -3   40.58    1.56
   2  -9   3   40.05    1.54
   2  -9   3   40.63    1.59
  -2  -9  -3   40.88    1.62
   2  -9  -3   38.35    1.26
   2  -9  -3   40.08    1.61
  -2  -9   3   42.02    1.41
  -2   9  -3   38.50    1.26
   2  -9  -3   39.65    1.44
  -2  -9   3   40.34    1.27
  -2  -9   3   40.01    1.58
   4  -9   3   29.37    1.38
   4   9  -3   28.65    1.36
  -4  -9  -3   30.70    1.38
   4  -9   3   29.57    1.34
  -4  -9  -3   28.66    1.35
   4  -9  -3   29.29    1.39
  -4  -9   3   28.85    1.33
   4  -9  -3   29.59    1.04
   4  -9  -3   29.85    1.20
   4   9   3   30.86    1.30
  -4  -9   3   30.63    1.27
  -4   9  -3   27.69    1.06
  -6  -9  -3   19.58    1.14
   6  -9   3   18.13    0.98
   6  -9   3   18.39    1.09
   6  -9   3   19.48    1.17
   6   9  -3   19.11    1.15
  -6  -9  -3   19.45    1.15
   6  -9  -3   17.76    1.14
   6   9   3   20.07    1.10
  -6  -9   3   18.08    1.05
   6  -9  -3   17.96    0.93
   6  -9  -3   18.63    0.80
  -6  -9   3   18.60    1.12
   8   9  -3   10.30    0.90
   8  -9   3   10.63    0.87
   8  -9   3    9.40    0.68
  -8  -9  -3    9.73    0.86
  -8  -9  -3   11.13    0.93
  -8  -9   3   11.15    0.90
  -8  -9   3   10.08    0.88
   8  -9  -3   10.12    0.72
   8   9   3   11.10    0.88
  -1 -10  -3  132.83    3.73
   1 -10   3  129.59    3.67
   1 -10   3  125.76    2.87
  -1 -10  -3  130.72    3.63
   1 -10   3  125.83    3.60
   1 -10   3  126.27    3.26
  -1 -10   3  130.19    3.38
  -1  10  -3  124.49    3.26
   1 -10  -3  131.58    3.54
   1 -10  -3  126.77    3.69
  -1 -10   3  129.69    3.64
  -1 -10   3  127.53    3.13
   1 -10  -3  129.67    3.27
   1 -10  -3  129.91    3.60
  -1 -10   3  132.41    3.68
  -3 -10  -3  108.42    3.28
   3 -10   3  106.37    3.27
   3 -10   3  106.64    3.18
  -3 -10  -3  106.79    3.20
  -3  10  -3  100.39    2.76
  -3 -10   3  104.71    2.98
   3 -10  -3  103.94    3.01
   3 -10  -3  106.54    2.73
  -3 -10   3  106.44    3.23
   3 -10  -3  106.79    3.29
   5  10  -3   73.33    2.59
   5 -10   3   74.66    2.44
   5 -10   3   71.62    2.60
  -5 -10  -3   75.46    2.59
   5 -10   3   72.46    2.54
  -5 -10  -3   71.62    2.57
   5  10   3   71.68    2.46
  -5 -10   3   73.79    2.57
   5 -10  -3   73.14    2.03
   5 -10  -3   74.87    2.67
   5 -10  -3   71.98    2.32
  -5 -10   3   73.35    2.44
  -7 -10  -3   42.06    1.92
   7 -10   3   42.46    1.70
  -7 -10  -3   41.74    1.93
   7  10  -3   44.46    1.98
   7 -10   3   44.31    1.93
   7  10   3   43.21    1.88
  -7 -10   3   45.67    1.91
  -7 -10   3   43.90    1.95
   7 -10  -3   43.50    1.68
   9 -10   3   22.84    1.40
   9  10  -3   24.66    1.51
  -9 -10  -3   22.09    1.43
  -9 -10  -3   21.42    1.42
   9 -10  -3   23.43    1.21
  -9 -10   3   21.77    1.43
   9 -10  -3   24.28    1.46
   9  10   3   25.37    1.64
   0 -11  -3   17.07    0.97
   0 -11   3   17.10    0.81
   0 -11  -3   16.60    1.01
   0 -11   3   18.00    1.03
   0 -11  -3   16.44    0.93
   0 -11   3   15.60    0.95
   0 -11   3   16.18    0.60
   2 -11   3   15.40    0.94
  -2 -11  -3   15.49    0.99
  -2 -11  -3   15.79    0.96
   2 -11   3   15.74    0.99
  -2 -11   3   14.34    0.95
   2 -11  -3   14.28    0.97
   2 -11  -3   15.56    0.89
   2 -11  -3   15.20    0.70
  -2 -11   3   14.61    0.93
  -2 -11   3   15.96    0.84
   4 -11   3   11.46    0.85
  -4 -11  -3   11.93    0.91
  -4 -11  -3   13.16    0.90
   4 -11   3   10.77    0.87
   4 -11  -3   12.25    0.93
  -4 -11   3   12.12    0.78
   4 -11  -3   10.59    0.75
   4 -11  -3   11.72    0.58
  -4 -11   3   11.43    0.87
   6 -11   3    6.34    0.71
   6 -11   3    7.83    0.76
   6  11  -3    7.46    0.74
   6 -11   3    8.21    0.69
  -6 -11  -3    7.65    0.75
  -6 -11  -3    6.19    0.70
  -6 -11   3    8.28    0.71
   6 -11  -3    7.07    0.77
  -6 -11   3    7.58    0.76
   6 -11  -3    7.65    0.46
   6 -11  -3    7.94    0.64
   6  11   3    7.74    0.87
  -8 -11  -3    3.08    0.59
   8 -11   3    3.95    0.55
  -8 -11  -3    4.02    0.68
   8 -11   3    4.93    0.63
   8  11  -3    5.20    0.67
  -8 -11   3    4.69    0.61
  -8 -11   3    3.10    0.60
   8  11   3    5.17    0.64
   1 -12   3   68.51    2.45
  -1 -12  -3   68.00    2.47
  -1 -12  -3   67.54    2.34
  -1 -12  -3   69.67    2.39
   1 -12   3   69.75    2.42
   1 -12   3   64.17    1.56
   1 -12   3   67.91    1.72
  -1 -12   3   63.15    1.87
   1 -12  -3   69.94    2.33
  -1 -12   3   68.31    2.40
  -1 -12   3   70.56    2.47
   1 -12  -3   69.87    2.36
  -1 -12   3   67.66    2.13
   1 -12  -3   70.99    2.03
   1 -12  -3   72.49    2.55
   3 -12   3   55.52    2.23
  -3 -12  -3   55.44    2.16
  -3 -12  -3   57.13    2.25
   3 -12   3   60.61    2.22
   3 -12  -3   54.64    2.26
  -3 -12   3   56.35    2.21
   3 -12  -3   58.15    2.07
  -3 -12   3   55.50    2.16
   3 -12  -3   56.39    1.67
  -3 -12   3   58.87    2.00
   5 -12   3   39.89    1.90
  -5 -12  -3   38.49    1.80
  -5 -12  -3   41.14    1.92
   5 -12   3   40.32    1.85
  -5 -12   3   42.11    1.92
   5 -12  -3   42.67    1.33
  -5 -12   3   38.59    1.68
   5 -12  -3   40.62    1.67
   5 -12  -3   40.39    1.95
   7 -12   3   22.93    1.49
   7 -12   3   23.01    1.26
  -7 -12  -3   25.64    1.53
   7  12  -3   24.63    1.49
   7 -12   3   25.14    1.46
  -7 -12  -3   24.56    1.46
  -7 -12   3   25.36    1.51
   7 -12  -3   24.51    1.55
   7  12   3   22.57    1.35
  -7 -12   3   22.78    1.34
   7 -12  -3   24.21    1.25
   0 -13  -3   11.88    0.85
   0 -13  -3   12.52    0.86
   0 -13   3   10.75    0.84
   0 -13   3   12.23    0.91
   0 -13   3   11.21    0.69
   0 -13  -3   10.68    0.89
  -2 -13  -3   10.81    0.83
   2 -13   3   11.38    1.08
   2 -13   3   10.18    0.99
  -2 -13   3   10.14    0.71
   2 -13  -3   10.29    0.57
  -2 -13   3   10.64    0.90
   2 -13  -3   11.15    0.80
   2 -13  -3    9.55    1.24
   4 -13   3    6.88    0.72
   4 -13   3    8.57    0.82
  -4 -13  -3    7.58    0.73
  -4 -13  -3    7.13    0.77
   4 -13  -3    7.61    0.68
  -4 -13   3    8.80    0.79
   4 -13  -3    9.33    0.56
   4 -13  -3    7.71    0.82
  -4 -13   3    8.53    0.82
  -4 -13   3    9.03    0.71
   6 -13   3    4.40    0.70
  -6 -13  -3    5.75    0.73
   6 -13   3    4.58    0.58
   6 -13   3    5.22    0.71
  -6 -13  -3    6.26    0.73
   6 -13  -3    6.58    0.65
   6 -13  -3    4.73    0.81
  -6 -13   3    5.54    0.70
  -6 -13   3    4.35    0.55
  -1 -14  -3  116.26    3.71
   1 -14   3  113.50    3.66
  -1 -14  -3  116.97    3.57
  -1 -14  -3  112.89    3.57
   1 -14   3  109.99    3.55
  -1 -14   3  107.50    3.55
   1 -14  -3  113.35    3.59
   1 -14  -3  112.97    3.01
   1 -14  -3  117.41    3.75
  -1 -14   3  109.49    3.21
  -1 -14   3  115.30    3.66
   3 -14   3   99.92    3.43
   3 -14   3   99.10    3.30
  -3 -14  -3  101.68    3.30
  -3 -14  -3   95.94    3.36
  -3 -14   3  100.96    3.38
   3 -14  -3   93.63    2.54
   3 -14  -3  100.68    4.11
  -3 -14   3   99.90    3.06
  -3 -14   3   98.55    3.34
   3 -14  -3   95.31    3.43
   5 -14   3   71.52    2.86
  -5 -14  -3   71.07    2.73
  -5 -14  -3   69.80    2.80
   5 -14   3   66.91    2.69
  -5 -14   3   70.02    2.73
  -5 -14   3   71.62    2.54
  -5 -14   3   73.32    2.84
   5 -14  -3   69.73    2.88
   0 -15   3    7.61    0.77
   0 -15   3    6.75    0.56
   0 -15  -3    6.76    0.74
   0 -15  -3    7.68    0.71
   0 -15   3    6.23    0.69
   0 -15  -3    7.64    0.72
   0 -15  -3    6.63    0.52
  -2 -15  -3    6.31    0.73
   2 -15   3    6.95    0.77
  -2 -15  -3    6.35    0.68
   2 -15   3    6.29    0.70
  -2 -15  -3    7.16    0.72
   2 -15  -3    6.81    0.69
  -2 -15   3    5.90    0.69
  -2 -15   3    7.00    0.76
   2 -15  -3    6.11    0.43
   2 -15  -3    5.95    0.74
  -2 -15   3    5.91    0.61
  -4 -15  -3    4.57    0.72
   4 -15   3    4.84    0.66
  -4 -15  -3    5.17    0.67
   4 -15   3    4.98    0.68
  -4 -15   3    4.27    0.71
   4 -15  -3    5.16    0.62
  -4 -15   3    5.63    0.70
   4 -15  -3    4.54    0.76
  -4 -15   3    4.80    0.57
  -1 -16  -3   25.92    1.56
   1 -16   3   27.50    1.58
   1 -16   3   23.73    1.42
  -1 -16  -3   26.34    1.48
  -1 -16  -3   26.70    1.45
   1 -16  -3   25.26    1.55
  -1 -16   3   27.74    1.57
   1 -16  -3   24.40    1.01
  -1 -16   3   26.19    1.49
   1 -16  -3   26.86    1.45
  -3 -16  -3   18.41    1.51
  -3 -16  -3   21.80    1.32
  -3 -16  -3   21.51    1.67
   3 -16   3   22.24    1.85
   3 -16  -3   22.52    1.32
  -3 -16   3   23.94    1.23
  -3 -16   3   18.38    1.37
  -3 -16   3   25.47    1.95
   3 -16  -3   24.51    1.65
   0 -17   3    6.31    0.78
   0 -17  -3    5.98    0.78
   0 -17   3    5.80    0.76
   2 -17   3    5.89    0.81
  -2 -17  -3    5.55    0.74
   2 -17   3    6.25    0.75
  -2 -17  -3    5.26    0.66
  -2 -17   3    4.77    0.58
  -2 -17   3    6.86    0.79
   2 -17  -3    5.40    0.77
  -2 -17   3    4.13    0.69
   0   0  -4  177.64    6.36
   0   0   4  180.45    6.69
  -2   0   4  141.75    5.69
  -2   0  -4  152.39    7.39
   2   0   4  159.65    8.87
   2   0  -4  140.48    5.52
   4   0  -4   87.78    2.41
  -4   0   4   91.32    2.45
   4   0   4   98.37    2.56
   4   0   4   92.01    2.45
   4   0  -4   92.83    2.41
  -4   0   4   93.17    2.24
  -4   0  -4   91.91    2.46
  -4   0  -4   90.13    2.43
  -4   0  -4   88.80    2.33
  -4   0   4   92.20    2.43
  -6   0  -4   46.92    1.99
   6   0   4   50.08    1.68
  -6   0   4   50.67    1.51
   6   0   4   50.35    1.72
   6   0   4   50.17    1.50
   6   0  -4   50.61    1.70
  -6   0  -4   47.91    1.50
   8   0   4   25.49    0.98
   8   0   4   26.68    1.30
  -8   0  -4   25.23    1.27
   8   0  -4   25.28    1.26
 -10   0  -4   11.10    0.93
 -10   0   4   11.40    0.96
  10   0   4   12.12    0.95
  10   0  -4   12.46    0.96
  -1  -1  -4  258.45    9.50
   1  -1   4  262.56    9.16
  -1   1   4  247.02    8.87
  -1  -1   4  264.01    6.74
   1   1   4  261.01    9.52
  -1   1  -4  260.39    9.26
  -3  -1   4  186.53    4.34
   5   1  -4  111.72    3.00
   5  -1   4  109.96    2.83
  -5  -1  -4  114.22    3.03
   5  -1   4  112.12    3.00
  -5  -1  -4  112.15    2.86
   5   1  -4  108.83    2.96
  -5   1   4  116.23    2.78
  -5   1  -4  113.67    2.96
   5  -1  -4  118.24    3.01
  -5   1  -4  110.81    2.96
  -5   1  -4  112.57    2.86
  -5  -1   4  113.02    2.83
   5   1   4  116.15    3.03
   5   1   4  116.66    3.02
   5  -1  -4  110.95    2.95
   5   1   4  112.77    2.85
   7  -1   4   58.11    1.73
   7  -1   4   57.50    1.98
  -7  -1  -4   58.14    2.04
   7   1  -4   61.42    2.07
   7  -1   4   60.51    2.08
   7   1   4   58.83    1.75
   7   1   4   59.77    2.05
   7  -1  -4   59.47    2.03
  -7   1  -4   59.84    2.00
   9  -1   4   29.05    1.08
  -9  -1  -4   29.63    1.49
   9  -1   4   30.08    1.50
   9   1  -4   29.55    1.52
   9   1   4   28.05    1.43
  -9  -1   4   29.02    1.51
  -9   1  -4   27.96    1.43
   9   1   4   28.20    1.07
 -11  -1  -4   13.37    1.08
  11   1  -4   10.54    1.32
 -11   1  -4   13.05    1.07
  11  -1  -4   12.95    1.09
   0  -2   4  119.09    4.66
   0   2  -4  119.53    4.73
   0   2   4  118.48    6.21
  -2   2   4  102.18    2.26
  -2  -2  -4   99.43    2.41
  -2  -2  -4   99.93    2.40
  -2   2   4   98.10    2.38
  -2   2   4   96.12    2.37
  -2  -2  -4   98.86    2.47
   2   2  -4   98.24    2.40
  -2   2   4   96.68    2.18
   2  -2   4   93.55    2.34
  -2   2  -4   96.69    2.34
  -2  -2   4  103.32    2.40
   2   2   4   98.75    2.46
  -2   2  -4   95.25    2.23
   2  -2  -4   96.43    2.23
  -2  -2   4  102.15    2.44
   2  -2  -4   98.17    2.38
  -2   2  -4   95.40    2.41
   4  -2   4   62.49    1.83
   4   2  -4   62.18    1.82
   4  -2   4   63.56    1.74
  -4  -2  -4   62.66    1.75
   4   2  -4   63.33    1.82
  -4   2   4   64.30    1.61
  -4  -2  -4   61.01    1.85
  -4  -2  -4   62.45    1.82
  -4   2   4   65.50    2.04
  -4   2   4   63.40    2.19
   4   2   4   61.20    1.73
  -4  -2   4   64.16    1.51
  -4  -2   4   62.22    1.80
  -4   2  -4   61.51    1.81
   4   2   4   61.12    1.79
  -4  -2   4   62.63    1.87
   4  -2  -4   61.94    1.79
  -4  -2   4   62.41    1.69
   4  -2  -4   66.16    1.80
  -4   2  -4   63.60    1.73
   4  -2  -4   62.68    1.59
  -4   2  -4   67.44    1.81
  -6  -2  -4   33.74    1.37
   6   2  -4   34.34    1.35
  -6  -2  -4   34.14    1.19
   6  -2   4   34.72    1.16
   6  -2   4   35.70    1.35
  -6   2  -4   34.43    1.29
  -6  -2   4   33.52    1.47
   6  -2  -4   36.12    1.36
   6   2   4   36.48    1.37
   6  -2  -4   32.16    1.25
  -6   2  -4   33.69    1.16
   6   2   4   36.86    1.20
   8  -2   4   18.08    1.01
   8  -2   4   17.38    0.78
   8  -2   4   17.81    1.07
   8   2  -4   17.38    1.04
  -8  -2  -4   16.20    1.03
  -8  -2   4   16.62    1.03
   8  -2  -4   17.80    1.03
   8   2   4   22.13    1.14
  -8   2  -4   19.33    1.04
   8   2   4   18.89    0.83
 -10  -2  -4    8.31    0.80
  10  -2   4    7.12    0.76
  10   2  -4    7.86    0.77
  10   2   4    8.47    0.79
 -10   2  -4    9.36    0.82
 -10  -2   4    8.75    0.84
  10  -2  -4    8.16    0.78
   1   3  -4    6.54    0.38
   1   3  -4    5.93    0.28
   1  -3   4    5.74    0.30
  -1  -3  -4    5.84    0.36
  -1  -3  -4    5.63    0.32
   1  -3   4    5.83    0.34
  -1   3   4    5.69    0.32
  -1   3   4    5.31    0.28
  -1  -3  -4    5.94    0.33
  -1   3   4    5.71    0.34
  -1  -3  -4    5.60    0.24
  -1  -3   4    5.38    0.26
   1  -3  -4    5.84    0.25
  -1  -3   4    6.29    0.29
   1   3   4    5.84    0.33
   1   3   4    6.53    0.38
   1  -3  -4    5.69    0.35
  -1   3  -4    6.37    0.35
   1   3   4    5.92    0.26
  -1   3  -4    5.76    0.30
   1  -3  -4    5.36    0.31
  -1  -3   4    5.87    0.31
  -1  -3   4    5.42    0.32
   1  -3  -4    5.56    0.28
   1  -3  -4    5.48    0.31
  -1  -3   4    6.08    0.36
  -1   3  -4    5.96    0.19
  -3   3   4    3.91    0.30
  -3   3   4    3.89    0.22
  -3  -3  -4    4.21    0.31
  -3  -3  -4    3.93    0.33
  -3   3   4    3.44    0.26
   3  -3   4    3.51    0.29
   3  -3   4    3.72    0.30
  -3  -3  -4    3.23    0.27
   3   3  -4    3.44    0.30
  -3   3  -4    3.40    0.28
   3  -3  -4    3.99    0.31
   3  -3  -4    3.75    0.19
   3   3   4    3.96    0.32
  -3  -3   4    3.83    0.31
  -3   3  -4    3.35    0.27
   3  -3  -4    3.60    0.28
   3  -3  -4    4.08    0.21
   3   3   4    3.24    0.27
   3   3   4    3.27    0.26
  -3  -3   4    3.85    0.36
  -3  -3   4    3.69    0.28
   5  -3   4    2.13    0.38
   5  -3   4    2.11    0.24
  -5  -3  -4    2.08    0.24
  -5   3   4    1.88    0.19
  -5  -3  -4    2.36    0.31
  -5  -3   4    2.17    0.25
   5  -3  -4    3.20    0.31
   5   3   4    1.77    0.26
  -5  -3   4    1.80    0.15
  -5  -3   4    2.39    0.31
   5   3   4    1.85    0.23
  -5   3  -4    2.44    0.21
   5  -3  -4    2.12    0.27
   7  -3   4    1.12    0.22
   7  -3   4    1.32    0.30
   7   3  -4    1.39    0.33
  -7  -3  -4    1.55    0.34
  -7  -3   4    1.25    0.30
   7   3   4    0.95    0.26
   7   3   4    1.34    0.25
  -7   3  -4    1.18    0.27
   7  -3  -4    1.17    0.30
  -7  -3   4    1.15    0.07
   9   3  -4    0.15    0.20
   9  -3   4    0.62    0.25
   9  -3   4    0.72    0.29
   9  -3   4    0.28    0.11
  -9  -3  -4    0.85    0.32
   9  -3  -4    0.40    0.24
   9   3   4    0.53    0.15
   9   3   4    0.82    0.30
  -9  -3   4    0.40    0.21
  -9   3  -4    0.54    0.25
  11  -3   4   -0.12    0.18
  11   3  -4    0.44    0.30
 -11   3   4    0.33    0.30
 -11   3  -4    0.31    0.28
 -11  -3   4    0.14    0.25
  11   3   4    0.37    0.21
   0  -4   4   54.61    1.54
   0  -4   4   55.77    1.33
   0  -4  -4   54.57    1.61
   0  -4   4   57.69    1.64
   0   4   4   58.77    1.64
   0  -4  -4   55.37    1.39
   0  -4   4   56.40    1.34
   0   4  -4   54.36    1.53
   0   4   4   57.31    1.53
   0  -4  -4   56.39    1.52
   0   4   4   55.14    1.56
   0  -4  -4   57.48    1.57
   0  -4   4   55.66    1.58
  -2   4   4   48.92    1.45
   2  -4   4   45.91    1.43
  -2  -4  -4   48.03    1.48
  -2  -4  -4   47.12    1.39
   2  -4   4   48.22    1.45
  -2  -4  -4   48.65    1.31
  -2   4   4   47.39    1.40
   2   4  -4   48.28    1.48
  -2  -4  -4   47.30    1.41
   2  -4   4   47.24    1.39
   2  -4  -4   49.05    1.28
   2   4   4   47.47    1.39
  -2   4  -4   48.05    1.38
  -2  -4   4   43.67    1.37
  -2  -4   4   48.24    1.47
  -2  -4   4   45.98    1.32
   2   4   4   51.31    1.52
   2  -4  -4   46.44    1.22
  -2   4  -4   47.17    1.15
  -2  -4   4   46.74    1.32
  -2   4  -4   47.90    1.42
   2   4   4   46.79    1.30
   2  -4  -4   48.40    1.40
   4  -4   4   30.55    1.15
  -4   4   4   30.60    0.96
  -4  -4  -4   29.88    1.08
  -4   4   4   29.21    1.12
   4  -4   4   30.15    1.12
   4  -4   4   30.67    1.09
  -4   4   4   30.38    1.03
  -4  -4  -4   31.62    1.22
   4   4  -4   32.27    1.18
   4  -4  -4   30.51    1.07
   4  -4  -4   32.29    1.17
   4   4   4   29.95    1.35
  -4   4  -4   29.71    1.10
   4  -4  -4   31.80    0.95
   4  -4  -4   32.00    0.96
  -4  -4   4   30.10    0.95
   4   4   4   30.38    1.09
  -4   4  -4   31.70    0.94
  -4  -4   4   31.83    1.14
   4   4   4   33.13    1.10
  -4  -4   4   30.14    1.10
   6   4  -4   18.35    0.96
  -6  -4  -4   17.98    0.98
  -6   4   4   16.64    0.73
   6  -4   4   17.91    0.79
   6  -4   4   16.58    0.89
   6   4   4   17.62    0.90
   6  -4  -4   17.68    0.74
   6  -4  -4   19.11    0.94
  -6  -4   4   17.99    0.64
   6  -4  -4   18.14    0.84
  -6  -4   4   17.30    0.92
  -6   4  -4   16.82    0.66
   8  -4   4    9.39    0.72
   8   4  -4    9.31    0.76
   8  -4   4    9.20    0.56
  -8  -4  -4    9.29    0.79
  -8   4  -4    8.42    0.70
   8  -4  -4    8.14    0.70
  -8  -4   4    9.94    0.78
   8   4   4    9.47    0.75
   8   4   4    9.56    0.60
  10  -4   4    4.59    0.56
 -10  -4  -4    5.25    0.66
  10   4  -4    5.27    0.64
  10  -4   4    4.39    0.62
  10  -4  -4    3.15    0.60
  10   4   4    4.09    0.57
 -10   4  -4    4.02    0.63
 -10  -4   4    3.15    0.58
   1   5  -4  517.92   14.94
  -1   5   4  540.29   19.44
   1  -5   4  492.67   16.72
   1   5  -4  521.75   15.02
  -1   5   4  517.03   18.71
  -1  -5  -4  514.54   18.38
  -1   5  -4  506.04   17.37
   1   5   4  507.53   18.44
   3   5   4  408.79    9.24
  -3  -5   4  396.71    9.20
   5  -5   4  269.97    6.45
   5  -5   4  265.90    6.28
  -5   5   4  263.52    6.13
  -5  -5  -4  264.15    6.53
   5  -5  -4  268.18    5.88
   5  -5  -4  268.64    6.10
   5  -5  -4  268.33    6.25
  -5   5  -4  264.18    5.86
  -5  -5   4  263.75    6.08
   5   5   4  269.79    6.69
  -7  -5  -4  147.74    4.22
   7   5  -4  143.07    4.11
   7  -5   4  149.82    4.11
   7  -5   4  146.13    3.76
  -7  -5   4  139.23    3.50
  -7  -5   4  153.43    4.18
   7  -5  -4  146.65    3.86
   7   5   4  147.98    4.06
   7  -5  -4  151.59    4.10
   7   5   4  154.82    3.85
   9   5  -4   78.49    2.79
   9  -5   4   76.05    2.68
  -9  -5  -4   74.56    2.82
   9  -5   4   72.96    2.80
  -9  -5   4   77.86    2.80
   9   5   4   76.55    2.70
   9  -5  -4   78.86    2.75
  -9   5  -4   83.34    2.69
  11  -5   4   32.49    1.85
  11   5  -4   34.44    1.83
 -11  -5  -4   34.32    1.89
 -11  -5   4   36.40    1.90
  11  -5  -4   34.76    1.80
 -11   5  -4   35.23    1.77
   0  -6   4    1.59    0.23
   0  -6  -4    1.64    0.28
   0  -6   4    1.68    0.13
   0  -6  -4    1.86    0.25
   0   6   4    1.66    0.23
   0  -6  -4    1.90    0.19
   0   6  -4    1.81    0.22
   0   6  -4    1.65    0.15
   0   6   4    2.07    0.25
   0  -6   4    1.51    0.21
   0  -6  -4    1.98    0.25
   0  -6   4    2.28    0.18
   0  -6   4    1.85    0.24
  -2  -6  -4    2.09    0.34
  -2  -6  -4    1.51    0.21
   2   6  -4    1.51    0.28
  -2   6   4    1.64    0.27
  -2   6   4    1.53    0.26
  -2  -6  -4    2.06    0.27
  -2  -6  -4    1.39    0.18
   2  -6   4    1.36    0.26
   2  -6  -4    1.33    0.17
   2   6   4    1.18    0.25
   2   6   4    1.82    0.23
   2  -6  -4    1.26    0.24
   2  -6  -4    1.13    0.19
  -2   6  -4    2.29    0.27
  -2  -6   4    1.14    0.18
  -2  -6   4    2.21    0.26
   2  -6  -4    1.35    0.18
  -2  -6   4    1.64    0.22
   4  -6   4    0.75    0.20
  -4  -6  -4    1.23    0.26
   4  -6   4    1.23    0.27
   4   6  -4    1.35    0.30
   4  -6   4    1.19    0.25
  -4  -6  -4    1.15    0.28
   4  -6  -4    0.96    0.17
   4   6   4    1.30    0.25
   4  -6  -4    1.04    0.17
   4  -6  -4    0.83    0.22
  -4   6  -4    1.13    0.16
  -4  -6   4    0.92    0.19
   4   6   4    1.34    0.42
   4  -6  -4    0.96    0.19
  -4  -6   4    0.80    0.20
  -4  -6   4    1.08    0.24
   6  -6   4    0.96    0.28
   6  -6   4    0.64    0.19
   6   6  -4    0.56    0.22
  -6  -6  -4    0.72    0.25
   6  -6  -4    0.18    0.13
   6   6   4    0.96    0.23
   6   6   4    0.87    0.25
  -6  -6   4    0.74    0.23
  -6   6  -4    0.67    0.11
  -6  -6   4    0.48    0.14
   6  -6  -4    0.64    0.10
   6  -6  -4    0.72    0.17
   6  -6  -4    0.53    0.10
   8  -6   4    0.50    0.16
   8   6  -4    0.36    0.22
   8  -6   4    0.20    0.15
  -8  -6  -4   -0.04    0.13
   8  -6  -4    0.19    0.15
   8   6   4    0.28    0.21
  -8  -6   4    0.44    0.34
  -8   6  -4    0.51    0.22
   8  -6  -4    0.75    0.21
  10   6  -4    0.06    0.20
  10  -6   4    0.10    0.23
 -10  -6  -4    0.07    0.21
  10  -6   4    0.07    0.20
  10  -6  -4   -0.31    0.16
 -10   6  -4    0.23    0.22
 -10  -6   4   -0.04    0.21
  10   6   4    0.32    0.20
   1   7  -4   38.46    1.17
   1  -7   4   38.59    1.39
   1  -7   4   38.80    1.08
  -1   7   4   37.51    1.36
  -1   7   4   36.40    1.38
  -1  -7  -4   40.42    1.43
   1  -7   4   36.86    1.35
  -1  -7  -4   37.20    1.21
  -1  -7  -4   36.44    1.39
  -1  -7   4   40.57    1.39
   1  -7  -4   36.71    1.22
  -1  -7   4   37.28    1.08
   1  -7  -4   37.44    1.26
  -1   7  -4   39.44    1.09
  -1   7  -4   37.05    1.35
   1   7   4   36.29    1.36
   1  -7  -4   37.38    1.37
   1  -7  -4   37.82    1.26
  -1  -7   4   38.10    1.17
   1  -7  -4   36.24    1.20
  -1  -7   4   39.61    1.39
   1  -7  -4   37.87    1.39
   3   7  -4   30.68    1.28
  -3  -7  -4   29.16    1.25
   3  -7   4   29.96    1.24
   3  -7   4   32.44    1.26
  -3  -7  -4   30.15    1.12
  -3  -7   4   33.64    1.45
   3  -7  -4   29.44    1.30
  -3  -7   4   30.67    1.13
   3  -7  -4   28.88    1.05
  -3  -7   4   28.55    1.05
   3  -7  -4   29.62    1.18
   3   7   4   30.75    1.14
  -3   7  -4   30.56    0.95
   3  -7  -4   30.21    1.06
   5  -7   4   19.96    0.96
  -5  -7  -4   19.38    1.02
   5  -7   4   20.09    1.04
   5   7  -4   20.45    1.06
   5  -7   4   19.56    1.04
  -5  -7  -4   19.94    1.07
  -5  -7   4   19.59    0.98
   5  -7  -4   18.89    0.74
   5  -7  -4   21.54    1.09
  -5  -7   4   20.11    1.03
   5  -7  -4   20.07    0.84
   5  -7  -4   22.17    0.90
   5   7   4   20.66    0.99
  -5   7  -4   19.11    0.80
   7  -7   4   11.62    0.71
   7  -7   4   11.83    0.84
  -7  -7  -4   11.52    0.84
  -7  -7  -4   11.54    0.89
   7   7  -4   10.71    0.82
   7   7   4   12.03    0.81
  -7  -7   4   11.34    0.82
   7  -7  -4   11.64    0.67
   7  -7  -4   11.07    0.66
   9  -7   4    6.01    0.64
  -9  -7  -4    6.36    0.72
   9   7  -4    6.16    0.69
   9  -7  -4    5.28    0.50
  -9  -7   4    6.24    0.69
   9   7   4    6.23    0.66
   9  -7  -4    6.09    0.67
  -9   7  -4    5.19    0.59
   0  -8   4    6.51    0.51
   0  -8  -4    6.76    0.45
   0  -8   4    6.88    0.53
   0  -8   4    6.55    0.30
   0  -8  -4    7.74    0.57
   0  -8   4    6.63    0.39
   0   8  -4    6.53    0.38
   0  -8  -4    5.78    0.69
  -2  -8  -4    4.78    0.40
  -2  -8  -4    5.88    0.51
  -2  -8  -4    5.18    0.49
   2  -8   4    5.65    0.72
   2  -8   4    5.91    0.50
   2  -8  -4    6.02    0.52
  -2  -8   4    5.43    0.48
   2  -8  -4    5.79    0.40
  -2  -8   4    5.22    0.37
   2  -8  -4    4.87    0.40
  -2  -8   4    5.80    0.41
  -2   8  -4    5.87    0.34
   4  -8   4    4.66    0.49
   4   8  -4    3.94    0.45
  -4  -8  -4    4.36    0.47
   4  -8   4    4.30    0.47
  -4  -8  -4    4.29    0.46
   4   8   4    4.21    0.42
   4  -8  -4    4.11    0.46
  -4  -8   4    3.53    0.38
  -4  -8   4    4.19    0.45
  -4   8  -4    4.49    0.33
   4  -8  -4    3.47    0.34
   4  -8  -4    3.62    0.33
   4  -8  -4    3.65    0.34
   6  -8   4    1.84    0.39
  -6  -8  -4    2.15    0.42
  -6  -8  -4    2.30    0.44
   6  -8   4    2.60    0.47
   6  -8   4    2.06    0.36
   6   8  -4    2.96    0.43
  -6  -8   4    3.44    0.44
   6  -8  -4    2.10    0.37
   6  -8  -4    2.21    0.30
   6  -8  -4    2.74    0.49
   6  -8  -4    2.76    0.31
   6   8   4    2.94    0.39
  -6  -8   4    1.39    0.34
   8  -8   4    1.07    0.33
   8   8  -4    1.56    0.41
  -8  -8  -4    1.43    0.40
  -8  -8  -4    0.85    0.30
   8  -8   4    1.48    0.29
  -8  -8   4    1.24    0.34
   8   8   4    1.14    0.31
  -8  -8   4    1.08    0.33
   8  -8  -4    1.24    0.27
   8  -8  -4    1.10    0.34
 -10  -8  -4    0.45    0.27
  10  -8   4    0.12    0.27
  10   8  -4    1.00    0.35
 -10  -8   4    0.61    0.32
  10   8   4    0.70    0.29
 -10   8  -4    0.71    0.35
 -10  -8   4    0.87    0.35
   1  -9   4  277.05    6.66
  -1  -9  -4  259.43    6.39
  -1  -9  -4  285.81    6.76
  -1  -9  -4  277.40    6.70
   1   9  -4  264.14    6.52
  -1  -9   4  272.42    6.12
  -1  -9   4  275.08    6.65
  -1   9  -4  266.13    6.18
   1  -9  -4  276.22    6.72
  -1  -9   4  271.42    6.30
   1  -9  -4  280.24    6.50
   1  -9  -4  267.62    6.64
   1  -9  -4  257.84    6.40
   1  -9  -4  271.08    6.32
   3  -9   4  221.94    5.74
  -3  -9  -4  221.87    5.74
   3  -9   4  230.29    5.75
  -3  -9  -4  233.19    5.81
  -3   9  -4  216.62    5.19
  -3  -9   4  223.83    5.46
   3  -9  -4  223.95    5.32
   3  -9  -4  224.87    5.78
   3  -9  -4  224.09    5.46
  -3  -9   4  225.83    5.73
   5   9  -4  151.93    4.34
   5  -9   4  152.90    4.15
  -5  -9  -4  156.93    4.36
   5  -9   4  148.51    4.30
   5  -9   4  157.32    4.33
  -5  -9  -4  151.32    4.29
   5  -9  -4  152.59    4.36
  -5  -9   4  152.74    4.27
  -5  -9   4  151.46    4.14
   5  -9  -4  154.23    3.83
  -5   9  -4  150.73    3.92
   5  -9  -4  150.66    3.94
   5   9   4  152.35    4.16
   7   9  -4   90.26    3.08
   7  -9   4   92.38    3.04
  -7  -9  -4   89.70    3.09
   7  -9   4   91.64    2.77
  -7  -9  -4   88.59    3.03
  -7  -9   4   90.41    3.04
   7  -9  -4   89.49    2.64
   7   9   4   80.15    2.94
   7  -9  -4   88.92    2.51
  -7  -9   4   88.57    2.95
  -9  -9  -4   46.16    2.14
   9  -9   4   49.27    2.14
   9   9  -4   47.70    2.23
  -9  -9  -4   45.44    2.17
  -9  -9   4   49.41    2.16
  -9  -9   4   47.49    2.17
   9  -9  -4   47.89    2.09
   9   9   4   47.16    2.07
   0 -10   4   24.15    1.18
   0 -10  -4   24.83    1.12
   0  10  -4   23.64    1.30
   0 -10   4   25.33    0.96
   0 -10  -4   25.41    1.24
   0 -10  -4   26.12    1.22
   0 -10   4   24.89    0.76
   0 -10   4   27.06    1.24
   2 -10   4   22.65    1.16
  -2 -10  -4   23.07    1.19
  -2 -10  -4   22.80    1.17
   2 -10   4   21.84    1.13
  -2 -10   4   23.00    1.15
  -2  10  -4   21.42    0.85
   2 -10  -4   24.31    1.07
   2 -10  -4   22.29    0.92
  -2 -10   4   23.50    1.00
   2 -10  -4   23.16    1.20
  -2 -10   4   23.39    1.17
  -4 -10  -4   17.10    1.06
  -4 -10  -4   18.03    1.07
   4 -10   4   16.06    1.01
   4 -10   4   16.27    1.02
   4  10   4   17.32    0.96
  -4 -10   4   17.29    1.04
   4 -10  -4   16.55    0.87
  -4 -10   4   17.45    0.92
   4 -10  -4   15.59    1.02
  -4  10  -4   16.74    0.75
   6  10  -4    9.55    0.83
   6 -10   4   10.77    0.79
  -6 -10  -4   10.88    0.87
  -6 -10  -4   10.10    0.99
   6 -10  -4   11.23    0.71
   6  10   4   10.24    0.79
  -6 -10   4   10.88    0.81
  -6 -10   4   12.22    0.91
   6 -10  -4   10.90    0.62
   6 -10  -4   10.20    0.87
   8  10  -4    6.40    0.72
  -8 -10  -4    7.01    0.77
   8 -10   4    6.53    0.70
   8 -10   4    6.29    0.62
  -8 -10  -4    5.41    0.70
   8 -10  -4    5.65    0.55
   8  10   4    6.38    0.67
  -8 -10   4    6.91    0.71
  -8 -10   4    7.03    0.76
   1 -11   4    0.64    0.24
  -1 -11  -4    0.03    0.10
   1 -11   4    0.01    0.12
  -1 -11  -4    0.06    0.13
   1 -11  -4   -0.03    0.10
  -1 -11   4    0.16    0.13
   1 -11  -4    0.34    0.14
  -1 -11   4    0.28    0.14
  -1 -11   4    0.07    0.09
  -1  11  -4   -0.02    0.11
   1 -11  -4    0.54    0.22
   1 -11  -4    0.05    0.10
  -3 -11  -4    0.20    0.16
   3 -11   4    0.05    0.14
   3 -11   4    0.16    0.16
  -3 -11  -4    0.30    0.23
   3 -11  -4    0.01    0.13
   3 -11  -4    0.24    0.11
  -3 -11   4    0.02    0.11
  -3 -11   4    0.04    0.11
  -3 -11   4    0.04    0.15
   3 -11  -4    0.17    0.14
  -3  11  -4    0.10    0.14
   5 -11   4    1.04    0.31
  -5 -11  -4    0.15    0.18
   5 -11   4   -0.03    0.11
   5 -11   4    0.67    0.32
   5 -11  -4    0.39    0.16
   5 -11  -4    0.77    0.42
   5 -11  -4    0.09    0.09
   5  11   4    0.23    0.16
  -5 -11   4    0.13    0.18
   7  11  -4    0.13    0.21
  -7 -11  -4    0.30    0.24
   7 -11   4    0.02    0.17
   7 -11   4    0.07    0.20
  -7 -11  -4    0.01    0.20
   7  11   4    0.01    0.19
  -7 -11   4   -0.11    0.18
   7 -11  -4   -0.04    0.15
  -7 -11   4    0.08    0.18
   7 -11  -4   -0.02    0.13
   0 -12  -4   26.32    1.33
   0 -12  -4   28.02    1.43
   0 -12  -4   28.17    1.32
   0 -12   4   28.73    1.39
   0 -12   4   29.17    1.31
   0 -12   4   26.31    0.82
   0 -12   4   29.68    1.43
   2 -12   4   26.46    1.36
  -2 -12  -4   24.26    1.33
  -2 -12  -4   24.51    1.30
   2 -12   4   25.38    1.32
   2 -12  -4   26.09    1.03
  -2 -12   4   24.92    1.31
  -2 -12   4   27.39    1.37
   2 -12  -4   24.63    1.20
  -2 -12   4   23.73    1.09
   2 -12  -4   23.52    1.34
   4 -12   4   19.48    1.39
  -4 -12  -4   20.05    1.22
  -4 -12  -4   17.90    1.25
   4 -12  -4   19.16    1.03
   4 -12  -4   18.39    0.81
  -4 -12   4   20.52    1.31
   4 -12  -4   20.64    1.28
  -4 -12   4   18.07    1.01
   6 -12   4   11.91    0.97
  -6 -12  -4   12.70    1.00
   6 -12   4   12.11    1.01
   6 -12   4   12.76    0.91
  -6 -12  -4   10.21    0.95
   6 -12  -4   11.63    1.02
   6 -12  -4   12.54    0.62
  -6 -12   4   12.84    1.02
  -6 -12   4   11.89    0.89
   6 -12  -4   11.79    0.81
  -8 -12  -4    8.49    0.89
   8 -12   4    7.61    0.75
   8 -12   4    5.69    0.79
   8  12  -4    7.36    0.85
  -8 -12  -4    8.52    0.90
  -8 -12   4    6.12    0.76
  -8 -12   4    8.62    0.85
   1 -13   4   23.03    1.81
  -1 -13  -4   16.05    1.02
   1 -13   4   16.60    1.08
  -1 -13  -4   17.11    1.14
  -1 -13  -4   16.93    1.06
   1 -13  -4   18.22    1.04
  -1 -13   4   17.05    0.87
   1 -13  -4   16.04    1.04
   1 -13  -4   17.90    0.85
   1 -13  -4   17.38    1.20
  -1 -13   4   16.09    1.06
   3 -13   4   14.34    1.02
  -3 -13  -4   14.03    1.04
  -3 -13  -4   14.83    1.03
   3 -13   4   18.73    1.18
  -3 -13   4   13.91    1.00
   3 -13  -4   13.51    0.69
  -3 -13   4   14.46    0.87
  -3 -13   4   14.22    1.02
   3 -13  -4   16.25    1.14
   3 -13  -4   14.85    0.94
  -5 -13  -4   10.64    0.94
   5 -13   4    9.55    0.80
   5 -13   4   10.54    0.92
   5 -13   4    9.35    0.89
  -5 -13  -4    9.14    0.85
   5 -13  -4   10.71    0.79
  -5 -13   4    9.64    0.76
  -5 -13   4   10.24    0.92
   5 -13  -4   10.37    0.55
   5 -13  -4    9.66    0.92
  -7 -13  -4    6.24    0.83
  -7 -13  -4    6.07    0.74
   7 -13   4    5.64    0.67
   7 -13   4    7.68    0.85
   7 -13  -4    6.12    0.81
  -7 -13   4    6.05    0.79
  -7 -13   4    6.08    0.67
   0 -14   4   22.39    0.69
   0 -14  -4   25.21    1.35
   0 -14  -4   24.29    1.41
   0 -14   4   24.79    1.06
   0 -14   4   25.32    1.40
   0 -14   4   25.41    1.39
   0 -14  -4   23.91    1.07
  -2 -14  -4   23.69    1.32
   2 -14   4   24.70    1.40
  -2 -14  -4   22.72    1.31
  -2 -14  -4   23.92    1.41
   2 -14   4   25.67    1.40
  -2 -14   4   23.22    1.12
  -2 -14   4   23.01    1.34
   2 -14  -4   22.38    0.96
   2 -14  -4   22.79    1.40
  -2 -14   4   22.08    1.32
   2 -14  -4   23.67    1.25
  -4 -14  -4   17.50    1.22
   4 -14   4   18.88    1.27
  -4 -14  -4   17.97    1.20
   4 -14   4   18.11    1.20
   4 -14  -4   17.85    1.09
  -4 -14   4   16.91    1.02
   4 -14  -4   17.66    0.76
  -4 -14   4   18.47    1.24
  -4 -14   4   17.82    1.21
   4 -14  -4   16.64    1.23
   6 -14   4   14.10    1.03
  -6 -14  -4   12.07    1.03
   6 -14   4   14.35    1.37
  -6 -14  -4   11.81    1.15
   6 -14  -4   11.89    1.10
  -6 -14   4   12.23    1.05
  -6 -14   4   10.78    1.10
  -6 -14   4   13.45    0.99
   6 -14  -4   12.50    0.89
  -1 -15  -4   37.65    1.86
  -1 -15  -4   36.08    1.71
   1 -15   4   37.25    1.81
   1 -15   4   37.95    1.80
  -1 -15  -4   35.77    1.72
  -1 -15   4   35.94    1.76
   1 -15  -4   38.71    1.91
  -1 -15   4   36.37    1.79
   1 -15  -4   35.72    1.35
   1 -15  -4   36.98    1.68
  -1 -15   4   36.06    1.44
  -3 -15  -4   31.20    1.62
  -3 -15  -4   30.55    1.61
   3 -15   4   30.52    1.63
  -3 -15  -4   31.06    1.69
   3 -15   4   32.30    1.73
   3 -15  -4   28.43    1.09
   3 -15  -4   32.59    1.53
  -3 -15   4   32.80    1.69
   3 -15  -4   33.46    1.81
  -3 -15   4   29.98    1.38
  -3 -15   4   31.48    1.67
   5 -15   4   24.10    1.58
  -5 -15  -4   21.79    1.45
   5 -15   4   22.33    1.36
   5 -15   4   24.02    1.52
  -5 -15  -4   22.89    1.43
  -5 -15   4   21.26    1.43
   5 -15  -4   23.00    1.29
  -5 -15   4   21.49    1.43
   5 -15  -4   21.69    1.51
   0 -16  -4   10.16    0.97
   0 -16   4    9.69    0.89
   0 -16   4   10.08    0.90
   0 -16  -4   10.20    0.88
   0 -16  -4   10.60    0.88
  -2 -16  -4    9.73    0.89
  -2 -16  -4    8.45    0.82
   2 -16   4    9.62    0.93
  -2 -16  -4    9.30    0.90
   2 -16   4    9.36    0.94
  -2 -16   4    8.61    0.68
   2 -16  -4    9.92    0.85
  -2 -16   4    9.95    0.90
   2 -16  -4    8.75    1.04
   4 -16   4    7.70    0.87
  -4 -16  -4    6.77    0.82
   4 -16   4    6.60    0.82
  -4 -16  -4    8.25    0.85
  -4 -16  -4    6.59    0.79
  -4 -16   4    7.27    0.83
  -4 -16   4    7.90    0.71
  -4 -16   4    7.40    0.82
   4 -16  -4    6.64    0.76
   4 -16  -4    6.43    0.84
   1 -17   4    3.53    0.66
  -1 -17  -4    5.48    0.70
  -1 -17  -4    3.29    0.59
   1 -17   4    3.80    0.64
  -1 -17  -4    4.08    0.44
  -1 -17  -4    3.06    0.58
   1 -17  -4    3.63    0.68
  -1 -17   4    3.67    0.67
   1 -17  -4    2.05    0.64
  -1 -17   4    3.75    0.67
  -1   0  -5  278.95   10.39
   1   0  -5  289.50    9.25
   1   0   5  291.55   10.48
  -1   0   5  297.80    8.95
  -3   0   5  198.76    4.63
  -5   0  -5  115.19    3.07
   5   0   5  118.84    2.98
   5   0  -5  113.15    3.14
  -5   0  -5  117.72    3.05
  -5   0   5  117.71    2.85
  -5   0  -5  119.04    3.00
   5   0  -5  117.69    3.08
   7   0   5   64.12    2.13
   7   0   5   62.91    2.17
   7   0  -5   65.56    2.17
   7   0   5   64.90    2.11
  -7   0  -5   64.32    2.14
  -9   0  -5   32.15    1.53
   9   0   5   30.17    1.51
   9   0   5   31.77    1.19
   9   0  -5   31.20    1.58
 -11   0   5   12.32    1.09
 -11   0  -5   15.48    1.15
  11   0   5   12.15    1.18
  11   0  -5   15.80    1.67
   0  -1   5   31.92    0.95
   0  -1   5   34.06    0.92
   0  -1   5   33.33    0.75
   0   1   5   32.09    0.93
   0  -1   5   33.11    0.88
   0   1   5   31.89    0.81
   0   1   5   32.63    0.73
   0  -1  -5   31.82    0.77
   0   1   5   32.99    0.96
   0  -1  -5   31.66    0.81
   0  -1   5   31.77    0.83
   0  -1  -5   33.22    0.94
   0   1   5   32.74    0.78
   0   1  -5   31.35    0.94
   0  -1  -5   32.54    0.93
   0   1  -5   30.86    0.88
   0   1  -5   32.84    0.89
   0  -1  -5   31.07    0.93
   2   1  -5   27.44    0.85
  -2  -1  -5   26.99    0.87
   2  -1   5   27.11    0.89
  -2   1   5   27.59    0.76
  -2   1   5   26.87    0.87
   2   1  -5   26.62    0.87
  -2  -1  -5   27.07    0.88
  -2  -1  -5   27.59    0.86
   2  -1   5   26.68    0.88
  -2   1   5   28.72    0.82
  -2  -1   5   26.03    0.76
   2  -1  -5   27.14    0.88
  -2   1  -5   26.61    0.87
   2   1   5   25.92    0.85
  -2   1  -5   27.01    0.76
   2  -1  -5   26.19    0.72
   2   1   5   27.36    0.89
  -2   1  -5   26.04    0.88
   2  -1  -5   27.86    0.78
  -2  -1   5   26.16    0.83
  -2  -1   5   27.72    0.87
  -2   1  -5   25.06    0.76
   2   1   5   26.11    0.85
  -4   1   5   17.91    0.58
  -4  -1  -5   18.01    0.77
  -4  -1  -5   17.77    0.77
  -4   1   5   17.07    0.73
  -4  -1  -5   17.20    0.72
   4   1  -5   17.29    0.75
   4  -1   5   18.57    0.73
   4  -1   5   17.02    0.77
   4   1  -5   18.30    0.78
  -4   1   5   17.11    0.74
  -4   1  -5   18.30    0.73
   4  -1  -5   18.37    0.74
  -4  -1   5   18.12    0.46
  -4  -1   5   17.48    0.63
  -4   1  -5   17.88    0.77
   4  -1  -5   17.22    0.76
   4   1   5   17.58    0.75
  -4   1  -5   17.39    0.71
   4   1   5   17.79    0.72
  -4   1  -5   17.85    0.73
  -4  -1   5   17.92    0.46
  -4  -1   5   16.35    0.73
  -4  -1   5   17.77    0.76
   4   1   5   18.35    0.78
   6   1  -5    9.20    0.63
  -6   1   5   10.69    0.52
   6  -1   5    9.78    0.55
  -6  -1  -5   10.07    0.66
   6  -1   5   10.69    0.67
   6  -1  -5   10.41    0.65
   6  -1  -5   10.58    0.65
  -6   1  -5    9.93    0.63
   6   1   5   10.47    0.67
   6   1   5   10.17    0.65
  -6  -1   5   10.48    0.55
  -6   1  -5   10.06    0.67
  -6   1  -5   10.14    0.65
   6   1   5   10.50    0.57
   8   1  -5    5.79    0.57
   8  -1   5    5.07    0.56
   8  -1   5    5.59    0.55
  -8  -1  -5    5.32    0.57
   8  -1   5    4.85    0.41
   8   1   5    5.53    0.45
   8  -1  -5    5.87    0.58
  -8   1  -5    6.37    0.59
   8   1   5    5.68    0.58
 -10   1   5    1.91    0.49
  10  -1   5    2.45    0.55
 -10  -1  -5    3.08    0.58
  10   1  -5    2.14    0.46
  10  -1  -5    2.98    0.57
 -10  -1   5    3.02    0.58
  10   1   5    2.77    0.55
 -10   1  -5    2.60    0.52
  -1  -2  -5    9.74    0.44
  -1   2   5   10.43    0.47
  -1  -2  -5   10.12    0.40
  -1   2   5    9.58    0.39
  -1  -2  -5   11.76    0.41
   1  -2   5   10.64    0.48
   1   2  -5   10.86    0.42
   1  -2   5   10.24    0.37
   1  -2   5   10.26    0.45
  -1  -2  -5    9.99    0.47
  -1   2   5   10.34    0.40
   1  -2  -5   10.17    0.40
  -1   2  -5    9.63    0.34
  -1   2  -5    9.98    0.37
  -1  -2   5    9.34    0.37
   1   2   5    9.65    0.44
   1  -2  -5   10.32    0.26
   1   2   5   10.18    0.47
  -1  -2   5   10.42    0.46
   1  -2  -5    9.68    0.44
  -1   2  -5   10.49    0.45
  -1  -2   5    9.84    0.43
   1  -2  -5   10.46    0.30
   1   2   5   10.07    0.32
  -1  -2   5    9.99    0.41
  -1  -2   5   10.38    0.42
   1  -2  -5    9.81    0.38
   3  -2   5    8.48    0.47
  -3   2   5    7.80    0.43
   3   2  -5    8.63    0.46
  -3  -2  -5    9.00    0.50
  -3   2   5    8.44    0.29
   3  -2   5    8.25    0.45
  -3  -2  -5    7.82    0.44
  -3  -2  -5    7.82    0.44
  -3   2   5    8.19    0.44
   3   2  -5    8.59    0.46
   3  -2  -5    8.36    0.46
  -3   2  -5    8.44    0.38
   3  -2  -5    8.30    0.41
   3   2   5    8.11    0.42
  -3   2  -5    7.83    0.41
   3   2   5    8.35    0.45
  -3  -2   5    7.87    0.45
   3   2   5    7.88    0.45
  -3  -2   5    8.73    0.45
   3  -2  -5    8.16    0.28
  -3   2  -5    7.95    0.45
   5   2  -5    4.63    0.40
  -5   2   5    4.96    0.30
   5  -2   5    4.97    0.42
   5  -2   5    4.80    0.37
  -5  -2  -5    5.06    0.38
  -5  -2   5    6.12    0.21
   5  -2  -5    5.02    0.41
   5   2   5    5.30    0.39
   5   2   5    4.47    0.39
  -5   2  -5    5.17    0.34
  -5  -2   5    5.32    0.21
   5  -2  -5    5.34    0.42
  -5   2  -5    5.59    0.41
  -5   2  -5    5.13    0.38
  -5  -2   5    5.41    0.36
  -7  -2  -5    2.12    0.40
   7  -2   5    2.94    0.37
  -7   2   5    2.40    0.27
   7   2  -5    2.51    0.42
  -7   2  -5    3.12    0.37
   7  -2  -5    2.96    0.36
   7   2   5    2.77    0.38
  -7  -2   5    2.17    0.40
   7   2   5    2.21    0.28
   7  -2  -5    2.84    0.38
   9  -2   5    1.01    0.32
   9  -2   5    1.16    0.36
   9  -2   5    0.89    0.20
   9   2  -5    2.15    0.46
   9   2   5    1.01    0.33
  -9  -2   5    0.81    0.30
   9   2   5    1.38    0.26
  -9   2  -5    1.31    0.35
   9  -2  -5    1.11    0.42
 -11  -2  -5    0.61    0.31
  11  -2   5    0.46    0.31
 -11   2   5    0.22    0.26
  11   2  -5    0.44    0.30
 -11  -2   5    0.00    0.21
 -11   2  -5    0.04    0.27
  11   2   5    0.08    0.23
   0   3   5  422.69   14.59
   0  -3   5  409.44   12.11
   0  -3  -5  445.51   14.99
   0   3  -5  377.67   12.00
   2  -3   5  368.15   13.92
  -2   3   5  382.64   14.63
  -2   3   5  382.32   14.16
  -2  -3  -5  376.77   14.42
  -2   3  -5  360.95   14.08
   2   3   5  375.04   14.64
  -4   3   5  261.71    6.06
  -4   3   5  261.58    5.97
  -4  -3  -5  249.76    5.98
  -4  -3  -5  264.60    6.09
  -4  -3   5  254.12    6.09
  -4   3  -5  269.22    6.26
   4   3   5  250.08    6.09
  -4  -3   5  254.85    6.02
   6  -3   5  152.94    3.87
   6   3  -5  157.70    4.12
  -6  -3  -5  150.33    4.14
   6  -3   5  153.15    4.10
  -6   3   5  153.44    3.73
   6  -3  -5  149.64    3.98
  -6   3  -5  156.22    3.78
   6   3   5  154.09    4.18
   6  -3  -5  162.97    4.08
   6   3   5  159.94    4.07
  -6   3  -5  158.47    3.95
  -6  -3   5  151.04    3.45
  -6  -3   5  158.11    4.14
   8   3  -5   79.84    2.70
  -8  -3  -5   82.17    2.78
   8  -3   5   78.66    2.75
   8  -3   5   80.89    2.68
   8  -3   5   81.32    2.34
  -8  -3   5   82.36    2.76
   8  -3  -5   84.48    2.71
  -8   3  -5   87.26    2.64
   8   3   5   81.64    2.39
   8   3   5   81.77    2.69
  10   3  -5   39.03    1.85
 -10  -3  -5   36.90    1.85
  10  -3   5   38.22    1.77
  10  -3   5   39.73    1.90
 -10   3  -5   41.13    1.82
  10  -3  -5   37.50    1.79
  10   3   5   38.15    1.80
 -10  -3   5   37.01    1.83
   1   4  -5  107.02    2.44
   1  -4   5   98.88    2.60
  -1   4   5  104.65    2.58
   1  -4   5   96.23    2.49
  -1   4   5   99.56    2.48
  -1   4   5  105.07    2.66
  -1  -4  -5   99.65    2.35
  -1  -4  -5   93.19    2.55
  -1  -4  -5  105.82    2.69
  -1  -4  -5  103.34    2.57
  -1  -4   5  100.29    2.58
  -1   4  -5  100.21    2.53
   1  -4  -5  103.31    2.54
  -1  -4   5   99.83    2.53
   1  -4  -5   98.35    2.58
   1   4   5  100.03    2.66
   1   4   5  105.03    2.39
  -1   4  -5  101.72    2.60
   1  -4  -5  105.64    2.67
   1   4   5  103.63    2.57
  -1  -4   5   98.09    2.37
  -1  -4   5  104.29    2.43
  -1   4  -5  102.46    2.25
   1  -4  -5  101.69    2.49
  -1  -4   5   97.82    2.63
  -3  -4  -5   79.37    2.12
   3  -4   5   74.29    2.15
  -3   4   5   73.02    2.08
  -3  -4  -5   75.38    2.11
  -3   4   5   73.50    2.14
  -3   4   5   74.53    2.04
   3  -4   5   77.46    2.08
   3   4  -5   75.25    2.17
  -3  -4  -5   73.56    2.19
   3  -4   5   78.81    2.15
  -3  -4   5   73.63    2.16
   3   4   5   81.13    2.21
   3  -4  -5   76.65    2.08
   3   4   5   78.99    2.12
  -3  -4   5   74.81    2.35
   3  -4  -5   76.84    1.83
  -3   4  -5   78.32    1.72
   3   4   5   73.90    2.19
  -3   4  -5   73.79    2.11
   3  -4  -5   78.55    2.12
  -3   4  -5   77.02    2.06
  -3  -4   5   76.80    2.06
   3  -4  -5   77.91    1.88
   5  -4   5   46.48    1.65
   5   4  -5   47.30    1.66
  -5  -4  -5   47.87    1.71
   5  -4   5   49.18    1.56
  -5   4   5   46.65    1.36
  -5   4  -5   48.55    1.29
   5  -4  -5   47.99    1.35
   5   4   5   48.61    1.59
   5  -4  -5   48.03    1.63
   5  -4  -5   47.26    1.10
   5   4   5   48.44    1.55
  -5  -4   5   49.72    1.65
   5  -4  -5   48.35    1.58
  -5  -4   5   47.89    1.34
  -5   4  -5   50.10    1.49
   7  -4   5   26.47    1.07
   7  -4   5   26.19    1.25
  -7  -4  -5   25.83    1.31
  -7   4   5   29.16    1.24
   7   4  -5   25.58    1.26
  -7   4  -5   27.70    1.17
   7   4   5   26.14    1.10
   7   4   5   27.82    1.25
   7  -4  -5   28.19    1.26
   7  -4  -5   27.48    1.18
  -7   4  -5   26.27    0.95
  -7  -4   5   27.88    1.30
  -9  -4  -5   14.43    1.05
   9   4  -5   14.30    1.01
   9  -4   5   11.98    0.97
   9  -4   5   13.14    0.95
   9  -4   5   13.08    0.71
   9   4   5   14.47    0.78
   9  -4  -5   14.77    1.00
  -9   4  -5   12.86    0.89
   9   4   5   12.82    0.93
  -9  -4   5   14.51    1.02
  11   4  -5    5.53    0.69
 -11  -4  -5    5.59    0.75
  11  -4   5    5.16    0.70
  11   4   5    5.81    0.70
 -11  -4   5    6.26    0.79
  11  -4  -5    6.33    0.73
   0  -5  -5   52.35    1.51
   0  -5   5   51.62    1.28
   0   5   5   51.10    1.49
   0  -5   5   52.85    1.64
   0  -5   5   55.22    1.60
   0   5   5   50.21    1.54
   0  -5   5   52.52    1.27
   0  -5  -5   50.48    1.61
   0   5  -5   50.72    1.51
   0  -5  -5   51.30    1.33
   0  -5   5   51.91    1.52
   0   5   5   52.05    1.61
  -2   5   5   44.38    1.41
   2  -5   5   43.45    1.45
   2   5  -5   46.60    1.52
  -2   5   5   45.08    1.47
   2  -5   5   43.96    1.39
  -2  -5  -5   42.71    1.39
  -2  -5  -5   43.93    1.49
  -2  -5  -5   45.54    1.27
  -2  -5  -5   45.97    1.44
   2   5   5   44.84    1.40
   2   5   5   44.12    1.28
  -2   5  -5   44.47    1.38
   2  -5  -5   44.30    1.36
  -2  -5   5   44.65    1.39
   2  -5  -5   43.90    1.21
  -2   5  -5   42.46    1.42
  -2  -5   5   44.96    1.29
   2   5   5   43.99    1.50
  -2  -5   5   43.59    1.48
  -2   5  -5   45.04    1.07
   2  -5  -5   46.84    1.30
   2  -5  -5   45.32    1.42
  -2  -5   5   45.77    1.30
   4  -5   5   31.71    1.19
  -4  -5  -5   30.12    1.25
   4  -5   5   30.16    1.16
  -4  -5  -5   31.37    1.19
   4   5  -5   31.64    1.24
  -4   5   5   29.18    1.04
   4  -5   5   29.87    1.21
   4   5   5   30.73    1.13
   4  -5  -5   30.68    0.91
   4   5   5   30.56    1.10
   4  -5  -5   31.06    1.12
   4  -5  -5   30.55    0.94
   4  -5  -5   30.66    1.19
  -4  -5   5   29.69    1.13
  -4   5  -5   30.10    1.18
  -4   5  -5   30.49    0.73
   6  -5   5   17.92    0.86
   6   5  -5   18.29    0.99
   6  -5   5   18.37    0.99
  -6  -5  -5   16.31    0.98
  -6   5  -5   18.07    0.83
   6   5   5   18.44    0.93
  -6  -5   5   19.85    0.99
   6  -5  -5   19.11    0.95
   6   5   5   19.38    0.89
   6  -5  -5   17.03    0.86
  -6   5  -5   17.63    0.62
   6  -5  -5   18.48    0.75
  -6  -5   5   17.26    0.69
  -8  -5  -5    9.29    0.81
   8  -5   5    9.24    0.60
   8  -5   5   10.17    0.79
  -8   5  -5    9.24    0.68
   8  -5  -5    9.09    0.75
  -8  -5   5    9.82    0.84
   8   5   5    8.74    0.61
   8   5   5    9.51    0.75
  10   5  -5    4.17    0.60
  10  -5   5    4.77    0.65
  10  -5   5    3.24    0.56
 -10  -5  -5    4.83    0.66
 -10  -5   5    4.69    0.63
  10  -5  -5    4.61    0.62
 -10   5  -5    4.63    0.60
  10   5   5    4.51    0.59
  -1   6   5   11.14    0.63
   1  -6   5   11.74    0.61
  -1  -6  -5   12.54    0.69
  -1  -6  -5   11.49    0.60
   1  -6   5   12.67    0.66
  -1  -6  -5   11.70    0.50
  -1  -6  -5   11.08    0.63
  -1   6   5   11.57    0.64
   1  -6  -5   11.90    0.57
   1  -6  -5   12.14    0.55
   1   6   5   11.47    0.59
   1  -6  -5   11.27    0.51
  -1   6  -5   12.14    0.39
  -1  -6   5   11.74    0.49
  -1  -6   5   10.83    0.65
  -1  -6   5   11.34    0.61
   1   6   5   10.38    0.63
  -1  -6   5   10.92    0.61
  -1   6  -5   12.02    0.62
  -1  -6   5   12.12    0.48
   1  -6  -5   11.29    0.65
   1  -6  -5   12.02    0.58
   1  -6  -5   14.56    0.69
   3   6  -5    8.90    0.74
   3  -6   5    9.20    0.60
  -3  -6  -5    9.31    0.52
  -3  -6  -5   10.14    0.61
   3  -6   5   10.05    0.60
  -3   6  -5    9.01    0.38
  -3  -6   5    9.41    0.58
  -3  -6   5    8.34    0.49
   3   6   5    8.85    0.55
   3  -6  -5    8.85    0.46
   3  -6  -5   10.12    0.61
  -3  -6   5    8.94    0.52
   3  -6  -5    8.50    0.51
  -3   6  -5    8.53    0.54
   3   6   5   11.45    0.57
   3  -6  -5   10.07    0.46
   5   6  -5    5.59    0.52
   5  -6   5    6.63    0.51
  -5  -6  -5    6.10    0.52
   5  -6   5    5.87    0.51
  -5   6   5    5.88    0.39
   5  -6   5    5.78    0.52
  -5  -6  -5    5.76    0.55
   5  -6  -5    5.66    0.37
  -5  -6   5    5.55    0.40
   5  -6  -5    5.55    0.44
   5   6   5    5.73    0.47
   5  -6  -5    6.23    0.33
   5  -6  -5    6.25    0.54
  -5   6  -5    5.79    0.37
   5   6   5    5.07    0.44
  -5  -6   5    5.69    0.49
  -7  -6  -5    3.48    0.47
   7   6  -5    3.21    0.45
   7  -6   5    3.48    0.38
   7  -6   5    3.00    0.48
   7  -6  -5    3.26    0.38
   7  -6  -5    3.85    0.45
   7  -6  -5    3.22    0.34
   7   6   5    3.55    0.39
  -7  -6   5    3.86    0.48
  -7  -6   5    2.56    0.29
  -7   6  -5    3.69    0.40
   7   6   5    4.45    0.48
  -9  -6  -5    1.87    0.45
   9   6  -5    2.18    0.47
   9  -6   5    1.98    0.45
  -9   6  -5    1.58    0.36
   9  -6  -5    1.51    0.36
  -9  -6   5    2.00    0.47
   9   6   5    1.88    0.45
   0   7  -5  420.61    9.64
   0   7   5  426.55    9.70
  -2  -7  -5  378.96    8.74
  -2  -7   5  400.62    8.71
   2  -7  -5  393.46    8.81
  -2   7  -5  389.57    8.99
   4   7  -5  293.02    7.10
   4  -7   5  295.97    6.97
   4  -7   5  288.34    7.05
  -4  -7  -5  288.02    7.09
  -4  -7  -5  295.08    7.02
   4  -7  -5  294.45    6.77
   4  -7  -5  277.65    6.58
  -4   7  -5  286.34    6.50
  -4  -7   5  290.17    6.97
   4  -7  -5  286.99    6.61
  -4  -7   5  293.69    6.95
  -6  -7  -5  175.73    4.84
  -6  -7  -5  181.62    4.98
   6  -7   5  184.39    4.70
   6   7  -5  179.84    4.91
   6  -7   5  186.43    4.92
   6   7   5  181.35    4.73
  -6  -7   5  181.22    4.80
  -6  -7   5  187.39    4.89
   6  -7  -5  176.86    4.15
   6  -7  -5  179.49    4.56
   8   7  -5   97.25    3.26
   8  -7   5   98.32    2.88
  -8  -7  -5   97.61    3.33
  -8  -7  -5   96.28    3.22
   8  -7   5   98.33    3.24
  -8  -7   5   98.01    3.22
   8   7   5  102.53    3.19
   8  -7  -5  103.65    3.18
   8  -7  -5   96.06    2.72
 -10  -7  -5   45.41    2.25
 -10  -7  -5   40.07    2.61
  10   7  -5   50.50    2.24
 -10  -7   5   48.36    2.26
  10   7   5   49.11    2.70
 -10   7  -5   51.90    2.00
  -1  -8  -5    0.95    0.19
  -1  -8  -5    1.05    0.25
   1  -8   5    1.52    0.29
  -1  -8  -5    1.66    0.36
  -1  -8   5    1.82    0.32
  -1  -8   5    1.21    0.15
   1  -8  -5    1.12    0.22
  -1  -8   5    1.09    0.24
   1  -8  -5    1.16    0.22
  -1   8  -5    1.31    0.15
   1  -8  -5    1.00    0.26
   1  -8  -5    1.15    0.21
   3  -8   5    1.23    0.28
   3  -8   5    1.15    0.27
  -3  -8  -5    0.80    0.22
  -3  -8  -5    1.04    0.27
  -3  -8  -5    1.35    0.32
   3  -8  -5    0.95    0.20
  -3   8  -5    1.30    0.15
   3  -8  -5    1.16    0.23
   3  -8  -5    1.36    0.30
   3   8   5    1.38    0.27
  -3  -8   5    1.57    0.31
  -3  -8   5    1.18    0.24
   5  -8   5    1.05    0.30
   5  -8   5    0.97    0.27
   5   8  -5    1.02    0.31
   5  -8   5    1.06    0.28
  -5  -8  -5    1.00    0.30
   5  -8  -5    0.88    0.19
   5  -8  -5    1.04    0.23
  -5  -8   5    1.46    0.30
   5  -8  -5    0.86    0.19
   5   8   5    0.66    0.22
  -5   8  -5    1.22    0.24
  -5  -8   5    0.98    0.28
   5  -8  -5    1.01    0.28
   7  -8   5    0.74    0.24
  -7  -8  -5    0.82    0.30
   7   8  -5    0.98    0.34
  -7  -8  -5    0.67    0.28
  -7  -8   5    0.74    0.27
   7  -8  -5    0.45    0.15
   7   8   5    0.36    0.18
   7  -8  -5    0.50    0.17
   9  -8   5    0.20    0.22
  -9  -8  -5    0.25    0.26
   9   8  -5    0.82    0.35
   9  -8   5   -0.16    0.15
  -9  -8  -5    0.26    0.22
  -9  -8   5    0.53    0.26
   9  -8  -5    0.33    0.23
   9   8   5    0.67    0.27
  -9  -8   5    0.12    0.20
  -9   8  -5    0.11    0.17
   9  -8  -5   -0.16    0.14
   0  -9  -5   22.35    1.11
   0  -9   5   22.91    1.08
   0  -9  -5   21.39    0.91
   0   9  -5   23.47    0.83
   0  -9   5   22.12    0.67
   0  -9   5   23.47    1.10
   0  -9  -5   22.05    1.09
  -2  -9  -5   19.08    0.87
  -2  -9  -5   20.45    1.08
   2  -9   5   19.58    1.03
  -2  -9  -5   19.94    1.05
   2  -9   5   20.44    1.03
   2  -9  -5   19.38    0.89
  -2  -9   5   19.73    1.01
   2  -9  -5   19.18    0.86
  -2  -9   5   19.79    0.84
  -2  -9   5   18.99    0.77
   2  -9  -5   18.98    1.02
  -2  -9   5   19.74    1.02
   2  -9  -5   17.97    0.85
  -2   9  -5   19.80    0.70
  -4  -9  -5   15.78    0.96
   4  -9   5   15.05    0.94
   4  -9   5   15.67    0.91
   4  -9   5   14.42    0.91
   4   9  -5   14.67    0.95
  -4  -9  -5   13.72    0.92
  -4   9  -5   15.22    0.64
   4  -9  -5   14.52    0.74
  -4  -9   5   14.27    0.90
   4  -9  -5   14.49    0.74
   4  -9  -5   14.53    0.93
  -4  -9   5   14.51    0.80
   4   9   5   14.76    0.83
   6  -9   5   10.33    0.74
  -6  -9  -5    8.20    0.75
   6   9  -5   10.29    0.84
   6  -9   5    9.03    0.77
   6  -9   5    9.00    0.77
  -6  -9  -5    9.65    0.79
   6  -9  -5    9.99    0.83
   6   9   5    8.78    0.70
   6  -9  -5    9.18    0.59
  -6  -9   5    9.18    0.76
  -6  -9   5    9.29    0.72
   6  -9  -5    8.53    0.56
   8  -9   5    5.08    0.62
  -8  -9  -5    4.11    0.58
   8  -9   5    4.25    0.50
   8   9  -5    4.69    0.63
  -8  -9  -5    4.99    0.64
  -8  -9   5    4.36    0.57
   8   9   5    5.05    0.57
  -8  -9   5    4.70    0.60
   8  -9  -5    4.84    0.57
   1 -10   5   57.24    2.01
   1  10  -5   53.25    1.67
   1 -10   5   55.46    1.97
  -1 -10  -5   58.21    2.07
  -1 -10  -5   53.54    2.00
  -1  10  -5   52.91    1.56
  -1 -10   5   56.18    1.98
   1 -10  -5   55.60    2.03
   1 -10  -5   54.77    1.76
  -1 -10   5   56.58    1.69
  -1 -10   5   57.08    2.00
   1 -10  -5   56.70    1.87
  -1 -10   5   55.55    1.53
   1 -10  -5   56.65    2.03
  -3 -10  -5   47.20    1.88
   3 -10   5   48.37    1.87
  -3 -10  -5   45.97    1.87
   3 -10   5   47.39    1.85
  -3  10  -5   45.00    1.37
  -3 -10   5   47.80    1.62
  -3 -10   5   46.00    1.83
   3 -10  -5   47.19    1.63
   3 -10  -5   48.58    1.91
  -3 -10   5   47.75    1.82
   3 -10  -5   46.30    1.55
   5  10  -5   32.15    1.59
   5 -10   5   34.72    1.60
  -5 -10  -5   32.81    1.57
  -5 -10  -5   31.94    1.57
   5 -10   5   33.02    1.56
   5 -10   5   31.91    1.45
   5  10   5   31.62    1.42
  -5  10  -5   31.38    1.14
   5 -10  -5   31.12    1.25
   5 -10  -5   33.23    1.59
   5 -10  -5   33.34    1.24
  -5 -10   5   34.81    1.44
  -5 -10   5   32.53    1.54
  -7 -10  -5   18.71    1.22
   7 -10   5   18.72    1.23
   7  10  -5   21.49    1.32
  -7 -10  -5   20.38    1.28
   7 -10   5   19.46    1.11
  -7 -10   5   20.77    1.20
  -7 -10   5   21.13    1.28
   7 -10  -5   19.57    0.93
   7 -10  -5   19.36    0.95
   7  10   5   20.21    1.19
  -9 -10  -5   11.39    1.02
   9 -10   5   10.14    0.99
   9  10  -5   10.17    0.99
  -9 -10  -5    9.05    0.94
  -9 -10   5   11.82    0.97
  -9 -10   5   10.97    0.99
   9 -10  -5    9.45    0.89
   0 -11  -5  106.07    3.06
   0 -11  -5  103.91    3.20
   0  11  -5  100.01    2.70
   0 -11   5  101.23    2.41
   0 -11   5  106.78    3.18
   0 -11  -5  103.28    3.22
   0 -11   5  102.76    3.14
   0 -11   5  103.24    2.70
  -2 -11  -5   92.86    3.02
  -2 -11  -5   91.30    3.00
   2 -11   5   96.76    3.02
   2 -11   5   92.27    2.97
   2 -11  -5   93.65    3.04
  -2 -11   5   94.94    2.98
   2 -11  -5   92.96    2.63
  -2 -11   5   90.93    2.62
  -2  11  -5   91.81    2.43
  -2 -11   5   96.48    3.00
   2 -11  -5   96.51    2.80
  -4 -11  -5   69.58    2.58
   4 -11   5   73.89    2.60
  -4 -11  -5   71.78    2.59
   4 -11   5   73.01    2.59
  -4 -11   5   74.19    2.59
   4 -11  -5   73.06    2.27
   4 -11  -5   70.85    2.12
  -4  11  -5   66.52    2.11
  -4 -11   5   70.64    2.29
   4 -11  -5   73.11    2.64
   6 -11   5   49.82    2.12
  -6 -11  -5   45.19    2.04
  -6 -11  -5   45.93    2.05
   6 -11   5   48.48    2.07
   6  11   5   44.21    2.67
  -6 -11   5   46.29    1.88
   6 -11  -5   44.95    1.55
   6 -11  -5   47.84    2.13
   6 -11  -5   47.03    1.69
  -6 -11   5   45.99    2.03
  -8 -11  -5   24.42    2.29
   8 -11   5   26.99    1.56
  -8 -11  -5   22.96    1.50
  -8 -11   5   27.85    1.68
  -8 -11   5   29.09    1.53
   1 -12   5    6.07    0.61
  -1 -12  -5    6.54    0.65
  -1 -12  -5    6.57    0.59
   1 -12   5    6.04    0.61
  -1 -12  -5    5.47    0.58
   1 -12  -5    6.21    0.56
   1 -12  -5    6.60    0.64
  -1  12  -5    8.11    0.52
   1 -12  -5    5.82    0.48
  -1 -12   5    6.11    0.46
  -1 -12   5    6.12    0.61
  -1 -12   5    6.03    0.62
  -1 -12   5    5.29    0.47
   1 -12  -5    6.18    0.64
   3 -12   5    5.22    0.60
  -3 -12  -5    5.27    0.61
   3 -12   5    4.14    0.56
  -3 -12  -5    5.02    0.60
  -3 -12   5    3.97    0.56
  -3 -12   5    5.50    0.61
   3 -12  -5    4.81    0.43
   3 -12  -5    4.74    0.50
   3 -12  -5    5.48    0.64
  -3 -12   5    4.51    0.45
  -5 -12  -5    3.44    0.62
  -5 -12  -5    3.30    0.61
   5 -12   5    3.48    0.57
   5 -12   5    3.08    0.57
   5 -12   5    3.88    0.55
  -5 -12   5    3.68    0.46
   5 -12  -5    4.10    0.37
   5 -12  -5    3.03    0.40
  -5 -12   5    3.53    0.60
   5 -12  -5    3.08    0.58
  -7 -12  -5    1.60    0.47
   7 -12   5    1.87    0.45
  -7 -12  -5    1.99    0.51
   7 -12   5    1.67    0.45
  -7 -12   5    1.59    0.45
   7  12   5    2.09    0.46
  -7 -12   5    1.78    0.40
   7 -12  -5    1.59    0.33
   0 -13  -5    9.22    0.86
   0 -13  -5   10.11    0.77
   0 -13  -5   10.28    0.83
   0 -13   5   10.51    0.83
   0 -13   5    9.65    0.80
   0 -13   5   10.41    0.59
   2 -13   5    8.40    0.76
  -2 -13  -5    9.05    0.79
  -2 -13  -5   10.14    0.84
  -2 -13   5    9.13    0.61
   2 -13  -5    9.87    0.73
  -2 -13   5    9.46    0.81
  -2 -13   5    9.57    0.86
   2 -13  -5    9.09    0.60
   2 -13  -5    9.40    0.84
   4 -13   5    7.44    0.76
   4 -13   5    7.58    0.78
  -4 -13  -5    7.73    0.78
  -4 -13  -5    7.14    0.76
   4 -13  -5    7.87    0.80
   4 -13  -5    7.65    0.51
  -4 -13   5    7.58    0.74
  -4 -13   5    6.90    0.74
   4 -13  -5    7.46    0.63
  -4 -13   5    6.92    0.62
  -6 -13  -5    4.38    0.75
   6 -13   5    5.37    0.70
   6 -13   5    5.62    0.73
   6 -13   5    5.25    0.66
  -6 -13  -5    5.44    0.70
  -6 -13   5    5.89    0.72
   6 -13  -5    7.14    0.80
  -6 -13   5    4.61    0.55
   1 -14   5   34.90    1.69
   1 -14   5   35.42    1.69
  -1 -14  -5   36.70    1.71
  -1 -14  -5   34.40    1.61
  -1 -14  -5   35.31    1.74
  -1 -14   5   32.61    1.64
   1 -14  -5   34.62    1.56
  -1 -14   5   35.32    1.33
   1 -14  -5   37.62    1.81
   1 -14  -5   33.38    1.33
  -1 -14   5   33.80    1.66
   3 -14   5   31.02    1.61
   3 -14   5   31.64    1.64
  -3 -14  -5   31.26    1.62
  -3 -14  -5   30.54    1.64
   3 -14  -5   29.74    1.65
  -3 -14   5   29.09    1.56
   3 -14  -5   28.90    1.40
  -3 -14   5   29.96    1.58
  -3 -14   5   30.15    1.32
   3 -14  -5   27.89    1.14
  -5 -14  -5   22.22    1.42
   5 -14   5   22.95    1.44
   5 -14   5   21.35    1.30
   5 -14   5   23.84    1.44
  -5 -14  -5   22.80    1.44
  -5 -14   5   21.96    1.20
  -5 -14   5   23.12    1.43
   5 -14  -5   21.00    1.43
  -5 -14   5   22.34    1.41
   0 -15   5    0.17    0.17
   0 -15  -5    0.37    0.19
   0 -15  -5    0.15    0.20
   0 -15   5   -0.03    0.14
   0 -15  -5   -0.12    0.14
   0 -15  -5   -0.01    0.17
  -2 -15  -5    0.08    0.17
  -2 -15  -5   -0.28    0.13
   2 -15   5    0.03    0.20
  -2 -15  -5    0.00    0.20
   2 -15   5    0.40    0.29
   2 -15  -5    0.28    0.21
  -2 -15   5    0.08    0.18
  -2 -15   5   -0.10    0.15
  -2 -15   5    0.12    0.16
   2 -15  -5    0.20    0.16
  -4 -15  -5   -0.07    0.19
   4 -15   5   -0.22    0.17
   4 -15   5   -0.23    0.21
  -4 -15  -5    0.05    0.20
   4 -15  -5    0.11    0.24
  -4 -15   5    0.45    0.26
  -4 -15   5   -0.35    0.16
   4 -15  -5    0.32    0.22
  -1 -16  -5    0.89    0.35
   1 -16   5    0.48    0.27
  -1 -16  -5    0.68    0.23
  -1 -16  -5    0.76    0.29
  -1 -16  -5    0.78    0.33
   1 -16   5    0.80    0.32
  -1 -16   5    0.32    0.20
  -1 -16   5    0.78    0.33
   1 -16  -5    0.98    0.30
   1 -16  -5    0.79    0.36
  -1 -16   5    0.95    0.43
   1 -16  -5    0.30    0.25
   3 -16   5    0.70    0.34
  -3 -16  -5    0.79    0.53
   3 -16   5    0.51    0.29
  -3 -16  -5    0.61    0.31
  -3 -16  -5    0.57    0.35
  -3 -16   5    0.22    0.28
  -3 -16   5    0.83    0.26
   3 -16  -5    1.00    0.38
  -3 -16   5    1.01    0.36
   3 -16  -5    0.46    0.33
   0 -17   5   44.04    2.09
   0 -17  -5   47.87    2.25
   0 -17   5   44.70    2.13
   0   0   6  152.58    6.62
   0   0  -6  153.50    6.74
  -2   0   6  139.39    3.10
  -2   0  -6  135.49    3.20
  -2   0   6  137.43    3.11
   2   0   6  133.80    3.12
   2   0  -6  125.88    3.05
   2   0   6  129.39    3.19
  -2   0  -6  131.47    3.03
  -2   0  -6  133.43    3.13
  -2   0   6  133.37    3.22
  -2   0  -6  137.35    3.26
  -4   0   6   91.23    2.50
  -4   0   6   94.46    2.49
  -4   0  -6   90.56    2.51
   4   0   6   95.22    2.49
  -4   0  -6   95.46    2.43
  -4   0  -6   98.66    2.49
  -4   0  -6   91.58    2.48
  -4   0   6   94.60    2.23
   4   0  -6   91.32    2.52
   4   0  -6   95.39    2.47
   4   0   6   92.81    2.53
   6   0   6   53.98    1.84
   6   0  -6   56.02    1.84
  -6   0   6   53.20    1.57
   6   0  -6   55.70    1.85
   6   0   6   56.47    1.87
   6   0   6   54.74    2.25
   8   0   6   27.52    1.12
  -8   0  -6   27.94    1.33
   8   0  -6   27.41    1.32
   8   0   6   26.53    1.32
  10   0  -6   12.26    0.96
  10   0   6   11.88    0.95
 -10   0  -6   12.57    0.96
 -10   0   6   12.98    1.05
  -1   1   6   95.51    2.32
  -1  -1  -6   88.88    2.21
  -1  -1  -6   93.08    2.32
  -1  -1  -6   94.24    2.29
  -1  -1  -6   89.76    2.10
   1   1  -6   94.82    2.28
   1  -1   6   94.72    2.13
   1  -1   6   86.71    2.24
  -1   1   6   86.53    2.21
  -1   1   6   92.92    2.13
  -1   1  -6   93.66    2.20
   1  -1  -6   93.96    2.10
  -1   1  -6   95.98    2.12
  -1  -1   6   93.68    2.23
   1  -1  -6   90.15    2.30
  -1   1  -6   94.86    2.26
   1   1   6   92.18    2.29
  -1  -1   6   89.39    2.25
  -1  -1   6   94.64    2.16
  -1  -1   6   92.91    2.27
  -1   1  -6   94.66    2.07
   1  -1  -6   91.52    2.23
  -1   1  -6   94.24    2.34
   1   1   6   92.08    2.22
   3   1  -6   63.72    1.83
  -3  -1  -6   69.44    1.84
  -3   1   6   68.25    1.57
   3  -1   6   68.05    1.86
  -3   1   6   68.23    1.78
  -3  -1  -6   63.81    1.82
  -3   1   6   65.33    1.48
  -3  -1  -6   64.96    1.82
   3  -1   6   63.44    1.84
   3  -1  -6   65.15    1.55
   3  -1  -6   65.64    1.73
  -3  -1   6   67.27    1.60
   3   1   6   68.18    1.85
  -3  -1   6   64.51    1.79
   3   1   6   64.42    1.82
   3  -1  -6   65.98    1.85
  -3  -1   6   60.64    2.20
  -3   1  -6   65.64    1.71
   3   1   6   63.94    1.78
  -3   1  -6   63.91    1.83
  -3   1  -6   66.00    1.71
  -3   1  -6   68.40    1.86
   5   1  -6   41.58    1.43
   5  -1   6   40.95    1.34
  -5   1   6   40.09    1.12
   5  -1   6   38.88    1.41
  -5  -1  -6   37.84    1.38
   5   1  -6   39.53    1.38
  -5   1  -6   38.39    1.32
   5  -1  -6   39.85    1.35
   5   1   6   39.56    1.40
   5   1   6   40.91    1.34
  -5   1  -6   39.54    1.77
  -5  -1   6   38.83    1.18
   5   1   6   39.52    1.38
  -5   1  -6   39.98    1.33
   5  -1  -6   38.60    1.39
   7  -1   6   21.28    1.10
  -7   1   6   20.40    0.84
   7   1  -6   21.54    1.08
   7  -1   6   21.65    1.09
   7  -1   6   20.23    0.91
  -7  -1  -6   22.77    1.11
   7   1   6   21.21    0.94
   7  -1  -6   20.85    1.05
   7  -1  -6   21.23    1.05
   7   1   6   22.71    1.11
  -7   1  -6   21.58    1.04
  -9  -1  -6   11.66    0.89
   9  -1   6   10.27    0.65
   9   1  -6   11.75    0.89
   9  -1   6   11.94    0.91
  -9  -1   6    9.92    0.86
  -9   1  -6   11.90    0.88
   9   1   6   11.19    0.67
   9   1   6   10.72    0.85
   9  -1  -6   11.23    0.87
  11   1  -6    5.77    0.72
 -11   1   6    5.74    0.77
  11  -1   6    5.47    0.70
 -11  -1  -6    5.06    0.71
  11   1   6    4.91    0.63
 -11  -1   6    5.10    0.68
  11  -1  -6    4.02    1.10
 -11   1  -6    5.37    0.69
   0   2   6  648.28   18.96
   0  -2  -6  630.55   19.12
   0   2  -6  591.08   16.63
   0  -2   6  570.02   16.42
  -2   2   6  581.80   18.54
  -2  -2  -6  550.95   18.83
  -2   2   6  559.38   17.55
   2  -2   6  543.79   18.29
  -2   2  -6  545.20   18.61
   2   2   6  560.62   19.18
  -4   2   6  380.55    8.95
  -4  -2  -6  372.04    8.71
  -4  -2  -6  405.30    9.07
  -4  -2   6  392.87    8.79
   4   2   6  380.86    8.77
  -6   2   6  219.50    5.20
   6   2  -6  233.10    5.65
  -6  -2  -6  225.68    5.68
   6  -2   6  234.56    5.69
   6  -2   6  230.77    5.81
  -6  -2   6  218.99    5.35
  -6   2  -6  220.23    5.32
   6  -2  -6  228.82    5.58
   6  -2  -6  220.17    5.58
   6   2   6  241.01    5.65
  -6   2  -6  229.66    5.51
   6   2   6  230.34    5.48
   8  -2   6  118.53    3.22
   8  -2   6  120.43    3.56
   8   2  -6  122.45    3.59
   8  -2   6  118.26    3.62
  -8  -2  -6  119.99    3.62
   8   2   6  121.91    3.56
  -8   2  -6  123.97    3.50
   8  -2  -6  122.94    3.56
   8   2   6  119.28    3.26
  -8  -2   6  118.32    3.63
 -10  -2  -6   58.78    2.41
  10   2  -6   56.41    2.34
  10  -2   6   59.24    2.42
 -10   2  -6   60.55    2.33
  10   2   6   59.56    2.37
 -10  -2   6   59.85    2.45
  10  -2  -6   60.35    2.37
  -1  -3  -6   40.07    1.19
   1  -3   6   42.32    1.32
  -1  -3  -6   42.77    1.17
  -1   3   6   42.20    1.20
   1   3  -6   41.56    1.17
  -1   3   6   40.85    1.19
  -1  -3  -6   41.92    1.26
   1  -3   6   40.96    1.13
  -1   3   6   46.24    1.36
   1   3   6   43.00    1.03
   1  -3  -6   43.69    1.18
  -1   3  -6   41.37    1.26
  -1   3  -6   43.40    1.07
  -1  -3   6   43.04    1.18
  -1  -3   6   41.31    1.23
   1  -3  -6   43.10    0.97
  -1  -3   6   39.72    1.25
   1   3   6   40.37    1.31
  -1  -3   6   42.81    1.30
   1  -3  -6   42.91    1.20
   1  -3  -6   41.72    1.00
  -1  -3   6   41.82    1.16
  -1   3  -6   39.57    1.31
   1   3   6   42.90    1.27
   1  -3  -6   41.02    1.26
   1  -3  -6   42.35    1.32
   3  -3   6   32.74    1.15
  -3  -3  -6   30.87    1.12
  -3  -3  -6   32.63    1.17
  -3   3   6   29.96    1.12
  -3   3   6   30.64    1.05
   3   3  -6   35.06    1.12
   3  -3   6   31.87    1.13
  -3  -3  -6   32.30    1.11
  -3   3   6   31.70    1.07
   3   3  -6   32.54    1.13
   3  -3  -6   31.49    0.97
   3   3   6   31.67    1.10
  -3   3  -6   32.13    1.03
  -3  -3   6   32.17    1.08
   3   3   6   32.92    1.01
   3  -3  -6   30.78    1.10
  -3  -3   6   31.41    1.13
   3   3   6   29.51    1.53
  -3   3  -6   32.55    0.89
  -3   3  -6   31.83    1.12
   3  -3  -6   31.36    0.88
   3  -3  -6   32.15    1.07
  -5   3   6   19.56    0.67
  -5  -3  -6   20.40    0.98
   5   3  -6   19.15    0.93
   5  -3   6   20.90    0.97
   5  -3   6   20.04    0.88
   5   3   6   20.16    0.89
  -5  -3   6   21.02    0.67
   5  -3  -6   21.38    0.90
  -5   3  -6   21.65    0.83
   5  -3  -6   20.74    0.93
  -5  -3   6   19.89    0.81
  -5   3  -6   21.04    0.73
  -5  -3   6   20.20    0.64
   7  -3   6   11.35    0.77
   7   3  -6   11.98    0.79
  -7  -3  -6   11.75    0.82
   7  -3   6   11.08    0.65
  -7   3   6   10.66    0.56
   7  -3  -6   12.20    0.77
  -7  -3   6    9.79    0.74
  -7   3  -6   11.17    0.70
   7   3   6   11.70    0.69
   7   3   6   11.74    0.77
   7  -3  -6   10.30    0.70
   9  -3   6    5.48    0.47
   9   3  -6    6.49    0.68
  -9  -3  -6    6.75    0.69
   9  -3   6    5.37    0.63
   9  -3   6    6.59    0.67
   9  -3  -6    5.72    0.62
  -9  -3   6    6.23    0.67
   9   3   6    5.19    0.56
  -9   3  -6    6.25    0.62
   9   3   6    5.32    0.48
  11   3  -6    3.23    0.65
 -11  -3  -6    2.86    0.56
  11  -3   6    3.49    0.70
  11   3   6    2.77    0.57
 -11   3  -6    2.71    0.58
 -11  -3   6    2.27    0.54
  11  -3  -6    2.85    0.57
   0  -4  -6   17.13    0.66
   0  -4   6   18.05    0.76
   0  -4  -6   17.21    0.76
   0   4  -6   16.38    0.63
   0  -4   6   17.33    0.44
   0   4   6   16.97    0.66
   0  -4   6   17.64    0.65
   0  -4  -6   17.26    0.45
   0  -4  -6   17.69    0.69
   0   4   6   17.39    0.77
   0  -4   6   17.00    0.55
   0   4   6   16.49    0.67
   0  -4   6   16.79    0.75
   0   4  -6   17.32    0.56
   2  -4   6   15.72    0.63
  -2   4   6   14.71    0.65
  -2  -4  -6   15.36    0.65
   2  -4   6   15.90    0.72
  -2  -4  -6   15.50    0.74
   2   4  -6   14.50    0.62
  -2  -4  -6   15.17    0.68
  -2  -4  -6   15.75    0.67
  -2   4   6   15.26    0.58
   2  -4   6   15.22    0.72
  -2   4   6   15.86    0.73
   2   4  -6   16.61    0.76
  -2   4  -6   15.69    0.42
  -2  -4   6   15.13    0.63
   2   4   6   15.44    0.69
  -2  -4   6   16.93    0.82
  -2   4  -6   15.23    0.63
   2   4   6   15.34    0.56
  -2   4  -6   15.46    0.70
  -2  -4   6   15.38    0.59
   2  -4  -6   15.00    0.58
   2  -4  -6   14.32    0.66
  -2  -4   6   16.80    0.64
   2  -4  -6   15.31    0.46
  -4   4   6   10.77    0.61
   4  -4   6   11.17    0.66
  -4  -4  -6   10.80    0.67
   4   4  -6   10.85    0.65
   4  -4   6   11.24    0.63
  -4   4  -6   11.14    0.48
  -4  -4   6   11.62    0.62
   4   4   6   11.70    0.63
   4   4   6   11.65    0.58
   4  -4  -6   10.72    0.56
   4  -4  -6   10.77    0.40
   4  -4  -6   11.89    0.42
   4  -4  -6   11.00    0.61
  -4   4  -6   11.06    0.59
  -6   4   6    6.51    0.39
   6   4  -6    6.30    0.56
   6  -4   6    6.87    0.57
   6  -4   6    6.22    0.48
  -6  -4  -6    7.27    0.61
  -6  -4   6    6.34    0.55
  -6   4  -6    6.51    0.36
  -6  -4   6    6.24    0.32
   6   4   6    6.40    0.49
   6   4   6    7.02    0.54
   6  -4  -6    6.21    0.51
   6  -4  -6    6.80    0.53
  -6   4  -6    6.69    0.46
   8  -4   6    3.39    0.39
  -8  -4  -6    3.59    0.49
   8  -4   6    4.04    0.52
   8   4  -6    3.51    0.48
  -8  -4   6    3.25    0.45
  -8   4  -6    3.24    0.42
   8  -4  -6    4.53    0.47
   8   4   6    3.32    0.44
   8  -4  -6    3.66    0.46
   8   4   6    3.62    0.41
  10   4  -6    1.54    0.40
  10  -4   6    1.66    0.41
 -10  -4  -6    1.88    0.48
  10  -4   6    1.04    0.39
  10  -4  -6    1.54    0.42
 -10   4  -6    2.16    0.50
  10   4   6    1.07    0.36
 -10  -4   6    1.81    0.47
  -1   5   6   48.18    1.39
  -1   5   6   45.75    1.52
  -1  -5  -6   46.86    1.46
   1  -5   6   46.98    1.50
  -1  -5  -6   48.05    1.57
  -1   5   6   46.55    1.47
  -1  -5  -6   44.50    1.45
   1  -5   6   47.13    1.40
  -1   5  -6   48.49    1.43
  -1  -5   6   45.63    1.53
  -1  -5   6   46.59    1.24
  -1   5  -6   47.34    1.51
   1  -5  -6   47.83    1.40
   1   5   6   44.92    1.54
  -1  -5   6   47.63    1.29
   1   5   6   47.30    1.44
  -1  -5   6   47.41    1.60
  -1  -5   6   46.88    1.47
   1  -5  -6   46.31    1.54
   1  -5  -6   45.46    1.43
   1  -5  -6   47.12    1.23
   1  -5  -6   47.43    1.44
  -3   5   6   35.29    1.27
  -3  -5  -6   36.31    1.26
   3   5  -6   36.79    1.37
  -3  -5  -6   36.53    1.29
   3  -5   6   38.10    1.27
  -3  -5  -6   36.80    1.39
   3  -5   6   37.90    1.35
   3  -5   6   37.76    1.37
  -3   5  -6   37.19    0.95
  -3  -5   6   38.39    1.22
  -3   5  -6   37.23    1.41
  -3  -5   6   37.74    1.27
   3  -5  -6   36.57    1.26
   3   5   6   34.50    1.25
   3  -5  -6   36.64    1.10
  -3  -5   6   36.43    1.21
   3  -5  -6   37.54    1.30
  -3   5  -6   38.52    0.94
   3   5   6   38.26    1.33
   3  -5  -6   36.74    1.00
   5   5  -6   23.42    1.10
   5  -5   6   24.56    1.05
   5  -5   6   22.83    1.10
  -5  -5  -6   23.71    1.15
  -5   5   6   22.91    0.81
  -5  -5   6   22.14    0.85
   5  -5  -6   22.82    1.01
   5  -5  -6   24.22    0.79
   5  -5  -6   25.16    1.02
   5   5   6   24.67    1.03
  -5  -5   6   24.56    1.06
   7  -5   6   13.84    0.90
   7   5  -6   13.13    0.88
   7  -5   6   13.55    0.77
  -7  -5  -6   12.89    0.90
  -7   5   6   11.55    0.62
  -7  -5   6   13.79    0.88
  -7   5  -6   12.91    0.73
   7  -5  -6   13.03    0.82
  -7   5  -6   11.90    0.54
   7   5   6   13.79    0.79
   7   5   6   13.00    0.82
  -7  -5   6   13.20    0.52
   7  -5  -6   12.63    0.77
   9   5  -6    6.80    0.73
  -9  -5  -6    5.86    0.70
   9  -5   6    6.81    0.70
   9  -5   6    6.62    0.53
   9  -5  -6    6.94    0.69
  -9   5  -6    6.25    0.62
   9   5   6    6.06    0.64
   9   5   6    6.66    0.57
  -9  -5   6    6.40    0.72
   0  -6  -6   75.73    2.10
   0  -6  -6   75.80    2.24
   0  -6   6   74.01    2.09
   0  -6   6   74.57    1.79
   0  -6  -6   73.87    1.85
   0  -6   6   74.40    2.24
   0   6   6   72.37    2.12
   0   6   6   77.40    2.46
   0  -6  -6   74.23    2.13
   0   6  -6   72.05    2.08
   0  -6   6   75.99    2.17
   0  -6   6   74.88    1.79
   0   6   6   73.78    2.07
   2  -6   6   67.95    2.06
   2  -6   6   64.25    2.02
  -2  -6  -6   64.54    1.76
  -2   6   6   67.53    2.01
  -2  -6  -6   65.31    2.08
  -2  -6  -6   68.78    2.04
   2  -6   6   67.88    1.96
   2   6   6   64.89    1.95
   2  -6  -6   65.32    1.83
  -2  -6   6   62.14    2.11
   2   6   6   68.75    1.82
   2  -6  -6   65.92    1.92
   2  -6  -6   67.00    1.74
  -2  -6   6   67.62    1.80
  -2  -6   6   66.73    1.96
   2  -6  -6   70.08    2.01
  -2  -6   6   65.18    1.97
  -2   6  -6   58.97    2.46
  -4  -6  -6   48.63    1.67
   4   6  -6   48.06    1.74
   4  -6   6   50.54    1.88
  -4  -6  -6   45.56    1.72
   4  -6   6   47.26    1.66
   4  -6   6   49.07    1.74
   4  -6  -6   48.04    1.67
   4   6   6   49.66    1.55
   4  -6  -6   45.70    1.35
   4  -6  -6   48.18    2.10
  -4  -6   6   48.59    1.59
   4   6   6   48.06    1.62
   4  -6  -6   45.11    1.31
  -4  -6   6   50.43    1.67
  -4   6  -6   47.60    1.28
   6  -6   6   29.08    1.36
   6   6  -6   28.94    1.35
  -6  -6  -6   29.00    1.31
   6  -6   6   29.41    1.24
  -6  -6  -6   29.10    1.40
  -6  -6   6   28.37    1.04
  -6   6  -6   27.41    0.73
   6   6   6   28.05    1.23
  -6  -6   6   28.52    1.28
   6  -6  -6   27.69    0.74
   6  -6  -6   29.34    1.24
   6   6   6   29.80    1.23
   6  -6  -6   29.86    0.99
  -6   6  -6   29.79    1.09
   6  -6  -6   29.30    1.21
   8  -6   6   16.44    1.07
  -8  -6  -6   15.15    1.07
   8  -6   6   14.45    0.84
   8   6  -6   16.19    1.07
   8   6   6   15.34    0.89
   8  -6  -6   16.50    0.93
   8   6   6   15.85    1.00
  -8   6  -6   15.65    0.87
  -8  -6   6   15.10    1.03
   8  -6  -6   16.63    1.01
  10  -6   6    6.06    1.19
 -10  -6  -6    8.38    1.06
  10  -6   6    7.14    0.87
  10   6   6    7.34    0.74
 -10   6  -6    6.07    0.70
  10  -6  -6    7.35    0.76
   1  -7   6   27.15    1.34
  -1  -7  -6   24.96    1.12
  -1  -7  -6   24.82    1.07
  -1   7   6   22.84    1.04
  -1  -7  -6   25.51    0.86
   1  -7   6   26.02    1.04
  -1  -7   6   26.17    1.08
  -1  -7   6   26.21    0.84
   1  -7  -6   26.78    1.02
  -1   7  -6   24.46    1.02
   1  -7  -6   25.06    1.05
  -1  -7   6   25.09    0.82
   1  -7  -6   25.44    1.13
  -1  -7   6   25.27    1.04
   1  -7  -6   24.03    0.95
   1   7   6   25.25    1.20
   1  -7  -6   25.67    1.13
   1  -7  -6   24.97    0.87
   3  -7   6   22.60    1.07
  -3  -7  -6   20.79    0.88
   3  -7   6   22.26    1.00
  -3  -7  -6   20.14    1.04
   3  -7   6   23.37    1.06
  -3  -7  -6   20.54    1.15
   3   7  -6   21.83    1.08
   3  -7  -6   21.46    1.01
   3  -7  -6   19.93    0.90
  -3  -7   6   22.58    0.90
   3  -7  -6   21.49    0.93
   3   7   6   20.80    0.95
   3   7   6   19.80    0.86
  -3  -7   6   22.67    1.20
   3  -7  -6   20.85    0.83
  -3   7  -6   21.49    0.63
   5   7  -6   14.54    0.91
  -5  -7  -6   15.18    0.89
   5  -7   6   14.74    0.91
   5  -7   6   14.75    0.87
   5  -7   6   14.23    0.84
  -5  -7  -6   15.61    0.95
   5   7   6   13.22    0.78
   5  -7  -6   14.83    0.64
   5   7   6   15.67    0.82
  -5  -7   6   15.46    0.84
  -5   7  -6   13.59    0.59
   5  -7  -6   14.64    0.88
  -5  -7   6   14.96    0.87
   5  -7  -6   13.74    0.76
   5  -7  -6   14.38    0.61
  -7  -7  -6    9.25    0.77
   7   7  -6    8.66    0.81
   7  -7   6    9.17    0.79
   7  -7   6    8.21    0.64
  -7  -7  -6    9.33    0.82
   7  -7  -6    9.48    0.71
   7   7   6    9.36    0.67
  -7  -7   6    7.85    0.69
   7  -7  -6    8.84    0.64
  -7   7  -6    9.40    0.60
   7  -7  -6    8.72    0.52
  -7  -7   6    9.40    0.76
   7   7   6    8.93    0.70
   9   7  -6    4.94    0.65
  -9  -7  -6    5.41    0.65
  -9  -7  -6    4.09    0.69
   9  -7   6    4.23    0.48
   9  -7   6    4.53    0.60
   9  -7  -6    4.29    0.56
  -9  -7   6    4.62    0.63
   9   7   6    4.87    0.59
   0  -8   6  103.42    2.90
   0  -8  -6   99.96    2.98
   0  -8   6  101.71    2.34
   0  -8  -6   98.68    2.95
   0  -8   6   98.71    2.42
   0  -8  -6   97.28    2.55
   0  -8   6  103.72    2.85
   2  -8   6   90.12    2.70
  -2  -8  -6   93.59    2.74
  -2  -8  -6   85.55    2.38
   2  -8   6   91.04    2.97
  -2  -8  -6   86.90    2.75
  -2  -8   6   90.97    2.67
   2  -8  -6   90.20    2.42
  -2  -8   6   89.23    2.64
   2  -8  -6   89.58    2.67
  -2  -8   6   88.45    2.37
  -2  -8   6   87.83    2.33
  -2   8  -6   91.87    2.08
  -4  -8  -6   68.21    2.27
   4  -8   6   65.38    2.21
  -4  -8  -6   65.79    2.32
   4   8  -6   65.60    2.30
   4  -8   6   67.54    2.23
   4  -8   6   66.96    2.30
  -4  -8   6   68.37    2.22
   4  -8  -6   67.91    2.27
   4  -8  -6   67.29    1.88
   4  -8  -6   64.35    1.94
  -4  -8   6   67.55    2.08
  -4   8  -6   66.05    1.71
   4  -8  -6   69.02    2.07
   4   8   6   66.19    2.08
   4   8   6   67.28    2.15
   6  -8   6   41.16    1.65
  -6  -8  -6   44.16    1.86
   6   8  -6   41.26    1.79
   6  -8   6   42.35    1.79
  -6  -8  -6   42.37    1.76
   6  -8  -6   41.53    1.35
  -6   8  -6   40.40    1.33
   6  -8  -6   41.76    1.54
  -6  -8   6   46.61    1.80
   6  -8  -6   35.12    1.20
  -6  -8   6   41.14    1.66
   6   8   6   43.24    1.65
   8  -8   6   24.33    1.40
   8   8  -6   23.25    1.39
  -8  -8  -6   23.60    1.42
  -8  -8  -6   25.04    1.39
   8  -8   6   23.13    1.17
   8  -8  -6   24.76    1.29
  -8  -8   6   24.79    1.40
   8  -8  -6   22.90    1.11
  -8  -8   6   24.12    1.34
   8   8   6   25.68    1.33
  -1  -9  -6   36.25    1.52
   1  -9   6   36.65    1.48
   1  -9   6   36.37    1.43
  -1  -9  -6   37.23    1.50
  -1   9  -6   36.49    1.03
   1  -9  -6   38.32    1.54
   1  -9  -6   37.48    1.34
  -1  -9   6   37.57    1.45
  -1  -9   6   37.62    1.49
  -1  -9   6   36.37    1.16
   1  -9  -6   34.69    1.31
  -1  -9   6   35.34    1.08
   1  -9  -6   36.33    1.47
   1  -9  -6   34.14    1.22
   3  -9   6   29.46    1.38
  -3  -9  -6   30.34    1.40
  -3  -9  -6   30.27    1.42
   3  -9   6   31.45    1.37
   3  -9  -6   31.06    1.21
  -3  -9   6   32.24    1.38
  -3  -9   6   29.46    1.33
   3  -9  -6   31.79    1.40
  -3   9  -6   31.64    0.90
  -3  -9   6   31.87    1.20
   3  -9  -6   30.25    1.13
  -5  -9  -6   22.27    1.21
   5  -9   6   23.24    1.18
   5   9  -6   21.69    1.23
   5  -9   6   19.79    1.18
   5  -9   6   21.25    1.17
  -5  -9  -6   21.37    1.23
  -5  -9   6   22.14    1.18
   5  -9  -6   22.85    0.92
  -5  -9   6   21.73    1.08
   5  -9  -6   21.85    1.00
  -5   9  -6   22.36    0.82
   5   9   6   22.68    1.10
   5  -9  -6   23.16    1.23
  -7  -9  -6   13.16    0.97
   7   9  -6   12.66    1.00
  -7  -9  -6   13.63    1.03
   7  -9   6   13.24    0.88
   7  -9   6   14.07    1.02
  -7  -9   6   14.04    0.95
  -7  -9   6   12.90    0.96
   7  -9  -6   13.93    0.80
   7   9   6   12.11    0.89
  -9  -9  -6    8.36    0.97
  -9  -9  -6    6.55    0.83
   9   9  -6    7.14    0.80
  -9  -9   6    8.23    0.84
   9  -9  -6    6.48    0.73
   9   9   6    7.28    0.73
   0 -10  -6   19.15    0.87
   0 -10  -6   20.83    0.99
   0 -10   6   20.99    1.06
   0 -10  -6   20.62    1.10
   0 -10  -6   19.82    1.10
   0 -10   6   19.99    1.07
   0 -10   6   20.21    0.61
   2 -10   6   19.24    1.04
  -2 -10  -6   17.35    1.05
  -2 -10  -6   18.15    1.05
   2 -10   6   19.77    1.08
  -2  10  -6   18.70    0.65
  -2 -10   6   18.66    1.03
  -2 -10   6   18.34    0.82
  -2 -10   6   17.42    1.00
   2 -10  -6   18.99    1.07
   2 -10  -6   18.71    0.90
  -4 -10  -6   13.37    0.94
   4 -10   6   13.63    0.91
   4 -10   6   14.75    0.98
   4 -10   6   14.38    0.94
  -4 -10  -6   14.30    0.98
   4 -10  -6   13.52    0.94
  -4 -10   6   13.69    0.79
  -4 -10   6   14.39    0.95
   4 -10  -6   13.08    0.73
   4 -10  -6   13.77    0.75
   6 -10   6    8.96    0.81
  -6 -10  -6    9.28    0.83
   6  10  -6    8.68    0.81
  -6 -10  -6    8.85    0.82
   6 -10   6    9.00    0.75
   6 -10   6    8.90    0.83
   6  10   6    9.21    0.72
   6 -10  -6    9.24    0.85
   6 -10  -6    9.16    0.58
  -6 -10   6    9.23    0.80
   6 -10  -6    8.36    0.61
  -6 -10   6    7.58    0.67
  -8 -10  -6    5.93    0.72
  -8 -10  -6    3.77    0.64
   8  10  -6    4.99    0.66
   8 -10   6    3.91    0.64
   8 -10   6    5.19    0.60
   8 -10  -6    5.05    0.62
   8 -10  -6    4.91    0.48
  -8 -10   6    4.64    0.59
  -8 -10   6    6.11    0.71
   8  10   6    5.93    0.66
  -1 -11  -6   12.24    0.87
   1 -11   6    9.63    0.75
   1 -11   6   10.12    0.75
  -1 -11  -6   10.12    0.78
   1 -11  -6   10.42    0.80
   1 -11  -6    9.83    0.77
  -1 -11   6    9.91    0.47
   1 -11  -6   10.69    0.70
  -1 -11   6   10.21    0.56
   1 -11  -6    9.65    0.64
  -1 -11   6   10.33    0.78
  -1  11  -6   10.50    0.50
  -1 -11   6   10.49    0.76
  -3 -11  -6    8.42    0.75
  -3 -11  -6    8.51    0.77
   3 -11   6   10.01    0.78
   3 -11   6    9.35    0.77
  -3 -11   6    8.51    0.72
  -3 -11   6    8.62    0.74
   3 -11  -6    9.04    0.62
  -3 -11   6    9.80    0.62
   3 -11  -6    8.65    0.59
   3 -11  -6    8.09    0.74
  -5 -11  -6    6.38    0.69
   5 -11   6    6.22    0.70
   5 -11   6    5.64    0.66
  -5 -11  -6    6.04    0.68
  -5 -11   6    6.07    0.57
   5 -11  -6    5.57    0.48
  -5 -11   6    5.28    0.62
   5 -11  -6    6.30    0.50
   5 -11  -6    5.88    0.67
   7 -11   6    3.07    0.59
  -7 -11  -6    3.58    0.66
  -7 -11  -6    4.19    0.61
   7 -11   6    4.83    0.57
   7  11  -6    3.50    0.66
  -7 -11   6    3.27    0.60
   7  11   6    2.84    0.49
  -7 -11   6    3.66    0.51
   7 -11  -6    4.91    0.44
   0 -12  -6  169.85    4.78
   0 -12   6  161.46    3.70
   0 -12  -6  171.08    4.80
   0 -12   6  163.73    4.06
   0 -12  -6  175.63    4.59
   0 -12   6  173.30    4.71
   0 -12   6  170.60    4.72
  -2 -12  -6  165.07    4.62
   2 -12   6  165.09    4.58
   2 -12   6  158.72    4.51
  -2 -12  -6  158.25    4.59
   2 -12  -6  156.95    4.60
  -2 -12   6  159.05    4.52
  -2 -12   6  157.58    4.49
   2 -12  -6  153.00    4.11
   2 -12  -6  158.55    4.25
  -2 -12   6  156.35    4.05
   4 -12   6  130.26    3.96
   4 -12   6  124.47    3.81
   4 -12   6  122.94    3.96
  -4 -12  -6  125.55    3.93
  -4 -12  -6  125.65    3.96
  -4 -12   6  129.46    3.89
  -4 -12   6  124.56    3.87
   4 -12  -6  125.28    3.96
   4 -12  -6  124.16    3.37
   4 -12  -6  122.25    3.45
  -4 -12   6  117.42    3.46
   6 -12   6   86.16    2.92
   6 -12   6   81.01    3.01
  -6 -12  -6   83.27    3.08
   6 -12   6   79.48    3.01
  -6 -12  -6   82.46    3.06
  -6 -12   6   85.37    3.08
  -6 -12   6   81.09    2.75
   6 -12  -6   83.12    3.11
   1 -13   6   10.50    0.84
  -1 -13  -6    8.85    0.80
  -1 -13  -6    8.84    0.74
   1 -13   6    8.62    0.81
  -1 -13  -6   11.40    1.12
   1 -13  -6    9.79    0.66
   1 -13  -6    9.93    1.01
   1 -13  -6    9.21    0.82
  -1 -13   6    9.47    0.57
  -1 -13   6    9.48    0.80
  -1 -13   6   10.03    0.95
   1 -13  -6    9.73    0.73
  -3 -13  -6    8.03    0.77
   3 -13   6    9.42    0.83
  -3 -13  -6    9.23    0.83
   3 -13   6    8.56    0.79
   3 -13  -6    9.89    0.89
  -3 -13   6    8.39    0.77
  -3 -13   6    8.15    0.62
   3 -13  -6    7.74    0.64
   3 -13  -6    7.42    0.57
  -3 -13   6    8.72    0.77
   5 -13   6    5.67    0.67
   5 -13   6    5.41    0.64
   5 -13   6    5.40    0.72
  -5 -13  -6    4.98    0.66
  -5 -13  -6    6.47    0.74
  -5 -13   6    5.78    0.71
  -5 -13   6    6.51    0.72
   5 -13  -6    4.58    0.45
   5 -13  -6    6.01    0.74
   5 -13  -6    4.63    0.50
  -5 -13   6    6.23    0.59
   7 -13   6    3.29    0.61
  -7 -13  -6    3.28    0.59
  -7 -13  -6    3.07    0.64
   7 -13   6    3.64    0.67
  -7 -13   6    3.47    0.61
  -7 -13   6    3.97    0.71
   0 -14  -6   34.10    1.42
   0 -14  -6   35.09    1.74
   0 -14  -6   33.63    1.67
   0 -14  -6   33.10    1.81
   0 -14   6   35.70    1.67
   0 -14   6   34.38    1.68
  -2 -14  -6   31.65    1.66
  -2 -14  -6   31.06    1.62
   2 -14   6   32.08    1.62
   2 -14   6   30.40    1.58
  -2 -14  -6   32.14    1.54
  -2 -14   6   31.94    1.62
   2 -14  -6   31.56    1.29
  -2 -14   6   30.08    1.55
  -2 -14   6   30.01    1.23
   2 -14  -6   31.08    1.66
   2 -14  -6   29.79    1.40
  -4 -14  -6   24.74    1.48
  -4 -14  -6   26.59    1.53
   4 -14   6   24.37    1.42
   4 -14   6   24.21    1.45
   4 -14   6   26.04    1.52
   4 -14  -6   25.16    1.25
  -4 -14   6   24.65    1.46
  -4 -14   6   23.46    1.25
   4 -14  -6   24.28    1.05
  -4 -14   6   26.64    1.50
   4 -14  -6   25.02    1.54
   6 -14   6   15.17    1.22
  -6 -14  -6   17.42    1.29
  -6 -14  -6   15.88    1.25
   6 -14   6   17.99    1.29
   6 -14  -6   16.07    1.30
  -6 -14   6   18.15    1.30
  -6 -14   6   17.15    1.08
  -6 -14   6   16.84    1.23
  -1 -15  -6    4.95    0.63
   1 -15   6    5.65    0.69
  -1 -15  -6    5.02    0.67
  -1 -15  -6    5.00    0.60
   1 -15   6    5.23    0.64
   1 -15  -6    6.09    0.72
  -1 -15   6    4.99    0.63
  -1 -15   6    4.96    0.43
  -1 -15   6    5.64    0.67
   1 -15  -6    6.17    0.62
   1 -15  -6    6.65    1.04
   3 -15   6    4.39    0.64
  -3 -15  -6    4.79    0.62
   3 -15   6    5.23    0.67
  -3 -15  -6    5.31    0.68
   3 -15  -6    4.95    0.70
  -3 -15   6    5.78    0.81
  -3 -15   6    4.69    0.65
   3 -15  -6    3.39    0.42
  -3 -15   6    3.51    0.63
   3 -15  -6    4.79    0.54
   5 -15   6    3.43    0.64
   5 -15   6    3.18    0.63
  -5 -15  -6    3.19    0.66
   5 -15   6    3.08    0.61
  -5 -15  -6    2.09    0.51
   5 -15  -6    3.78    0.73
  -5 -15   6    2.79    0.50
  -5 -15   6    3.60    0.69
  -5 -15   6    4.27    0.72
   0 -16   6   61.53    2.51
   0 -16  -6   60.11    2.34
   0 -16  -6   62.93    2.52
   0 -16  -6   61.88    2.63
  -2 -16  -6   64.24    2.73
  -2 -16  -6   57.39    2.34
  -2 -16  -6   53.72    2.73
   2 -16   6   58.21    2.44
   2 -16  -6   53.12    2.58
  -2 -16   6   57.18    2.40
   2 -16  -6   58.21    2.22
   2 -16  -6   55.97    1.87
  -2 -16   6   52.40    3.35
   1   0   7  330.10   12.41
  -1   0  -7  319.17   12.39
   1   0  -7  326.18   11.23
  -1   0   7  327.86   10.78
  -3   0  -7  253.54    5.85
  -3   0   7  252.81    5.70
  -3   0  -7  251.69    5.87
  -3   0   7  244.60    5.80
   5   0   7  164.15    4.41
   5   0  -7  167.14    4.22
   5   0  -7  171.82    4.14
   5   0   7  162.58    4.21
  -5   0   7  159.94    3.79
  -5   0  -7  162.26    4.06
  -5   0  -7  166.76    4.13
   7   0   7   89.75    2.80
   7   0  -7   94.39    2.80
  -7   0   7   87.67    2.42
  -7   0  -7   94.75    2.79
   7   0   7   92.99    2.64
   7   0  -7   91.02    2.80
   7   0   7   93.30    2.83
   9   0  -7   47.28    1.94
  -9   0  -7   44.91    1.89
   9   0   7   46.36    1.65
   9   0   7   47.07    1.96
 -11   0  -7   20.80    1.35
  11   0  -7   22.27    1.38
 -11   0   7   21.68    1.44
   0  -1   7   84.72    2.10
   0   1   7   91.09    1.93
   0  -1  -7   85.07    2.20
   0   1  -7   89.28    2.16
   0  -1   7   86.56    2.14
   0   1   7   81.53    2.22
   0   1  -7   90.24    2.25
   0   1  -7   86.07    2.12
   0  -1   7   89.77    2.10
   0   1   7   88.84    2.23
   0  -1  -7   86.69    2.03
   0   1   7   84.48    2.03
   0  -1  -7   89.47    2.20
  -2   1   7   73.11    2.00
  -2  -1  -7   74.53    2.04
   2   1  -7   73.21    1.99
   2  -1   7   74.03    2.00
  -2   1   7   73.62    1.85
  -2   1   7   73.84    2.02
  -2  -1  -7   73.50    1.97
   2  -1   7   74.91    2.05
   2  -1   7   75.12    1.81
  -2   1   7   74.07    1.85
  -2  -1  -7   75.97    1.97
   2   1  -7   76.38    1.96
  -2  -1   7   72.54    1.99
   2   1   7   75.18    1.97
  -2   1  -7   74.69    1.99
  -2  -1   7   75.06    1.92
  -2   1  -7   76.13    1.83
   2   1   7   75.76    2.05
  -2   1  -7   76.87    2.06
  -2  -1   7   79.73    1.92
  -2   1  -7   75.25    1.80
  -2  -1   7   75.31    1.79
   2  -1  -7   75.83    1.83
   2  -1  -7   76.43    2.04
   2  -1  -7   75.50    1.86
  -4   1   7   50.06    1.20
   4  -1   7   50.66    1.57
  -4  -1  -7   49.98    1.56
   4   1  -7   49.54    1.59
   4   1  -7   50.65    1.54
  -4   1   7   49.51    1.56
   4  -1   7   50.58    1.61
  -4  -1   7   49.61    1.54
  -4  -1   7   50.16    1.24
   4   1   7   47.55    1.50
   4   1   7   49.40    1.56
   4   1   7   49.42    1.58
   4  -1  -7   48.26    1.47
  -4  -1   7   50.95    1.32
   4   1   7   47.68    1.50
   4  -1  -7   50.13    1.60
  -4   1  -7   50.46    1.47
  -4   1  -7   46.35    1.61
  -4   1  -7   50.91    2.04
   6  -1   7   29.57    1.15
  -6   1   7   27.67    0.92
   6   1  -7   30.08    1.22
  -6  -1  -7   27.59    1.20
   6  -1   7   30.29    1.27
   6   1  -7   28.64    1.22
  -6   1  -7   28.24    1.15
   6   1   7   28.78    1.23
   6   1   7   27.81    1.20
   6  -1  -7   28.65    1.22
   6  -1  -7   29.33    1.19
   6   1   7   28.80    1.14
  -6  -1   7   28.37    0.99
   8  -1   7   14.44    0.95
  -8  -1  -7   14.12    0.92
   8  -1   7   15.32    0.81
   8   1  -7   15.96    0.97
   8  -1   7   13.64    0.91
  -8   1  -7   15.91    0.94
   8   1   7   14.58    0.94
   8   1   7   14.53    0.81
   8  -1  -7   13.83    0.90
 -10  -1  -7    8.73    0.81
  10   1  -7    7.15    0.73
  10  -1   7    7.12    0.75
  10  -1  -7    7.94    0.76
 -10  -1   7    6.76    0.76
  10   1   7    6.29    0.55
 -10   1  -7    8.18    0.77
  10   1   7    7.87    0.77
  -1  -2  -7    0.69    0.13
  -1   2   7    0.70    0.10
   1   2  -7    0.60    0.12
   1  -2   7    0.77    0.06
   1  -2   7    0.75    0.08
  -1   2   7    0.86    0.17
   1  -2   7    0.62    0.13
   1  -2   7    0.71    0.15
  -1  -2  -7    0.74    0.12
  -1  -2  -7    0.94    0.18
  -1  -2  -7    0.97    0.17
  -1   2   7    1.01    0.13
   1   2   7    1.11    0.08
  -1  -2   7    1.09    0.13
   1   2   7    0.59    0.14
  -1   2  -7    0.90    0.16
  -1  -2   7    0.82    0.15
  -1   2  -7    0.86    0.09
   1  -2  -7    0.70    0.15
   1   2   7    0.65    0.15
   1  -2  -7    0.86    0.10
   1  -2  -7    0.87    0.15
  -1  -2   7    0.94    0.12
  -1  -2   7    0.79    0.15
  -1  -2   7    0.92    0.15
  -3  -2  -7    0.51    0.15
  -3  -2  -7    0.68    0.16
   3   2  -7    0.54    0.14
   3   2  -7    0.54    0.15
  -3   2   7    0.59    0.14
   3  -2   7    0.48    0.15
   3  -2   7    0.61    0.16
  -3  -2  -7    0.48    0.13
  -3   2   7    0.42    0.09
  -3   2   7    0.33    0.13
  -3   2  -7    1.08    0.20
   3  -2  -7    0.74    0.09
   3  -2  -7    0.56    0.12
  -3   2  -7    0.71    0.13
   3   2   7    0.44    0.13
   3   2   7    0.31    0.12
   3   2   7    0.80    0.16
  -3  -2   7    0.61    0.15
   3  -2  -7    0.33    0.12
  -3  -2   7    0.67    0.15
  -3   2  -7    0.43    0.13
  -3   2  -7    0.42    0.09
  -3  -2   7    0.48    0.10
   5   2  -7    0.49    0.21
  -5   2   7    1.02    0.20
  -5  -2  -7    0.37    0.15
   5  -2   7    0.33    0.15
   5   2  -7    0.39    0.14
   5  -2   7    1.09    0.27
   5   2   7    0.41    0.15
  -5   2  -7    0.45    0.14
  -5  -2   7    0.31    0.11
   5  -2  -7    0.18    0.11
  -5   2  -7    0.27    0.12
   5   2   7    0.50    0.16
   5  -2  -7    0.56    0.19
  -5  -2   7    0.36    0.07
   7  -2   7    0.18    0.13
  -7  -2  -7    0.04    0.11
   7  -2   7    0.09    0.12
  -7   2   7    0.19    0.10
   7   2  -7    0.03    0.10
   7  -2  -7    0.12    0.13
   7   2   7   -0.07    0.09
  -7   2  -7    0.13    0.13
   7  -2  -7   -0.14    0.08
   7   2   7    0.05    0.11
   9  -2   7   -0.09    0.14
  -9  -2  -7   -0.08    0.19
   9   2  -7    0.51    0.31
   9  -2   7   -0.08    0.13
   9  -2   7    0.01    0.16
   9   2   7    0.09    0.19
   9  -2  -7    0.23    0.20
  -9   2  -7   -0.21    0.12
   9   2   7   -0.23    0.09
  -9  -2   7   -0.18    0.13
  11  -2   7    0.25    0.25
  11   2  -7    0.33    0.27
 -11   2   7    0.00    0.23
 -11  -2  -7    0.16    0.34
  11   2   7    0.05    0.26
 -11  -2   7   -0.47    0.19
 -11   2  -7   -0.30    0.27
  11  -2  -7   -0.13    0.21
   0   3   7   47.92    1.30
   0  -3   7   49.69    1.15
   0   3  -7   50.06    1.44
   0   3  -7   50.08    1.30
   0  -3   7   46.73    1.40
   0  -3  -7   48.47    1.41
   0  -3   7   47.69    1.26
   0  -3  -7   50.37    1.51
   0   3   7   48.49    1.42
   0  -3   7   49.20    1.31
   0  -3  -7   48.03    1.29
   0  -3   7   48.76    1.48
   0  -3   7   49.77    1.48
   0   3   7   51.02    1.52
   0  -3  -7   48.63    1.49
  -2  -3  -7   39.34    1.32
   2  -3   7   42.88    1.37
   2  -3   7   41.76    1.19
  -2   3   7   42.80    1.26
  -2  -3  -7   42.49    1.28
   2   3  -7   42.23    1.29
   2   3  -7   43.00    1.38
   2  -3   7   43.17    1.41
  -2   3   7   42.64    1.40
  -2  -3  -7   44.49    1.41
  -2  -3  -7   44.85    1.27
  -2   3   7   42.72    1.21
  -2  -3   7   41.23    1.28
  -2  -3   7   42.98    1.27
   2   3   7   42.87    1.14
   2  -3  -7   42.49    1.24
   2  -3  -7   43.75    1.37
   2  -3  -7   43.01    1.21
  -2   3  -7   43.04    1.11
   2   3   7   40.58    1.38
   2   3   7   42.18    1.35
  -2  -3   7   44.10    1.24
  -2   3  -7   43.56    1.21
   2  -3  -7   45.25    1.13
  -2  -3   7   42.88    1.35
  -2   3  -7   45.88    1.80
   4  -3   7   30.45    1.15
   4  -3   7   29.77    1.18
   4   3  -7   29.89    1.16
  -4   3   7   28.40    1.08
  -4  -3  -7   31.39    1.21
   4   3   7   30.04    1.14
   4   3   7   31.77    1.07
   4  -3  -7   28.55    1.59
  -4   3  -7   31.37    1.08
  -4  -3   7   30.40    0.95
   4  -3  -7   29.78    0.80
   4  -3  -7   30.37    1.03
  -4   3  -7   28.77    0.92
  -6   3   7   16.21    0.62
   6   3  -7   17.66    0.93
   6  -3   7   16.75    0.85
  -6  -3  -7   16.80    0.95
   6  -3   7   16.63    0.93
   6   3   7   17.72    0.87
   6   3   7   16.73    0.87
  -6   3  -7   17.84    0.77
  -6  -3   7   17.64    0.48
  -6  -3   7   18.11    0.52
  -6   3  -7   18.63    0.82
   6  -3  -7   17.71    0.87
   6  -3  -7   16.67    0.90
   8  -3   7    9.97    0.66
  -8  -3  -7    9.37    0.79
   8   3  -7    8.62    0.73
   8  -3  -7   10.10    0.75
  -8  -3   7   10.29    0.82
  -8   3  -7    9.43    0.69
   8   3   7    8.85    0.72
   8   3   7    9.37    0.65
   8  -3  -7   10.07    0.75
  10  -3   7    4.11    0.69
  10  -3   7    4.54    0.62
 -10  -3  -7    5.03    0.65
  10   3  -7    5.77    0.68
 -10   3  -7    4.13    0.54
 -10  -3   7    3.67    0.64
  10  -3  -7    5.57    0.66
  10   3   7    4.85    0.60
  -1  -4  -7  219.95    5.30
  -1   4   7  230.66    5.26
  -1  -4  -7  219.90    5.14
  -1   4   7  230.38    5.44
  -1   4  -7  225.69    5.33
   1  -4  -7  226.95    5.22
  -1  -4   7  230.54    5.15
  -1  -4   7  221.18    5.37
   1   4   7  231.06    5.77
  -1   4  -7  230.25    5.18
   3  -4   7  178.22    4.48
   3  -4   7  185.23    4.31
  -3  -4  -7  169.62    4.34
   3  -4   7  184.05    4.50
  -3  -4  -7  178.37    4.35
  -3   4   7  177.80    4.41
   3   4  -7  184.44    4.36
   3   4  -7  188.22    4.52
  -3  -4  -7  185.65    4.54
   3  -4  -7  187.37    4.38
  -3   4  -7  185.49    3.98
   3  -4  -7  179.45    3.87
  -3   4  -7  177.54    3.94
  -3  -4   7  179.18    4.30
  -3  -4   7  177.67    4.47
   3  -4  -7  177.50    4.13
  -3  -4   7  177.99    4.33
  -3   4  -7  176.80    4.28
   3  -4  -7  177.91    4.41
   3  -4  -7  181.38    4.16
   3   4   7  178.80    4.56
   3   4   7  179.46    4.21
   5  -4   7  118.35    3.33
   5   4  -7  120.28    3.32
   5  -4   7  119.68    3.24
  -5  -4  -7  122.50    3.39
  -5  -4   7  119.47    2.92
   5   4   7  119.07    3.15
   5  -4  -7  121.56    3.13
   5   4   7  123.04    3.24
   5  -4  -7  111.65    2.59
   5  -4  -7  119.50    3.25
  -5  -4   7  120.01    3.25
  -5   4  -7  117.91    2.81
  -5  -4   7  116.92    2.88
   7   4  -7   65.73    2.32
   7  -4   7   66.47    2.34
   7  -4   7   69.06    2.15
  -7   4   7   62.95    1.84
  -7  -4  -7   67.05    2.38
   7   4   7   68.40    2.25
  -7   4  -7   67.01    1.87
  -7  -4   7   69.07    2.34
   7  -4  -7   71.91    2.26
  -7   4  -7   69.26    2.10
   7  -4  -7   68.69    2.26
   7   4   7   67.26    2.16
   9  -4   7   36.34    1.75
   9   4  -7   34.65    1.67
   9  -4   7   33.44    1.64
  -9  -4  -7   31.91    1.65
   9  -4   7   32.91    1.36
   9   4   7   32.83    1.57
  -9  -4   7   37.84    1.74
   9  -4  -7   33.83    1.58
  -9   4  -7   34.46    1.49
   9   4   7   32.14    1.38
   0  -5   7  251.34    6.06
   0  -5  -7  247.29    5.91
   0   5  -7  257.49    5.85
   0   5   7  260.14    5.91
   0   5   7  258.41    6.09
  -2   5   7  232.49    5.47
  -2  -5  -7  231.58    5.68
  -2  -5  -7  228.06    5.48
   2  -5  -7  236.75    5.34
  -2  -5   7  229.15    5.32
  -2   5  -7  232.66    5.40
  -2  -5   7  226.33    5.59
   4  -5   7  166.03    4.27
  -4  -5  -7  167.51    4.21
   4  -5   7  164.07    4.15
   4   5  -7  163.10    4.31
   4  -5   7  168.90    4.33
  -4  -5  -7  165.57    4.36
   4   5   7  168.14    4.06
   4  -5  -7  165.96    4.20
   4  -5  -7  168.65    4.02
  -4  -5   7  164.96    4.13
   4  -5  -7  160.43    3.82
   4  -5  -7  164.77    3.70
  -4   5  -7  171.67    3.99
  -4   5  -7  164.76    3.60
   4   5   7  169.83    4.23
  -4   5  -7  164.59    3.59
  -4   5  -7  162.87    4.18
   4  -5  -7  165.24    4.22
  -4   5  -7  165.36    3.76
   6  -5   7  100.80    2.91
   6  -5   7  100.57    3.06
   6   5  -7  102.08    3.06
  -6  -5  -7  102.24    3.13
   6  -5  -7  100.84    2.94
   6   5   7  101.66    2.89
   6   5   7  102.37    2.90
   6  -5  -7  106.25    2.90
  -6   5  -7  100.64    2.66
  -6  -5   7   99.03    2.96
  -6   5  -7   99.13    2.39
  -6  -5   7   94.16    2.52
  -8  -5  -7   52.54    2.17
   8   5  -7   53.08    2.13
   8  -5   7   54.11    2.13
   8  -5   7   53.33    1.87
  -8   5  -7   54.67    1.86
   8   5   7   53.62    1.90
  -8  -5   7   54.43    2.11
   8  -5  -7   55.05    2.03
   8  -5  -7   54.25    1.99
   8   5   7   53.08    2.02
  10   5  -7   26.83    1.56
  10  -5   7   35.35    2.62
 -10  -5  -7   25.38    1.55
  10  -5   7   27.08    1.62
  10  -5  -7   26.91    1.46
 -10   5  -7   24.85    1.32
 -10  -5   7   28.13    1.76
  -1  -6  -7   36.77    1.30
   1  -6   7   36.75    1.34
   1  -6   7   34.59    1.35
   1  -6   7   37.64    1.24
  -1  -6  -7   36.74    1.01
  -1  -6  -7   36.27    1.39
  -1   6   7   36.42    1.22
  -1  -6   7   36.20    1.08
  -1  -6   7   36.54    1.03
   1  -6  -7   36.19    1.28
   1   6   7   37.32    1.28
   1  -6  -7   34.28    1.21
  -1  -6   7   37.62    1.27
   1  -6  -7   37.47    1.05
   1  -6  -7   36.45    1.39
   1  -6  -7   36.35    1.12
  -1   6  -7   34.53    1.22
  -1  -6   7   39.19    1.34
   1  -6  -7   37.23    1.27
  -3  -6  -7   29.42    1.28
   3  -6   7   30.63    1.24
   3   6  -7   29.83    1.26
  -3  -6  -7   30.06    1.19
   3  -6   7   29.71    1.25
   3  -6   7   30.61    1.15
   3   6   7   30.66    1.03
   3  -6  -7   29.74    1.17
  -3  -6   7   28.78    1.04
   3  -6  -7   28.92    0.86
  -3  -6   7   28.95    1.13
   3  -6  -7   30.87    1.22
   3  -6  -7   28.35    0.99
   3   6   7   30.02    1.17
  -3   6  -7   27.94    1.11
   5  -6   7   19.78    0.99
  -5  -6  -7   19.97    1.08
  -5  -6  -7   20.31    1.01
   5   6  -7   20.09    1.07
   5  -6   7   19.37    1.05
   5   6   7   19.39    0.91
  -5  -6   7   19.16    0.94
   5  -6  -7   18.85    0.66
   5  -6  -7   19.74    0.96
  -5   6  -7   19.85    0.71
  -5  -6   7   18.88    0.83
   5   6   7   21.07    0.99
  -5  -6   7   20.23    1.00
  -5   6  -7   18.84    0.68
   5  -6  -7   19.70    0.67
   5  -6  -7   20.04    0.89
  -7  -6  -7   11.44    0.88
   7   6  -7   12.69    0.90
  -7  -6  -7   10.64    0.80
   7  -6   7   12.06    0.77
   7  -6   7   12.06    0.87
   7   6   7   12.09    0.77
   7   6   7   10.51    0.75
  -7  -6   7   12.12    0.85
  -7   6  -7   11.03    0.83
   7  -6  -7   12.67    0.80
   7  -6  -7   11.99    0.79
   9  -6   7    6.50    0.72
   9   6  -7    5.66    0.68
  -9  -6  -7    5.67    0.70
   9  -6   7    5.31    0.56
   9   6   7    5.91    0.64
  -9  -6   7    6.85    0.72
   9  -6  -7    6.29    0.65
   0   7   7   79.16    2.43
   0  -7  -7   87.95    2.62
   0  -7   7   89.75    2.44
   0  -7   7   86.44    2.52
   0   7   7   83.30    2.65
   0  -7   7   85.98    2.05
   0   7  -7   85.87    2.42
   0  -7   7   89.12    1.99
   0  -7  -7   83.45    2.10
   0  -7  -7   87.83    2.48
  -2  -7  -7   76.50    2.02
  -2  -7  -7   78.68    2.47
   2  -7   7   77.86    2.39
   2  -7   7   77.98    2.39
  -2  -7  -7   76.57    2.34
   2  -7   7   76.24    2.25
  -2  -7   7   73.16    2.25
   2  -7  -7   77.53    2.25
  -2   7  -7   71.92    2.23
   2  -7  -7   78.87    2.37
  -2  -7   7   77.72    2.07
   2  -7  -7   73.71    2.00
  -2  -7   7   73.65    2.04
  -2  -7   7   77.60    2.31
   2   7   7   77.74    2.28
   2  -7  -7   80.44    2.32
  -4  -7  -7   52.67    1.99
   4   7  -7   57.35    2.04
   4  -7   7   57.92    2.02
   4  -7   7   55.18    1.94
  -4  -7  -7   56.69    1.93
   4  -7   7   56.41    1.88
   4   7   7   55.61    1.87
  -4   7  -7   55.40    1.36
  -4  -7   7   57.08    1.80
   4  -7  -7   51.95    1.87
   4  -7  -7   55.66    1.83
   4  -7  -7   53.96    1.60
   4  -7  -7   53.98    1.49
   4   7   7   58.01    1.77
  -4  -7   7   56.89    1.89
  -6  -7  -7   34.46    1.51
   6  -7   7   33.04    1.44
   6   7  -7   38.78    1.65
   6  -7   7   34.31    1.57
  -6  -7  -7   33.89    1.59
  -6  -7   7   37.00    1.55
   6  -7  -7   34.26    1.37
  -6   7  -7   33.14    1.11
   6  -7  -7   34.76    1.09
   6   7   7   35.96    1.42
   6   7   7   34.47    1.43
  -6  -7   7   34.18    1.45
  -6   7  -7   34.85    1.14
   6  -7  -7   32.77    1.38
  -8  -7  -7   15.83    1.14
   8   7  -7   16.27    1.13
  -8  -7  -7   17.03    1.12
   8  -7   7   18.72    1.20
   8  -7   7   17.45    0.99
  -8  -7   7   18.06    0.72
   8   7   7   18.31    1.07
   8  -7  -7   19.22    1.09
  -8  -7   7   19.84    1.20
  -8  -7   7   18.86    1.15
 -10  -7  -7    9.17    0.94
 -10  -7  -7   10.15    0.95
  10  -7   7    8.62    0.90
  10   7  -7    9.20    0.91
 -10  -7   7    8.43    0.87
 -10  -7   7    9.16    0.92
  10   7   7    8.24    0.83
  10  -7  -7    8.11    0.82
  -1  -8  -7   12.46    0.79
  -1  -8  -7   10.50    0.51
  -1  -8  -7   11.12    0.84
   1  -8   7   11.62    0.68
   1  -8   7   11.44    0.73
  -1  -8   7   11.30    0.68
  -1  -8   7   10.56    0.48
   1  -8  -7   10.92    0.60
   1  -8  -7   10.48    0.51
   1  -8  -7   11.61    0.67
   1  -8  -7   10.43    0.73
  -1  -8   7   11.14    0.71
  -1  -8   7   11.82    0.50
   1  -8  -7   10.62    0.68
   3  -8   7    9.14    0.68
   3  -8   7    7.42    0.63
  -3  -8  -7    9.60    0.72
   3  -8   7    9.47    0.65
  -3  -8  -7    7.80    0.51
  -3  -8  -7    9.04    0.67
   3   8   7    9.51    0.64
  -3  -8   7    9.19    0.54
   3  -8  -7    8.25    0.46
  -3  -8   7    8.96    0.64
   3   8   7    9.26    0.56
   3  -8  -7    8.53    0.58
   3  -8  -7    8.48    0.64
  -3  -8   7    8.71    0.64
  -5  -8  -7    6.16    0.62
   5   8  -7    5.51    0.59
   5  -8   7    6.23    0.57
   5  -8   7    4.57    0.54
   5  -8   7    5.89    0.57
  -5  -8  -7    5.53    0.56
   5   8   7    5.55    0.52
  -5   8  -7    5.84    0.32
  -5  -8   7    5.49    0.55
   5  -8  -7    5.23    0.35
  -5   8  -7    5.85    0.32
   5  -8  -7    5.20    0.40
  -5  -8   7    6.25    0.53
   5   8   7    5.86    0.50
   5  -8  -7    6.20    0.52
   5  -8  -7    6.75    0.61
  -7  -8  -7    2.10    0.47
  -7  -8  -7    3.24    0.63
   7   8  -7    3.77    0.54
   7  -8   7    3.17    0.55
   7  -8   7    2.71    0.47
   7  -8  -7    3.31    0.43
   7   8   7    4.29    0.48
   7  -8  -7    3.69    0.43
  -7  -8   7    3.78    0.51
   9  -8   7    1.45    0.40
   9   8  -7    2.11    0.54
   9  -8   7    1.51    0.34
  -9  -8  -7    0.95    0.40
  -9  -8  -7    1.41    0.39
   9  -8  -7    0.88    0.33
  -9  -8   7    1.57    0.41
  -9  -8   7    0.99    0.35
   9   8   7    1.16    0.33
   0  -9   7  148.17    3.97
   0  -9  -7  142.50    4.04
   0  -9  -7  138.37    3.52
   0  -9   7  143.29    3.27
   0  -9   7  147.12    3.88
   0  -9  -7  147.42    3.97
   0  -9   7  146.60    3.34
  -2  -9  -7  127.13    3.33
  -2  -9  -7  134.50    3.76
   2  -9   7  136.16    3.67
  -2  -9  -7  137.47    3.87
   2  -9   7  129.76    3.74
  -2  -9   7  134.31    3.70
  -2  -9   7  128.81    3.27
  -2  -9   7  135.73    3.68
  -2  -9   7  133.49    3.31
   2  -9  -7  132.40    3.54
   2  -9  -7  136.69    3.74
   2  -9  -7  130.81    3.39
   2  -9  -7  124.68    3.33
   4  -9   7   98.93    3.05
  -4  -9  -7   96.98    3.18
  -4  -9  -7  104.31    3.17
   4  -9   7   97.41    3.06
   4  -9   7  103.52    3.21
  -4  -9   7  101.24    3.05
   4   9   7  103.91    2.90
   4  -9  -7   97.11    2.61
  -4  -9   7   98.90    3.06
   4  -9  -7  100.01    3.11
   4  -9  -7   99.58    2.87
  -4  -9   7  103.79    2.86
   6  -9   7   66.45    2.37
  -6  -9  -7   66.60    2.45
  -6  -9  -7   68.68    2.58
   6   9  -7   63.59    2.49
   6  -9   7   70.38    2.57
  -6  -9   7   65.59    2.29
   6   9   7   67.84    2.29
   6  -9  -7   67.82    2.60
  -6  -9   7   65.36    2.41
   6  -9  -7   69.29    2.22
  -8  -9  -7   36.23    1.79
   8  -9   7   39.29    1.90
   8   9  -7   37.35    1.87
  -8  -9  -7   35.10    1.83
   8  -9   7   36.86    1.62
   8  -9  -7   37.19    1.65
  -8  -9   7   39.46    1.78
   8  -9  -7   36.33    1.51
  -8  -9   7   38.44    1.84
   8   9   7   35.12    1.65
   1 -10   7   82.87    2.59
  -1 -10  -7   79.55    2.64
  -1 -10  -7   79.69    2.71
   1 -10   7   84.71    2.68
  -1 -10  -7   77.24    2.27
   1 -10  -7   82.86    2.66
  -1 -10   7   84.80    2.60
  -1 -10   7   82.60    2.18
   1 -10  -7   85.05    2.75
   1 -10  -7   78.41    2.28
  -1 -10   7   79.07    2.08
   1 -10  -7   87.51    2.54
   1 -10  -7   84.33    2.49
  -1 -10   7   87.70    2.70
  -3 -10  -7   66.68    2.47
   3 -10   7   69.89    2.45
   3 -10   7   67.95    2.34
   3 -10   7   71.12    2.43
  -3 -10  -7   67.57    2.41
   3 -10  -7   67.38    2.39
  -3 -10   7   68.91    2.06
  -3 -10   7   69.44    2.37
   3 -10  -7   65.72    2.01
  -3 -10   7   71.48    2.39
   3 -10  -7   66.73    2.15
  -5 -10  -7   48.11    2.01
   5 -10   7   49.25    2.05
  -5 -10  -7   46.87    2.04
   5 -10   7   48.86    1.95
   5 -10   7   48.56    1.96
  -5 -10   7   44.84    1.73
   5 -10  -7   49.78    1.73
   5 -10  -7   46.81    1.97
  -5 -10   7   47.82    1.95
   5  10   7   49.00    1.81
   5 -10  -7   47.35    1.70
   7 -10   7   27.55    1.42
   7  10  -7   30.45    1.63
   7 -10   7   33.46    1.71
  -7 -10  -7   29.11    1.63
  -7 -10  -7   29.86    1.58
  -7 -10   7   28.11    1.43
   7  10   7   28.37    1.42
  -7 -10   7   29.66    1.56
   7 -10  -7   29.13    1.28
   7 -10  -7   29.34    1.39
   0 -11   7    6.92    0.64
   0 -11   7    6.10    0.23
   0 -11  -7    6.25    0.62
   0 -11  -7    6.76    0.65
   0 -11  -7    6.43    0.55
   0 -11   7    6.44    0.59
   2 -11   7    5.60    0.59
  -2 -11  -7    5.11    0.58
  -2 -11  -7    5.69    0.62
   2 -11   7    6.09    0.59
   2 -11  -7    6.09    0.62
  -2 -11   7    5.71    0.42
  -2 -11   7    5.82    0.59
  -2 -11   7    5.06    0.54
   2 -11  -7    7.14    0.56
   2 -11  -7    5.32    0.48
   4 -11   7    4.45    0.55
  -4 -11  -7    3.99    0.56
   4 -11   7    4.14    0.56
  -4 -11  -7    3.72    0.61
   4 -11   7    3.83    0.51
   4 -11  -7    4.40    0.57
   4 -11  -7    3.77    0.39
  -4 -11   7    3.84    0.51
   4 -11  -7    3.88    0.42
  -4 -11   7    4.23    0.53
  -4 -11   7    5.11    0.47
   6 -11   7    3.28    0.55
  -6 -11  -7    2.19    0.47
   6 -11   7    1.92    0.46
   6 -11   7    2.70    0.52
  -6 -11  -7    2.69    0.55
  -6 -11   7    2.87    0.55
  -6 -11   7    2.98    0.49
   6 -11  -7    2.71    0.56
   6 -11  -7    3.09    0.38
   6  11   7    2.65    0.49
   8 -11   7    0.60    0.35
   8  11  -7    2.31    0.54
   8 -11   7    1.48    0.38
  -8 -11  -7    0.97    0.38
  -8 -11  -7    1.69    0.48
   8 -11  -7    1.01    0.26
   8 -11  -7    1.30    0.41
   8  11   7    1.34    0.37
  -8 -11   7    1.69    0.48
  -8 -11   7    1.78    0.41
   1 -12   7    0.06    0.14
  -1 -12  -7    0.17    0.17
  -1 -12  -7    0.27    0.20
   1 -12   7    0.11    0.15
  -1 -12   7    0.21    0.16
   1 -12  -7    0.45    0.25
  -1 -12   7    0.20    0.10
   1 -12  -7    0.31    0.16
  -1 -12   7   -0.03    0.13
   1 -12  -7    0.36    0.21
   1 -12  -7    0.38    0.21
   3 -12   7    0.40    0.22
   3 -12   7    0.31    0.20
  -3 -12  -7    0.42    0.24
  -3 -12  -7   -0.07    0.13
   3 -12   7    0.26    0.19
  -3 -12   7    0.12    0.16
   3 -12  -7    0.14    0.15
   3 -12  -7    0.29    0.16
  -3 -12   7    0.03    0.12
  -3 -12   7    0.43    0.24
   5 -12   7   -0.04    0.16
   5 -12   7    0.23    0.22
  -5 -12  -7   -0.12    0.16
  -5 -12  -7    0.61    0.29
   5 -12   7    0.31    0.22
  -5 -12   7    0.14    0.20
   5 -12  -7    0.24    0.21
   5 -12  -7    0.09    0.14
   5 -12  -7    0.34    0.15
  -5 -12   7    0.07    0.20
  -5 -12   7    0.20    0.17
  -7 -12  -7    0.38    0.26
  -7 -12  -7    0.13    0.24
   7 -12   7    0.58    0.43
   7 -12   7    0.46    0.29
  -7 -12   7   -0.43    0.20
  -7 -12   7    0.43    0.24
   7 -12  -7    0.19    0.15
  -7 -12   7    0.18    0.23
   0 -13  -7    2.07    0.39
   0 -13  -7    2.38    0.49
   0 -13  -7    3.90    0.63
   0 -13   7    1.17    0.38
   0 -13   7    2.10    0.43
   0 -13  -7    1.88    0.34
  -2 -13  -7    1.96    0.44
   2 -13   7    2.05    0.44
  -2 -13  -7    2.03    0.46
  -2 -13   7    2.32    0.44
   2 -13  -7    1.56    0.40
  -2 -13   7    1.84    0.29
   2 -13  -7    2.38    0.41
   2 -13  -7    2.09    0.36
  -2 -13   7    2.27    0.47
  -4 -13  -7    1.81    0.45
   4 -13   7    1.04    0.37
   4 -13   7    1.47    0.43
   4 -13   7    0.81    0.31
   4 -13  -7    1.09    0.26
  -4 -13   7    1.73    0.41
  -4 -13   7    0.89    0.32
   4 -13  -7    1.65    0.42
  -4 -13   7    0.86    0.22
  -6 -13  -7    1.16    0.56
   6 -13   7    1.31    0.44
  -6 -13  -7    0.71    0.31
   6 -13   7    1.05    0.35
   6 -13  -7   -0.32    0.35
  -6 -13   7    0.72    0.34
  -6 -13   7    0.90    0.35
   6 -13  -7    1.21    0.47
   6 -13  -7    0.95    0.25
  -6 -13   7    0.81    0.29
   1 -14   7   70.17    2.62
   1 -14   7   68.56    2.56
  -1 -14  -7   68.56    2.65
  -1 -14  -7   64.64    2.41
  -1 -14  -7   71.85    2.69
   1 -14  -7   69.40    2.26
  -1 -14   7   68.55    2.55
   1 -14  -7   67.40    2.36
   1 -14  -7   65.44    2.62
  -1 -14   7   70.03    2.61
   3 -14   7   57.84    2.39
  -3 -14  -7   58.67    2.43
   3 -14   7   61.57    2.42
   3 -14   7   61.04    2.46
  -3 -14  -7   59.22    2.46
   3 -14  -7   59.86    2.49
   3 -14  -7   58.32    2.07
  -3 -14   7   59.59    2.37
  -3 -14   7   56.63    1.94
  -3 -14   7   58.80    2.41
   3 -14  -7   60.47    2.01
   5 -14   7   42.37    2.79
  -5 -14  -7   42.15    2.09
   5 -14   7   44.44    2.01
  -5 -14  -7   44.06    2.10
   5 -14  -7   39.92    1.52
  -5 -14   7   46.68    2.16
  -5 -14   7   41.26    1.70
   5 -14  -7   45.26    2.78
   0 -15   7   16.29    1.13
   0 -15  -7   18.32    1.11
   0 -15  -7   17.91    1.25
   0 -15   7   16.79    1.17
   0 -15  -7   16.87    1.19
   0 -15  -7   17.16    0.98
  -2 -15  -7   18.43    1.24
   2 -15   7   16.06    1.14
  -2 -15  -7   16.19    1.18
  -2 -15  -7   15.16    1.08
   2 -15   7   16.81    1.16
   2 -15  -7   14.27    1.15
  -2 -15   7   17.26    1.16
  -2 -15   7   16.45    1.16
  -2 -15   7   15.46    1.08
   2 -15  -7   16.44    1.01
   2 -15  -7   14.75    0.87
   4 -15   7   13.73    1.12
  -4 -15  -7   12.98    1.36
   4 -15   7   12.78    1.11
  -4 -15  -7   13.62    1.11
   4 -15  -7   12.99    1.13
  -4 -15   7   12.74    1.07
  -4 -15   7   13.29    0.85
  -1 -16  -7    1.55    0.45
  -1 -16  -7    0.85    0.29
  -1 -16  -7    0.69    0.31
  -1 -16  -7    0.86    0.46
   1 -16   7    2.06    0.50
  -1 -16   7    0.89    0.35
   1 -16  -7    1.06    0.29
   1 -16  -7    1.23    0.37
   1 -16  -7    0.09    0.49
   0   0  -8  255.23   10.40
   0   0   8  257.51   10.27
  -2   0  -8  223.07    5.32
   2   0  -8  215.43    5.12
  -2   0   8  226.65    5.26
   2   0   8  228.24    5.13
  -2   0   8  227.79    5.28
  -2   0  -8  235.26    5.24
  -4   0  -8  156.47    3.89
  -4   0   8  161.09    3.57
  -4   0   8  155.97    3.90
   4   0   8  160.44    4.30
  -4   0   8  160.57    3.55
  -4   0  -8  156.72    3.82
   4   0  -8  157.32    3.89
   4   0  -8  163.38    4.07
   4   0   8  168.29    4.14
   6   0  -8   93.83    2.81
   6   0   8   97.00    2.85
  -6   0   8   94.96    2.37
   6   0  -8   95.30    2.74
   6   0   8   94.97    2.79
   6   0   8   95.70    2.72
  -6   0  -8   97.11    2.75
   8   0   8   50.22    1.96
   8   0   8   49.88    1.77
  -8   0  -8   52.22    1.93
   8   0  -8   49.79    1.91
  10   0  -8   25.17    1.40
  10   0   8   23.12    1.36
 -10   0   8   22.84    1.44
 -10   0  -8   24.74    1.38
   1  -1   8   30.40    0.86
   1  -1   8   29.67    1.05
  -1  -1  -8   29.92    0.72
  -1  -1  -8   30.01    0.97
  -1   1   8   29.58    1.01
  -1   1   8   29.48    0.79
   1  -1   8   28.93    0.95
  -1   1   8   30.16    0.76
   1   1  -8   30.82    0.99
  -1  -1  -8   30.41    1.07
  -1  -1  -8   29.89    0.92
  -1  -1   8   30.38    0.75
  -1   1  -8   31.46    0.96
  -1  -1   8   30.29    0.91
  -1  -1   8   30.92    0.75
   1   1   8   29.21    0.98
   1  -1  -8   30.94    1.03
  -1   1  -8   30.65    0.84
  -1  -1   8   29.56    0.99
   1   1   8   28.77    0.91
   1  -1  -8   31.05    0.98
  -1  -1   8   30.65    0.86
  -1   1  -8   28.87    0.95
  -1   1  -8   30.15    1.18
  -1  -1   8   30.45    0.94
   1   1   8   29.67    1.04
  -3  -1  -8   21.11    0.84
   3  -1   8   21.83    0.90
  -3  -1  -8   22.66    0.88
   3   1  -8   21.99    0.84
  -3   1   8   21.46    0.69
   3   1  -8   21.33    0.88
  -3   1   8   23.18    0.81
   3  -1   8   20.50    0.90
   3  -1  -8   22.43    0.71
  -3  -1   8   23.11    0.74
   3   1   8   22.01    0.83
  -3  -1   8   22.89    0.79
  -3   1  -8   22.47    0.89
   3  -1  -8   22.45    0.77
   3   1   8   21.60    0.87
   3   1   8   23.60    0.93
  -3  -1   8   21.99    0.83
  -3   1  -8   22.27    0.74
  -3  -1   8   22.76    1.02
   3  -1  -8   22.40    0.91
  -3  -1   8   21.40    0.66
  -3   1  -8   23.39    0.76
   5  -1   8   13.27    0.73
  -5  -1  -8   13.58    0.68
   5  -1   8   13.17    0.75
   5   1  -8   14.32    0.78
  -5   1   8   13.88    0.45
   5   1  -8   13.99    0.73
  -5  -1  -8   14.01    0.74
   5   1   8   13.43    0.71
   5  -1  -8   13.44    0.69
  -5   1  -8   13.20    0.67
   5   1   8   14.68    0.75
  -5   1  -8   13.05    0.66
   5   1   8   14.67    0.78
  -5  -1   8   13.43    0.54
   5  -1  -8   14.69    0.79
   7  -1   8    7.32    0.56
   7  -1   8    7.59    0.63
   7   1  -8    7.53    0.62
  -7  -1  -8    7.34    0.61
  -7   1   8    7.52    0.42
   7  -1   8    8.93    0.69
  -7  -1   8    7.50    0.47
   7  -1  -8    7.86    0.63
  -7   1  -8    8.37    0.61
   7  -1  -8    7.94    0.62
   7   1   8    7.21    0.57
   7   1   8    7.33    0.61
   9   1  -8    4.24    0.54
  -9  -1  -8    3.50    0.83
   9  -1   8    3.66    0.44
   9  -1   8    3.63    0.61
   9  -1  -8    3.54    0.51
  -9   1  -8    4.00    0.51
   9   1   8    3.97    0.45
   9   1   8    3.62    0.51
  -9  -1   8    4.47    0.59
   0  -2   8    5.85    0.27
   0   2   8    5.60    0.39
   0  -2   8    5.23    0.37
   0   2  -8    5.79    0.34
   0   2  -8    5.44    0.32
   0  -2  -8    5.94    0.24
   0  -2   8    5.25    0.32
   0   2   8    6.06    0.38
   0  -2   8    5.37    0.35
   0  -2  -8    5.91    0.27
   0  -2  -8    5.97    0.39
   0  -2  -8    5.80    0.39
   0  -2   8    5.70    0.19
   0  -2  -8    5.74    0.36
  -2   2   8    5.24    0.30
   2  -2   8    5.23    0.37
   2  -2   8    4.75    0.38
  -2  -2  -8    5.51    0.38
  -2   2   8    4.25    0.36
   2   2  -8    5.46    0.36
  -2  -2  -8    4.84    0.33
  -2  -2  -8    5.01    0.29
  -2  -2  -8    4.88    0.37
  -2   2   8    5.08    0.30
   2   2   8    4.92    0.37
   2  -2  -8    5.17    0.27
  -2   2  -8    4.82    0.37
   2  -2  -8    4.15    0.28
   2  -2  -8    4.68    0.36
   2   2   8    5.46    0.39
   2   2   8    4.56    0.25
  -2   2  -8    4.86    0.35
  -2   2  -8    4.77    0.38
  -2  -2   8    5.12    0.34
  -2  -2   8    4.69    0.28
  -2   2  -8    5.04    0.29
  -2  -2   8    6.03    0.38
   4   2  -8    2.80    0.31
  -4  -2  -8    3.51    0.34
   4  -2   8    2.78    0.33
  -4   2   8    3.64    0.32
   4  -2   8    3.09    0.34
   4   2  -8    3.54    0.35
  -4  -2   8    3.10    0.33
   4  -2  -8    3.14    0.28
  -4  -2   8    3.48    0.23
   4   2   8    3.87    0.35
   4   2   8    3.40    0.34
  -4   2  -8    3.74    0.27
  -4   2  -8    3.06    0.28
   4   2   8    3.18    0.29
   4  -2  -8    3.39    0.35
  -6  -2  -8    2.78    0.37
   6  -2   8    2.07    0.36
   6  -2   8    2.02    0.34
   6   2  -8    1.60    0.32
  -6   2   8    2.31    0.17
   6   2  -8    2.02    0.37
   6   2   8    1.88    0.33
  -6  -2   8    1.63    0.23
   6   2   8    1.97    0.34
   6  -2  -8    1.74    0.31
  -6   2  -8    1.74    0.29
   6  -2  -8    1.55    0.32
   8   2  -8    1.29    0.33
   8  -2   8    0.96    0.25
   8  -2   8    1.04    0.32
  -8  -2  -8    1.63    0.38
   8  -2   8    1.35    0.34
  -8   2  -8    0.99    0.26
   8  -2  -8    1.47    0.42
   8   2   8    0.83    0.24
   8   2   8    1.41    0.34
   8  -2  -8    0.96    0.30
  10  -2   8    0.54    0.24
  10   2  -8    1.14    0.34
 -10  -2  -8    0.63    0.32
 -10   2  -8    0.77    0.30
  10   2   8    0.34    0.22
 -10  -2   8    0.78    0.33
  10  -2  -8    0.62    0.29
  10   2   8    0.55    0.27
  -1  -3  -8  106.74    2.79
   1  -3   8  108.43    2.47
  -1  -3  -8  101.45    2.73
  -1   3   8  105.56    2.66
   1   3  -8  110.59    2.65
  -1  -3  -8  103.54    2.57
   1  -3   8  107.34    2.74
  -1   3   8  103.72    2.86
  -1   3   8  105.07    2.59
   1  -3   8  109.48    2.84
  -1  -3  -8  108.05    2.56
  -1  -3   8  104.33    2.53
   1  -3  -8  105.98    2.54
   1   3   8  100.45    2.79
  -1   3  -8  107.23    2.52
   1   3   8  110.67    2.78
  -1  -3   8  106.01    2.63
   1  -3  -8  104.28    2.66
   1  -3  -8  107.04    2.77
  -1   3  -8  106.74    2.50
  -1  -3   8  109.15    2.66
  -1  -3   8  105.74    2.75
  -1   3  -8  103.86    2.71
  -1  -3   8  103.85    2.73
   1  -3  -8  108.59    2.34
  -3  -3  -8   82.05    2.31
  -3   3   8   85.08    2.11
   3  -3   8   87.23    2.45
   3   3  -8   87.07    2.34
  -3   3   8   82.05    2.25
   3  -3   8   88.51    2.43
   3   3  -8   83.78    2.38
  -3  -3  -8   86.26    2.42
   3  -3  -8   86.46    2.11
   3   3   8   81.20    2.39
  -3   3  -8   84.57    2.19
  -3  -3   8   86.57    2.23
  -3   3  -8   86.28    1.97
   3   3   8   86.40    2.40
  -3  -3   8   84.03    2.36
   3  -3  -8   86.51    2.40
   3  -3  -8   84.05    2.11
   3   3   8   84.80    2.16
   5  -3   8   56.17    1.85
   5   3  -8   59.84    1.89
   5  -3   8   56.63    1.92
   5   3  -8   56.99    1.88
  -5  -3  -8   54.23    1.89
   5   3   8   55.70    1.75
   5  -3  -8   55.36    1.71
   5   3   8   56.71    1.84
   5  -3  -8   56.88    1.88
  -5  -3   8   52.96    2.08
  -5  -3   8   56.66    1.48
   7   3  -8   30.52    1.40
   7  -3   8   32.89    1.33
  -7  -3  -8   31.34    1.44
   7  -3   8   33.60    1.48
  -7   3   8   29.91    0.96
   7  -3  -8   30.41    1.32
  -7   3  -8   32.50    1.26
  -7  -3   8   32.44    1.45
   7   3   8   32.02    1.37
   7   3   8   31.97    1.33
   7  -3  -8   32.28    1.40
  -9  -3  -8   18.30    1.16
   9  -3   8   17.58    1.13
   9  -3   8   15.40    0.90
   9   3  -8   17.27    1.12
   9  -3   8   17.44    1.15
  -9  -3   8   17.28    1.15
   9  -3  -8   16.08    1.05
  -9   3  -8   15.78    0.97
   9   3   8   16.72    1.07
   9   3   8   16.19    0.93
   0   4   8  199.19    4.84
   0   4  -8  196.46    4.48
   0  -4  -8  191.49    4.72
   0  -4   8  197.14    4.78
   0  -4  -8  201.86    4.83
   0  -4  -8  197.85    4.44
   0   4   8  202.64    4.56
   0  -4  -8  201.15    4.54
   0  -4  -8  185.89    4.66
   2  -4   8  181.74    4.37
  -2  -4  -8  170.53    4.19
  -2  -4  -8  176.61    4.41
  -2   4   8  174.47    4.20
   2  -4   8  176.39    4.09
   2   4  -8  181.86    4.21
  -2  -4  -8  172.67    4.19
   2  -4  -8  178.39    3.88
  -2  -4   8  176.16    4.34
  -2  -4   8  175.23    4.18
   2   4   8  162.34    4.37
  -2  -4   8  170.43    4.07
   2  -4  -8  165.31    4.10
   2   4   8  183.61    3.98
  -2  -4   8  173.75    4.26
  -2   4  -8  176.43    3.92
  -2  -4   8  183.42    4.24
  -2   4  -8  174.38    4.12
   2  -4  -8  184.56    4.36
  -2   4  -8  174.09    4.32
  -2  -4   8  173.32    4.13
   4   4  -8  129.93    3.47
   4   4  -8  129.08    3.37
   4  -4   8  127.30    3.45
   4  -4   8  126.02    3.47
  -4  -4  -8  130.25    3.51
  -4  -4  -8  128.32    3.33
  -4   4  -8  128.33    2.96
  -4  -4   8  129.50    3.34
   4   4   8  127.63    3.40
   4   4   8  127.34    3.21
  -4  -4   8  133.23    3.20
   4  -4  -8  128.11    3.42
  -4   4  -8  126.97    3.27
   4  -4  -8  126.02    2.99
   4  -4  -8  128.00    3.16
   6   4  -8   79.06    2.54
   6  -4   8   80.62    2.46
   6  -4   8   79.78    2.58
  -6  -4  -8   78.88    2.58
  -6  -4   8   80.87    2.51
   6  -4  -8   79.32    2.36
   6  -4  -8   76.68    2.48
   6   4   8   80.60    2.45
   6   4   8   81.18    2.41
  -6   4  -8   77.96    2.04
  -6  -4   8   76.14    1.96
  -6   4  -8   81.88    2.21
  -6  -4   8   81.13    1.99
   8   4  -8   40.65    1.87
   8  -4   8   42.99    1.85
  -8  -4  -8   43.16    2.16
   8  -4   8   43.26    1.66
  -8   4  -8   43.50    1.60
   8   4   8   44.76    1.78
   8   4   8   45.74    1.69
  -8  -4   8   44.63    1.87
   8  -4  -8   45.64    1.76
  10   4  -8   22.94    1.39
  10  -4   8   28.61    2.19
 -10  -4  -8   21.82    1.39
  10  -4  -8   22.05    1.29
  10   4   8   21.81    1.13
  10   4   8   22.50    1.32
 -10  -4   8   22.71    1.61
   1  -5   8  155.50    4.02
  -1  -5  -8  164.36    4.08
  -1   5   8  160.90    3.83
  -1  -5  -8  151.07    3.72
   1  -5   8  158.52    3.75
   1  -5   8  157.80    3.96
   1   5  -8  154.67    3.69
  -1   5   8  154.98    3.86
  -1  -5   8  154.89    3.55
  -1  -5   8  162.96    3.99
   1  -5  -8  152.36    3.82
  -1  -5   8  150.55    3.98
  -1   5  -8  156.20    3.76
  -1   5  -8  151.28    3.94
   1  -5  -8  156.98    4.04
   1   5   8  157.09    3.92
   1  -5  -8  160.81    3.58
  -1  -5   8  159.14    3.90
  -1  -5   8  155.76    3.70
  -1   5  -8  159.10    3.54
   1  -5  -8  154.54    3.93
   1  -5  -8  156.86    3.80
  -1  -5   8  160.20    3.85
   3  -5   8  128.38    3.46
   3   5  -8  131.04    3.28
  -3   5   8  122.40    3.30
   3   5  -8  144.05    3.93
  -3  -5  -8  126.64    3.49
   3  -5   8  129.34    3.48
   3  -5   8  128.68    3.25
  -3  -5  -8  124.20    3.31
  -3  -5   8  126.37    3.30
  -3  -5   8  129.91    3.28
   3   5   8  131.20    3.17
  -3   5  -8  128.16    2.80
   3  -5  -8  126.94    3.29
   3  -5  -8  123.97    3.37
   3   5   8  128.64    3.40
  -3   5  -8  123.01    3.23
   3  -5  -8  130.72    3.05
  -3  -5   8  126.74    3.20
   3  -5  -8  121.27    3.10
   5  -5   8   83.68    2.64
   5   5  -8   83.03    2.62
   5  -5   8   82.05    2.55
  -5  -5  -8   85.27    2.67
  -5  -5  -8   83.13    2.51
  -5  -5   8   86.03    2.50
   5  -5  -8   85.84    2.36
  -5  -5   8   85.56    2.28
   5   5   8   85.12    2.53
   5  -5  -8   79.71    2.01
   5  -5  -8   83.84    2.54
   5   5   8   84.44    2.63
  -5   5  -8   85.18    2.12
   7  -5   8   48.50    1.95
   7   5  -8   47.68    1.91
  -7  -5  -8   50.15    1.99
   7  -5   8   46.35    1.75
  -7   5  -8   50.44    1.59
  -7  -5   8   47.22    1.85
   7   5   8   49.62    1.78
  -7  -5   8   45.16    1.25
   7   5   8   49.03    1.79
  -7  -5   8   46.52    1.27
   7  -5  -8   48.36    1.75
   7  -5  -8   48.36    1.83
   9  -5   8   23.74    1.39
  -9  -5  -8   25.03    1.45
   9   5  -8   23.59    1.39
   9  -5   8   23.72    1.30
  -9  -5   8   24.30    1.38
   9  -5  -8   24.79    1.30
   9   5   8   23.22    1.17
   9   5   8   24.57    1.31
   0  -6   8   56.00    1.46
   0   6   8   55.30    1.72
   0  -6  -8   56.32    1.54
   0  -6   8   57.40    1.80
   0  -6  -8   54.48    1.70
   0  -6   8   58.97    1.68
   0  -6  -8   54.79    1.87
   0  -6  -8   55.26    1.30
   0   6   8   55.00    1.70
   0  -6   8   57.73    1.88
  -2  -6  -8   50.37    1.56
   2  -6   8   49.34    1.55
  -2  -6  -8   49.97    1.65
  -2   6   8   47.20    1.63
   2  -6   8   49.98    1.72
  -2  -6  -8   48.37    1.76
   2  -6   8   50.19    1.74
  -2  -6   8   49.89    1.42
  -2  -6   8   52.50    1.66
   2  -6  -8   50.10    1.30
   2  -6  -8   48.66    1.64
  -2  -6   8   50.70    1.49
  -2   6  -8   48.65    1.62
  -2  -6   8   52.23    1.62
   2  -6  -8   49.16    1.53
   2   6   8   51.31    1.66
   2  -6  -8   49.68    1.60
   4  -6   8   36.18    1.47
  -4  -6  -8   37.23    1.42
   4   6  -8   37.64    1.52
   4  -6   8   36.77    1.50
   4  -6   8   36.32    1.55
  -4  -6  -8   35.67    1.51
  -4  -6   8   38.43    1.40
   4  -6  -8   36.97    1.21
   4  -6  -8   38.20    1.42
   4   6   8   37.45    1.42
   4  -6  -8   35.39    1.14
   4   6   8   38.66    1.28
   4  -6  -8   35.83    1.39
  -4  -6   8   37.66    1.38
   6  -6   8   23.36    1.15
  -6  -6  -8   23.13    1.25
   6   6  -8   24.37    1.25
   6  -6   8   24.55    1.26
  -6  -6  -8   26.51    1.23
   6  -6  -8   22.56    1.04
   6   6   8   24.15    1.14
  -6  -6   8   20.74    0.88
  -6  -6   8   25.03    0.95
  -6   6  -8   21.98    0.81
   6   6   8   23.49    1.09
   6  -6  -8   23.96    1.15
  -6   6  -8   24.15    0.88
  -6  -6   8   23.37    1.15
   8  -6   8   13.19    0.85
   8   6  -8   12.86    0.97
   8  -6   8   13.66    0.99
  -8  -6  -8   13.22    1.00
  -8  -6  -8   11.67    0.90
  -8  -6   8   12.76    0.93
   8   6   8   13.54    0.99
   8  -6  -8   12.73    0.87
   8  -6  -8   12.50    0.86
 -10  -6  -8    7.42    0.82
 -10  -6  -8    7.48    1.46
  10   6  -8    8.03    0.85
  10  -6   8    6.46    0.82
  10  -6   8    5.96    0.77
 -10  -6   8    6.48    0.79
  10  -6  -8    6.23    0.71
   1  -7   8  145.39    3.83
   1  -7   8  140.67    3.85
  -1  -7  -8  140.49    3.90
  -1  -7  -8  141.99    3.73
  -1  -7  -8  135.42    3.53
   1  -7   8  148.58    3.67
  -1  -7  -8  140.99    3.30
   1  -7  -8  148.40    3.73
   1  -7  -8  146.61    3.71
  -1  -7   8  147.86    3.79
   1  -7  -8  146.07    3.75
   1   7   8  146.41    3.73
  -1  -7   8  141.90    3.40
  -1   7  -8  137.75    3.64
  -1  -7   8  143.12    3.30
   1  -7  -8  142.64    3.90
  -1  -7   8  141.70    3.66
  -3  -7  -8  120.46    3.46
   3  -7   8  120.16    3.38
  -3  -7  -8  118.21    3.30
   3  -7   8  115.90    3.17
   3  -7   8  115.15    3.36
   3  -7  -8  110.76    3.00
   3  -7  -8  116.60    3.22
  -3  -7   8  117.18    3.02
   3  -7  -8  116.64    3.23
   3   7   8  115.90    3.24
   3   7   8  122.95    3.02
  -3  -7   8  120.81    3.23
  -3  -7   8  118.38    3.25
   3  -7  -8  114.24    2.76
   5  -7   8   79.39    2.57
   5  -7   8   80.22    2.66
   5   7  -8   82.79    2.69
  -5  -7  -8   81.14    2.56
  -5  -7  -8   80.07    2.69
  -5   7  -8   77.65    1.98
   5  -7  -8   78.66    1.93
   5   7   8   81.37    2.38
  -5  -7   8   78.19    2.41
   5  -7  -8   75.11    2.06
  -5   7  -8   79.94    2.13
   5  -7  -8   79.77    2.30
  -5  -7   8   80.74    2.52
   5   7   8   80.26    2.50
   5  -7  -8   77.80    2.53
   5  -7  -8   80.06    2.48
  -7  -7  -8   47.04    1.91
   7   7  -8   46.26    1.99
   7  -7   8   47.62    2.01
  -7  -7  -8   45.08    1.98
   7  -7   8   46.93    1.83
  -7  -7   8   47.74    1.51
   7   7   8   46.40    1.81
   7   7   8   45.77    1.77
   7  -7  -8   47.92    1.77
  -7  -7   8   47.29    1.92
  -7  -7   8   46.95    1.87
   7  -7  -8   47.03    1.81
  -9  -7  -8   26.09    1.54
   9   7  -8   23.62    1.45
  -9  -7  -8   26.35    1.48
   9  -7   8   25.59    1.49
   9  -7   8   23.08    1.22
   9   7   8   24.24    1.32
  -9  -7   8   24.54    1.43
  -9  -7   8   25.95    1.47
   9  -7  -8   23.67    1.29
   0  -8  -8   10.91    0.46
   0  -8   8   11.68    0.44
   0  -8   8   12.11    0.69
   0  -8   8   11.30    0.72
   0  -8  -8   11.84    0.80
   0  -8  -8   11.32    0.86
  -2  -8  -8    9.41    0.67
   2  -8   8    9.96    0.71
   2  -8   8   10.13    0.72
  -2  -8  -8   10.03    0.50
  -2  -8  -8   10.58    0.76
   2  -8   8    9.55    0.70
  -2  -8   8   10.47    0.69
   2  -8  -8   10.21    0.60
  -2  -8   8   10.40    0.67
  -2  -8   8    9.05    0.50
   2   8   8   10.61    0.68
   2  -8  -8   10.23    0.50
   2  -8  -8    9.72    0.64
   2  -8  -8    9.69    0.66
  -2  -8   8   10.18    0.51
  -4  -8  -8    7.94    0.66
   4  -8   8    7.58    0.60
   4  -8   8    7.96    0.66
  -4  -8  -8    6.88    0.66
   4  -8   8    8.05    0.69
   4  -8  -8    7.12    0.57
   4  -8  -8    7.48    0.38
   4   8   8    7.31    0.52
  -4  -8   8    7.00    0.52
  -4  -8   8    7.22    0.59
  -4  -8   8    7.19    0.59
   4   8   8    6.55    0.57
   4  -8  -8    8.03    0.64
   6   8  -8    4.34    0.95
  -6  -8  -8    5.02    1.13
   6  -8   8    4.48    0.53
   6  -8   8    3.54    0.62
  -6  -8  -8    4.31    0.53
   6   8   8    4.03    0.44
  -6  -8   8    4.87    0.51
   6  -8  -8    3.82    0.42
  -6  -8   8    3.94    0.50
   6  -8  -8    4.21    0.47
   6   8   8    4.61    0.50
  -8  -8  -8    2.40    0.49
   8  -8   8    3.16    0.60
  -8  -8  -8    2.66    0.55
   8  -8   8    2.49    0.47
   8   8  -8    2.36    0.51
   8  -8  -8    2.24    0.42
   8  -8  -8    2.73    0.48
  -8  -8   8    2.35    0.45
  -8  -8   8    2.57    0.51
   8   8   8    3.20    0.46
   1  -9   8  108.46    3.07
  -1  -9  -8  105.79    2.70
  -1  -9  -8  103.58    3.26
  -1  -9  -8  106.49    3.14
   1  -9   8  112.82    3.24
   1  -9  -8  109.35    3.07
  -1  -9   8  111.49    3.09
   1  -9  -8  112.97    3.18
  -1  -9   8  111.96    3.18
   1  -9  -8  109.58    3.31
   1  -9  -8  101.56    2.67
  -1  -9   8  102.67    2.63
   1  -9  -8  109.70    2.91
  -1  -9   8  108.94    2.63
   3  -9   8   91.59    2.74
  -3  -9  -8   86.93    2.92
  -3  -9  -8   90.52    2.84
   3  -9   8   90.63    2.85
  -3  -9  -8   82.82    2.42
   3  -9   8   89.89    2.88
   3  -9  -8   89.60    2.78
  -3  -9   8   90.36    2.46
  -3  -9   8   89.88    2.76
   3  -9  -8   86.82    2.32
   3  -9  -8   85.60    2.63
  -3  -9   8   89.44    2.76
  -5  -9  -8   61.99    2.40
   5  -9   8   66.61    2.34
   5  -9   8   63.63    2.42
   5  -9   8   63.01    2.25
  -5  -9  -8   67.24    2.38
   5  -9  -8   61.64    2.12
  -5  -9   8   65.81    2.27
   5  -9  -8   60.39    2.28
   5   9   8   62.72    2.09
  -5  -9   8   64.33    2.28
  -5  -9   8   60.67    2.08
  -7  -9  -8   37.22    1.85
  -7  -9  -8   38.63    1.78
   7  -9   8   39.27    1.72
   7  -9   8   36.68    1.82
   7   9  -8   36.76    1.82
  -7  -9   8   39.05    1.69
  -7  -9   8   37.34    1.75
   7   9   8   38.72    1.70
   7  -9  -8   37.40    1.95
   7  -9  -8   37.04    1.54
  -9  -9  -8   22.11    1.39
   9   9  -8   19.88    1.37
   9  -9   8   21.54    1.43
  -9  -9  -8   18.05    1.34
   9   9   8   21.25    1.25
   9  -9  -8   21.45    1.26
  -9  -9   8   21.55    1.32
  -9  -9   8   21.65    1.40
   0 -10  -8   76.45    2.63
   0 -10   8   74.00    2.50
   0 -10   8   80.41    2.48
   0 -10  -8   75.43    2.08
   0 -10  -8   77.44    2.53
   0 -10  -8   78.64    2.34
   2 -10   8   71.80    2.47
  -2 -10  -8   72.02    2.44
  -2 -10  -8   69.25    2.52
   2 -10   8   74.26    2.38
   2 -10   8   71.09    2.47
  -2 -10  -8   67.02    2.02
  -2 -10   8   73.87    2.38
   2 -10  -8   67.85    2.08
   2 -10  -8   76.42    2.48
   2 -10  -8   70.30    2.27
  -2 -10   8   70.28    1.98
  -2 -10   8   73.78    2.44
   2 -10  -8   69.61    2.21
  -4 -10  -8   51.31    2.17
   4 -10   8   55.78    2.06
   4 -10   8   55.87    2.12
  -4 -10  -8   53.58    2.12
   4 -10   8   52.95    2.17
  -4 -10   8   58.17    2.11
  -4 -10   8   55.38    2.09
   4 -10  -8   51.76    1.88
   4 -10  -8   53.22    1.62
   4 -10  -8   55.38    2.12
  -4 -10   8   55.38    1.83
  -6 -10  -8   34.86    1.72
  -6 -10  -8   34.76    1.77
   6 -10   8   34.31    1.75
   6 -10   8   36.32    1.68
   6 -10  -8   34.31    1.68
  -6 -10   8   37.63    1.68
   6 -10  -8   35.33    1.49
  -6 -10   8   37.80    1.57
  -6 -10   8   36.90    1.72
   6  10   8   36.76    1.55
  -8 -10  -8   18.37    1.60
  -8 -10  -8   18.33    1.28
   8 -10   8   20.98    1.70
   8  10   8   21.64    1.24
  -8 -10   8   20.70    1.32
  -8 -10   8   22.38    1.30
   8 -10  -8   18.78    1.13
  -1 -11  -8   21.63    1.19
  -1 -11  -8   23.38    1.30
  -1 -11  -8   23.00    1.06
   1 -11   8   24.07    1.19
   1 -11   8   22.22    1.22
  -1 -11   8   25.08    0.92
   1 -11  -8   22.51    1.10
   1 -11  -8   22.39    0.94
  -1 -11   8   21.61    0.77
   1 -11  -8   23.66    1.24
   1 -11  -8   22.70    1.28
  -1 -11   8   24.91    1.21
   1 -11  -8   24.19    1.09
  -1 -11   8   24.02    1.23
  -3 -11  -8   20.91    1.21
   3 -11   8   21.04    1.15
   3 -11   8   18.73    1.21
  -3 -11  -8   21.86    1.93
   3 -11   8   19.99    1.80
   3 -11  -8   20.13    0.90
  -3 -11   8   19.46    0.89
  -3 -11   8   20.24    1.15
  -3 -11   8   20.70    1.15
   3 -11  -8   20.54    1.19
   3 -11  -8   19.35    1.01
   5 -11   8   14.61    1.02
   5 -11   8   14.67    1.02
  -5 -11  -8   14.81    1.07
   5 -11   8   13.48    1.03
  -5 -11  -8   14.62    1.09
  -5 -11   8   14.88    1.01
   5 -11  -8   13.41    0.84
   5 -11  -8   13.55    1.01
  -5 -11   8   14.09    0.85
  -5 -11   8   13.66    0.99
  -7 -11  -8    8.90    0.90
   7 -11   8    9.80    0.85
  -7 -11  -8    8.52    0.89
   7 -11   8    8.21    0.88
  -7 -11   8    9.38    0.79
   7  11   8    9.86    0.78
   7 -11  -8   10.76    0.74
  -7 -11   8   10.30    0.89
  -7 -11   8    8.98    0.86
   7 -11  -8    8.77    0.74
   0 -12  -8    0.35    0.21
   0 -12   8    0.78    0.25
   0 -12  -8    1.14    0.28
   0 -12  -8    0.74    0.42
   0 -12  -8    0.86    0.25
   0 -12   8    1.38    0.48
   2 -12   8    0.84    0.29
   2 -12   8    1.81    0.40
  -2 -12   8    0.71    0.25
  -2 -12   8    1.21    0.25
   2 -12  -8    0.56    0.20
   2 -12  -8    1.26    0.33
  -2 -12   8    0.83    0.31
   2 -12  -8    1.23    0.30
   4 -12   8    0.75    0.27
   4 -12   8    1.24    0.37
   4 -12   8    0.57    0.26
  -4 -12  -8    0.84    0.30
  -4 -12  -8    0.49    0.24
   4 -12  -8    1.16    0.36
  -4 -12   8    0.98    0.34
  -4 -12   8    0.97    0.25
  -4 -12   8    0.62    0.28
   4 -12  -8    0.58    0.21
   6 -12   8    0.38    0.28
   6 -12   8    0.68    0.30
   6 -12   8    0.68    0.31
  -6 -12  -8    0.66    0.33
  -6 -12  -8    1.30    0.45
  -6 -12   8    0.19    0.19
  -6 -12   8    0.83    0.31
  -6 -12   8    0.93    0.35
   6 -12  -8    0.54    0.20
   6 -12  -8    0.21    0.24
   1 -13   8    0.37    0.25
  -1 -13  -8    0.12    0.17
  -1 -13  -8    0.03    0.14
   1 -13   8    0.02    0.14
  -1 -13  -8    0.00    0.17
  -1 -13   8   -0.14    0.15
  -1 -13   8    0.03    0.08
   1 -13  -8    0.05    0.12
   1 -13  -8    0.23    0.17
  -1 -13   8    0.30    0.22
   1 -13  -8    0.05    0.21
   3 -13   8    0.32    0.19
   3 -13   8    0.06    0.17
  -3 -13  -8    0.27    0.21
   3 -13   8   -0.02    0.16
  -3 -13  -8    0.14    0.20
  -3 -13   8   -0.10    0.13
   3 -13  -8    0.42    0.19
   3 -13  -8    0.13    0.15
   3 -13  -8    0.00    0.20
  -3 -13   8    0.22    0.15
  -3 -13   8    0.13    0.18
  -5 -13  -8   -0.11    0.19
   5 -13   8    0.06    0.21
   5 -13   8    0.23    0.24
   5 -13   8    0.28    0.24
  -5 -13  -8    0.10    0.22
  -5 -13   8    0.17    0.21
   5 -13  -8   -0.08    0.22
  -5 -13   8    0.05    0.18
   5 -13  -8    0.26    0.24
  -5 -13   8    0.15    0.19
   5 -13  -8    0.56    0.22
   0 -14  -8   54.85    2.31
   0 -14   8   55.74    2.28
   0 -14  -8   57.38    2.07
   0 -14  -8   57.71    2.38
   0 -14   8   56.68    2.22
  -2 -14  -8   53.12    2.09
  -2 -14  -8   50.79    2.20
   2 -14   8   52.09    2.22
  -2 -14  -8   51.33    2.26
   2 -14   8   52.36    2.16
   2 -14  -8   48.74    1.86
   2 -14  -8   52.68    1.91
   2 -14  -8   54.14    2.30
  -2 -14   8   51.66    2.18
  -2 -14   8   53.96    2.17
   4 -14   8   38.98    1.99
  -4 -14  -8   41.20    2.03
  -4 -14  -8   43.12    2.04
   4 -14   8   40.75    1.93
  -4 -14   8   41.51    1.60
  -4 -14   8   43.71    1.97
   4 -14  -8   43.35    2.08
  -4 -14   8   41.64    1.97
  -1 -15  -8    7.06    0.71
  -1 -15  -8    6.95    0.77
   1 -15   8    7.37    0.74
  -1 -15  -8    7.17    0.65
  -1 -15  -8    7.76    0.82
   1 -15   8    6.27    0.73
   1 -15  -8    7.25    0.66
  -1 -15   8    5.78    0.70
   1 -15  -8   10.02    0.93
  -1 -15   8    7.70    0.75
   1 -15  -8    6.03    0.60
   3 -15   8    5.45    0.70
   3 -15   8    6.15    0.75
  -3 -15  -8    6.38    0.76
  -3 -15  -8    6.43    0.76
   3 -15   8    5.56    0.89
   3 -15  -8    5.14    0.52
   3 -15  -8    5.46    0.78
  -3 -15   8    5.25    0.79
  -3 -15   8    5.51    0.68
   0 -16  -8    0.07    0.23
   0 -16  -8   -0.11    0.20
   0 -16  -8    0.27    0.24
   0 -16   8    0.28    0.25
   0 -16   8    0.03    0.37
   2 -16   8   -0.44    0.23
  -2 -16  -8   -0.22    0.23
  -2 -16  -8    0.06    0.24
   2 -16   8   -0.17    0.20
   2 -16   8   -0.37    0.23
   2 -16  -8    0.19    0.33
  -2 -16   8   -0.06    0.25
  -2 -16   8   -0.21    0.21
   2 -16  -8   -0.02    0.19
   2 -16  -8   -0.12    0.25
  -1   0  -9   65.78    1.82
   1   0   9   69.62    1.78
   1   0  -9   66.34    1.82
  -1   0  -9   64.84    1.90
  -1   0  -9   67.36    1.76
   1   0  -9   69.16    1.88
   1   0   9   64.18    1.75
  -1   0   9   65.55    1.82
  -1   0  -9   65.96    1.73
  -1   0   9   66.06    1.82
   1   0   9   66.23    1.91
  -1   0   9   68.81    1.62
  -1   0   9   63.21    1.73
  -3   0   9   54.52    1.43
   3   0   9   51.54    1.48
  -3   0   9   51.33    1.46
  -3   0  -9   52.11    1.55
  -3   0   9   51.44    1.48
  -3   0  -9   50.30    1.60
   3   0  -9   54.27    1.73
   3   0   9   52.36    1.62
   3   0  -9   54.52    1.52
  -3   0  -9   53.72    1.40
   3   0   9   50.13    2.21
   5   0  -9   34.37    1.25
  -5   0   9   34.63    0.92
  -5   0  -9   32.57    1.22
   5   0   9   33.23    1.30
  -5   0  -9   33.15    1.18
   5   0  -9   33.92    1.35
   5   0   9   34.02    1.34
   7   0   9   19.13    0.97
   7   0   9   17.10    1.00
   7   0  -9   19.05    1.04
   7   0  -9   17.76    0.96
  -7   0   9   16.59    0.67
   7   0   9   18.69    1.02
  -7   0  -9   18.71    0.97
   9   0  -9    9.03    0.76
   9   0   9    9.26    0.80
   9   0   9    9.07    0.71
  -9   0  -9    8.71    0.79
   0   1   9   10.82    0.41
   0  -1   9   12.23    0.60
   0  -1  -9   11.16    0.55
   0   1  -9   10.74    0.48
   0  -1   9   10.63    0.46
   0   1   9   11.24    0.55
   0   1   9   10.98    0.31
   0  -1   9   10.58    0.47
   0  -1   9    9.88    0.45
   0   1  -9   10.28    0.55
   0   1   9   10.99    0.56
   0  -1  -9   11.00    0.42
   0   1  -9   10.23    0.50
   2  -1   9    9.29    0.56
   2  -1   9    8.66    0.50
   2   1  -9    9.86    0.49
  -2  -1  -9   10.17    0.51
   2   1  -9    9.14    0.52
  -2   1   9    9.51    0.40
   2  -1   9    9.27    0.39
  -2  -1  -9    9.84    0.35
  -2   1   9    9.07    0.55
  -2  -1   9    9.93    0.44
   2   1   9    9.67    0.56
  -2  -1   9    9.52    0.52
   2  -1  -9    9.12    0.53
   2  -1  -9    9.31    0.40
   2   1   9    9.30    0.49
  -2  -1   9   10.03    0.51
  -2   1  -9   10.23    0.41
  -2  -1   9    9.56    0.48
   2   1   9   11.16    0.53
  -2  -1   9    9.83    0.46
  -2   1  -9    9.47    0.34
  -4  -1  -9    7.02    0.47
   4   1  -9    6.89    0.50
   4  -1   9    6.82    0.51
   4  -1   9    6.82    0.50
   4   1  -9    6.14    0.44
  -4  -1  -9    7.06    0.41
  -4   1   9    6.50    0.65
  -4   1   9    6.43    0.30
   4  -1  -9    6.72    0.51
  -4  -1   9    7.36    0.47
   4  -1  -9    6.92    0.43
  -4   1  -9    6.90    0.40
   4   1   9    7.43    0.53
   4   1   9    6.35    0.44
   4   1   9    6.50    0.44
  -4  -1   9    7.48    0.37
  -4  -1   9    7.16    0.53
   4   1   9    7.50    0.51
  -4  -1   9    7.08    0.32
  -4  -1   9    6.94    0.33
   6  -1   9    4.58    0.47
   6   1  -9    4.36    0.45
   6  -1   9    4.51    0.44
   6   1  -9    4.23    0.43
  -6  -1  -9    5.22    0.47
   6  -1  -9    4.51    0.47
  -6   1  -9    4.40    0.40
   6   1   9    4.29    0.43
   6  -1  -9    4.18    0.41
   6   1   9    3.39    0.42
  -6  -1   9    4.03    0.29
   6   1   9    3.35    0.39
   8  -1   9    2.38    0.43
   8  -1   9    1.59    0.33
   8  -1   9    2.46    0.46
   8   1  -9    2.79    0.47
  -8  -1  -9    3.00    0.42
   8   1   9    2.21    0.38
  -8   1  -9    2.10    0.38
   8  -1  -9    2.21    0.43
   8   1   9    2.92    0.52
   8  -1  -9    2.26    0.41
 -10  -1  -9    0.67    0.33
  10  -1   9    0.97    0.36
  10  -1   9    0.83    0.26
  10   1  -9    1.36    0.40
 -10  -1   9    0.91    0.38
  10  -1  -9    1.54    0.40
  10   1   9    0.90    0.33
 -10   1  -9    1.21    0.33
  10   1   9    0.69    0.27
  -1  -2  -9  478.17   18.23
  -1   2   9  503.82   17.34
   1   2  -9  507.11   14.71
   1  -2   9  486.60   16.94
  -1  -2   9  475.10   14.09
  -1   2  -9  499.99   17.42
   1   2   9  493.20   18.38
  -3  -2  -9  387.33    8.88
   3   2   9  401.69    8.93
  -3  -2   9  389.43    9.09
   5  -2   9  268.53    6.45
  -5  -2  -9  267.58    6.45
   5  -2   9  269.76    6.53
   5   2  -9  269.71    6.48
   5   2  -9  267.57    6.42
   5  -2  -9  270.76    6.52
  -5   2  -9  273.92    6.17
   5  -2  -9  264.69    6.25
  -5  -2   9  267.78    5.88
  -5  -2   9  258.14    6.02
   5   2   9  265.15    6.31
  -5   2  -9  261.42    6.24
   7   2  -9  153.00    4.24
   7  -2   9  154.85    4.35
  -7  -2  -9  154.55    4.29
   7  -2   9  159.69    4.18
   7   2   9  160.66    4.23
  -7   2  -9  156.53    4.06
   7   2   9  157.00    4.16
  -7  -2   9  149.70    3.87
   7  -2  -9  152.99    4.28
   7  -2  -9  157.07    4.16
   9   2  -9   83.27    2.83
   9  -2   9   80.73    2.86
   9  -2   9   76.83    2.64
   9  -2   9   79.84    2.84
  -9  -2  -9   79.98    2.80
  -9  -2   9   81.49    2.90
   9  -2  -9   82.51    2.74
   9   2   9   76.14    2.60
   9   2   9   78.14    2.74
   0  -3   9    2.17    0.14
   0  -3   9    1.93    0.13
   0  -3  -9    2.36    0.26
   0  -3   9    2.38    0.27
   0   3  -9    2.17    0.24
   0  -3  -9    2.01    0.16
   0  -3  -9    1.90    0.24
   0  -3   9    1.99    0.23
   0  -3  -9    2.33    0.17
   0  -3  -9    2.38    0.26
   0  -3   9    1.87    0.21
   0   3   9    2.65    0.29
   0   3   9    2.31    0.25
   0   3  -9    2.39    0.22
  -2   3   9    2.19    0.21
   2  -3   9    1.97    0.25
   2   3  -9    2.17    0.24
  -2  -3  -9    1.99    0.22
  -2  -3  -9    2.39    0.22
  -2   3   9    2.28    0.23
  -2  -3   9    2.12    0.23
   2  -3  -9    1.92    0.12
  -2  -3   9    2.01    0.21
   2   3   9    2.23    0.27
  -2   3  -9    1.91    0.25
  -2   3  -9    2.53    0.20
  -2  -3   9    2.18    0.20
  -2   3  -9    2.30    0.19
   2  -3  -9    2.04    0.22
  -2  -3   9    2.91    0.29
  -2  -3   9    2.20    0.25
   2   3   9    1.83    0.30
   2  -3  -9    2.08    0.27
   2   3   9    2.00    0.15
   4   3  -9    1.67    0.30
   4  -3   9    1.22    0.26
   4   3  -9    1.53    0.28
  -4  -3  -9    1.46    0.44
  -4   3   9    1.61    0.26
   4  -3   9    1.53    0.30
   4   3   9    1.95    0.23
  -4   3  -9    1.72    0.16
   4   3   9    1.54    0.27
  -4  -3   9    1.35    0.21
   4  -3  -9    1.27    0.27
   4  -3  -9    1.41    0.26
  -4   3  -9    1.98    0.23
   4  -3  -9    1.32    0.14
  -6  -3  -9    0.77    0.25
   6  -3   9    0.90    0.25
   6   3  -9    1.03    0.28
   6  -3   9    0.63    0.25
   6   3  -9    0.87    0.24
  -6  -3   9    1.00    0.20
  -6  -3   9    0.78    0.13
  -6  -3   9    0.82    0.09
   6   3   9    0.89    0.25
   6  -3  -9    0.65    0.21
  -6   3  -9    0.61    0.17
   6   3   9    0.73    0.22
   6  -3  -9    0.71    0.23
  -8  -3  -9   -0.22    0.13
   8  -3   9    0.57    0.26
   8  -3   9    0.19    0.16
  -8  -3   9    0.12    0.18
   8   3   9    0.50    0.22
   8  -3  -9    0.16    0.19
   8  -3  -9    0.34    0.20
  -8   3  -9    0.28    0.19
   8   3   9    0.27    0.16
  10  -3   9    0.06    0.25
 -10  -3  -9    0.01    0.23
  10   3  -9    0.25    0.22
  10  -3   9    0.07    0.25
  10  -3   9   -0.08    0.28
  10   3   9    0.15    0.19
  10   3   9    0.26    0.21
 -10   3  -9   -0.24    0.22
  10  -3  -9    0.11    0.26
   1  -4   9    5.62    0.42
   1   4  -9    5.32    0.35
  -1   4   9    5.68    0.39
   1  -4   9    5.27    0.29
  -1  -4  -9    5.88    0.35
   1  -4   9    5.04    0.43
  -1  -4  -9    5.73    0.34
  -1   4   9    5.66    0.36
  -1  -4  -9    5.78    0.45
   1  -4  -9    5.21    0.21
  -1   4  -9    4.91    0.40
   1  -4  -9    4.74    0.31
  -1   4  -9    5.36    0.30
  -1  -4   9    6.24    0.45
  -1  -4   9    5.30    0.35
   1   4   9    4.46    0.41
  -1  -4   9    5.40    0.42
   1  -4  -9    5.19    0.37
  -1  -4   9    5.31    0.27
   1   4   9    5.03    0.40
  -1  -4   9    5.02    0.37
  -1  -4   9    5.53    0.33
   1  -4  -9    5.60    0.45
  -1   4  -9    5.52    0.30
  -3  -4  -9    3.38    0.45
   3  -4   9    4.16    0.41
   3   4  -9    4.47    0.41
   3   4  -9    4.49    0.45
  -3  -4  -9    3.91    0.33
   3  -4   9    4.86    0.43
  -3   4   9    4.01    0.29
   3  -4  -9    3.92    0.29
  -3  -4   9    5.18    0.38
   3  -4  -9    4.36    0.40
  -3   4  -9    4.45    0.24
   3  -4  -9    4.41    0.26
  -3  -4   9    4.56    0.34
  -3  -4   9    4.23    0.34
  -3   4  -9    4.21    0.32
   3   4   9    4.38    0.29
   3   4   9    4.43    0.41
   5  -4   9    2.97    0.38
   5   4  -9    2.67    0.36
   5  -4   9    3.02    0.37
  -5  -4  -9    3.25    0.41
   5   4  -9    2.77    0.42
   5   4   9    3.03    0.37
  -5   4  -9    3.08    0.24
   5  -4  -9    3.13    0.38
  -5  -4   9    2.67    0.33
   5   4   9    2.55    0.31
  -5  -4   9    2.78    0.26
   5  -4  -9    2.98    0.31
  -7  -4  -9    1.25    0.34
   7  -4   9    1.73    0.38
   7   4  -9    1.48    0.35
   7  -4   9    1.58    0.33
  -7   4  -9    1.28    0.24
   7   4   9    2.04    0.37
   7  -4  -9    1.71    0.34
  -7  -4   9    1.38    0.35
   7   4   9    1.54    0.33
  -7   4  -9    1.50    0.26
   7  -4  -9    1.45    0.35
   9  -4   9    0.55    0.29
   9   4  -9    1.05    0.36
   9  -4   9    1.06    0.35
  -9  -4  -9    0.41    0.32
   9  -4   9    0.76    0.25
   9   4   9    1.20    0.32
   9   4   9    0.97    0.28
   9  -4  -9    1.12    0.32
  -9  -4   9    1.24    0.35
   0   5  -9    0.61    0.12
   0  -5  -9    0.67    0.13
   0  -5   9    0.71    0.22
   0   5   9    1.00    0.21
   0  -5   9    1.56    0.27
   0  -5  -9    1.18    0.26
   0  -5  -9    0.92    0.20
   0   5   9    0.70    0.15
   0  -5   9    0.67    0.13
   2  -5   9    0.46    0.17
   2  -5   9    0.73    0.20
  -2  -5  -9    0.45    0.14
  -2  -5  -9    0.50    0.14
  -2  -5  -9    0.52    0.18
  -2   5   9    0.95    0.18
  -2   5   9    0.88    0.19
   2  -5  -9    0.66    0.16
  -2   5  -9    0.61    0.09
  -2   5  -9    0.61    0.15
  -2  -5   9    0.72    0.16
  -2  -5   9    0.64    0.13
  -2  -5   9    0.38    0.14
   2   5   9    0.60    0.10
   2  -5  -9    0.80    0.17
   2  -5  -9    0.64    0.19
   2   5   9    0.71    0.20
   2  -5  -9    0.70    0.06
  -2  -5   9    0.40    0.14
  -2  -5   9    0.64    0.14
  -4  -5  -9    0.69    0.23
   4   5  -9    0.42    0.18
   4  -5   9    0.58    0.20
   4  -5   9    0.52    0.19
  -4  -5  -9    0.68    0.20
  -4  -5   9    0.49    0.14
  -4   5  -9    0.43    0.15
  -4  -5   9    0.58    0.19
   4   5   9    0.62    0.15
  -4  -5   9    0.55    0.17
  -4  -5   9    0.59    0.18
   4  -5  -9    0.63    0.15
   4  -5  -9    0.54    0.12
   4   5   9    0.41    0.16
   4  -5  -9    0.79    0.23
   6  -5   9    0.64    0.22
  -6  -5  -9    0.78    0.26
  -6  -5  -9    0.33    0.15
   6   5  -9    1.51    0.34
   6  -5   9    0.17    0.15
  -6  -5   9    0.35    0.12
   6   5   9    0.55    0.19
  -6  -5   9    0.43    0.21
   6   5   9    0.09    0.15
  -6  -5   9    0.17    0.10
   6  -5  -9    0.37    0.16
   6  -5  -9    0.49    0.17
   8  -5   9    0.59    0.24
   8  -5   9    0.34    0.22
   8   5  -9    0.31    0.22
  -8  -5  -9   -0.09    0.17
   8  -5  -9    0.73    0.23
   8   5   9    0.85    0.28
   8   5   9    0.10    0.16
   8  -5  -9    0.08    0.17
  -8  -5   9    0.27    0.21
  10   5  -9    0.87    0.34
  10  -5   9   -0.06    0.20
  10  -5   9   -0.11    0.28
  10  -5   9    0.48    0.29
 -10  -5  -9    0.49    0.32
  10   5   9    0.31    0.24
 -10  -5   9    0.23    0.28
  10   5   9    0.41    0.29
  10  -5  -9    0.47    0.24
   1  -6   9   71.31    2.27
  -1   6   9   74.66    2.11
  -1  -6  -9   70.95    2.08
  -1   6   9   70.56    2.11
   1   6  -9   72.12    1.93
   1  -6   9   72.22    2.01
  -1  -6  -9   71.76    2.02
  -1  -6  -9   77.87    2.35
   1  -6   9   74.50    2.24
   1  -6  -9   71.20    1.87
  -1   6  -9   69.68    2.01
   1  -6  -9   70.51    2.06
  -1  -6   9   75.36    2.19
  -1   6  -9   71.64    1.75
  -1  -6   9   73.88    1.76
  -1  -6   9   74.72    1.94
   1  -6  -9   73.95    2.21
   1   6   9   73.51    2.18
  -1  -6   9   74.73    2.25
   1  -6  -9   72.46    2.31
   1  -6  -9   72.37    1.81
  -1  -6   9   74.45    2.05
   3  -6   9   59.59    1.81
  -3  -6  -9   58.36    1.91
   3  -6   9   59.29    2.03
   3  -6   9   61.56    2.07
  -3  -6  -9   62.24    2.11
  -3  -6   9   59.64    1.86
   3  -6  -9   60.02    1.56
  -3  -6   9   59.23    1.74
   3   6   9   62.68    1.99
   3  -6  -9   62.16    1.99
   3  -6  -9   56.77    1.72
  -3  -6   9   61.81    2.57
   3  -6  -9   59.02    1.86
  -3   6  -9   57.04    1.82
  -5  -6  -9   42.01    1.72
   5   6  -9   40.18    1.67
   5  -6   9   39.05    1.66
  -5  -6  -9   41.52    1.58
   5  -6   9   42.45    1.66
  -5  -6   9   40.91    1.40
   5   6   9   39.81    1.41
   5  -6  -9   37.42    1.14
   5   6   9   45.10    1.64
  -5   6  -9   40.02    0.96
  -5  -6   9   39.29    1.49
   5  -6  -9   42.46    1.61
   5  -6  -9   39.72    1.36
  -5  -6   9   38.72    1.52
  -5   6  -9   42.70    1.03
   7  -6   9   25.87    1.38
  -7  -6  -9   23.43    1.24
   7   6  -9   24.70    1.58
   7  -6   9   22.70    1.19
   7   6   9   23.56    1.15
  -7  -6   9   23.54    1.24
   7  -6  -9   24.99    1.26
   7  -6  -9   24.48    1.13
  -7  -6   9   23.27    0.84
   7   6   9   23.88    1.19
   9  -6   9   10.93    0.83
   9  -6   9   11.81    0.99
  -9  -6  -9   12.94    1.00
   9   6  -9   12.04    1.00
  -9  -6  -9   12.01    1.02
   9  -6  -9   12.09    0.92
   9   6   9   12.25    0.87
  -9  -6   9   11.82    0.97
   9   6   9   12.94    0.93
   9  -6  -9   13.64    0.93
   0  -7  -9   10.04    0.64
   0  -7   9   10.75    0.60
   0   7   9    9.43    0.60
   0  -7  -9   10.65    0.62
   0   7   9   10.12    0.62
   0  -7   9   10.19    0.66
   0  -7  -9   10.83    0.73
   0  -7   9    9.66    0.67
   0  -7  -9   11.13    0.52
  -2  -7  -9    9.32    0.70
  -2  -7  -9    8.57    0.60
   2  -7   9    9.15    0.68
   2  -7   9    9.54    0.67
   2  -7   9    8.83    0.56
   2  -7  -9    9.08    0.59
   2   7   9    8.44    0.60
   2  -7  -9    9.45    0.41
   2  -7  -9    9.61    0.64
  -2  -7   9    9.86    0.61
  -2   7  -9    8.28    0.56
  -2  -7   9    9.94    0.54
  -2  -7   9    9.85    0.64
   4  -7   9    9.19    0.71
  -4  -7  -9    8.77    0.72
   4  -7   9    6.95    0.61
  -4  -7  -9    6.91    0.58
   4  -7   9    6.72    0.53
   4  -7  -9    6.85    0.56
   4  -7  -9    6.57    0.55
  -4  -7   9    6.95    0.56
   4   7   9    7.71    0.49
  -4  -7   9    6.55    0.54
  -4  -7   9    6.84    0.50
   4  -7  -9    8.63    0.47
   4   7   9    6.64    0.56
   4  -7  -9    6.70    0.22
   4  -7  -9    7.55    0.47
  -6  -7  -9    4.55    0.52
   6   7  -9    4.17    0.54
  -6  -7  -9    4.19    0.54
   6  -7   9    4.27    0.51
   6   7   9    4.35    0.44
   6  -7  -9    4.77    0.44
  -6  -7   9    4.65    0.51
   6   7   9    3.74    0.46
  -6  -7   9    4.41    0.40
   6  -7  -9    4.12    0.49
  -6  -7   9    4.10    0.47
   8   7  -9    2.37    0.52
  -8  -7  -9    2.11    0.43
   8  -7   9    2.57    0.55
  -8  -7  -9    2.25    0.49
   8  -7   9    2.58    0.45
   8   7   9    2.49    0.43
   8  -7  -9    2.38    0.45
   8   7   9    2.88    0.50
  -8  -7   9    1.52    0.39
  -8  -7   9    2.29    0.47
   8  -7  -9    2.20    0.44
   1  -8   9  109.64    3.12
  -1  -8  -9  102.53    3.17
   1  -8   9  109.03    2.93
  -1  -8  -9  104.80    2.50
   1  -8   9  104.30    3.13
  -1  -8  -9  106.96    3.00
   1  -8  -9  106.53    3.02
   1  -8  -9   97.59    2.65
   1  -8  -9  104.25    2.73
   1   8   9  108.15    3.02
   1  -8  -9  107.36    3.22
   1  -8  -9  107.13    2.99
  -1  -8   9  101.47    2.61
  -1  -8   9  101.78    2.46
  -1  -8   9  110.55    3.07
  -1  -8   9  107.83    2.93
   3  -8   9   89.13    2.81
   3  -8   9   88.16    2.82
  -3  -8  -9   86.37    2.86
   3  -8   9   89.83    2.61
  -3  -8  -9   89.61    2.73
   3   8   9   83.71    2.64
  -3  -8   9   87.18    2.38
  -3  -8   9   88.66    2.67
   3  -8  -9   84.66    2.14
  -3  -8   9   87.52    2.64
   3  -8  -9   88.88    2.67
   3  -8  -9   86.75    2.65
   5  -8   9   59.46    2.27
   5  -8   9   59.46    2.21
  -5  -8  -9   59.70    2.18
   5   8  -9   60.13    2.30
  -5  -8  -9   60.52    2.32
   5  -8  -9   58.08    2.08
  -5  -8   9   62.56    2.15
   5  -8  -9   58.25    1.74
  -5  -8   9   59.34    2.00
   5  -8  -9   60.89    2.16
   5   8   9   60.26    2.14
  -5  -8   9   64.52    2.15
   5   8   9   61.32    1.96
  -7  -8  -9   36.95    1.81
   7  -8   9   39.09    1.84
   7   8  -9   37.73    1.80
  -7  -8  -9   36.13    1.68
   7  -8   9   39.00    1.69
   7   8   9   34.46    1.51
  -7  -8   9   37.11    1.63
   7  -8  -9   38.02    1.61
   7   8   9   36.59    1.61
   7  -8  -9   35.52    1.47
  -7  -8   9   35.51    1.32
  -7  -8   9   37.87    1.71
   9  -8   9   19.06    1.33
  -9  -8  -9   18.34    1.33
   9  -8   9   18.48    1.14
   9   8  -9   20.20    1.38
   9   8   9   18.65    1.16
   0  -9  -9    2.09    0.42
   0  -9  -9    2.39    0.39
   0  -9  -9    1.89    0.19
   0  -9  -9    3.13    0.39
   0  -9   9    2.52    0.42
   0  -9   9    2.58    0.34
   2  -9   9    2.78    0.35
  -2  -9  -9    2.41    0.46
   2  -9   9    1.47    0.33
  -2  -9  -9    1.89    0.37
   2  -9   9    2.86    0.48
   2  -9  -9    1.76    0.21
   2  -9  -9    2.16    0.38
   2  -9  -9    1.85    0.36
   2  -9  -9    2.20    0.23
  -2  -9   9    2.26    0.40
  -2  -9   9    2.76    0.24
   2   9   9    2.23    0.39
   4  -9   9    2.80    0.49
  -4  -9  -9    3.09    0.54
  -4  -9  -9    1.83    0.38
   4  -9   9    1.76    0.36
   4  -9   9    1.34    0.35
   4  -9  -9    1.35    0.33
  -4  -9   9    1.59    0.34
   4  -9  -9    1.83    0.38
  -4  -9   9    1.77    0.30
  -4  -9   9    1.15    0.30
   4   9   9    1.83    0.37
   6  -9   9    0.64    0.27
   6  -9   9    1.00    0.33
   6   9  -9    1.26    0.37
  -6  -9  -9    0.86    0.36
  -6  -9  -9    0.74    0.32
  -6  -9   9    0.87    0.26
   6  -9  -9    1.00    0.27
   6  -9  -9    0.93    0.28
  -6  -9   9    1.39    0.33
   6   9   9    0.93    0.24
  -8  -9  -9    0.54    0.32
   8   9  -9    0.86    0.41
   8  -9   9    1.51    0.37
   8  -9   9    0.72    0.39
  -8  -9  -9    0.67    0.32
   8  -9  -9    1.38    0.33
  -8  -9   9    0.79    0.29
  -8  -9   9    0.37    0.24
   8  -9  -9    0.82    0.35
   8   9   9    0.30    0.22
   1 -10   9    7.46    0.67
   1 -10   9    8.59    0.71
   1 -10   9    7.61    0.60
  -1 -10  -9    7.69    0.71
  -1 -10  -9    7.55    0.64
  -1 -10  -9    7.59    0.44
   1 -10  -9    7.63    0.64
   1 -10  -9    8.81    0.57
   1 -10  -9    7.03    0.40
  -1 -10   9    7.63    0.65
   1 -10  -9    7.62    0.61
  -1 -10   9    7.34    0.39
  -1 -10   9    7.83    0.61
   1 -10  -9    7.53    0.70
  -1 -10   9    6.93    0.33
   3 -10   9    6.04    0.63
   3 -10   9    6.68    0.59
  -3 -10  -9    6.50    0.67
  -3 -10  -9    6.79    0.64
   3 -10   9    7.21    0.67
   3 -10  -9    7.01    0.62
  -3 -10   9    5.18    0.62
  -3 -10   9    6.97    0.64
   3 -10  -9    5.82    0.51
  -3 -10   9    6.92    0.61
   3 -10  -9    5.99    0.56
   3 -10  -9    6.50    0.42
   5 -10   9    4.69    0.61
  -5 -10  -9    4.54    0.58
   5 -10   9    4.92    0.56
   5 -10   9    3.96    0.53
  -5 -10  -9    3.98    0.66
  -5 -10   9    5.29    0.50
   5 -10  -9    3.66    0.46
  -5 -10   9    4.02    0.53
   7 -10   9    2.66    0.57
  -7 -10  -9    2.24    0.53
  -7 -10  -9    2.66    0.54
   7 -10   9    1.37    0.36
  -7 -10   9    2.87    0.50
   7 -10  -9    2.45    0.42
  -7 -10   9    2.14    0.45
  -7 -10   9    2.51    0.53
  -7 -10   9    2.03    0.36
   7  10   9    2.67    0.39
   0 -11   9    2.30    0.41
   0 -11  -9    3.04    0.37
   0 -11  -9    2.34    0.47
   0 -11  -9    2.35    0.39
   0 -11  -9    3.28    0.43
   0 -11   9    2.38    0.44
   2 -11   9    2.83    0.40
  -2 -11  -9    2.46    0.45
   2 -11  -9    2.57    0.48
   2 -11  -9    2.77    0.43
  -2 -11   9    1.79    0.39
  -2 -11   9    2.99    0.41
   2 -11  -9    2.20    0.29
   4 -11   9    1.94    0.44
   4 -11   9    1.13    0.33
  -4 -11  -9    0.61    0.29
  -4 -11  -9    1.27    0.36
   4 -11   9    1.78    0.39
   4 -11  -9    1.44    0.33
  -4 -11   9    2.10    0.42
  -4 -11   9    1.50    0.37
  -4 -11   9    1.72    0.30
   4 -11  -9    2.27    0.70
  -6 -11  -9    1.19    0.40
   6 -11   9    0.92    0.36
   6 -11   9    0.85    0.30
  -6 -11  -9    0.50    0.29
  -6 -11   9    1.33    0.35
   6 -11  -9    0.77    0.27
  -6 -11   9    0.68    0.26
  -6 -11   9    1.35    0.34
  -1 -12  -9  153.07    4.38
   1 -12   9  153.90    4.40
   1 -12   9  145.58    4.20
  -1 -12  -9  147.97    4.49
   1 -12  -9  148.82    4.35
  -1 -12   9  148.42    4.33
  -1 -12   9  148.60    4.22
   1 -12  -9  150.10    4.14
   1 -12  -9  152.38    4.02
   3 -12   9  131.73    4.05
   3 -12   9  128.78    3.87
  -3 -12  -9  128.09    4.00
  -3 -12  -9  128.23    4.09
   3 -12   9  131.95    4.01
  -3 -12   9  123.06    3.34
   3 -12  -9  129.10    3.69
   3 -12  -9  129.48    3.97
  -3 -12   9  132.99    3.94
  -5 -12  -9   93.25    3.39
   5 -12   9   94.49    3.36
   5 -12   9   92.43    3.16
  -5 -12  -9   96.04    3.31
   5 -12   9   96.90    3.28
   5 -12  -9   97.05    2.95
  -5 -12   9   91.83    2.83
  -5 -12   9   96.18    3.25
   5 -12  -9   94.77    3.29
  -5 -12   9   96.51    3.23
  -7 -12  -9   58.19    2.52
   7 -12   9   51.24    2.59
  -7 -12  -9   58.42    2.59
   7 -12   9   60.24    2.60
   7 -12  -9   53.71    2.02
  -7 -12   9   57.12    2.45
  -7 -12   9   61.17    2.24
   0 -13   9    0.72    0.26
   0 -13  -9    0.42    0.26
   0 -13  -9    0.77    0.29
   0 -13  -9    0.65    0.20
   0 -13   9    1.60    0.40
   0 -13  -9    0.92    0.27
   2 -13   9    0.33    0.25
   2 -13   9    0.88    0.29
  -2 -13  -9    0.21    0.21
   2 -13   9    0.51    0.27
  -2 -13  -9    0.70    0.28
  -2 -13   9    0.81    0.16
   2 -13  -9    0.53    0.26
   2 -13  -9    0.43    0.20
  -2 -13   9    0.64    0.24
  -2 -13   9    0.56    0.26
   2 -13  -9    0.33    0.22
  -4 -13  -9    0.71    0.32
   4 -13   9    0.65    0.30
  -4 -13  -9    0.55    0.31
   4 -13   9    0.52    0.28
   4 -13   9    0.73    0.33
  -4 -13   9    0.81    0.30
   4 -13  -9    0.57    0.30
  -4 -13   9    0.77    0.33
   4 -13  -9    0.82    0.23
  -4 -13   9    0.39    0.19
  -6 -13  -9    0.68    0.43
   6 -13   9    0.00    0.28
  -6 -13  -9    0.91    0.49
   6 -13   9    0.22    0.27
  -6 -13   9    0.27    0.29
   6 -13  -9    0.51    0.30
  -6 -13   9    0.71    0.26
   6 -13  -9    0.57    0.22
  -6 -13   9    0.06    0.22
  -1 -14  -9   24.07    1.44
  -1 -14  -9   22.35    1.35
  -1 -14  -9   20.64    1.18
   1 -14   9   22.11    1.26
   1 -14   9   23.01    1.36
  -1 -14  -9   21.25    1.18
  -1 -14   9   22.95    1.30
   1 -14  -9   21.55    1.17
  -1 -14   9   23.78    1.37
   1 -14  -9   24.16    1.41
  -3 -14  -9   19.70    1.30
   3 -14   9   20.22    1.23
  -3 -14  -9   19.02    1.33
   3 -14   9   20.25    1.31
   3 -14   9   18.87    1.29
   3 -14  -9   19.44    1.29
  -3 -14   9   20.16    1.23
  -3 -14   9   21.13    1.30
   3 -14  -9   18.47    1.03
   5 -14   9   14.04    1.11
  -5 -14  -9   13.36    1.13
  -5 -14  -9   15.52    1.20
   5 -14   9   16.33    1.25
   5 -14  -9   14.03    0.86
   5 -14  -9   13.56    1.14
  -5 -14   9   15.47    1.15
  -5 -14   9   13.93    1.11
   0 -15  -9    0.63    0.31
   0 -15   9    0.55    0.28
   0 -15   9    0.34    0.40
   0 -15  -9    0.79    0.35
   0 -15  -9    0.66    0.29
   0 -15  -9    0.40    0.25
   2 -15   9    0.58    0.30
   2 -15   9    0.65    0.28
  -2 -15  -9    0.60    0.32
  -2 -15  -9    0.33    0.28
  -2 -15  -9    0.47    0.29
   2 -15   9    0.83    0.31
   2 -15  -9    0.89    0.38
   2 -15  -9    0.50    0.25
  -2 -15   9    0.17    0.24
  -2 -15   9    0.52    0.26
   2 -15  -9    0.05    0.26
   0   0  10  222.60    5.12
   0   0 -10  215.19    5.22
   0   0 -10  219.49    4.98
   0   0  10  224.28    4.95
   2   0 -10  200.02    4.82
  -2   0 -10  204.88    4.29
  -2   0  10  201.03    4.53
  -2   0 -10  187.99    4.68
   2   0  10  195.77    4.61
  -2   0  10  193.65    4.80
  -2   0  10  196.24    4.25
  -2   0 -10  207.50    4.62
  -2   0 -10  196.13    4.29
  -2   0  10  196.93    4.43
   2   0  10  206.27    4.74
   4   0 -10  147.97    3.67
  -4   0  10  148.90    3.70
   4   0  10  144.78    3.87
   4   0  10  149.60    3.85
  -4   0  10  149.84    3.42
  -4   0 -10  146.04    3.64
  -4   0 -10  147.85    3.53
   4   0 -10  144.04    3.85
   6   0 -10   95.10    2.86
   6   0  10   90.30    2.80
   6   0  10   90.11    2.73
   6   0 -10   91.79    2.67
  -6   0 -10   91.83    2.64
   6   0  10   89.97    2.71
  -6   0  10   91.53    2.13
  -8   0 -10   51.64    1.91
   8   0  10   49.25    1.86
   8   0  10   50.84    2.08
   8   0 -10   51.26    1.96
 -10   0 -10   25.77    1.39
  10   0 -10   26.26    1.43
  10   0  10   24.59    1.42
  10   0  10   22.01    1.20
 -10   0  10   28.80    1.60
  -1  -1 -10   11.10    0.54
  -1   1  10   12.23    0.62
  -1  -1 -10   11.54    0.59
  -1  -1 -10   11.71    0.52
   1  -1  10   12.73    0.67
   1  -1  10   11.61    0.55
   1  -1  10   11.13    0.47
   1   1 -10   12.62    0.60
  -1   1  10   11.48    0.57
   1  -1 -10   11.29    0.57
   1   1  10   11.77    0.41
  -1  -1  10   11.96    0.46
  -1  -1  10   12.09    0.55
  -1   1 -10   11.93    0.56
   1   1  10   11.68    0.63
  -1  -1  10   10.28    0.56
   1   1  10   11.06    0.59
   1  -1 -10   12.49    0.63
  -1   1 -10   11.28    0.54
  -1  -1  10   12.43    0.51
   1   1  10   11.30    0.57
  -3   1  10    9.30    0.45
   3   1 -10    8.84    0.56
  -3  -1 -10    8.59    0.39
   3  -1  10    8.93    0.56
  -3  -1 -10    8.96    0.52
   3  -1  10    9.25    0.60
   3   1 -10   10.11    0.54
  -3  -1  10    9.01    0.46
   3   1  10    9.28    0.60
  -3   1 -10    8.61    0.38
   3   1  10    8.69    0.50
   3   1  10    9.30    0.55
   3  -1 -10    9.23    0.45
  -3  -1  10    8.64    0.48
  -3   1 -10    9.38    0.44
  -3  -1  10    8.81    0.44
   3  -1 -10    9.37    0.59
   5  -1  10    5.50    0.50
  -5  -1 -10    6.19    0.48
   5  -1  10    6.46    0.54
   5   1 -10    6.26    0.53
   5   1 -10    6.74    0.50
  -5  -1 -10    5.67    0.42
   5   1  10    6.13    0.52
   5   1  10    4.83    0.62
  -5   1 -10    5.07    0.40
  -5   1 -10    7.21    0.46
  -5  -1  10    5.74    0.26
  -5  -1  10    5.63    0.29
   5  -1 -10    5.81    0.51
  -5  -1  10    5.76    0.29
   5   1  10    5.65    0.50
   5  -1 -10    5.79    0.44
   7  -1  10    3.53    0.45
   7   1 -10    3.23    0.42
   7  -1  10    3.59    0.42
   7   1 -10    2.84    0.48
   7  -1  10    3.57    0.46
  -7  -1 -10    3.14    0.42
   7   1  10    3.44    0.42
   7   1  10    3.80    0.45
   7  -1 -10    3.92    0.48
  -7  -1  10    3.45    0.30
   7  -1 -10    3.06    0.40
  -7   1 -10    3.72    0.41
   9  -1  10    1.81    0.35
   9  -1  10    2.56    0.49
   9   1 -10    2.00    0.41
  -9  -1 -10    1.85    0.41
   9  -1 -10    1.83    0.42
  -9   1 -10    1.36    0.35
   9   1  10    1.74    0.37
   9   1  10    1.76    0.40
   0   2 -10   16.50    0.70
   0   2  10   17.16    0.76
   0  -2 -10   16.98    0.77
   0  -2  10   17.62    0.80
   0  -2  10   18.10    0.60
   0   2 -10   17.17    0.69
   0  -2  10   16.68    0.70
   0  -2 -10   16.28    0.75
   0  -2 -10   17.22    0.57
  -2  -2 -10   14.02    0.69
  -2   2  10   14.65    0.57
   2   2 -10   14.86    0.70
   2  -2  10   15.61    0.73
  -2  -2 -10   15.30    0.98
   2  -2  10   15.11    0.78
  -2   2  10   15.73    0.66
  -2  -2 -10   14.75    0.53
  -2   2 -10   15.30    0.71
  -2  -2  10   14.82    0.65
   2   2  10   14.54    0.72
   2  -2 -10   16.00    0.77
  -2  -2  10   15.06    0.53
  -2  -2  10   14.55    0.53
  -2  -2  10   15.09    0.57
   2   2  10   14.91    0.51
   2  -2 -10   14.36    0.64
  -2  -2  10   15.47    0.69
  -2  -2  10   16.91    0.70
  -2   2 -10   15.65    0.63
   2   2  10   15.96    0.78
  -2   2 -10   15.12    0.48
   4   2 -10   11.73    0.69
   4  -2  10   13.14    0.74
  -4   2  10   11.63    0.46
   4   2 -10   11.01    0.65
   4  -2  10   11.55    0.71
  -4  -2 -10   11.09    0.65
  -4   2  10   10.70    0.58
   4  -2 -10   11.38    0.70
  -4  -2  10   11.03    0.58
   4  -2 -10   10.95    0.54
  -4  -2  10   10.91    0.47
  -4   2 -10   10.97    0.49
   4   2  10   11.01    0.68
  -4   2 -10    9.88    0.51
   4   2  10   12.20    0.59
  -6  -2 -10    7.49    0.60
   6  -2  10    7.51    0.63
   6  -2  10    6.30    0.56
   6   2 -10    7.20    0.60
   6   2 -10    6.97    0.57
   6  -2 -10    6.56    0.50
   6   2  10    6.21    0.55
  -6   2 -10    7.58    0.49
   6  -2 -10    6.74    0.59
   6   2  10    6.48    0.52
  -6  -2  10    6.29    0.38
  -8  -2 -10    4.65    0.55
   8  -2  10    3.63    0.46
   8  -2  10    3.63    0.49
   8  -2  10    3.82    0.50
   8   2 -10    3.62    0.69
  -8   2 -10    3.26    0.41
   8  -2 -10    3.76    0.45
   8   2  10    3.83    0.47
   8   2  10    3.67    0.48
   8  -2 -10    4.05    0.51
 -10  -2 -10    2.25    0.51
  10  -2  10    1.00    0.34
  10   2 -10    2.31    0.54
 -10  -2  10    1.42    0.43
  10  -2 -10    1.36    0.42
  10   2  10    2.39    0.48
  10   2  10    1.61    0.36
  -1  -3 -10  214.23    5.01
  -1   3  10  208.59    4.65
  -1  -3 -10  201.83    4.58
   1  -3  10  211.58    4.94
   1  -3  10  212.24    5.37
  -1  -3 -10  205.35    4.73
   1   3 -10  198.99    4.82
  -1  -3  10  197.75    4.89
  -1  -3  10  208.09    4.67
  -1  -3  10  211.13    4.58
  -1  -3  10  207.30    4.85
  -1   3 -10  207.45    4.73
  -1  -3  10  207.23    4.80
   1  -3 -10  208.93    4.62
  -1   3 -10  201.49    4.92
   1   3  10  192.45    4.99
   1  -3 -10  193.54    4.86
   1  -3 -10  211.71    5.02
   3   3 -10  163.96    4.21
  -3  -3 -10  164.43    4.24
  -3   3  10  162.56    4.02
  -3   3  10  171.59    3.95
   3  -3  10  169.81    4.27
   3  -3  10  175.39    4.37
  -3  -3 -10  162.73    3.98
   3   3 -10  165.66    4.17
   3   3  10  162.42    3.87
  -3   3 -10  180.54    4.10
   3  -3 -10  169.16    4.28
   3  -3 -10  161.76    3.94
  -3  -3  10  157.53    4.15
  -3  -3  10  172.86    4.08
   3   3  10  163.61    4.26
  -3   3 -10  166.95    3.91
  -3  -3  10  170.90    4.18
   3  -3 -10  162.94    3.79
   5  -3  10  113.58    3.26
  -5  -3 -10  113.38    3.20
   5  -3  10  113.36    3.22
   5   3 -10  108.58    3.15
   5   3 -10  108.44    3.14
   5  -3 -10  112.04    2.91
   5   3  10  110.17    2.97
   5   3  10  110.55    3.17
  -5  -3  10  105.77    2.78
   5  -3 -10  109.61    3.21
  -5   3 -10  113.69    2.75
  -5  -3  10  119.81    2.96
  -5  -3  10  112.81    2.85
  -7  -3 -10   65.17    2.30
   7   3 -10   62.14    2.26
   7  -3  10   66.11    2.24
   7   3  10   63.92    2.17
  -7  -3  10   67.10    2.33
   7   3  10   65.41    2.22
   7  -3 -10   63.77    2.31
   7  -3 -10   67.65    2.15
   9  -3  10   33.51    1.69
  -9  -3 -10   33.11    1.65
   9  -3  10   33.56    1.49
   9   3 -10   35.81    1.70
   9  -3  10   33.51    1.69
  -9  -3  10   35.31    1.73
   9   3  10   34.11    1.59
   9  -3 -10   34.63    1.56
   9   3  10   35.02    1.52
   0  -4 -10   48.84    1.64
   0  -4 -10   49.80    1.67
   0  -4 -10   49.55    1.37
   0  -4  10   49.67    1.64
   0   4  10   51.04    1.61
   0  -4 -10   53.44    1.35
   0   4 -10   50.51    1.44
   0  -4  10   50.40    1.31
   0  -4  10   51.41    1.59
   0  -4  10   52.77    1.96
  -2  -4 -10   46.54    1.61
   2  -4  10   46.46    1.64
   2  -4  10   42.97    1.71
  -2  -4 -10   43.97    1.40
  -2   4  10   44.67    1.40
   2   4 -10   44.98    1.43
  -2  -4 -10   43.96    1.35
  -2   4  10   45.46    1.40
  -2  -4  10   45.46    1.41
  -2   4 -10   46.54    1.24
  -2  -4  10   46.68    1.34
  -2  -4  10   44.19    1.50
   2   4  10   44.83    1.55
   2  -4 -10   42.89    1.39
  -2  -4  10   44.41    1.56
   2   4  10   46.27    1.12
  -2   4 -10   44.90    1.29
   2  -4 -10   46.54    1.58
   4   4 -10   34.47    1.36
   4   4 -10   32.82    1.27
   4  -4  10   34.18    1.38
  -4  -4 -10   33.40    1.37
   4  -4  10   32.12    1.36
  -4  -4 -10   33.13    1.21
   4   4  10   33.80    1.34
   4  -4 -10   32.49    1.21
  -4   4 -10   32.47    0.96
  -4  -4  10   32.61    1.14
  -4   4 -10   31.38    1.13
   4   4  10   31.60    1.09
  -4  -4  10   34.35    1.16
   4  -4 -10   30.31    1.00
  -4  -4  10   33.79    1.20
   4  -4 -10   32.30    1.34
   6  -4  10   19.77    1.11
   6   4 -10   19.28    1.06
   6  -4  10   20.47    1.07
  -6  -4 -10   19.27    1.07
  -6  -4  10   18.42    0.66
  -6  -4  10   18.87    1.01
  -6   4 -10   18.12    0.73
   6  -4 -10   19.36    0.89
   6   4  10   18.19    0.91
   6  -4 -10   20.07    1.09
  -6   4 -10   21.72    0.81
  -6  -4  10   19.17    0.67
   6   4  10   19.06    1.02
   8   4 -10    9.90    0.82
  -8  -4 -10   10.35    0.85
   8  -4  10   10.31    1.17
   8  -4  10    9.61    0.83
   8   4  10   10.32    0.79
   8  -4 -10    9.83    0.81
   8  -4 -10   10.60    0.75
   8   4  10   11.54    0.80
  -8  -4  10    9.76    0.82
  10  -4  10    4.22    0.73
  10   4 -10    5.03    0.70
  10  -4  10    4.68    0.60
  10  -4  10    4.06    0.69
 -10  -4  10    4.11    0.67
  10   4  10    4.61    1.06
  10  -4 -10    4.20    0.61
  10   4  10    5.46    0.62
   1  -5  10   26.72    0.88
  -1  -5 -10   25.62    0.92
  -1   5  10   24.61    0.94
  -1  -5 -10   27.36    1.16
   1   5 -10   27.80    0.95
   1  -5  10   28.16    1.20
  -1   5  10   27.07    1.03
   1   5  10   26.09    1.09
  -1  -5  10   26.50    0.76
  -1  -5  10   26.22    1.11
  -1  -5  10   26.19    0.94
   1  -5 -10   26.48    0.73
  -1  -5  10   27.57    1.06
  -1   5 -10   26.56    0.83
  -1  -5  10   26.38    0.83
   1  -5 -10   25.62    0.92
   1  -5 -10   26.35    1.11
  -1  -5  10   27.00    0.91
  -1   5 -10   27.39    0.90
  -3  -5 -10   20.85    1.05
   3  -5  10   22.22    1.05
  -3   5  10   22.43    0.84
  -3  -5 -10   20.99    0.92
   3   5 -10   20.68    0.91
   3  -5  10   21.24    1.06
  -3   5  10   18.68    0.89
  -3  -5  10   21.97    0.85
   3   5  10   21.68    0.74
  -3   5 -10   20.46    0.85
   3  -5 -10   21.19    0.64
   3   5  10   21.30    1.02
   3  -5 -10   21.54    1.02
  -3   5 -10   20.74    0.63
  -3  -5  10   22.03    0.95
  -3  -5  10   22.01    0.91
   3  -5 -10   20.98    0.83
   3  -5 -10   21.63    0.90
  -3  -5  10   21.85    0.89
  -5  -5 -10   14.49    0.81
   5   5 -10   14.61    0.90
   5  -5  10   14.28    0.91
   5  -5  10   13.94    0.87
  -5  -5 -10   14.53    0.92
  -5   5 -10   13.32    0.45
   5   5  10   14.96    0.73
   5   5  10   14.31    0.86
  -5  -5  10   14.09    0.78
  -5   5 -10   12.84    0.38
  -5  -5  10   14.58    0.69
  -5  -5  10   14.48    0.80
   5  -5 -10   15.47    0.69
   5  -5 -10   13.45    0.51
   5  -5 -10   15.04    0.89
  -5   5 -10   14.51    0.48
  -5   5 -10   14.12    0.47
  -5  -5  10   14.11    0.79
   7  -5  10    7.87    0.67
   7   5 -10    8.45    0.73
  -7  -5 -10    8.29    0.68
  -7  -5 -10    7.98    0.73
   7  -5  10    8.10    0.74
   7  -5 -10    6.79    0.70
   7   5  10    7.16    0.75
   7  -5 -10    9.03    0.63
  -7  -5  10    9.13    0.73
   7   5  10    8.49    0.63
  -7  -5  10    7.83    0.34
  -9  -5 -10    3.65    0.61
   9   5 -10    5.13    0.64
  -9  -5 -10    3.10    0.57
   9  -5  10    4.15    0.54
   9  -5  10    4.01    0.66
  -9  -5  10    3.57    0.60
   9   5  10    4.42    0.54
   9  -5 -10    4.46    0.67
   9   5  10    3.86    0.51
   9  -5 -10    3.36    0.49
   0  -6 -10    2.38    0.33
   0  -6  10    1.71    0.30
   0  -6  10    1.35    0.18
   0  -6 -10    1.46    0.21
   0  -6  10    1.20    0.27
   0   6  10    1.35    0.26
   0  -6 -10    1.16    0.26
   0  -6 -10    1.38    0.18
   2  -6  10    0.91    0.25
   2  -6  10    1.02    0.19
  -2   6  10    0.98    0.22
   2  -6  10    1.14    0.27
  -2  -6 -10    1.26    0.31
  -2   6  10    1.34    0.24
   2   6 -10    1.14    0.21
  -2  -6 -10    1.15    0.23
  -2  -6  10    1.37    0.24
   2  -6 -10    0.82    0.23
  -2   6 -10    1.87    0.24
  -2  -6  10    1.29    0.19
  -2  -6  10    2.27    0.36
  -2   6 -10    1.28    0.14
   2   6  10    1.40    0.28
   2  -6 -10    1.59    0.26
   4  -6  10    0.65    0.23
   4  -6  10    1.03    0.28
  -4  -6 -10    1.14    0.32
  -4  -6 -10    1.16    0.27
  -4  -6  10    0.90    0.21
   4   6  10    0.72    0.17
   4  -6 -10    0.59    0.17
  -4  -6  10    1.07    0.23
  -4  -6  10    1.06    0.24
  -4  -6  10    0.84    0.22
   4   6  10    0.95    0.26
   4  -6 -10    1.22    0.30
  -6  -6 -10    0.68    0.28
  -6  -6 -10    0.50    0.20
   6  -6  10    0.72    0.25
   6   6 -10    0.71    0.26
   6  -6  10    0.75    0.31
   6   6  10    0.72    0.23
  -6  -6  10    0.63    0.22
   6   6  10    0.73    0.26
  -6  -6  10    0.52    0.20
   6  -6 -10    0.54    0.19
  -6  -6  10    0.27    0.20
  -6  -6  10    0.55    0.16
   6  -6 -10    0.50    0.24
   8  -6  10    0.22    0.24
   8  -6  10    0.34    0.20
   8   6 -10    0.23    0.23
  -8  -6 -10    0.32    0.25
  -8  -6 -10    0.30    0.25
   8   6  10    0.50    0.21
   8   6  10    1.05    0.31
   8  -6 -10    0.35    0.20
  -8  -6  10    0.12    0.18
  -8  -6  10    0.38    0.20
   8  -6 -10    0.53    0.25
   1  -7  10  237.19    5.71
   1  -7  10  225.97    5.75
  -1  -7 -10  211.19    5.31
  -1   7  10  229.77    5.51
  -1  -7 -10  228.92    5.81
  -1  -7 -10  229.50    5.49
   1  -7  10  228.07    5.39
   1  -7 -10  232.84    5.84
  -1  -7  10  218.60    5.22
  -1  -7  10  230.86    5.61
  -1  -7  10  234.00    5.43
  -1   7 -10  219.56    5.39
   1  -7 -10  219.91    5.18
  -1  -7  10  226.98    5.15
   1  -7 -10  234.26    5.49
   1  -7 -10  230.84    5.65
  -1  -7  10  228.29    5.69
   1  -7 -10  218.03    5.11
   1   7  10  222.21    5.58
   3  -7  10  181.74    4.63
  -3  -7 -10  182.40    5.02
  -3  -7 -10  187.77    4.81
   3  -7  10  184.49    4.96
   3  -7  10  196.80    5.04
  -3  -7  10  184.55    4.49
  -3  -7  10  191.50    4.74
   3  -7 -10  186.63    4.87
   3   7  10  188.75    4.87
  -3  -7  10  187.06    4.79
  -3  -7  10  197.30    4.81
   3  -7 -10  184.37    4.72
   3  -7 -10  184.05    4.21
   5  -7  10  129.66    3.82
  -5  -7 -10  133.07    3.74
   5   7 -10  128.14    3.87
   5  -7  10  136.50    3.94
  -5  -7 -10  130.70    3.92
   5   7  10  130.18    3.74
  -5  -7  10  128.96    3.61
  -5  -7  10  125.68    3.53
  -5  -7  10  132.93    3.50
   5  -7 -10  128.65    3.73
   5   7  10  130.66    3.44
  -5  -7  10  130.63    3.65
   5  -7 -10  134.05    3.33
  -7  -7 -10   77.59    2.77
   7   7 -10   76.90    2.81
   7  -7  10   79.70    2.71
   7  -7  10   78.43    2.86
  -7  -7 -10   73.88    2.80
   7   7  10   79.78    2.65
   7  -7 -10   76.85    2.65
  -7  -7  10   77.96    2.66
   7  -7 -10   78.85    2.41
  -7  -7  10   77.71    2.68
  -7  -7  10   84.16    2.46
   7   7  10   78.15    2.51
   9  -7  10   43.85    2.08
  -9  -7 -10   40.68    1.93
   9  -7  10   42.69    1.83
  -9  -7 -10   39.04    2.81
   9   7 -10   43.87    2.10
   9  -7 -10   42.67    1.87
  -9  -7  10   43.99    2.00
   9   7  10   41.77    1.81
  -9  -7  10   45.48    2.89
   0  -8  10    5.99    0.53
   0  -8 -10    5.69    0.57
   0  -8  10    5.47    0.53
   0  -8 -10    7.80    0.59
   0  -8  10    5.66    0.45
   0   8  10    5.05    0.46
   0  -8 -10    5.22    0.38
   0  -8 -10    5.87    0.48
  -2  -8 -10    5.02    0.55
   2  -8  10    4.67    0.51
  -2  -8 -10    4.65    0.45
   2  -8  10    4.87    0.52
  -2  -8  10    5.22    0.49
   2  -8 -10    4.84    0.19
  -2  -8  10    4.28    0.43
   2  -8 -10    5.03    0.50
   2   8  10    4.84    0.48
   2  -8 -10    5.25    0.24
   2  -8 -10    4.65    0.29
   2  -8 -10    5.19    0.47
  -2  -8  10    4.68    0.48
   2  -8 -10    5.18    0.29
  -4  -8 -10    3.50    0.48
  -4  -8 -10    4.03    0.48
   4  -8  10    3.41    0.40
   4  -8  10    3.35    0.46
   4  -8  10    4.76    0.55
   4  -8 -10    3.33    0.42
   4   8  10    3.59    0.44
  -4  -8  10    3.68    0.44
  -4  -8  10    4.07    0.44
  -4  -8  10    4.42    0.46
   4  -8 -10    4.01    0.46
  -4  -8  10    3.44    0.35
   4   8  10    3.41    0.34
   4  -8 -10    4.03    0.30
   6  -8  10    2.26    0.48
   6   8 -10    2.13    0.47
  -6  -8 -10    2.25    0.46
  -6  -8 -10    2.00    0.42
   6  -8  10    1.66    0.40
  -6  -8  10    2.85    0.47
  -6  -8  10    2.48    0.32
  -6  -8  10    2.41    0.43
  -6  -8  10    2.00    0.36
   6   8  10    1.82    0.39
   6   8  10    1.84    0.35
   6  -8 -10    1.80    0.32
   8  -8  10    1.01    0.37
   8   8 -10    1.66    0.41
  -8  -8 -10    1.25    0.37
  -8  -8 -10    0.99    0.36
   8  -8  10    2.00    0.43
  -8  -8  10    1.71    0.40
   8  -8 -10    1.71    0.40
  -8  -8  10    1.32    0.31
   8   8  10    1.30    0.35
   8   8  10    1.68    0.34
  -8  -8  10    0.96    0.36
   8  -8 -10    0.18    0.35
  -1  -9 -10   11.08    0.85
   1  -9  10   12.31    0.83
   1  -9  10   12.47    0.73
  -1  -9 -10   11.73    0.75
   1  -9  10   12.69    0.87
   1  -9 -10   12.51    0.63
  -1  -9  10   11.94    0.71
  -1  -9  10   11.95    0.79
   1   9  10   12.71    0.79
  -1  -9  10   11.07    0.33
   1  -9 -10   13.04    0.78
   1  -9 -10   13.25    0.82
   1  -9 -10   11.92    0.87
  -1  -9  10   12.36    0.85
   1  -9 -10   11.47    0.58
  -3  -9 -10   11.01    0.79
   3  -9  10    9.87    0.80
   3  -9  10    9.67    0.67
  -3  -9 -10    9.88    0.83
   3  -9  10    8.85    0.75
  -3  -9  10   10.85    0.76
  -3  -9  10   10.63    0.57
   3  -9 -10   10.06    0.73
   3  -9 -10    9.48    0.70
  -3  -9  10   10.07    0.71
   3   9  10   10.05    0.73
   5  -9  10    6.44    0.68
   5  -9  10    7.27    0.71
  -5  -9 -10    6.91    0.68
  -5  -9 -10    6.90    0.73
  -5  -9  10    6.52    0.63
   5   9  10    6.96    0.65
   5   9  10    7.11    0.55
  -5  -9  10    8.29    0.63
  -5  -9  10    6.20    0.54
   5  -9 -10    6.91    0.63
  -5  -9  10    6.95    0.63
   5  -9 -10    6.84    0.64
  -7  -9 -10    3.40    0.62
   7  -9  10    3.29    0.55
   7   9 -10    3.23    0.60
  -7  -9 -10    3.52    0.62
   7  -9  10    3.84    0.65
  -7  -9  10    4.55    0.56
   7  -9 -10    4.72    0.55
  -7  -9  10    3.78    0.43
   7   9  10    3.38    0.57
  -7  -9  10    4.45    0.58
  -7  -9  10    4.09    0.52
   0 -10  10   47.53    1.91
   0 -10  10   46.61    1.85
   0 -10 -10   47.05    1.79
   0 -10 -10   48.38    1.81
   0 -10 -10   47.69    1.98
   0 -10  10   46.58    1.69
   0 -10 -10   47.06    1.62
  -2 -10 -10   42.14    1.87
   2 -10  10   44.09    1.85
  -2 -10 -10   44.41    1.75
   2 -10  10   42.56    1.64
   2 -10  10   44.41    1.84
  -2 -10  10   43.66    1.66
   2 -10 -10   42.71    1.71
   2 -10 -10   45.27    1.73
  -2 -10  10   45.43    1.77
   2 -10 -10   40.35    1.34
  -4 -10 -10   31.70    1.65
   4 -10  10   34.44    1.63
   4 -10  10   33.07    1.46
   4 -10  10   31.67    1.61
  -4 -10 -10   32.61    1.55
  -4 -10  10   35.91    1.56
  -4 -10  10   33.38    1.27
  -4 -10  10   32.03    1.49
   4 -10 -10   34.07    1.54
   4 -10 -10   32.46    1.46
  -6 -10 -10   23.17    1.43
   6 -10  10   22.19    1.31
   6 -10  10   22.01    1.38
  -6 -10 -10   22.91    1.35
   6  10  10   20.95    1.09
  -6 -10  10   22.67    1.14
  -6 -10  10   22.09    1.29
  -6 -10  10   23.53    1.28
   6 -10 -10   21.48    1.19
   8 -10  10   12.92    1.17
  -8 -10 -10   12.46    1.11
   8 -10 -10   13.01    0.92
  -8 -10  10   13.46    1.13
  -8 -10  10   15.51    1.09
  -8 -10  10   13.72    1.10
   8  10  10   12.68    0.93
  -1 -11 -10   49.52    1.96
  -1 -11 -10   51.68    2.15
   1 -11  10   54.28    1.92
   1 -11  10   49.70    2.05
   1 -11 -10   50.40    1.71
   1 -11 -10   51.02    1.92
  -1 -11  10   50.29    1.88
  -1 -11  10   51.96    2.01
   1 -11 -10   53.42    2.01
  -3 -11 -10   44.52    2.02
   3 -11  10   46.35    1.97
   3 -11  10   43.51    1.77
   3 -11  10   46.23    1.99
  -3 -11 -10   43.64    1.87
   3 -11 -10   42.36    1.83
  -3 -11  10   46.84    1.90
   3 -11 -10   45.20    1.79
  -3 -11  10   48.03    1.85
   5 -11  10   33.01    1.65
   5 -11  10   35.06    1.76
  -5 -11 -10   31.01    1.71
   5 -11  10   30.27    1.50
  -5 -11 -10   31.96    1.62
  -5 -11  10   33.86    1.61
  -5 -11  10   31.02    1.32
   5 -11 -10   30.52    1.57
   5 -11 -10   33.00    1.49
  -5 -11  10   32.49    1.56
   7 -11  10   20.95    1.41
  -7 -11 -10   20.46    1.41
  -7 -11 -10   19.20    1.31
   7 -11  10   18.48    1.30
   7 -11 -10   18.01    1.10
  -7 -11  10   19.85    1.26
  -7 -11  10   20.53    1.32
  -7 -11  10   19.78    1.15
   0 -12 -10   13.78    1.04
   0 -12 -10   15.32    1.01
   0 -12  10   15.38    1.06
   0 -12  10   15.33    1.04
   0 -12  10   15.39    0.94
   0 -12 -10   14.66    0.86
   0 -12 -10   15.84    0.97
   2 -12  10   14.16    1.01
  -2 -12 -10   14.25    1.07
   2 -12  10   15.04    1.05
  -2 -12 -10   13.25    1.32
   2 -12  10   13.36    0.90
  -2 -12  10   13.02    0.68
  -2 -12  10   13.87    0.97
   2 -12 -10   12.84    1.37
   2 -12 -10   13.07    0.89
  -2 -12  10   13.69    0.90
   4 -12  10   11.62    0.87
  -4 -12 -10   10.54    0.90
   4 -12  10   11.83    0.99
  -4 -12 -10   11.38    0.98
   4 -12  10   11.27    0.96
   4 -12 -10   12.37    0.84
  -4 -12  10   12.40    0.95
  -4 -12  10   10.20    0.65
  -4 -12  10   11.40    0.89
   4 -12 -10   11.37    0.91
  -6 -12 -10    9.16    0.90
  -6 -12 -10    7.59    0.87
   6 -12  10    8.14    0.89
   6 -12  10    7.00    0.90
   6 -12 -10    8.48    0.69
  -6 -12  10    7.16    0.70
  -6 -12  10    7.97    0.81
  -6 -12  10    8.74    0.85
  -6 -12  10    7.82    0.67
   1 -13  10    7.96    0.76
  -1 -13 -10    8.71    0.84
  -1 -13 -10    7.23    0.65
   1 -13  10    8.17    0.72
   1 -13  10    9.12    0.83
  -1 -13 -10    9.13    0.75
  -1 -13 -10    6.22    0.68
  -1 -13  10    7.68    0.71
   1 -13 -10    7.98    0.76
  -1 -13  10    8.22    0.75
   1 -13 -10    7.96    0.69
  -3 -13 -10    7.29    0.80
  -3 -13 -10    7.77    0.76
   3 -13  10    6.53    0.75
   3 -13  10    5.85    0.69
   3 -13  10    6.94    0.70
  -3 -13  10    8.06    0.77
   3 -13 -10    6.41    0.71
   3 -13 -10    7.19    0.65
  -3 -13  10    7.27    0.69
   5 -13  10    4.88    0.80
   5 -13  10    4.34    0.98
  -5 -13 -10    5.75    0.72
  -5 -13 -10    4.33    0.75
   5 -13  10    4.89    0.64
  -5 -13  10    7.15    0.73
   5 -13 -10    6.16    0.61
  -5 -13  10    5.29    0.68
   5 -13 -10    5.33    0.71
   0 -14  10   24.35    1.33
   0 -14 -10   26.57    1.33
   0 -14 -10   23.97    1.42
   0 -14  10   25.29    1.48
   0 -14 -10   24.78    1.51
   0 -14  10   26.35    1.47
  -2 -14 -10   22.71    1.26
   2 -14  10   24.21    1.33
   2 -14  10   26.07    1.49
  -2 -14 -10   23.57    1.48
  -2 -14 -10   21.90    1.37
   2 -14  10   23.78    1.43
   2 -14 -10   22.81    1.21
  -2 -14  10   23.47    1.30
   2 -14 -10   21.41    1.36
  -2 -14  10   22.36    1.34
   4 -14  10   17.77    1.26
   4 -14  10   20.21    1.25
   4 -14  10   18.29    1.31
  -4 -14 -10   21.45    1.42
  -4 -14 -10   18.67    1.27
   4 -14 -10   21.29    1.14
  -4 -14  10   19.21    1.29
  -4 -14  10   18.74    1.22
   4 -14 -10   18.36    1.70
   1 -15  10   -0.38    0.18
   1 -15  10    0.93    0.34
  -1 -15 -10    0.12    0.22
  -1 -15 -10   -0.13    0.24
  -1 -15 -10    0.03    0.19
   1 -15  10   -0.19    0.18
  -1 -15 -10    0.48    0.31
  -1 -15  10   -0.03    0.22
   1 -15 -10    0.78    0.38
  -1 -15  10   -0.17    0.22
   1 -15 -10    0.05    0.22
   1 -15 -10   -0.02    0.24
   1   0  11  103.08    2.63
   1   0  11  101.29    2.51
  -1   0  11  106.11    2.48
   1   0  11  101.19    2.84
   1   0 -11  109.94    2.88
   1   0 -11   95.39    2.71
  -1   0 -11  106.58    2.74
  -1   0 -11  102.25    2.62
  -1   0  11  103.63    2.73
  -1   0  11  107.61    2.78
  -1   0  11  102.00    2.41
   1   0  11  109.33    2.65
  -3   0  11   82.73    2.14
   3   0  11   88.67    2.56
   3   0  11   79.36    2.20
  -3   0  11   86.95    2.24
   3   0 -11   86.36    2.49
  -3   0 -11   86.26    2.25
   5   0 -11   56.45    1.96
   5   0  11   55.50    1.82
  -5   0 -11   53.96    1.66
  -5   0 -11   55.98    1.76
   5   0 -11   56.33    1.79
  -5   0  11   57.82    1.38
   5   0  11   57.85    1.96
   5   0  11   57.19    1.96
   7   0  11   32.03    1.42
   7   0  11   32.28    1.43
   7   0 -11   33.56    1.41
  -7   0 -11   33.22    1.36
   7   0 -11   33.76    1.52
   9   0  11   18.26    1.06
  -9   0 -11   18.29    1.07
   9   0 -11   18.76    1.12
   9   0  11   16.65    1.10
   0   1  11   98.34    2.61
   0   1 -11   98.17    2.57
   0  -1  11   97.54    2.68
   0   1 -11   93.80    2.45
   0   1  11   98.73    2.34
   0  -1  11   98.84    2.48
   0  -1  11   98.55    2.45
   0  -1 -11   98.79    2.69
   0   1  11   95.95    2.65
   0   1  11   95.83    2.11
   0  -1  11   96.28    2.42
   0  -1 -11   96.02    2.35
  -2   1  11   86.89    3.05
  -2   1  11   87.56    2.32
   2   1 -11   92.70    2.47
  -2   1  11   84.58    2.05
   2  -1  11   84.27    2.51
   2  -1  11   85.32    2.14
   2  -1  11   90.24    2.40
  -2  -1 -11   88.14    2.33
  -2  -1 -11   86.99    2.33
  -2  -1  11   83.00    2.21
  -2  -1  11   85.31    2.01
  -2  -1  11   89.65    2.04
  -2  -1  11   84.60    2.39
  -2   1 -11   88.30    2.14
   2  -1 -11   90.76    2.50
   2   1  11   83.14    2.31
   2   1  11   89.44    2.53
  -2   1 -11   85.83    2.31
  -2  -1  11   89.34    2.36
  -2   1 -11   85.30    2.37
   2   1  11   81.61    2.31
   2  -1 -11   81.68    2.29
   4  -1  11   65.08    2.10
  -4   1  11   64.47    1.67
   4   1 -11   64.75    2.07
  -4  -1 -11   62.97    1.72
  -4  -1 -11   64.88    1.92
   4   1 -11   62.46    1.91
   4  -1  11   64.69    2.04
  -4  -1  11   63.17    1.44
   4  -1 -11   62.07    1.79
  -4  -1  11   61.96    1.43
  -4   1 -11   62.99    1.71
   4   1  11   58.86    1.85
  -4   1 -11   65.17    1.79
   4  -1 -11   65.08    2.09
   4   1  11   65.65    2.10
   4   1  11   61.33    1.98
   4   1  11   62.62    1.84
  -4  -1  11   62.17    1.83
   6   1 -11   39.23    1.60
  -6  -1 -11   39.00    1.48
   6   1 -11   39.69    1.51
   6  -1  11   37.98    1.55
   6  -1  11   40.49    1.63
   6  -1 -11   39.36    1.62
  -6   1 -11   38.69    1.36
   6   1  11   36.46    1.44
  -6  -1  11   33.23    1.10
   6   1  11   40.48    1.58
  -6  -1  11   38.56    1.18
   6  -1 -11   40.30    1.44
   8  -1  11   22.37    1.17
   8  -1  11   20.47    1.22
   8  -1  11   23.26    1.25
   8   1 -11   21.36    1.20
  -8   1 -11   20.70    1.06
   8   1  11   21.51    1.14
   8  -1 -11   21.69    1.14
   8  -1 -11   21.18    1.22
  10   1 -11    9.97    0.89
  10  -1  11   10.48    0.83
  10  -1  11   11.95    0.98
 -10  -1 -11   10.07    0.90
  10  -1 -11   10.42    0.90
 -10  -1  11   10.43    1.00
  10   1  11    9.19    0.80
   1  -2  11    4.61    0.41
  -1  -2 -11    3.21    0.26
  -1  -2 -11    3.42    0.33
   1  -2  11    3.76    0.32
   1   2 -11    3.17    0.30
   1  -2  11    3.24    0.30
   1  -2  11    3.33    0.20
  -1   2  11    3.04    0.33
  -1  -2 -11    3.06    0.30
  -1   2 -11    3.88    0.33
   1  -2 -11    3.40    0.33
  -1  -2  11    3.17    0.26
   1   2  11    2.90    0.31
  -1   2 -11    2.96    0.27
   1  -2 -11    3.10    0.33
  -1  -2  11    3.27    0.26
   1   2  11    3.64    0.36
  -1  -2  11    3.17    0.33
  -1  -2  11    3.33    0.28
  -3   2  11    2.53    0.24
  -3  -2 -11    3.15    0.33
   3  -2  11    2.89    0.33
   3   2 -11    3.30    0.35
   3  -2  11    2.62    0.34
  -3   2  11    2.79    0.25
   3   2  11    2.47    0.32
  -3  -2  11    2.85    0.21
  -3   2 -11    2.78    0.26
  -3  -2  11    2.61    0.23
   3  -2 -11    2.87    0.22
   3   2  11    2.62    0.31
   3  -2 -11    3.18    0.36
  -3  -2  11    2.15    0.26
  -3  -2  11    2.69    0.27
   3  -2 -11    2.49    0.25
  -3   2 -11    2.54    0.18
  -3   2 -11    2.76    0.20
   3   2  11    2.82    0.23
   5  -2  11    1.93    0.36
  -5  -2 -11    1.57    0.25
   5   2 -11    1.36    0.30
  -5  -2 -11    1.91    0.34
   5   2 -11    2.39    0.39
   5  -2  11    1.98    0.37
  -5   2 -11    1.71    0.21
  -5  -2  11    1.68    0.17
   5  -2 -11    1.21    0.29
  -5   2 -11    1.13    0.23
   5   2  11    2.47    0.42
   5   2  11    2.86    0.37
  -5  -2  11    1.63    0.17
   5  -2 -11    1.65    0.23
  -5  -2  11    1.82    0.18
   7  -2  11    0.75    0.25
   7   2 -11    1.38    0.34
  -7  -2 -11    0.89    0.25
   7   2 -11    1.09    0.31
   7  -2  11    0.65    0.27
  -7   2 -11    0.82    0.22
   7   2  11    1.02    0.27
   7  -2 -11    0.95    0.27
   7  -2 -11    0.88    0.25
   7   2  11    0.73    0.26
  -7  -2  11    0.70    0.16
   9  -2  11    0.38    0.28
   9   2 -11    1.03    0.31
   9  -2  11    0.32    0.23
  -9  -2 -11    0.49    0.27
   9  -2  11    0.69    0.27
   9   2  11    0.60    0.23
  -9  -2  11    0.45    0.25
   9   2  11    0.76    0.26
  -9   2 -11    0.02    0.17
   9  -2 -11    0.67    0.28
   0  -3 -11    0.16    0.11
   0  -3  11    0.32    0.15
   0  -3 -11    0.38    0.09
   0  -3 -11    0.25    0.11
   0  -3  11    0.30    0.14
   0  -3  11    0.53    0.09
   0  -3  11    0.15    0.10
   0   3  11    0.77    0.23
   0   3 -11    0.53    0.14
   0  -3 -11    0.32    0.08
   2   3 -11    0.22    0.12
  -2  -3 -11    0.20    0.10
   2  -3  11    1.01    0.26
  -2   3  11    0.09    0.08
  -2  -3 -11    0.33    0.09
  -2  -3 -11    0.30    0.13
   2  -3  11    0.08    0.13
   2   3  11    0.50    0.17
   2  -3 -11    0.18    0.12
  -2  -3  11    0.63    0.16
  -2  -3  11    0.21    0.10
  -2   3 -11    0.28    0.09
  -2   3 -11    0.36    0.07
  -2  -3  11    0.20    0.11
  -2  -3  11    0.06    0.10
   2   3  11    0.36    0.06
   2  -3 -11    0.31    0.12
  -2  -3  11    0.51    0.11
   4   3 -11    0.17    0.11
  -4  -3 -11    0.09    0.12
  -4  -3 -11    0.32    0.11
   4  -3  11    0.35    0.16
   4  -3  11    0.15    0.13
   4   3 -11    0.00    0.10
  -4   3  11    0.50    0.15
  -4  -3  11    0.20    0.11
   4  -3 -11    0.07    0.07
  -4   3 -11    0.30    0.10
  -4   3 -11    0.09    0.09
  -4   3 -11    0.32    0.11
   4  -3 -11    0.16    0.07
   4   3  11    0.24    0.15
   4  -3 -11    0.05    0.10
   4   3  11    0.08    0.07
   6   3 -11    0.13    0.12
   6   3 -11   -0.01    0.10
   6  -3  11    0.27    0.18
   6  -3  11    0.09    0.15
  -6  -3 -11    0.07    0.14
   6   3  11   -0.11    0.08
   6  -3 -11    0.05    0.09
   6   3  11    0.07    0.14
   6  -3 -11    0.34    0.18
  -6  -3  11    0.15    0.10
  -6  -3  11    0.03    0.05
  -6   3 -11   -0.05    0.08
   8   3 -11    0.02    0.17
   8  -3  11   -0.15    0.12
  -8  -3 -11    0.06    0.19
   8  -3  11    0.30    0.21
   8  -3  11    0.74    0.28
   8   3  11    0.29    0.25
   8   3  11   -0.11    0.15
   8  -3 -11    0.13    0.18
   8  -3 -11    0.22    0.17
  -8  -3  11   -0.24    0.12
  -8   3 -11    0.05    0.12
  -1  -4 -11   36.53    1.07
   1  -4  11   39.09    1.36
  -1   4  11   36.24    1.11
   1   4 -11   36.67    1.23
  -1  -4 -11   38.29    1.41
   1  -4  11   37.63    1.45
  -1  -4 -11   41.81    1.42
  -1  -4 -11   35.40    1.14
  -1   4  11   37.45    1.31
  -1  -4  11   36.32    1.04
  -1  -4  11   36.97    1.25
   1  -4 -11   38.84    1.10
  -1  -4  11   37.93    1.04
   1  -4 -11   37.14    1.39
  -1  -4  11   38.18    1.39
  -1  -4  11   35.20    1.32
  -1  -4  11   37.52    1.03
  -1   4 -11   37.93    1.14
   1   4  11   36.94    1.37
   3   4 -11   32.31    1.21
  -3   4  11   30.67    1.06
  -3  -4 -11   31.80    1.10
   3  -4  11   32.75    1.37
   3  -4  11   30.77    1.28
  -3  -4 -11   31.32    1.29
   3  -4 -11   30.83    1.29
  -3   4 -11   29.10    1.01
   3  -4 -11   29.56    1.06
   3   4  11   31.83    1.30
  -3  -4  11   31.88    1.18
   3   4  11   30.06    0.92
   3  -4 -11   30.36    0.79
  -3  -4  11   29.90    1.05
  -3  -4  11   30.73    1.08
   5  -4  11   21.42    1.13
  -5  -4 -11   21.15    1.10
   5   4 -11   20.49    1.02
   5   4 -11   20.89    1.08
  -5  -4 -11   21.46    1.02
   5  -4  11   20.86    1.10
  -5  -4  11   20.55    1.00
   5  -4 -11   22.19    1.13
   5  -4 -11   21.20    0.83
  -5   4 -11   20.45    0.73
   5   4  11   20.33    0.88
  -5  -4  11   22.07    0.84
  -5  -4  11   20.09    0.85
   5   4  11   21.31    1.08
   7  -4  11   11.91    0.91
  -7  -4 -11   12.48    0.89
  -7  -4 -11   12.20    0.82
   7  -4  11   13.56    1.07
   7   4 -11   12.29    0.88
   7  -4 -11   12.43    0.75
   7  -4 -11   14.13    0.95
   7   4  11   12.10    0.77
  -7  -4  11   12.56    0.88
  -7  -4  11   11.63    0.67
   7   4  11   12.51    0.86
   9   4 -11    6.94    0.74
  -9  -4 -11    6.79    0.72
   9  -4  11    6.43    0.73
   9  -4  11    7.40    0.85
   9  -4  11    6.86    0.67
  -9  -4  11    6.87    0.74
   9  -4 -11    6.90    0.70
   9   4  11    5.95    0.61
   9   4  11    5.43    0.60
   0  -5  11  346.63    7.68
   0   5 -11  341.82    7.78
   0  -5 -11  339.99    7.67
   0  -5 -11  362.37    8.19
  -2  -5 -11  298.37    7.55
   2   5 -11  326.38    7.65
  -2  -5 -11  324.46    7.70
   2  -5  11  330.25    7.66
  -2   5  11  305.72    7.37
  -2  -5 -11  322.99    7.31
   2  -5  11  326.25    7.76
   2   5  11  315.83    7.62
  -2   5 -11  314.74    7.20
  -2  -5  11  336.91    7.45
   2  -5 -11  319.91    7.64
  -2  -5  11  328.34    7.44
  -2  -5  11  329.79    7.35
  -2   5 -11  317.63    7.08
   2  -5 -11  320.43    7.30
  -2  -5  11  317.86    7.57
   4  -5  11  246.83    6.20
   4   5 -11  245.35    5.97
  -4  -5 -11  243.60    6.19
   4  -5  11  249.74    6.23
  -4  -5 -11  239.37    5.90
  -4  -5  11  248.01    5.86
  -4  -5  11  255.21    6.81
  -4   5 -11  242.87    5.40
   4   5  11  245.18    5.65
   4  -5 -11  246.62    6.16
  -4   5 -11  229.73    5.77
  -4  -5  11  248.25    5.83
  -4  -5  11  245.76    5.86
   4  -5 -11  238.88    5.49
   4   5  11  246.97    6.14
  -6  -5 -11  157.37    4.26
   6   5 -11  159.21    4.46
  -6  -5 -11  155.99    4.47
   6  -5  11  142.42    5.39
   6  -5  11  160.79    4.45
  -6  -5  11  158.70    4.06
   6   5  11  153.91    4.09
   6   5  11  161.95    4.40
  -6  -5  11  166.44    4.30
  -6  -5  11  157.19    4.28
  -6  -5  11  163.13    3.84
   6  -5 -11  163.06    4.48
   6  -5 -11  159.76    4.00
  -8  -5 -11   90.07    2.97
   8  -5  11   89.17    3.15
   8  -5  11   91.22    2.98
  -8  -5 -11   88.51    3.10
   8   5 -11   87.94    3.09
  -8  -5  11   91.27    3.03
   8   5  11   91.19    2.94
   8  -5 -11   91.67    3.06
   8  -5 -11   93.26    2.79
  -1   6  11    6.76    0.49
   1  -6  11    6.64    0.58
   1  -6  11    6.74    0.54
  -1  -6 -11    7.00    0.43
  -1  -6 -11    6.17    0.43
   1   6 -11    6.22    0.40
  -1  -6 -11    7.01    0.59
  -1   6  11    6.20    0.45
   1   6  11    6.13    0.50
  -1  -6  11    6.13    0.40
  -1  -6  11    6.10    0.23
  -1  -6  11    7.08    0.24
   1  -6 -11    7.05    0.56
  -1  -6  11    8.16    0.55
  -1   6 -11    6.63    0.34
  -1  -6  11    5.84    0.40
   1  -6 -11    6.05    0.30
   1  -6 -11    7.25    0.45
  -1  -6  11    6.18    0.53
  -3  -6 -11    4.80    0.52
   3  -6  11    5.79    0.57
  -3  -6 -11    4.84    0.44
   3  -6  11    5.29    0.53
   3   6 -11    6.12    0.47
  -3  -6  11    6.04    0.46
  -3   6 -11    4.64    0.41
   3   6  11    6.45    0.56
  -3   6 -11    5.26    0.20
   3  -6 -11    4.51    0.47
  -3  -6  11    5.18    0.38
  -3  -6  11    5.52    0.45
   3  -6 -11    5.65    0.45
  -3  -6  11    5.95    0.50
   5   6 -11    3.62    0.48
  -5  -6 -11    3.70    0.43
   5  -6  11    3.67    0.49
   5  -6  11    3.36    0.46
  -5  -6 -11    3.56    0.47
  -5  -6  11    3.71    0.40
   5  -6 -11    3.96    0.47
  -5  -6  11    4.07    0.43
  -5  -6  11    3.13    0.34
   5   6  11    3.41    0.36
   5  -6 -11    3.63    0.31
  -5  -6  11    3.10    0.36
   5   6  11    3.68    0.46
   7   6 -11    2.42    0.51
   7  -6  11    1.63    0.40
   7  -6  11    2.52    0.46
  -7  -6 -11    2.02    0.40
  -7  -6 -11    2.63    0.52
  -7  -6  11    2.21    0.44
  -7  -6  11    2.02    0.40
  -7  -6  11    2.18    0.24
   7   6  11    2.36    0.41
   7  -6 -11    2.53    0.33
  -7  -6  11    1.86    0.33
   7   6  11    2.28    0.46
   7  -6 -11    2.01    0.42
   9  -6  11    1.25    0.42
  -9  -6 -11    1.88    0.59
  -9  -6 -11    0.92    0.35
   9  -6  11    1.42    0.39
   9   6  11    1.66    0.39
  -9  -6  11    1.42    0.42
  -9  -6  11    0.93    0.38
   9   6  11    0.94    0.29
   0   7  11   32.05    1.29
   0  -7 -11   31.90    1.18
   0  -7 -11   32.20    1.35
   0  -7 -11   32.87    1.44
   0  -7  11   32.29    1.12
   0  -7  11   31.86    1.39
   0  -7  11   31.72    1.32
   0  -7 -11   30.80    1.03
   2  -7  11   27.75    1.33
   2  -7  11   29.71    1.33
   2  -7  11   28.47    1.06
  -2  -7 -11   27.93    1.33
  -2  -7 -11   29.45    1.16
   2  -7 -11   29.25    1.28
  -2  -7  11   28.54    1.10
   2  -7 -11   24.16    1.45
  -2  -7  11   29.49    1.21
   2   7  11   28.60    1.26
  -2  -7  11   27.43    1.23
  -2   7 -11   27.59    1.08
  -2  -7  11   28.20    0.89
   4  -7  11   21.99    1.19
   4  -7  11   20.19    1.15
  -4  -7 -11   22.34    1.09
  -4  -7 -11   22.26    1.23
   4   7  11   21.18    0.85
  -4  -7  11   21.98    1.04
   4   7  11   21.12    1.11
  -4  -7  11   21.37    1.03
   4  -7 -11   21.01    1.12
  -4  -7  11   20.60    1.01
  -4  -7  11   21.36    0.93
   6  -7  11   13.01    0.93
  -6  -7 -11   13.62    0.91
   6   7 -11   13.53    0.98
   6  -7  11   13.51    1.01
  -6  -7 -11   13.32    0.98
  -6  -7  11   14.11    0.86
   6   7  11   13.28    0.77
  -6  -7  11   14.09    0.89
   6   7  11   13.79    0.92
  -6  -7  11   13.68    0.73
   6  -7 -11   12.88    0.92
  -6  -7  11   13.85    0.84
   8  -7  11    7.64    0.74
   8   7 -11    8.49    0.83
  -8  -7 -11    7.82    0.82
  -8  -7 -11    6.62    0.74
   8  -7  11    7.29    0.80
  -8  -7  11    8.09    0.74
  -8  -7  11    7.14    0.64
  -8  -7  11    8.21    0.77
   8   7  11    7.67    0.72
   8  -7 -11    9.50    0.83
   8   7  11    7.58    0.67
   1  -8  11    1.20    0.24
   1  -8  11    1.74    0.38
   1  -8  11    1.40    0.31
  -1  -8 -11    1.27    0.32
   1   8  11    0.59    0.20
  -1  -8  11    0.87    0.26
  -1  -8  11    1.53    0.33
   1  -8 -11    1.19    0.25
  -1  -8  11    1.24    0.25
  -1  -8  11    0.82    0.18
   1  -8 -11    0.69    0.14
   1  -8 -11    0.60    0.21
   3  -8  11    0.53    0.24
  -3  -8 -11    0.75    0.27
   3  -8  11    0.69    0.21
   3  -8  11    0.65    0.24
  -3  -8 -11    1.26    0.29
  -3  -8  11    0.72    0.23
   3  -8 -11    0.81    0.23
   3   8  11    0.87    0.27
  -3  -8  11    0.83    0.19
  -3  -8  11    0.98    0.27
   3  -8 -11    0.81    0.26
   5  -8  11    0.44    0.23
  -5  -8 -11    0.65    0.26
   5  -8  11    0.67    0.29
  -5  -8 -11    0.52    0.26
   5   8  11    0.95    0.29
  -5  -8  11    0.67    0.21
  -5  -8  11    0.57    0.22
   5  -8 -11    0.37    0.26
  -5  -8  11    0.80    0.23
   5   8  11    0.65    0.21
  -5  -8  11    1.11    0.31
  -7  -8 -11    0.37    0.24
  -7  -8 -11    0.65    0.31
   7  -8  11    0.39    0.21
   7   8 -11    0.21    0.23
   7  -8  11    0.14    0.19
  -7  -8  11    0.52    0.24
  -7  -8  11    0.54    0.24
  -7  -8  11    0.56    0.16
   7   8  11    0.71    0.29
   7  -8 -11    0.17    0.20
   7  -8 -11    0.04    0.16
   7   8  11    0.17    0.20
  -7  -8  11   -0.05    0.18
   0  -9  11  147.11    4.19
   0  -9  11  151.13    3.87
   0  -9  11  149.41    4.12
   0  -9 -11  149.81    4.11
   0  -9 -11  148.03    3.96
   0  -9 -11  141.27    4.24
   2  -9  11  137.52    4.00
   2  -9  11  136.53    3.95
  -2  -9 -11  136.24    3.75
  -2  -9 -11  136.22    4.05
   2  -9  11  131.46    3.60
  -2  -9  11  130.80    3.15
   2   9  11  131.69    3.80
   2  -9 -11  132.46    3.71
   2  -9 -11  138.70    3.86
  -2  -9  11  131.91    3.63
  -2  -9  11  141.59    3.91
  -2  -9  11  138.00    3.82
  -4  -9 -11  104.73    3.23
   4  -9  11  102.85    3.06
   4  -9  11  109.57    3.45
  -4  -9 -11  102.34    3.44
   4  -9  11  106.05    3.39
   4  -9 -11  103.07    3.16
   4  -9 -11  101.37    3.20
  -4  -9  11  108.54    3.20
  -4  -9  11  103.67    2.86
  -4  -9  11  107.76    3.18
   4   9  11  103.54    3.23
  -4  -9  11  108.53    3.18
   6  -9  11   69.60    2.62
  -6  -9 -11   69.94    2.57
   6  -9  11   66.84    2.68
  -6  -9 -11   69.40    2.73
  -6  -9  11   72.00    2.45
   6  -9 -11   66.02    2.45
  -6  -9  11   73.35    2.55
   6   9  11   71.85    2.54
  -6  -9  11   70.33    2.27
  -6  -9  11   71.19    2.36
   8  -9  11   42.56    2.22
   8  -9  11   39.77    2.06
  -8  -9 -11   40.04    1.93
  -8  -9 -11   42.52    2.09
   8   9  11   40.61    1.72
  -8  -9  11   41.80    1.82
   1 -10  11   32.89    1.33
  -1 -10 -11   29.08    1.71
   1 -10  11   32.28    1.63
  -1 -10 -11   33.10    1.42
   1 -10  11   31.02    1.47
  -1 -10  11   31.78    1.45
  -1 -10  11   31.92    1.32
   1 -10 -11   32.44    1.41
  -1 -10  11   33.50    1.53
   1 -10 -11   31.30    1.42
   1 -10 -11   30.64    1.14
  -3 -10 -11   24.94    1.28
   3 -10  11   26.27    1.22
   3 -10  11   27.63    1.45
  -3 -10 -11   26.09    1.45
   3 -10  11   28.92    1.48
   3 -10 -11   25.90    1.31
   3 -10 -11   27.68    1.32
  -3 -10  11   26.34    1.25
  -3 -10  11   26.16    0.96
  -3 -10  11   27.97    1.36
  -3 -10  11   27.73    1.33
  -5 -10 -11   19.46    1.30
   5 -10  11   20.64    1.25
  -5 -10 -11   18.67    1.67
   5 -10  11   19.21    1.26
  -5 -10  11   19.89    1.08
  -5 -10  11   18.25    1.11
   5 -10 -11   18.28    1.09
  -5 -10  11   18.10    1.29
  -5 -10  11   19.81    0.99
   5 -10 -11   18.60    1.13
  -7 -10 -11   13.86    1.07
   7 -10  11   13.12    1.03
   7 -10  11   12.42    1.07
  -7 -10 -11   10.74    1.22
  -7 -10  11   12.88    0.90
   7 -10 -11   11.97    0.92
  -7 -10  11   13.49    0.97
  -7 -10  11   12.63    1.00
   7  10  11   11.54    0.81
   0 -11 -11    0.20    0.17
   0 -11 -11    0.00    0.13
   0 -11 -11    0.26    0.17
   0 -11  11   -0.05    0.10
   0 -11  11   -0.02    0.15
   0 -11 -11    0.30    0.18
   0 -11  11   -0.05    0.10
   2 -11  11   -0.05    0.14
   2 -11  11    0.05    0.13
  -2 -11 -11    0.04    0.16
   2 -11  11   -0.23    0.13
  -2 -11 -11   -0.25    0.14
  -2 -11  11   -0.01    0.15
   2 -11 -11    0.01    0.09
  -2 -11  11    0.10    0.09
  -2 -11  11    0.06    0.16
   2 -11 -11    0.05    0.15
   2 -11 -11   -0.16    0.13
  -2 -11  11   -0.21    0.10
   4 -11  11    0.15    0.22
   4 -11  11    0.96    0.33
  -4 -11 -11   -0.13    0.14
   4 -11  11    0.05    0.14
  -4 -11 -11    0.17    0.18
   4 -11 -11    0.19    0.20
  -4 -11  11    0.22    0.12
  -4 -11  11    0.16    0.20
  -4 -11  11   -0.04    0.14
   4 -11 -11   -0.02    0.16
  -6 -11 -11   -0.30    0.19
   6 -11  11   -0.13    0.22
  -6 -11 -11   -0.01    0.27
  -6 -11  11   -0.17    0.16
  -6 -11  11    0.72    0.29
  -6 -11  11    0.05    0.19
   6 -11 -11    0.00    0.21
  -6 -11  11    0.22    0.18
  -1 -12 -11    3.78    0.67
  -1 -12 -11    3.37    0.57
   1 -12  11    4.91    0.58
   1 -12  11    3.92    0.53
  -1 -12 -11    3.22    0.43
  -1 -12 -11    3.38    0.54
   1 -12  11    3.21    0.45
   1 -12 -11    1.89    0.65
   1 -12 -11    3.87    0.49
  -1 -12  11    3.77    0.46
  -1 -12  11    5.12    0.59
  -1 -12  11    3.36    0.55
  -3 -12 -11    2.88    0.57
   3 -12  11    3.29    0.60
   3 -12  11    2.51    0.54
  -3 -12 -11    3.09    0.54
   3 -12  11    3.15    0.60
  -3 -12  11    2.72    0.51
  -3 -12  11    1.90    0.43
   3 -12 -11    2.42    0.46
  -3 -12  11    3.31    0.46
   3 -12 -11    3.01    0.52
   5 -12  11    3.07    0.90
  -5 -12 -11    1.80    0.44
  -5 -12 -11    1.48    0.56
   5 -12  11    2.01    0.48
   5 -12  11    2.31    0.44
   5 -12 -11    1.95    0.41
  -5 -12  11    2.08    0.36
  -5 -12  11    1.63    0.42
  -5 -12  11    2.15    0.47
   5 -12 -11    1.92    0.47
  -5 -12  11    1.14    0.35
   0 -13  11   26.51    1.32
   0 -13 -11   24.78    1.51
   0 -13  11   26.03    1.42
   0 -13 -11   24.62    1.37
   0 -13  11   26.92    1.49
   0 -13 -11   24.08    1.30
  -2 -13 -11   23.49    1.35
   2 -13  11   25.12    1.29
  -2 -13 -11   22.17    1.44
   2 -13  11   24.10    1.42
   2 -13  11   24.11    1.42
  -2 -13  11   25.38    1.43
  -2 -13  11   22.31    1.31
  -2 -13  11   23.27    1.26
   2 -13 -11   24.26    1.28
   2 -13 -11   24.92    1.39
   4 -13  11   19.19    1.17
   4 -13  11   19.46    1.47
  -4 -13 -11   18.58    1.34
   4 -13 -11   19.47    1.25
  -4 -13  11   19.23    1.24
   4 -13 -11   17.88    1.09
  -4 -13  11   21.01    1.27
  -4 -13  11   18.87    1.18
   1 -14  11   19.33    1.14
  -1 -14 -11   16.71    1.16
   1 -14  11   17.31    1.25
  -1 -14 -11   16.43    1.09
  -1 -14  11   18.52    1.23
  -1 -14  11   15.11    1.03
  -1 -14  11   15.99    1.15
   1 -14 -11   19.05    1.13
   1 -14 -11   17.27    1.18
   3 -14  11   14.69    1.15
   3 -14  11   14.94    1.16
   3 -14  11   14.19    1.01
  -3 -14 -11   14.80    1.19
   3 -14 -11   13.89    1.09
  -3 -14  11   13.58    0.97
  -3 -14  11   15.22    1.17
   3 -14 -11   13.12    0.92
   0 -15  11   27.64    1.43
   0 -15  11   25.55    1.49
   0 -15  11   25.42    1.55
   0 -15 -11   26.86    1.67
   0 -15 -11   21.74    2.08
   0   0  12  243.23    5.51
   0   0  12  241.66    5.69
   0   0  12  245.33    5.88
   0   0 -12  238.65    5.55
   0   0 -12  251.01    5.81
  -2   0  12  211.99    4.69
  -2   0 -12  211.96    5.23
  -2   0 -12  227.55    5.32
  -2   0  12  223.40    5.63
   2   0 -12  225.52    5.38
  -2   0  12  225.07    5.24
  -2   0  12  212.01    4.95
   2   0  12  216.21    5.09
  -2   0 -12  224.56    5.09
  -2   0  12  213.33    4.69
   2   0  12  219.81    5.22
   2   0  12  220.07    5.45
   4   0  12  173.76    4.36
  -4   0  12  163.42    3.93
  -4   0  12  160.87    4.01
   4   0  12  170.36    4.46
  -4   0 -12  162.75    3.87
   4   0 -12  165.13    4.38
  -4   0 -12  171.65    4.10
   4   0 -12  165.63    4.10
   6   0  12  106.79    3.22
   6   0  12  104.27    3.21
   6   0 -12  105.37    3.03
   6   0 -12  111.99    3.32
   6   0  12  109.04    3.10
  -6   0 -12  109.49    3.00
   8   0  12   61.64    2.23
  -8   0 -12   60.04    2.09
   8   0  12   63.01    2.27
   8   0 -12   60.85    2.20
   8   0 -12   59.04    2.31
   1   1 -12   43.14    1.43
   1  -1  12   41.44    1.22
  -1   1  12   43.87    1.45
  -1  -1 -12   40.65    1.27
   1  -1  12   43.49    1.53
   1  -1  12   41.96    1.28
  -1   1  12   40.86    1.44
  -1  -1 -12   42.72    1.44
   1  -1  12   43.15    1.35
  -1  -1  12   41.21    1.17
  -1   1 -12   42.30    1.37
   1   1  12   41.68    1.04
   1   1  12   40.54    1.26
  -1  -1  12   40.90    1.33
  -1   1 -12   40.89    1.33
  -1  -1  12   41.08    1.22
   1   1  12   44.68    1.54
   1   1  12   41.08    1.56
   1  -1 -12   42.42    1.47
  -3  -1 -12   34.92    1.21
  -3   1  12   35.62    1.15
   3  -1  12   35.37    1.31
   3  -1  12   34.35    1.39
  -3  -1 -12   33.16    0.89
   3   1 -12   33.02    1.30
  -3   1  12   32.87    1.03
  -3  -1  12   33.88    1.16
  -3   1 -12   34.51    1.19
  -3   1 -12   34.35    0.86
   3   1  12   33.31    1.24
  -3   1 -12   33.54    1.04
   3   1  12   36.60    1.41
   3  -1 -12   35.50    1.37
   3   1  12   30.97    1.16
  -3  -1  12   33.19    1.01
  -3  -1  12   32.64    1.13
   5  -1  12   23.25    1.14
   5   1 -12   22.54    1.12
   5  -1  12   22.90    1.15
  -5   1  12   22.59    0.68
  -5  -1 -12   22.66    0.89
  -5  -1 -12   23.67    1.03
   5   1 -12   24.35    1.05
   5  -1 -12   22.42    0.94
   5   1  12   21.89    1.09
   5   1  12   21.73    1.11
  -5  -1  12   22.56    0.74
   5  -1 -12   23.84    1.17
   5   1  12   22.78    0.99
  -5   1 -12   23.34    0.91
  -5   1 -12   23.08    0.90
   7   1 -12   14.30    0.87
   7  -1  12   12.61    1.25
   7  -1  12   13.68    0.88
  -7  -1 -12   13.57    0.83
   7  -1  12   13.21    0.92
   7   1 -12   14.30    0.94
   7   1  12   12.79    0.83
   7   1  12   12.86    0.94
   7  -1 -12   13.21    0.92
   7  -1 -12   13.14    0.81
  -7   1 -12   14.12    0.77
   9   1 -12    7.80    0.74
   9  -1  12    6.42    0.65
  -9  -1 -12    7.54    0.69
   9  -1 -12    6.83    0.66
   9   1  12    6.46    0.68
   0   2 -12  123.49    3.09
   0  -2  12  120.24    2.86
   0   2  12  116.95    3.46
   0   2  12  121.94    3.21
   0   2 -12  118.68    3.05
   0  -2  12  116.34    3.01
   0  -2  12  119.73    3.00
   0  -2 -12  121.23    3.23
   0  -2  12  120.41    3.26
   0  -2 -12  119.41    2.82
   2  -2  12  115.89    3.31
   2   2 -12  114.15    2.97
   2  -2  12  109.75    3.12
  -2  -2 -12  103.40    2.82
  -2  -2 -12  111.02    2.93
  -2   2  12  114.45    2.89
   2   2  12  108.71    3.07
  -2  -2  12  107.55    2.63
   2   2  12  105.52    3.00
  -2  -2  12  112.01    2.95
  -2  -2  12  111.35    2.47
  -2   2 -12  109.18    2.80
  -2  -2  12  104.49    2.80
  -2  -2  12  105.88    2.45
  -2  -2  12  102.33    3.29
   2  -2 -12  113.11    3.08
   4  -2  12   83.61    2.51
  -4  -2 -12   77.67    2.07
   4   2 -12   79.17    2.45
   4   2 -12   82.76    2.47
  -4  -2 -12   80.69    2.39
  -4   2  12   74.55    2.18
   4  -2  12   83.01    2.56
  -4   2  12   78.24    2.07
  -4  -2  12   83.22    2.07
   4  -2 -12   77.23    2.49
  -4   2 -12   79.15    2.00
  -4  -2  12   83.88    2.18
   4   2  12   77.29    2.15
  -4   2 -12   82.87    2.20
   4   2  12   80.77    2.53
  -4  -2  12   83.39    2.74
  -4   2 -12   78.71    2.06
  -4  -2  12   77.14    1.92
   6  -2  12   51.62    1.97
   6  -2  12   50.25    1.93
   6   2 -12   52.23    1.86
   6   2 -12   49.50    1.90
  -6  -2 -12   53.57    1.87
  -6   2 -12   51.33    1.55
   6   2  12   49.54    1.72
   6  -2 -12   49.22    1.94
  -6  -2  12   52.39    1.46
   6  -2 -12   49.60    1.66
  -6  -2  12   47.30    1.28
   6   2  12   49.32    1.89
   8   2 -12   26.96    1.37
   8  -2  12   28.55    1.49
   8  -2  12   27.50    1.42
   8  -2  12   27.10    1.36
   8   2  12   27.54    1.36
   8  -2 -12   28.04    1.29
   8   2  12   27.02    1.33
   8  -2 -12   29.54    1.51
  -1  -3 -12   63.06    1.97
   1  -3  12   58.51    1.85
  -1  -3 -12   62.37    1.99
   1  -3  12   62.21    1.88
  -1   3  12   63.79    1.90
   1  -3  12   63.98    2.06
  -1  -3 -12   60.27    1.70
  -1  -3 -12   58.53    1.40
   1  -3 -12   62.13    1.98
  -1  -3  12   63.20    1.77
  -1   3 -12   61.90    1.75
  -1  -3  12   62.92    1.97
  -1  -3  12   61.18    1.84
   1   3  12   62.41    1.99
  -1  -3  12   60.22    1.65
   3   3 -12   51.53    1.70
   3  -3  12   49.42    1.73
  -3  -3 -12   48.18    1.40
  -3   3  12   46.22    1.46
   3  -3  12   54.01    1.88
  -3  -3 -12   49.56    1.70
  -3   3  12   49.16    1.50
  -3   3 -12   48.46    1.31
  -3  -3  12   48.06    1.40
   3  -3 -12   47.16    1.51
  -3  -3  12   50.87    1.61
  -3  -3  12   48.49    1.42
   3   3  12   49.56    1.32
  -3   3 -12   51.68    1.46
  -3  -3  12   51.22    1.81
   3   3  12   48.16    1.76
   3  -3 -12   49.87    1.78
   5   3 -12   33.45    1.40
  -5  -3 -12   33.75    1.41
   5   3 -12   34.03    1.41
   5  -3  12   35.62    1.51
  -5  -3 -12   33.57    1.24
   5  -3  12   34.74    1.50
  -5  -3  12   34.25    1.11
   5  -3 -12   32.94    1.47
   5   3  12   35.26    1.48
   5  -3 -12   34.18    1.15
  -5   3 -12   33.70    1.20
  -5  -3  12   32.93    1.05
  -5   3 -12   33.90    1.12
   5   3  12   33.31    1.21
  -7  -3 -12   19.51    1.11
   7   3 -12   20.10    1.14
   7  -3  12   19.85    1.14
   7  -3  12   18.83    1.16
   7   3  12   20.49    1.04
  -7  -3  12   23.10    1.45
   7  -3 -12   20.45    1.20
  -7  -3  12   19.21    0.76
   7   3  12   20.12    1.12
   7  -3 -12   20.43    0.98
   9  -3  12   11.05    0.87
   9   3 -12   11.52    0.92
  -9  -3 -12   10.91    0.90
   9  -3  12   10.40    0.91
   9  -3  12   13.30    1.46
   9   3  12    9.88    0.83
   9  -3 -12   15.97    1.55
  -9  -3  12   10.82    0.94
   9  -3 -12   11.53    0.85
   9   3  12    9.88    0.81
   0  -4 -12   58.59    1.47
   0  -4  12   60.07    1.98
   0   4  12   57.37    1.86
   0  -4 -12   58.57    1.51
   0  -4 -12   56.75    1.90
   0  -4  12   58.62    1.81
   0   4 -12   58.16    1.68
  -2  -4 -12   54.24    1.83
  -2  -4 -12   49.13    1.64
  -2   4  12   52.90    1.54
  -2  -4 -12   53.94    1.45
   2   4 -12   54.64    1.71
   2  -4  12   56.69    1.95
   2  -4  12   54.62    1.82
  -2  -4  12   53.57    1.61
  -2  -4  12   51.35    1.52
   2  -4 -12   55.27    1.88
  -2   4 -12   53.11    1.50
  -2  -4  12   54.69    1.80
  -2  -4  12   53.32    1.45
   2   4  12   54.55    1.86
  -4  -4 -12   39.00    1.57
  -4  -4 -12   38.82    1.35
   4  -4  12   42.66    1.64
  -4   4  12   40.39    1.25
   4   4 -12   41.40    1.52
   4  -4  12   42.77    1.69
   4  -4 -12   39.61    1.61
  -4   4 -12   38.38    1.28
  -4  -4  12   40.39    1.38
   4   4  12   39.75    1.59
  -4   4 -12   39.99    1.18
  -4  -4  12   41.53    1.36
   4  -4 -12   39.72    1.12
   4   4  12   40.27    1.24
  -4  -4  12   39.84    1.28
   6  -4  12   27.48    1.95
  -6  -4 -12   25.71    1.15
   6  -4  12   23.13    1.25
   6   4 -12   27.54    1.54
  -6  -4 -12   27.42    1.33
   6   4 -12   25.49    1.28
  -6  -4  12   25.41    0.98
   6   4  12   26.93    1.76
  -6  -4  12   24.98    1.22
   6  -4 -12   27.88    1.44
   6   4  12   25.36    1.09
   8   4 -12   14.19    1.01
   8  -4  12   14.16    1.06
  -8  -4 -12   14.74    1.04
   8  -4  12   14.85    1.00
  -8  -4  12   12.92    0.97
   8   4  12   14.18    0.97
   8   4  12   14.95    0.92
   8  -4 -12   15.11    1.04
   8  -4 -12   13.90    0.85
  -1  -5 -12   34.88    1.35
  -1   5  12   31.95    1.23
  -1  -5 -12   32.47    1.35
   1   5 -12   32.31    1.13
  -1   5  12   30.37    1.03
   1  -5  12   31.92    1.28
  -1  -5 -12   31.44    1.06
   1  -5  12   31.94    0.91
  -1  -5 -12   30.51    0.99
   1  -5  12   30.51    1.35
  -1  -5  12   31.23    0.85
   1   5  12   32.30    1.31
  -1  -5  12   33.02    1.22
  -1  -5  12   31.56    0.95
   1  -5 -12   32.60    1.34
  -1  -5  12   31.48    1.32
  -1   5 -12   32.86    1.03
  -3   5  12   23.71    1.03
  -3  -5 -12   26.74    1.01
  -3  -5 -12   26.75    1.24
  -3   5  12   25.36    0.99
   3  -5  12   26.96    1.30
   3   5 -12   28.87    1.13
   3  -5  12   26.78    1.23
   3   5  12   26.49    0.96
   3   5  12   26.29    1.22
  -3  -5  12   25.33    1.02
  -3   5 -12   25.22    0.93
  -3  -5  12   26.60    0.98
  -3   5 -12   26.30    0.82
  -3  -5  12   25.93    0.99
  -3  -5  12   27.35    1.14
   3  -5 -12   26.05    1.23
  -5  -5 -12   18.89    0.93
  -5  -5 -12   18.29    1.07
   5   5 -12   18.49    0.98
   5   5 -12   17.80    1.04
   5  -5  12   19.98    1.11
   5  -5  12   16.80    1.04
   5   5  12   17.65    1.03
  -5  -5  12   18.87    0.96
  -5  -5  12   17.54    0.92
   5  -5 -12   19.09    1.08
   5   5  12   18.75    0.82
  -5  -5  12   18.49    0.91
   7  -5  12   10.46    0.87
  -7  -5 -12   11.76    0.82
  -7  -5 -12   11.14    0.88
   7  -5  12   11.38    0.85
   7   5 -12   10.66    0.87
   7   5  12   10.49    0.81
   7   5  12   10.99    0.72
  -7  -5  12   10.96    0.65
  -7  -5  12   10.92    0.83
   7  -5 -12    9.87    0.83
  -7  -5  12   11.07    0.79
  -9  -5 -12    5.87    0.71
   9  -5  12    5.74    0.75
   9  -5  12    5.99    0.67
  -9  -5 -12    5.12    0.67
   9   5 -12    6.80    1.22
   9  -5  12    5.01    0.70
   9   5  12    5.87    0.66
  -9  -5  12    5.94    0.67
   9  -5 -12    5.51    0.70
   9   5  12    5.57    0.70
   0   6 -12    1.24    0.20
   0  -6  12    1.30    0.28
   0  -6  12    1.21    0.29
   0  -6 -12    1.25    0.21
   0  -6  12    1.25    0.16
   0  -6 -12    0.97    0.15
   0  -6 -12    1.34    0.30
   0  -6 -12    1.16    0.27
   0   6  12    1.04    0.25
   2  -6  12    1.29    0.30
   2   6 -12    0.78    0.20
  -2  -6 -12    0.74    0.17
  -2  -6 -12    1.45    0.33
  -2   6  12    1.23    0.23
  -2   6  12    0.63    0.18
   2  -6  12    1.25    0.26
   2  -6  12    1.20    0.30
  -2   6 -12    0.56    0.16
  -2   6 -12    1.03    0.13
   2  -6 -12    0.82    0.26
  -2  -6  12    1.29    0.16
  -2  -6  12    0.92    0.24
   2   6  12    1.32    0.29
  -2  -6  12    1.20    0.15
  -2  -6  12    1.37    0.20
   2  -6 -12    1.01    0.20
  -2  -6  12    1.07    0.23
  -4  -6 -12    0.67    0.24
  -4  -6 -12    1.06    0.25
   4  -6  12    0.84    0.27
   4  -6  12    0.98    0.30
   4  -6 -12    0.40    0.19
  -4  -6  12    0.72    0.20
   4   6  12    1.44    0.33
  -4  -6  12    1.05    0.24
  -4  -6  12    0.83    0.20
   6  -6  12    0.28    0.22
  -6  -6 -12    0.31    0.21
   6   6 -12    0.66    0.44
   6  -6  12    0.93    0.29
  -6  -6 -12    0.47    0.35
  -6  -6  12    0.41    0.20
  -6  -6  12    0.42    0.19
   6   6  12    0.57    0.26
   6   6  12    0.19    0.16
  -6  -6  12    0.32    0.15
  -6  -6  12    0.25    0.13
   6  -6 -12    0.35    0.21
   8  -6  12    0.17    0.23
  -8  -6 -12    0.70    0.32
   8   6 -12    0.49    0.27
  -8  -6 -12    0.40    0.25
   8  -6  12    0.02    0.22
  -8  -6  12   -0.21    0.15
   8  -6 -12    0.08    0.24
  -8  -6  12    0.01    0.15
   8  -6 -12   -0.02    0.18
   8   6  12    0.24    0.22
   8   6  12    0.67    0.29
  -8  -6  12   -0.03    0.21
   1  -7  12   41.92    1.32
   1  -7  12   43.24    1.64
  -1  -7 -12   40.36    1.38
  -1   7  12   43.03    1.54
  -1  -7 -12   40.20    1.34
   1  -7  12   41.45    1.70
  -1  -7 -12   41.91    1.62
  -1  -7 -12   41.13    1.70
  -1  -7  12   40.27    1.33
   1  -7 -12   41.64    1.25
  -1  -7  12   40.27    1.53
   1   7  12   40.00    1.57
   1  -7 -12   42.02    1.41
  -1  -7  12   42.49    1.66
   1  -7 -12   40.03    1.61
   1  -7 -12   40.55    1.11
  -3  -7 -12   35.88    1.36
   3  -7  12   39.10    1.66
   3  -7  12   36.55    1.58
  -3  -7 -12   35.66    1.59
   3  -7 -12   33.23    1.31
  -3  -7  12   34.21    1.16
  -3  -7  12   36.42    1.47
   3   7  12   35.95    1.52
  -3  -7  12   34.27    1.37
   3  -7 -12   34.44    1.51
  -3  -7  12   36.28    1.34
  -5  -7 -12   25.56    1.60
   5  -7  12   25.57    1.35
  -5  -7 -12   24.48    1.20
   5  -7  12   23.98    1.34
   5   7  12   25.58    1.29
  -5  -7  12   25.12    1.11
  -5  -7  12   23.55    1.10
  -5  -7  12   24.26    1.10
   5   7  12   24.38    0.98
   5  -7 -12   24.29    1.29
  -5  -7  12   24.12    1.16
  -7  -7 -12   15.70    1.11
   7  -7  12   16.62    1.09
   7   7 -12   14.70    1.09
  -7  -7 -12   15.26    1.04
   7  -7  12   15.75    1.13
  -7  -7  12   15.95    0.90
   7   7  12   14.23    0.85
  -7  -7  12   13.84    0.95
   7  -7 -12   15.11    1.03
  -7  -7  12   14.75    0.96
   7   7  12   13.87    0.98
   0   8  12    3.74    0.43
   0  -8  12    3.82    0.34
   0  -8 -12    4.15    0.48
   0  -8  12    3.53    0.47
   0  -8  12    3.96    0.46
   0  -8 -12    4.82    0.55
   0  -8 -12    3.58    0.37
   0  -8 -12    5.42    0.58
  -2  -8 -12    3.63    0.39
   2  -8  12    3.30    0.45
  -2  -8 -12    3.51    0.47
   2  -8  12    3.50    0.34
   2  -8  12    3.23    0.53
  -2  -8  12    3.52    0.45
  -2  -8  12    3.00    0.33
   2  -8 -12    3.55    0.45
   2   8  12    3.25    0.43
  -2  -8  12    3.07    0.21
  -2  -8  12    3.56    0.41
   2  -8 -12    3.72    0.39
   4  -8  12    2.42    0.47
  -4  -8 -12    2.30    0.41
  -4  -8 -12    2.83    0.63
   4  -8  12    2.63    0.49
   4   8  12    2.69    0.46
  -4  -8  12    3.00    0.39
   4  -8 -12    2.38    0.64
  -4  -8  12    2.56    0.34
  -4  -8  12    2.41    0.38
  -4  -8  12    2.27    0.29
  -6  -8 -12    1.60    0.40
  -6  -8 -12    1.26    0.34
   6  -8  12    2.09    0.46
   6  -8  12    2.12    0.47
   6   8  12    1.13    0.26
  -6  -8  12    1.64    0.33
   6  -8 -12    1.78    0.42
  -6  -8  12    1.44    0.31
  -6  -8  12    1.20    0.29
   6   8  12    1.35    0.35
  -6  -8  12    1.50    0.35
  -8  -8 -12    0.51    0.37
   8  -8  12    0.29    0.29
  -8  -8 -12    0.95    0.35
   8  -8  12    0.95    0.47
  -8  -8  12    0.86    0.29
  -8  -8  12    1.00    0.36
   8   8  12    0.20    0.24
   8   8  12    0.87    0.30
  -8  -8  12    1.25    0.35
   1  -9  12    9.94    0.62
  -1  -9 -12   10.05    0.75
   1  -9  12    9.17    0.73
   1  -9  12    9.69    0.79
  -1  -9 -12   10.48    0.68
  -1  -9 -12    9.58    0.80
   1   9  12   10.13    0.73
  -1  -9  12    9.14    0.75
   1  -9 -12    9.45    0.66
  -1  -9  12    8.80    0.70
  -1  -9  12   10.19    0.62
   1  -9 -12    9.68    0.75
   3  -9  12    8.33    0.76
  -3  -9 -12    8.82    0.66
  -3  -9 -12    7.66    0.74
   3  -9  12    8.34    0.60
   3  -9  12    7.63    0.72
   3  -9 -12    8.53    0.65
  -3  -9  12    7.82    0.66
  -3  -9  12    8.24    0.68
  -3  -9  12    8.77    0.47
   3   9  12    8.03    0.69
   3  -9 -12   10.28    1.18
  -3  -9  12    8.13    0.60
  -5  -9 -12    5.05    0.59
   5  -9  12    5.91    0.67
  -5  -9 -12    5.57    0.68
   5  -9  12    5.25    0.64
   5   9  12    5.42    0.60
  -5  -9  12    4.98    0.48
  -5  -9  12    6.39    0.61
   5  -9 -12    6.44    0.65
  -5  -9  12    4.83    0.54
  -7  -9 -12    3.54    0.61
  -7  -9 -12    2.30    0.58
   7  -9  12    3.28    0.61
   7  -9  12    2.94    0.63
  -7  -9  12    3.36    0.48
  -7  -9  12    3.95    0.52
  -7  -9  12    3.99    0.57
   7   9  12    2.71    0.60
   7  -9 -12    3.48    0.60
   7   9  12    4.16    0.75
   0 -10 -12   60.97    1.90
   0 -10 -12   58.68    2.35
   0 -10  12   61.20    1.99
   0 -10  12   57.76    2.19
   0 -10 -12   60.06    2.08
   0 -10  12   62.61    2.32
   0 -10 -12   62.96    2.25
   2 -10  12   58.26    2.27
  -2 -10 -12   56.66    2.30
   2 -10  12   59.27    2.25
  -2 -10 -12   54.30    2.00
   2 -10  12   58.82    1.95
   2 -10 -12   55.64    2.02
   2 -10 -12   54.42    2.10
  -2 -10  12   56.80    1.94
  -2 -10  12   58.06    2.11
   4 -10  12   42.66    1.94
   4 -10  12   44.21    1.69
  -4 -10 -12   43.78    1.80
  -4 -10 -12   40.22    1.95
   4 -10  12   47.21    2.03
  -4 -10  12   41.67    1.71
   4  10  12   42.15    1.84
   4 -10 -12   44.61    1.85
  -4 -10  12   44.19    1.86
   4 -10 -12   42.75    1.77
  -4 -10  12   41.48    1.43
  -4 -10  12   45.05    1.79
   6 -10  12   30.55    1.63
  -6 -10 -12   28.29    1.67
   6 -10  12   31.33    1.74
  -6 -10 -12   29.13    1.54
  -6 -10  12   29.70    1.36
  -6 -10  12   31.28    1.49
  -6 -10  12   31.06    1.54
   6 -10 -12   30.72    1.54
  -6 -10  12   32.33    1.38
   1 -11  12   23.91    1.37
  -1 -11 -12   27.00    1.49
   1 -11  12   24.80    1.17
   1 -11  12   24.45    1.34
  -1 -11 -12   25.08    1.32
  -1 -11 -12   25.27    1.25
  -1 -11  12   24.00    1.14
   1 -11 -12   24.90    1.25
  -1 -11  12   25.59    1.38
  -1 -11  12   25.76    1.33
   1 -11 -12   26.50    1.34
   3 -11  12   21.97    1.32
   3 -11  12   22.44    1.11
   3 -11  12   20.35    1.28
  -3 -11 -12   20.94    1.34
  -3 -11 -12   20.29    1.17
  -3 -11  12   21.18    1.11
  -3 -11  12   21.45    1.23
  -3 -11  12   20.52    1.17
   3 -11 -12   20.54    1.19
  -5 -11 -12   14.52    1.05
   5 -11  12   14.05    1.11
  -5 -11 -12   14.15    1.13
   5 -11  12   16.27    1.15
  -5 -11  12   16.70    1.05
  -5 -11  12   15.20    0.82
  -5 -11  12   15.33    1.01
  -5 -11  12   13.87    0.94
   5 -11 -12   15.64    1.03
   0 -12  12   58.27    2.32
   0 -12  12   56.19    2.23
   0 -12 -12   55.11    2.38
   0 -12 -12   55.54    2.16
   0 -12  12   58.90    2.05
  -2 -12 -12   50.81    2.28
  -2 -12 -12   52.97    2.09
   2 -12  12   52.82    2.25
   2 -12  12   49.78    1.92
   2 -12  12   53.86    2.23
   2 -12 -12   52.10    2.07
   2 -12 -12   55.33    2.11
  -2 -12  12   54.56    2.14
  -4 -12 -12   40.06    2.02
   4 -12  12   40.84    1.74
   4 -12  12   42.90    2.01
   4 -12  12   44.81    2.08
   4 -12 -12   43.09    1.84
  -4 -12  12   42.04    1.85
  -4 -12  12   41.54    1.78
  -4 -12  12   42.07    1.86
   4 -12 -12   40.78    1.84
  -1 -13 -12    8.60    0.87
  -1 -13 -12    9.26    0.80
  -1 -13 -12    8.65    0.79
   1 -13  12    8.57    0.71
   1 -13  12    8.62    0.85
   1 -13  12    9.37    0.85
  -1 -13  12    9.49    0.74
   1 -13 -12    9.59    0.83
  -1 -13  12    8.73    0.83
  -1 -13  12    7.87    0.76
   1 -13 -12    7.43    0.73
   3 -13  12    6.42    0.67
  -3 -13 -12    5.61    1.09
   3 -13  12    8.65    1.10
  -3 -13 -12    8.38    0.80
   3 -13 -12    6.77    0.73
  -3 -13  12    7.31    0.74
  -3 -13  12    6.72    0.65
   3 -13 -12    6.90    0.70
  -3 -13  12    7.85    0.78
   0 -14 -12   42.51    1.92
   0 -14  12   49.38    2.23
   0 -14 -12   45.41    2.03
   0 -14  12   48.62    2.16
   0 -14  12   47.24    1.90
  -2 -14 -12   42.17    2.14
   2 -14  12   42.65    2.08
  -2 -14 -12   44.53    1.99
   2 -14  12   45.89    2.11
   2 -14  12   43.69    1.85
  -2 -14 -12   42.40    1.83
  -2 -14  12   41.80    1.81
  -2 -14  12   43.08    1.99
   2 -14 -12   46.60    2.02
   2 -14 -12   43.89    1.99
  -2 -14  12   46.34    2.09
  -1   0 -13   22.70    0.89
  -1   0  13   23.02    1.00
   1   0 -13   23.09    1.00
  -1   0 -13   22.51    0.96
   1   0  13   23.70    1.07
   1   0  13   22.35    0.73
   1   0  13   20.83    0.84
  -1   0  13   22.44    0.94
  -1   0  13   22.31    0.67
   1   0  13   23.30    0.87
  -3   0 -13   18.30    0.76
  -3   0 -13   17.69    0.84
   3   0 -13   19.11    0.96
  -3   0  13   17.67    0.61
  -3   0  13   18.38    0.80
   3   0  13   17.93    0.75
   3   0  13   19.00    0.90
   3   0  13   19.24    1.01
   5   0 -13   13.25    0.86
  -5   0  13   11.99    0.49
  -5   0 -13   13.24    0.68
  -5   0 -13   12.47    0.59
   5   0  13   12.71    0.72
   5   0  13   11.45    0.81
   5   0  13   12.75    0.81
   7   0  13    6.60    0.60
   7   0  13    6.70    0.65
   7   0 -13    7.38    0.61
   7   0 -13    6.88    0.67
  -7   0 -13    7.69    0.59
   9   0 -13    3.11    0.55
   9   0  13    2.96    0.55
   9   0  13    2.72    0.47
   0  -1  13   22.25    0.78
   0   1 -13   23.14    0.96
   0  -1 -13   22.56    0.99
   0   1 -13   20.93    0.83
   0  -1  13   22.53    1.02
   0  -1 -13   22.00    0.76
   0   1  13   20.73    0.91
   0  -1  13   21.63    0.82
   0   1  13   21.69    0.99
   0  -1  13   22.00    0.81
  -2  -1 -13   19.31    0.91
   2  -1  13   20.59    1.02
   2  -1  13   18.93    0.69
   2   1 -13   19.52    0.93
  -2  -1 -13   19.82    0.83
  -2  -1  13   20.13    0.76
  -2  -1  13   21.01    0.93
  -2  -1  13   19.58    0.65
   2  -1 -13   20.42    0.98
   2   1  13   19.79    0.64
   2   1  13   18.75    0.83
  -2  -1  13   20.07    0.90
   2   1  13   20.10    1.00
  -2   1 -13   21.49    0.88
   2   1  13   20.11    0.85
   2   1  13   19.42    0.66
  -4  -1 -13   15.58    0.57
  -4  -1 -13   16.26    0.78
  -4  -1 -13   15.25    0.58
   4  -1  13   17.42    0.98
   4  -1  13   14.94    0.85
  -4   1  13   14.36    0.66
  -4   1  13   15.44    0.66
   4   1 -13   16.04    0.90
  -4   1 -13   15.43    0.55
   4   1  13   15.32    0.84
  -4  -1  13   15.20    0.66
   4   1  13   15.40    0.71
   4   1  13   15.91    0.94
  -4  -1  13   15.71    0.69
   4  -1 -13   15.02    0.90
   4  -1 -13   15.48    0.68
  -4   1 -13   16.28    0.65
  -4   1 -13   16.67    0.78
   6  -1  13    9.25    0.77
   6   1 -13    9.27    0.67
  -6  -1 -13   10.11    0.67
   6  -1  13    9.92    0.71
   6   1 -13    9.25    0.75
   6  -1  13   11.92    1.22
  -6   1 -13   11.89    0.69
   6  -1 -13   10.37    0.79
   6  -1 -13   10.26    0.65
   6   1  13   10.60    0.68
   8   1 -13    6.03    0.61
   8  -1  13    5.11    0.58
   8  -1  13    5.28    0.61
   8  -1  13    7.27    0.73
  -8  -1 -13    5.23    0.57
   8   1 -13    5.94    0.65
   8  -1 -13    6.60    0.71
   8   1  13    5.88    0.59
   8   1  13    5.26    0.60
   8  -1 -13    6.74    0.62
   1  -2  13   85.07    2.36
   1  -2  13   80.32    2.29
   1  -2  13   88.26    2.61
  -1   2  13   86.65    2.45
  -1  -2 -13   80.81    2.20
  -1  -2 -13   85.12    2.48
   1   2 -13   85.22    2.41
   1  -2  13   83.04    2.04
   1  -2 -13   82.35    2.50
  -1  -2  13   80.73    2.25
  -1   2 -13   83.38    2.89
  -1  -2  13   82.09    2.23
  -1  -2  13   87.90    2.52
   1   2  13   86.87    2.56
  -1  -2  13   91.16    2.31
   3  -2  13   73.43    2.23
  -3  -2 -13   66.77    1.65
  -3   2  13   66.20    1.82
   3  -2  13   70.82    2.33
  -3   2  13   70.33    1.99
  -3  -2 -13   71.40    2.67
  -3  -2 -13   70.54    1.61
   3   2 -13   70.22    2.19
   3   2  13   71.53    2.31
  -3   2 -13   76.83    2.27
  -3  -2  13   66.04    2.01
  -3  -2  13   67.82    1.75
  -3  -2  13   68.33    1.70
   3  -2 -13   72.24    2.30
  -3  -2  13   68.86    1.76
   3   2  13   67.01    1.78
  -3  -2  13   71.32    2.28
   5   2 -13   49.12    1.85
   5   2 -13   50.02    1.76
  -5  -2 -13   50.91    1.55
   5  -2  13   49.50    1.92
  -5  -2 -13   49.59    1.75
   5  -2  13   48.31    1.85
  -5  -2 -13   47.11    1.48
  -5   2 -13   48.66    1.55
   5  -2 -13   47.34    1.51
   5   2  13   52.36    1.88
   5  -2 -13   50.05    1.91
  -5   2 -13   49.92    1.92
   5   2  13   48.09    1.87
  -5  -2  13   47.43    1.41
   7  -2  13   29.51    1.48
   7   2 -13   29.74    1.38
   7  -2  13   27.70    1.60
   7   2 -13   30.34    1.45
   7  -2  13   28.29    1.42
  -7  -2 -13   28.48    1.34
   7  -2 -13   29.53    1.24
   7   2  13   27.28    1.26
   7   2  13   31.27    1.47
   7  -2 -13   28.93    1.47
   9   2 -13   16.52    1.11
  -9  -2 -13   16.08    1.07
   9  -2  13   15.76    1.10
   9   2  13   17.43    1.06
   9  -2 -13   15.85    1.00
   9  -2 -13   17.35    1.20
   0  -3  13  169.71    4.40
   0   3  13  168.04    4.31
   0  -3 -13  168.12    4.35
   0  -3  13  174.37    4.14
   0   3 -13  170.67    4.20
   0  -3 -13  162.14    3.81
   0  -3  13  160.42    4.14
  -2  -3 -13  159.04    4.02
  -2  -3 -13  155.54    4.04
  -2   3  13  150.35    3.57
  -2   3  13  154.48    3.89
   2   3 -13  154.34    3.95
   2  -3  13  152.11    3.99
   2  -3  13  156.59    4.20
   2   3  13  154.14    4.12
  -2  -3  13  145.90    4.07
  -2  -3  13  152.72    3.99
   2  -3 -13  156.73    4.14
  -2  -3  13  154.69    3.35
  -2  -3  13  158.49    3.71
  -2  -3  13  148.66    3.34
  -2   3 -13  153.23    3.75
  -4   3  13  118.01    2.93
  -4  -3 -13  121.43    3.31
   4   3 -13  118.65    3.31
   4  -3  13  120.44    3.48
  -4   3  13  103.44    2.99
   4  -3  13  118.88    3.39
  -4  -3 -13  114.61    2.86
  -4   3 -13  114.61    2.83
  -4  -3  13  117.33    2.96
  -4   3 -13  119.17    2.96
   4   3  13  113.92    3.39
  -4  -3  13  121.01    3.08
  -4  -3  13  119.54    2.86
   4   3  13  115.95    2.89
   4  -3 -13  112.08    3.38
   6  -3  13   73.76    2.60
  -6  -3 -13   74.13    2.28
   6   3 -13   75.39    2.50
   6   3 -13   74.31    2.52
   6  -3  13   75.66    2.61
  -6  -3 -13   81.31    2.55
  -6   3 -13   73.44    2.09
   6  -3 -13   77.16    2.66
  -6  -3  13   77.14    1.97
  -6  -3  13   72.88    1.84
   6   3  13   76.15    2.57
   6   3  13   76.13    2.29
   8  -3  13   41.75    1.95
  -8  -3 -13   43.47    1.85
  -8  -3 -13   43.48    1.75
   8   3 -13   45.55    1.91
   8  -3  13   41.79    1.88
   8   3  13   41.48    1.69
   8   3  13   44.23    1.87
  -8  -3  13   44.28    1.92
   8  -3 -13   44.79    1.97
  -1  -4 -13    6.28    0.39
   1  -4  13    6.16    0.49
   1  -4  13    5.65    0.53
   1   4 -13    6.66    0.46
  -1  -4 -13    5.68    0.49
  -1   4  13    6.16    0.49
  -1  -4 -13    6.09    0.53
  -1  -4  13    5.77    0.30
   1  -4 -13    7.09    0.56
   1   4  13    6.30    0.53
  -1   4 -13    6.14    0.40
  -1  -4  13    5.80    0.29
  -1  -4  13    6.96    0.55
  -1  -4  13    5.55    0.42
   3  -4  13    5.47    0.51
  -3  -4 -13    4.89    0.32
   3   4 -13    5.31    0.46
  -3   4  13    4.99    0.38
   3  -4  13    5.49    0.55
  -3  -4 -13    5.97    0.52
   3  -4 -13    6.00    0.56
  -3  -4  13    4.66    0.32
   3   4  13    5.65    0.30
   3   4  13    5.10    0.51
  -3  -4  13    5.04    0.37
  -3   4 -13    5.52    0.35
  -3  -4  13    4.55    0.43
   5  -4  13    4.14    0.50
   5   4 -13    2.88    0.45
   5  -4  13    4.09    0.50
  -5  -4 -13    4.08    0.48
  -5  -4 -13    3.43    0.36
  -5  -4  13    3.66    0.42
  -5  -4  13    3.87    0.38
  -5  -4  13    3.21    0.29
   5   4  13    3.27    0.46
   5   4  13    3.28    0.32
   5  -4 -13    4.03    0.50
  -5   4 -13    3.02    0.27
  -5   4 -13    3.46    0.70
  -5  -4  13    3.35    0.33
  -7  -4 -13    1.79    0.34
  -7  -4 -13    1.93    0.43
   7  -4  13    2.26    0.46
   7   4 -13    2.14    0.45
   7  -4  13    2.19    0.43
   7   4  13    2.40    0.48
   7  -4 -13    1.87    0.43
  -7  -4  13    2.12    0.29
   7   4  13    2.05    0.38
  -7  -4  13    1.95    0.41
   9   4 -13    1.21    0.44
  -9  -4 -13    0.82    0.33
   9  -4  13    1.01    0.34
  -9  -4 -13    0.24    0.31
   9  -4  13    0.97    0.52
   9  -4  13    1.54    0.47
   9  -4 -13    1.15    0.37
   9   4  13    0.95    0.39
   9   4  13    1.30    0.30
  -9  -4  13    1.03    0.37
   0   5  13    8.77    0.62
   0   5 -13    8.60    0.50
   0  -5 -13    8.72    0.39
   0  -5  13    9.10    0.68
   0  -5 -13    8.64    0.63
   0  -5 -13    8.63    0.40
   0  -5  13    8.43    0.58
  -2   5  13    8.33    0.47
  -2   5  13    8.44    0.55
  -2  -5 -13    8.09    0.42
   2   5 -13    8.56    0.56
  -2  -5 -13    8.08    0.63
   2  -5  13    7.61    0.66
   2  -5  13    7.50    0.59
   2  -5 -13    7.34    0.62
  -2  -5  13    7.04    0.40
  -2   5 -13    7.70    0.41
  -2  -5  13    7.31    0.39
  -2  -5  13    8.06    0.60
  -2  -5  13    8.15    0.56
   2   5  13    8.14    0.63
   4  -5  13    5.22    0.55
   4   5 -13    6.04    0.52
   4  -5  13    6.32    0.62
  -4  -5 -13    5.69    0.57
  -4  -5 -13    5.86    0.46
   4  -5 -13    6.42    0.60
  -4  -5  13    6.43    0.50
  -4  -5  13    5.54    0.42
  -4  -5  13    5.89    0.45
   4   5  13    5.96    0.58
  -4  -5  13    6.23    0.47
  -4   5 -13    5.04    0.49
   4   5  13    5.91    0.36
   6  -5  13    3.90    0.51
   6   5 -13    3.54    0.49
   6  -5  13    3.00    0.53
  -6  -5 -13    4.08    0.45
  -6  -5 -13    4.72    0.58
   6   5  13    3.45    0.47
   6  -5 -13    4.01    0.62
  -6  -5  13    4.16    0.46
  -6  -5  13    4.29    0.37
  -6  -5  13    3.88    0.33
  -6  -5  13    4.24    0.45
   6   5  13    3.03    0.36
   8   5 -13    2.57    0.51
  -8  -5 -13    1.53    0.39
   8  -5  13    2.05    0.46
  -8  -5 -13    1.98    0.44
   8  -5  13    1.98    0.51
  -8  -5  13    1.62    0.39
   8   5  13    2.34    0.47
  -8  -5  13    2.28    0.48
   8  -5 -13    1.38    0.42
   8   5  13    1.83    0.36
  -1  -6 -13   11.38    0.57
   1  -6  13   10.57    0.45
   1  -6  13   10.75    0.72
  -1  -6 -13   11.84    0.80
  -1   6  13   11.32    0.70
  -1  -6 -13   11.15    0.75
   1  -6  13   11.10    0.79
  -1  -6 -13   10.94    0.53
   1   6 -13   11.11    0.60
   1  -6 -13   12.71    0.82
   1  -6 -13   11.47    0.55
  -1  -6  13   10.65    0.48
   1   6  13    9.91    0.71
  -1  -6  13   10.73    0.75
  -1  -6  13   10.80    0.67
  -1   6 -13   11.31    0.52
   3   6 -13   10.02    0.64
   3  -6  13    8.55    0.70
  -3  -6 -13    9.74    0.56
  -3   6  13    9.70    0.59
  -3  -6 -13    9.35    0.73
   3  -6  13    8.34    0.73
  -3  -6  13    9.06    0.59
  -3  -6  13   10.10    0.69
  -3  -6  13    9.31    0.54
  -3  -6  13    9.45    0.52
   3   6  13    9.50    0.73
   3  -6 -13    9.56    0.75
  -3   6 -13    8.68    0.51
   5  -6  13    6.83    0.68
  -5  -6 -13    6.37    0.55
  -5  -6 -13    6.92    0.68
   5  -6  13    6.34    0.65
   5   6  13    6.23    0.61
  -5  -6  13    6.47    0.51
   5  -6 -13    7.13    0.67
   5   6  13    6.89    0.44
  -5  -6  13    5.90    0.48
  -5  -6  13    7.01    0.56
  -5  -6  13    6.49    0.54
  -7  -6 -13    3.15    0.58
   7   6 -13    4.10    0.67
   7  -6  13    4.54    0.60
  -7  -6 -13    3.49    0.50
   7  -6  13    3.83    0.63
  -7  -6  13    4.09    0.51
   7   6  13    4.15    0.56
   7   6  13    4.29    0.46
   7  -6 -13    4.26    0.66
  -7  -6  13    3.51    0.41
  -7  -6  13    4.02    0.53
   0   7 -13  187.16    4.54
   0  -7  13  197.78    4.57
   0  -7 -13  200.52    5.24
   0  -7 -13  186.79    4.48
   0  -7  13  202.46    5.06
   0  -7 -13  192.97    4.68
   0  -7  13  190.47    5.17
   0   7  13  194.88    5.01
   0  -7 -13  196.86    5.14
  -2   7  13  175.29    4.52
   2  -7  13  179.55    4.80
  -2  -7 -13  177.37    4.86
  -2  -7 -13  176.43    4.36
   2  -7  13  178.70    4.90
  -2  -7  13  177.84    4.57
   2   7  13  174.68    4.73
   2  -7 -13  176.04    4.78
   2  -7 -13  175.24    4.72
  -2  -7  13  175.55    3.97
  -2  -7  13  172.93    4.28
  -2  -7  13  184.27    4.77
   4  -7  13  138.59    4.14
  -4  -7 -13  137.88    3.74
  -4  -7 -13  137.27    4.10
  -4  -7  13  144.13    3.85
  -4  -7  13  141.15    3.59
  -4  -7  13  137.70    3.71
  -4  -7  13  137.62    3.70
   4   7  13  136.11    3.99
   4  -7 -13  138.36    4.06
  -6  -7 -13   90.97    3.18
  -6  -7 -13   91.62    2.92
   6  -7  13   94.00    3.17
   6  -7  13   93.40    3.22
   6   7  13   90.41    2.60
  -6  -7  13   91.10    2.82
  -6  -7  13   97.26    2.92
   6  -7 -13   90.41    3.09
   6   7  13   92.15    3.05
  -6  -7  13   90.15    2.61
  -8  -7 -13   55.21    2.21
   8  -7 -13   52.98    2.29
  -8  -7  13   57.02    2.22
   1  -8  13   14.15    0.96
   1  -8  13   13.39    0.88
  -1  -8 -13   13.45    0.72
  -1   8  13   14.14    0.84
   1  -8  13   13.61    0.66
  -1  -8 -13   13.80    0.90
  -1  -8 -13   13.57    0.94
  -1  -8  13   12.65    0.88
  -1  -8  13   14.11    0.85
  -1  -8  13   14.35    0.69
   1  -8 -13   13.65    0.89
   1  -8 -13   13.85    0.74
   1   8  13   14.45    0.89
  -3  -8 -13   12.43    0.74
   3  -8  13   10.08    0.84
  -3  -8 -13   11.12    1.05
   3  -8  13   12.13    1.22
   3  -8 -13   12.07    0.87
  -3  -8  13   12.64    0.84
  -3  -8  13   11.27    0.54
  -3  -8  13   11.55    0.68
  -3  -8  13   14.57    0.83
   3  -8 -13   11.40    0.71
   3   8  13   12.30    0.85
  -5  -8 -13    9.40    0.72
   5  -8  13    8.63    0.79
   5  -8  13    8.84    0.82
  -5  -8 -13    7.28    0.77
   5   8  13    8.83    0.77
  -5  -8  13    8.94    0.65
  -5  -8  13    9.25    0.67
  -5  -8  13    8.66    0.61
  -5  -8  13    7.82    0.65
   5  -8 -13    8.15    0.74
  -7  -8 -13    4.51    0.64
   7  -8  13    4.78    0.65
  -7  -8 -13    5.32    0.71
  -7  -8  13    5.49    0.62
  -7  -8  13    5.82    0.55
   7  -8 -13    5.21    0.67
   7   8  13    5.95    0.74
   0  -9 -13    1.55    0.35
   0  -9 -13    0.85    0.42
   0  -9 -13    1.53    0.30
   0  -9  13    2.05    0.25
   0  -9  13    2.29    0.44
   0  -9  13    1.74    0.63
   0   9  13    1.59    0.35
  -2  -9 -13    1.03    0.32
   2  -9  13    1.46    0.26
   2  -9  13    2.41    0.58
   2  -9  13    1.15    0.35
  -2  -9 -13    1.56    0.31
  -2  -9  13    1.40    0.34
   2  -9 -13    1.66    0.30
  -2  -9  13    0.54    0.22
   2  -9 -13    1.44    0.36
  -2  -9  13    1.15    0.24
   2   9  13    1.25    0.33
  -4  -9 -13    1.44    0.34
   4  -9  13    1.19    0.35
  -4  -9 -13    0.89    0.34
   4  -9  13    0.72    0.29
   4  -9 -13    1.25    0.35
  -4  -9  13    0.53    0.21
  -4  -9  13    0.86    0.27
  -4  -9  13    0.73    0.22
  -4  -9  13    0.76    0.18
   4   9  13    0.68    0.26
   6  -9  13    0.81    0.34
  -6  -9 -13    0.15    0.23
  -6  -9 -13    0.41    0.26
   6  -9  13    0.57    0.26
  -6  -9  13    0.73    0.26
  -6  -9  13    0.61    0.27
   6  -9 -13    0.73    0.26
  -6  -9  13    0.31    0.20
  -6  -9  13    0.25    0.24
   6   9  13    0.55    0.25
   1 -10  13    3.39    0.35
  -1 -10 -13    3.31    0.41
   1 -10  13    2.50    0.50
  -1 -10 -13    2.95    0.56
   1 -10  13    3.40    0.48
  -1 -10 -13    2.92    0.51
   1 -10 -13    2.59    0.43
  -1 -10  13    2.20    0.45
   1 -10 -13    2.54    0.46
  -1 -10  13    3.44    0.35
  -3 -10 -13    1.76    0.47
  -3 -10 -13    3.01    0.50
   3 -10  13    1.72    0.33
   3 -10  13    1.80    0.41
   3 -10  13    2.42    0.48
  -3 -10  13    3.62    0.56
   3 -10 -13    2.25    0.41
  -3 -10  13    1.97    0.36
   3 -10 -13    2.52    0.48
   3  10  13    2.80    0.51
  -3 -10  13    2.01    0.37
  -5 -10 -13    1.39    0.37
   5 -10  13    1.36    0.41
   5 -10  13    1.51    0.39
  -5 -10 -13    1.12    0.36
  -5 -10  13    1.41    0.36
  -5 -10  13    1.23    0.26
  -5 -10  13    1.60    0.37
   5  10  13    1.75    0.43
  -5 -10  13    1.59    0.36
   5 -10 -13    1.72    0.41
   0 -11  13   49.94    2.01
   0 -11 -13   47.45    1.96
   0 -11 -13   46.29    1.81
   0 -11  13   48.22    2.07
   0 -11  13   49.48    1.74
  -2 -11 -13   44.28    1.78
   2 -11  13   45.85    2.04
  -2 -11 -13   48.80    2.14
  -2 -11 -13   45.43    1.92
   2 -11  13   45.33    2.00
   2 -11  13   44.48    1.67
   2 -11 -13   43.70    1.78
  -2 -11  13   43.95    1.68
   2 -11 -13   45.27    1.91
  -2 -11  13   47.80    1.99
  -2 -11  13   44.83    1.87
  -4 -11 -13   37.37    1.66
  -4 -11 -13   35.26    1.86
   4 -11  13   37.65    1.85
   4 -11  13   35.89    1.81
  -4 -11  13   35.21    1.55
  -4 -11  13   38.20    1.69
   4 -11 -13   36.13    1.63
   4 -11 -13   35.40    1.68
  -4 -11  13   37.58    1.67
   1 -12  13   26.61    1.25
   1 -12  13   26.14    1.46
  -1 -12 -13   28.81    1.61
  -1 -12 -13   28.86    1.48
   1 -12  13   27.54    1.55
  -1 -12 -13   26.21    1.35
  -1 -12  13   28.37    1.46
  -1 -12  13   28.67    1.53
   1 -12 -13   27.00    1.36
   1 -12 -13   29.37    1.48
  -1 -12  13   26.92    1.26
   3 -12  13   21.83    1.41
   3 -12  13   24.78    1.44
  -3 -12 -13   24.27    1.51
   3 -12  13   22.90    1.17
  -3 -12  13   24.41    1.34
  -3 -12  13   24.09    1.37
   3 -12 -13   22.49    1.26
   3 -12 -13   23.02    1.30
   0 -13  13   10.23    0.77
   0 -13 -13    9.32    0.84
   0 -13  13    8.15    0.81
   0 -13  13   11.53    1.31
   0 -13 -13    9.81    0.80
   2 -13  13   11.37    1.21
   2 -13  13    8.16    0.84
  -2 -13 -13    9.77    1.01
  -2 -13 -13    9.02    0.81
  -2 -13 -13    8.96    0.94
   2 -13  13    8.72    0.71
   2 -13 -13    9.86    0.86
   2 -13 -13    8.82    0.81
  -2 -13  13    9.18    0.85
  -2 -13  13    9.37    0.75
  -2 -13  13    8.36    0.95
   1 -14  13    9.19    0.93
   1 -14  13    9.54    0.89
  -1 -14 -13    8.23    0.82
  -1 -14 -13    8.54    0.80
  -1 -14 -13    9.45    1.11
  -1 -14  13    9.01    0.85
   1 -14 -13    8.30    0.83
  -1 -14  13    8.27    0.86
  -1 -14  13    8.59    0.75
   1 -14 -13    8.22    0.79
   0   0  14    0.19    0.06
   0   0 -14    0.08    0.08
   0   0 -14    0.20    0.11
   0   0  14    0.15    0.12
   0   0  14    0.09    0.09
   2   0  14    0.02    0.12
   2   0  14    0.05    0.10
   2   0  14    0.03    0.07
   2   0 -14    0.06    0.13
  -2   0 -14    0.23    0.12
   4   0  14   -0.05    0.08
  -4   0  14   -0.16    0.07
  -4   0 -14   -0.10    0.09
   4   0 -14   -0.06    0.09
   4   0  14   -0.07    0.07
  -4   0 -14    0.18    0.10
   4   0  14   -0.10    0.09
  -4   0  14    0.06    0.10
  -6   0 -14    0.20    0.11
   6   0  14    0.07    0.13
   6   0  14    0.12    0.15
   6   0 -14   -0.06    0.17
   6   0  14   -0.12    0.14
   6   0 -14    0.67    0.23
   8   0 -14   -0.06    0.19
  -8   0 -14    0.16    0.19
   8   0 -14    0.12    0.18
   8   0  14    0.13    0.17
   8   0  14    0.17    0.19
  -1  -1 -14   50.90    1.71
  -1   1  14   50.70    1.71
   1  -1  14   48.04    1.43
  -1  -1 -14   47.14    1.52
   1  -1  14   47.47    1.53
   1  -1  14   47.91    1.41
   1  -1  14   51.98    1.83
   1   1 -14   54.10    1.73
  -1  -1  14   47.51    1.54
  -1  -1  14   52.57    1.75
  -1   1 -14   48.23    1.60
   1   1  14   50.11    1.79
  -1  -1  14   50.72    1.36
   1  -1 -14   52.14    1.76
  -1  -1  14   48.37    1.39
   1   1  14   48.22    1.81
  -1   1 -14   51.36    1.64
   3  -1  14   43.83    1.71
   3   1 -14   39.03    1.55
  -3  -1 -14   41.70    1.40
  -3   1  14   44.17    1.44
  -3   1  14   38.17    1.14
   3  -1  14   43.75    1.55
  -3  -1 -14   44.11    1.54
  -3  -1  14   42.39    1.44
  -3  -1  14   39.57    1.00
   3   1  14   42.71    1.68
   3  -1 -14   41.15    1.61
   3   1  14   44.72    1.52
  -3  -1  14   39.53    0.99
  -3   1 -14   42.27    1.44
  -5  -1 -14   31.56    1.21
   5  -1  14   31.85    1.56
   5   1 -14   27.84    1.39
   5  -1  14   28.54    1.34
  -5  -1  14   29.27    0.96
   5   1  14   29.35    1.15
  -5   1 -14   29.15    1.16
   5  -1 -14   28.90    1.09
   5   1  14   28.39    1.86
   7   1 -14   18.60    1.04
   7  -1  14   17.87    1.11
   7   1 -14   18.82    1.15
  -7  -1 -14   19.92    1.02
   7  -1  14   17.65    1.12
   7   1  14   19.26    1.15
   7  -1 -14   16.97    1.12
   7   1  14   18.24    0.99
   0  -2 -14   78.61    2.39
   0  -2 -14   73.50    1.92
   0  -2  14   79.15    2.13
   0  -2  14   71.91    2.08
   0   2 -14   76.92    2.24
   0   2  14   78.85    2.38
   0  -2  14   73.38    1.96
   0  -2  14   82.66    2.46
   2  -2  14   63.57    1.98
  -2   2  14   71.12    2.09
   2  -2  14   68.73    2.30
  -2  -2 -14   69.14    2.17
   2  -2  14   68.75    2.10
  -2  -2 -14   67.28    2.05
   2   2 -14   68.99    2.14
  -2   2 -14   72.59    2.02
   2  -2 -14   67.89    2.22
  -2  -2  14   64.18    1.97
  -2  -2  14   63.74    1.92
  -2  -2  14   68.82    2.13
  -2  -2  14   68.09    1.74
   2   2  14   69.74    2.28
   4  -2  14   51.77    1.98
  -4   2  14   48.55    1.51
   4   2 -14   52.09    1.87
  -4   2  14   52.82    1.56
  -4  -2 -14   52.35    1.75
   4  -2  14   51.00    1.86
   4   2  14   49.58    1.49
   4  -2 -14   52.90    1.95
  -4  -2  14   47.27    1.45
  -4   2 -14   53.20    1.64
   4   2  14   53.44    1.97
  -4  -2  14   52.66    1.70
   6  -2  14   34.44    1.60
   6  -2  14   33.96    1.57
   6   2 -14   34.74    1.56
   6   2 -14   33.66    1.44
  -6  -2 -14   34.83    1.44
   6  -2 -14   33.29    1.59
   6   2  14   35.17    1.34
  -6   2 -14   32.97    1.24
   6   2  14   34.05    1.56
   8   2 -14   18.55    1.13
   8  -2  14   19.23    1.23
  -8  -2 -14   19.02    1.10
   8  -2  14   19.67    1.21
   8   2  14   19.16    1.07
   8  -2 -14   21.36    1.29
   8   2  14   20.63    1.21
   1   3 -14    5.46    0.45
  -1   3  14    6.14    0.50
  -1  -3 -14    5.98    0.52
   1  -3  14    5.82    0.54
   1  -3  14    5.23    0.43
  -1  -3 -14    5.88    0.38
  -1  -3  14    5.44    0.39
  -1  -3  14    5.78    0.51
  -1  -3  14    5.90    0.45
   1   3  14    5.93    0.52
  -1   3 -14    4.66    0.39
  -1  -3  14    5.05    0.33
   1  -3 -14    5.75    0.52
   3  -3  14    4.72    0.47
  -3   3  14    4.92    0.40
   3  -3  14    4.97    0.53
  -3  -3 -14    4.64    0.45
  -3   3  14    5.14    0.32
   3   3 -14    4.96    0.47
  -3  -3  14    5.60    0.28
   3  -3 -14    5.12    0.52
  -3  -3  14    5.29    0.45
  -3  -3  14    4.29    0.35
  -3   3 -14    4.96    0.49
   3   3  14    4.35    0.22
   3   3  14    4.33    0.49
   5   3 -14    3.50    0.53
  -5  -3 -14    3.18    0.42
   5  -3  14    3.21    0.54
   5  -3  14    2.18    0.42
  -5   3 -14    2.84    0.31
  -5  -3  14    2.61    0.29
   5   3  14    3.37    0.46
   5  -3 -14    3.26    0.52
  -5  -3  14    2.56    0.22
   5   3  14    3.34    0.32
   7   3 -14    1.17    0.37
   7   3 -14    2.10    0.40
   7  -3  14    1.75    0.39
   7  -3  14    1.65    0.40
  -7  -3 -14    2.24    0.65
   7  -3 -14    3.03    0.55
   7   3  14    1.72    0.39
   7   3  14    1.85    0.36
  -7  -3  14    1.57    0.37
   0  -4 -14    4.03    0.44
   0  -4  14    4.07    0.46
   0  -4 -14    3.95    0.24
   0  -4  14    4.05    0.39
   0   4 -14    4.37    0.37
   0   4  14    4.36    0.44
   2  -4  14    4.36    0.49
  -2   4  14    3.51    0.36
   2   4 -14    4.60    0.42
  -2  -4 -14    4.35    0.45
   2  -4  14    3.54    0.41
  -2   4  14    3.63    0.23
  -2  -4 -14    3.83    0.43
  -2  -4  14    3.71    0.30
  -2  -4  14    3.99    0.42
   2   4  14    3.85    0.45
  -2  -4  14    3.81    0.34
  -2   4 -14    4.29    0.34
   2  -4 -14    3.97    0.46
  -4   4  14    3.12    0.30
   4  -4  14    3.41    0.47
   4   4 -14    3.03    0.39
   4  -4  14    2.79    0.45
  -4  -4 -14    3.57    0.44
  -4  -4  14    2.65    0.26
   4   4  14    2.56    0.44
   4  -4 -14    2.40    0.43
  -4  -4  14    3.36    0.29
  -4  -4  14    2.82    0.34
  -4   4 -14    2.97    0.28
   4   4  14    3.07    0.23
  -6  -4 -14    1.70    0.40
   6  -4  14    2.12    0.43
   6   4 -14    1.99    0.40
   6  -4  14    2.44    0.46
  -6  -4  14    2.55    0.30
  -6  -4  14    2.08    0.39
   6  -4 -14    2.37    0.47
   6   4  14    1.86    0.41
  -6  -4  14    1.78    0.21
   6   4  14    2.09    0.29
  -6  -4  14    2.32    0.31
  -8  -4 -14    0.60    0.34
   8   4 -14    1.70    0.41
   8  -4  14    0.77    0.31
   8  -4  14    1.58    0.41
   8   4  14    1.36    0.28
   8  -4 -14    0.75    0.48
  -8  -4  14    1.58    0.36
  -8  -4  14    1.17    0.32
   8   4  14    0.75    0.30
  -1  -5 -14  174.82    4.58
   1  -5  14  171.06    4.67
  -1   5  14  169.97    4.42
   1   5 -14  167.10    4.24
   1  -5  14  168.43    4.44
  -1  -5 -14  172.72    4.56
   1   5  14  170.31    4.55
  -1  -5  14  169.65    4.32
   1  -5 -14  170.55    4.58
  -1   5 -14  170.38    4.11
  -1  -5  14  173.52    4.60
  -3  -5 -14  146.92    4.03
   3   5 -14  142.04    3.82
  -3   5  14  127.80    3.62
  -3   5  14  143.50    3.70
   3  -5  14  143.46    4.02
   3  -5  14  139.95    4.13
  -3  -5  14  154.64    4.04
   3  -5 -14  138.76    4.05
  -3  -5  14  143.92    3.57
  -3  -5  14  147.46    3.91
  -3   5 -14  145.46    3.43
   3   5  14  144.24    4.07
  -3  -5  14  150.84    3.96
   5  -5  14  104.53    3.32
   5   5 -14  102.57    3.12
   5  -5  14  101.61    3.33
  -5  -5 -14  103.49    3.24
   5  -5 -14  108.55    3.36
  -5  -5  14  103.35    2.88
  -5  -5  14  104.01    3.00
   5   5  14  105.26    3.30
  -5  -5  14  104.66    2.99
  -5  -5  14  102.55    2.85
   5   5  14   99.45    2.64
   7  -5  14   63.54    2.50
  -7  -5 -14   60.35    2.37
   7  -5  14   63.20    2.45
  -7  -5  14   62.46    2.23
   7  -5 -14   65.29    2.50
   7   5  14   60.31    2.01
   7   5  14   62.16    2.38
   0  -6  14   16.58    0.91
   0  -6 -14   18.37    1.01
   0   6  14   17.34    0.94
   0  -6  14   17.48    1.02
   0   6 -14   14.92    0.97
  -2   6  14   14.81    0.81
  -2  -6 -14   16.02    0.94
  -2   6  14   13.65    0.72
   2  -6  14   17.45    0.98
   2   6 -14   15.58    0.79
  -2  -6 -14   16.43    0.98
   2  -6  14   16.39    1.03
  -2  -6  14   15.54    0.92
   2   6  14   14.90    0.93
  -2  -6  14   14.91    0.53
   2  -6 -14   15.37    0.96
  -2  -6  14   15.01    0.54
  -2  -6  14   16.67    0.84
   4   6 -14   11.77    0.76
   4  -6  14   11.50    0.89
  -4  -6 -14   11.33    0.84
  -4  -6  14   11.75    0.67
   4   6  14   11.40    0.85
   4  -6 -14   11.17    0.85
  -4  -6  14   11.89    0.76
  -4  -6  14   12.22    0.67
  -4  -6  14   13.31    0.93
   6  -6  14    8.54    0.78
   6  -6  14    7.65    0.78
  -6  -6 -14    8.04    0.77
   6   6  14    7.60    0.51
  -6  -6  14    8.07    0.67
  -6  -6  14    7.87    0.51
   6   6  14    8.20    0.75
  -6  -6  14    7.81    0.63
  -6  -6  14    7.47    0.52
   6  -6 -14    7.99    0.76
   8  -6  14    5.57    0.72
   8  -6  14    4.49    0.62
   8   6  14    5.21    0.65
   8  -6 -14    4.35    0.74
  -1  -7 -14   26.18    1.20
   1   7 -14   26.82    1.02
   1  -7  14   28.54    1.31
   1  -7  14   30.00    1.43
  -1  -7 -14   27.21    1.36
  -1   7  14   27.86    1.23
  -1  -7 -14   23.19    0.94
  -1  -7 -14   26.92    1.31
   1   7  14   26.30    1.26
   1  -7 -14   27.14    1.33
   1  -7 -14   27.15    1.00
  -1  -7  14   26.98    1.21
  -1  -7  14   28.77    1.36
   3  -7  14   21.43    1.27
  -3  -7 -14   23.27    1.27
   3  -7  14   24.89    1.29
   3   7  14   23.33    1.23
  -3  -7  14   23.20    0.93
   3  -7 -14   24.02    1.28
  -3  -7  14   23.78    1.18
  -3  -7  14   22.29    0.83
  -3  -7  14   24.03    1.08
  -5  -7 -14   15.26    1.06
   5  -7  14   17.24    1.14
   5  -7  14   17.27    1.14
   5   7  14   15.91    1.05
  -5  -7  14   16.48    0.87
  -5  -7  14   15.70    0.89
  -5  -7  14   17.22    0.88
   5  -7 -14   17.61    1.13
  -5  -7  14   16.70    0.91
  -7  -7 -14   11.38    0.97
   7  -7  14    9.07    1.44
   7  -7  14   10.35    0.91
  -7  -7  14   10.34    0.82
  -7  -7  14   11.19    0.83
   7  -7 -14    8.97    1.03
   0  -8  14   25.72    0.93
   0   8  14   26.05    1.25
   0  -8 -14   26.00    1.31
   0  -8  14   26.79    1.27
   2  -8  14   25.62    1.38
  -2  -8 -14   23.77    1.26
   2  -8  14   23.33    1.27
  -2  -8 -14   26.38    1.64
  -2  -8  14   24.92    1.16
  -2  -8  14   24.49    1.27
   2  -8 -14   22.95    1.26
   2  -8 -14   24.74    1.05
   2   8  14   23.05    1.23
  -2  -8  14   24.61    0.96
   4  -8  14   17.01    1.13
  -4  -8 -14   19.75    1.22
   4  -8  14   21.08    1.27
   4   8  14   18.61    1.14
  -4  -8  14   19.52    1.06
  -4  -8  14   20.37    1.01
  -4  -8  14   19.29    0.83
  -4  -8  14   18.16    0.92
   4  -8 -14   17.96    1.14
   6  -8  14   11.86    1.00
   6  -8  14   12.31    1.01
  -6  -8 -14   13.03    1.04
  -6  -8  14   12.00    0.87
  -6  -8  14   11.28    0.91
   6   8  14   12.46    0.96
  -6  -8  14   12.69    0.79
   6  -8 -14   13.62    1.01
  -6  -8  14   12.03    0.74
   1  -9  14   93.99    3.24
   1  -9  14  104.34    3.36
  -1  -9 -14  100.41    3.34
  -1  -9 -14  103.56    3.25
  -1  -9 -14   98.43    2.83
   1   9  14   99.79    3.15
   1  -9 -14  105.04    3.28
  -1  -9  14  105.51    3.14
  -1  -9  14  104.39    3.29
   1  -9 -14  102.18    2.87
  -1  -9  14   99.80    2.74
   3  -9  14   90.66    3.11
   3  -9  14   86.19    2.99
  -3  -9 -14   86.97    3.07
   3  -9 -14   85.08    2.94
   3  -9 -14   87.84    2.65
  -3  -9  14   88.10    2.88
  -3  -9  14   85.61    2.74
  -3  -9  14   86.47    2.53
   3   9  14   90.14    2.95
  -5  -9 -14   64.19    2.59
   5  -9  14   66.05    2.60
   5  -9  14   66.16    2.59
   5   9  14   62.41    2.43
   5  -9 -14   62.43    2.45
  -5  -9  14   65.95    2.21
  -5  -9  14   61.48    2.18
   0 -10  14    0.19    0.16
   0 -10 -14   -0.11    0.11
   0 -10 -14    0.29    0.20
   0 -10 -14    0.05    0.13
   0 -10  14    0.23    0.24
   0 -10  14    0.23    0.13
   2 -10  14    0.20    0.22
  -2 -10 -14    0.08    0.14
   2 -10  14   -0.07    0.18
   2 -10  14    0.05    0.13
  -2 -10 -14    0.43    0.19
  -2 -10 -14    0.09    0.17
   2  10  14    0.17    0.18
  -2 -10  14   -0.26    0.13
   2 -10 -14    0.12    0.15
   2 -10 -14   -0.05    0.14
  -2 -10  14   -0.01    0.15
  -4 -10 -14   -0.13    0.18
  -4 -10 -14   -0.01    0.20
   4 -10  14    0.25    0.25
   4 -10  14   -0.08    0.15
   4 -10 -14   -0.06    0.20
  -4 -10  14    0.17    0.16
  -4 -10  14   -0.11    0.17
  -4 -10  14    0.15    0.18
   4  10  14    0.12    0.16
  -6 -10 -14   -0.32    0.22
  -6 -10 -14    0.13    0.31
   6 -10  14    0.02    0.21
   6 -10  14   -0.01    0.25
  -6 -10  14    0.37    0.23
   6  10  14    0.05    0.19
   6 -10 -14    0.49    0.29
  -6 -10  14   -0.06    0.23
  -1 -11 -14    0.95    0.28
   1 -11  14    1.19    0.29
   1 -11  14    0.70    0.32
  -1 -11 -14    1.39    0.41
   1 -11  14    1.67    0.41
  -1 -11 -14    1.11    0.34
   1 -11 -14    0.99    0.26
  -1 -11  14    0.92    0.35
  -1 -11  14    1.61    0.38
  -1 -11  14    1.14    0.25
   1 -11 -14    2.04    0.44
   3 -11  14    1.08    0.39
   3 -11  14    1.15    0.29
   3 -11  14    1.05    0.37
  -3 -11 -14    1.21    0.41
   3 -11 -14    0.59    0.29
  -3 -11  14    1.23    0.34
  -3 -11  14    0.84    0.27
   3 -11 -14    1.22    0.34
  -3 -11  14    0.64    0.29
  -5 -11 -14    0.08    0.29
   5 -11  14    0.24    0.28
   5 -11  14    0.54    0.30
  -5 -11 -14    1.05    0.40
  -5 -11  14    0.45    0.26
   5 -11 -14    1.08    0.33
  -5 -11  14    0.72    0.31
  -5 -11  14   -0.03    0.24
   0 -12  14   28.52    1.27
   0 -12  14   31.97    1.65
   0 -12  14   30.32    1.55
   0 -12 -14   29.20    1.52
   0 -12 -14   28.95    1.40
   2 -12  14   28.17    1.54
   2 -12  14   25.69    1.20
  -2 -12 -14   21.91    1.72
  -2 -12  14   26.18    1.22
  -2 -12  14   25.80    1.46
  -2 -12  14   26.35    1.42
   2 -12 -14   27.82    1.47
   2 -12 -14   26.60    1.33
   4 -12  14   20.78    1.40
  -4 -12 -14   23.40    1.51
   4 -12  14   23.33    1.44
  -4 -12  14   19.90    1.14
  -4 -12  14   24.01    1.78
  -4 -12  14   24.15    1.47
   4 -12 -14   22.83    1.34
   1 -13  14    7.88    0.86
   1 -13  14    7.58    0.80
  -1 -13 -14    7.49    0.84
  -1 -13  14    7.86    0.98
   1 -13 -14    8.13    0.81
  -1 -13  14    7.27    0.82
   1   0 -15  257.18    6.05
   1   0  15  245.95    5.71
  -1   0 -15  252.61    5.97
  -1   0 -15  234.09    5.74
   1   0  15  228.69    5.70
  -1   0  15  247.71    6.03
   1   0  15  242.84    6.14
   3   0  15  202.75    4.81
   3   0  15  205.99    5.14
  -3   0 -15  212.59    5.14
   3   0  15  185.00    4.81
   3   0  15  212.90    5.46
   3   0 -15  206.55    5.31
  -3   0  15  214.46    5.07
  -5   0  15  144.66    3.51
   5   0 -15  147.11    4.20
  -5   0 -15  146.17    3.89
   5   0  15  144.37    3.81
   5   0  15  150.58    4.12
   5   0  15  145.89    4.23
   0  -1  15    4.29    0.47
   0   1 -15    4.09    0.42
   0  -1  15    4.26    0.32
   0   1  15    4.72    0.48
   0  -1 -15    4.54    0.32
   0  -1 -15    4.42    0.45
   0  -1  15    4.45    0.29
   0  -1  15    4.63    0.49
   2  -1  15    3.92    0.33
  -2  -1 -15    5.28    0.47
   2   1 -15    4.63    0.45
  -2   1  15    4.19    0.41
   2  -1  15    3.41    0.27
   2  -1  15    3.91    0.48
   2  -1  15    4.77    0.42
  -2  -1  15    3.96    0.30
   2   1  15    4.17    0.17
  -2   1 -15    3.88    0.38
   2   1  15    4.20    0.47
   2   1  15    4.47    0.26
   2  -1 -15    3.72    0.43
  -2  -1  15    3.68    0.39
  -4  -1 -15    3.36    0.40
   4   1 -15    2.84    0.46
  -4  -1 -15    2.93    0.33
   4  -1  15    3.32    0.42
   4  -1  15    2.97    0.60
   4   1  15    2.97    0.29
  -4   1 -15    3.32    0.37
   4  -1 -15    3.66    0.45
  -4  -1  15    3.23    0.33
  -4  -1  15    2.99    0.22
  -4  -1  15    3.48    0.28
   4   1  15    3.08    0.69
   6   1 -15    2.30    0.45
   6  -1  15    1.83    0.40
  -6  -1 -15    1.54    0.29
   6  -1  15    1.67    0.34
   6  -1  15    2.11    0.43
   6   1  15    2.20    0.43
   6  -1 -15    2.07    0.44
  -6   1 -15    1.89    0.33
   6   1  15    2.48    0.32
   8   1 -15    1.54    0.43
   8  -1  15    0.42    0.29
   8  -1  15    1.49    0.34
   8   1  15    0.94    0.34
   8  -1 -15    1.39    0.40
   8   1  15    1.13    0.34
  -1  -2 -15   23.26    1.09
   1  -2  15   24.34    1.19
   1  -2  15   22.52    0.96
  -1   2  15   23.00    1.07
  -1  -2 -15   21.72    0.96
   1  -2  15   22.23    0.70
   1   2 -15   22.61    1.03
   1  -2  15   22.11    0.90
  -1   2 -15   24.56    1.02
  -1  -2  15   22.59    1.03
  -1  -2  15   22.55    0.82
   1  -2 -15   23.25    1.12
  -1  -2  15   23.67    1.11
  -1  -2  15   21.39    1.17
   1   2  15   22.58    1.13
   3   2 -15   20.87    1.05
   3  -2  15   19.78    1.12
  -3   2  15   19.27    0.89
  -3  -2 -15   19.90    0.94
   3  -2  15   18.98    0.98
  -3  -2 -15   20.65    1.03
   3   2  15   21.31    0.73
   3   2  15   19.98    0.69
  -3  -2  15   21.49    0.98
   3  -2 -15   18.41    1.05
  -3   2 -15   19.68    0.88
   3   2  15   21.00    1.13
   5  -2  15   14.74    1.00
   5  -2  15   13.52    1.34
   5   2 -15   13.41    0.89
  -5  -2 -15   13.62    0.80
  -5   2  15   13.32    0.56
   5  -2 -15   13.82    0.94
   5   2  15   13.79    0.95
  -5  -2  15   13.50    0.64
  -5   2 -15   13.31    0.71
  -5  -2  15   13.71    0.65
   7   2 -15    8.50    0.76
   7  -2  15    8.02    0.77
   7  -2  15    7.25    0.73
   7   2 -15    9.83    0.81
  -7  -2 -15    8.67    0.71
   7  -2  15    8.27    0.70
   7   2  15    9.31    0.66
   7  -2 -15    8.64    0.81
   7   2  15    7.73    0.74
   0  -3 -15    8.73    0.66
   0  -3  15    8.38    0.41
   0   3 -15    8.79    0.57
   0  -3  15    8.56    0.61
   0  -3  15    9.02    0.70
   0   3  15    9.51    0.67
  -2   3  15    8.71    0.59
   2   3 -15    8.55    0.61
   2  -3  15    7.51    0.66
  -2  -3 -15    8.62    0.61
   2  -3  15    8.68    0.62
  -2  -3 -15    7.84    0.62
  -2  -3  15    7.76    0.50
  -2  -3  15    9.36    0.66
  -2   3 -15    7.60    0.51
   2  -3 -15    8.04    0.66
  -2  -3  15    8.21    0.44
   2   3  15    8.47    0.68
  -4  -3 -15    6.24    0.54
   4  -3  15    6.91    0.65
   4   3 -15    5.95    0.56
  -4   3  15    6.18    0.43
   4  -3  15    5.99    0.59
  -4  -3  15    5.87    0.47
   4   3  15    7.12    0.65
   4  -3 -15    7.12    0.65
  -4   3 -15    6.15    0.44
  -4  -3  15    6.46    0.33
   4   3  15    6.07    0.32
   6   3 -15    4.61    0.54
   6  -3  15    3.68    0.59
   6  -3  15    4.88    0.58
  -6  -3 -15    2.64    0.45
   6  -3 -15    3.24    0.57
   6   3  15    4.69    0.56
   6   3  15    3.50    0.36
  -6  -3  15    4.13    0.40
   8  -3  15    2.42    0.64
   8  -3  15    1.67    0.40
  -8  -3 -15    1.80    0.41
   8   3 -15    1.76    0.39
   8  -3  15    2.28    0.52
   8   3  15    2.07    0.38
  -8  -3  15    2.14    0.38
  -8  -3  15    2.59    0.53
   8   3  15    1.99    0.45
   8  -3 -15    2.11    0.49
   1  -4  15   96.31    2.77
  -1  -4 -15   93.59    2.89
   1  -4  15   96.10    3.02
  -1   4  15   94.41    2.81
   1   4 -15   96.09    2.71
  -1  -4  15   94.03    2.92
  -1   4 -15  101.50    2.63
   1  -4 -15   95.46    2.94
  -1  -4  15   94.47    2.24
   1   4  15   97.13    2.94
   3  -4  15   78.87    3.60
   3  -4  15   81.75    2.61
  -3   4  15   79.30    2.34
  -3  -4 -15   85.05    2.62
  -3  -4 -15   82.22    2.57
   3   4 -15   81.46    2.50
  -3  -4  15   71.19    1.85
  -3   4 -15   89.68    2.54
  -3  -4  15   80.98    1.85
   3  -4 -15   83.84    3.10
  -3  -4  15   80.57    2.49
  -3  -4  15   77.37    2.14
   3   4  15   81.67    2.80
   5  -4  15   59.81    2.30
   5  -4  15   59.46    2.23
   5   4 -15   58.87    2.12
   5  -4 -15   57.61    2.25
  -5  -4  15   58.04    1.81
   5   4  15   57.91    2.22
  -5  -4  15   58.91    2.00
   5   4  15   55.69    1.61
  -7  -4 -15   35.03    1.62
   7  -4  15   34.49    1.74
   7  -4  15   35.48    1.74
  -7  -4  15   34.40    1.45
   7   4  15   34.30    1.69
   7   4  15   36.16    1.54
   7  -4 -15   40.32    1.85
  -7  -4  15   36.95    1.64
   0   5 -15    1.03    0.22
   0  -5  15    1.04    0.29
   0  -5 -15    1.34    0.33
   0   5  15    1.21    0.29
   0  -5  15    1.04    0.25
   2  -5  15    0.64    0.23
  -2  -5 -15    0.83    0.26
   2  -5  15    1.56    0.36
  -2   5  15    1.16    0.25
   2   5 -15    1.32    0.27
  -2  -5 -15    1.35    0.28
  -2  -5  15    1.23    0.17
  -2  -5  15    0.70    0.23
  -2  -5  15    0.89    0.22
  -2   5 -15    1.29    0.21
   2  -5 -15    0.94    0.29
   2   5  15    1.12    0.30
  -2  -5  15    1.63    0.28
  -4  -5 -15    0.75    0.26
   4   5 -15    0.64    0.25
   4  -5  15    0.37    0.24
   4   5  15    0.65    0.27
   4  -5 -15    0.82    0.29
  -4  -5  15    0.47    0.16
  -4  -5  15    0.99    0.18
  -4  -5  15    0.75    0.17
  -4  -5  15    0.77    0.22
   6  -5  15    0.37    0.22
  -6  -5 -15    0.14    0.19
   6  -5  15    0.43    0.26
  -6  -5 -15    0.65    0.26
   6  -5 -15    0.42    0.24
   6   5  15    0.24    0.20
  -6  -5  15    0.75    0.23
  -1  -6 -15    6.21    0.60
   1  -6  15    5.97    0.64
   1  -6  15    6.21    0.55
   1   6 -15    5.99    0.46
  -1   6  15    6.06    0.53
  -1  -6  15    6.07    0.51
  -1  -6  15    5.27    0.56
  -1   6 -15    5.65    0.39
   1   6  15    6.49    0.59
   3  -6  15    5.20    0.57
   3   6 -15    5.72    0.51
  -3   6  15    5.80    0.48
  -3  -6 -15    6.40    0.62
   3  -6  15    5.58    0.62
  -3  -6  15    5.36    0.45
   3  -6 -15    5.21    0.58
   3   6  15    5.42    0.58
  -3  -6  15    4.53    0.48
  -3  -6  15    5.02    0.36
  -3  -6  15    5.24    0.54
   5  -6  15    3.24    0.58
   5  -6  15    4.46    0.57
  -5  -6 -15    4.00    0.52
   5   6  15    3.72    0.58
   5  -6 -15    4.40    0.57
  -5  -6  15    2.94    0.40
  -5  -6  15    4.00    0.39
  -5  -6  15    3.63    0.36
  -5  -6  15    2.87    0.38
   7  -6  15    2.14    0.52
  -7  -6 -15    2.01    0.45
  -7  -6  15    2.74    0.48
   7  -6 -15    1.90    0.45
  -7  -6  15    2.19    0.42
   7   6  15    1.55    0.44
   0   7 -15    8.57    0.50
   0   7  15    9.18    0.71
   0  -7  15   10.37    0.73
   0  -7 -15   10.04    0.78
   2   7 -15    9.03    0.60
  -2   7  15    9.35    0.66
   2  -7  15    7.90    0.76
   2  -7  15    9.31    0.74
  -2  -7 -15    9.55    0.76
  -2  -7 -15    9.24    0.83
   2  -7 -15    9.48    0.78
  -2  -7  15    8.46    0.71
  -2  -7  15    8.49    0.62
   2   7  15    9.26    0.74
   4  -7  15    8.15    0.78
   4  -7  15    7.88    0.75
  -4  -7 -15    7.17    0.70
  -4  -7  15    7.26    0.56
  -4  -7  15    6.41    0.58
   4  -7 -15    5.26    0.61
  -4  -7  15    6.72    0.48
  -4  -7  15    7.47    0.48
   4   7  15    6.73    0.67
   6  -7  15    4.64    0.63
   6  -7  15    3.63    0.62
  -6  -7 -15    4.94    0.64
   6  -7 -15    4.05    0.68
  -6  -7  15    4.30    0.52
   6   7  15    4.94    0.61
  -6  -7  15    4.01    0.50
  -1   8  15    0.91    0.29
   1  -8  15    0.93    0.31
   1  -8  15    1.00    0.31
  -1  -8 -15    0.62    0.25
  -1  -8 -15    1.27    0.39
   1   8  15    1.99    0.40
  -1  -8  15    1.19    0.37
   1  -8 -15    0.93    0.31
  -1  -8  15    0.88    0.17
  -1  -8  15    0.90    0.25
   3  -8  15    0.85    0.28
   3  -8  15    1.49    0.41
  -3  -8 -15    0.63    0.26
  -3  -8  15    0.78    0.27
   3  -8 -15    1.08    0.30
  -3  -8  15    0.93    0.26
   3   8  15    1.35    0.33
  -3  -8  15    0.98    0.20
  -5  -8 -15    0.92    0.31
   5  -8  15    0.75    0.35
   5  -8  15    0.57    0.30
  -5  -8  15    0.40    0.19
  -5  -8  15    0.36    0.20
   5  -8 -15    1.17    0.35
  -5  -8  15    0.92    0.27
   5   8  15    0.32    0.20
   0  -9 -15    0.32    0.20
   0  -9  15    0.25    0.11
   0  -9  15    0.07    0.19
   0   9  15    0.36    0.18
   0  -9 -15    0.11    0.12
   0  -9  15    0.13    0.16
  -2  -9 -15    0.03    0.15
   2  -9  15    0.58    0.27
   2  -9  15    0.19    0.16
  -2  -9 -15   -0.08    0.13
  -2  -9 -15    0.08    0.20
   2   9  15    0.45    0.22
  -2  -9  15    0.52    0.16
  -2  -9  15    0.17    0.22
   2  -9 -15   -0.11    0.18
   2  -9 -15    0.04    0.13
   4  -9  15    0.13    0.21
  -4  -9 -15    0.06    0.20
   4  -9  15   -0.17    0.16
  -4  -9 -15   -0.15    0.18
  -4  -9  15    0.14    0.16
   4  -9 -15    0.12    0.22
  -4  -9  15    0.39    0.24
   4   9  15   -0.06    0.15
  -4  -9  15    0.44    0.20
   6  -9  15    0.61    0.29
  -6  -9 -15    0.11    0.28
   6  -9  15   -0.18    0.23
   6   9  15   -0.02    0.22
   6  -9 -15    0.11    0.25
   1 -10  15   77.63    2.63
  -1 -10 -15   72.89    2.80
  -1 -10 -15   74.47    2.70
   1 -10  15   76.66    2.82
   1 -10  15   76.54    2.70
  -1 -10  15   74.74    2.59
   1 -10 -15   76.58    2.72
  -1 -10  15   73.56    2.72
   3 -10  15   65.08    2.59
   3 -10  15   65.45    2.53
  -3 -10 -15   63.38    2.58
  -3 -10 -15   62.60    2.43
  -3 -10  15   60.83    2.02
   3 -10 -15   64.88    2.48
  -3 -10  15   63.52    2.40
   3  10  15   63.59    2.44
  -3 -10  15   67.73    2.32
  -5 -10 -15   48.64    2.23
   5 -10  15   50.27    2.24
   5 -10  15   48.60    2.21
  -5 -10  15   47.03    1.85
  -5 -10  15   45.51    1.87
   5 -10 -15   45.97    2.08
   5  10  15   48.00    2.10
   0 -11 -15    6.21    0.67
   0 -11  15    5.70    0.65
   0 -11  15    5.27    0.66
   2 -11  15    4.88    0.63
   2 -11  15    5.43    0.72
  -2 -11 -15    5.93    0.69
  -2 -11 -15    6.15    0.73
  -2 -11  15    4.90    0.63
   2 -11 -15    5.88    0.68
  -2 -11  15    5.43    0.62
   4 -11  15    4.21    0.71
   4 -11  15    3.23    0.60
  -4 -11 -15    5.23    0.84
   4 -11 -15    4.12    0.67
  -4 -11  15    4.15    0.58
  -4 -11  15    4.60    0.60
  -1 -12 -15   16.70    1.14
   1 -12  15   17.36    1.22
   1 -12 -15   15.37    1.11
  -1 -12  15   16.86    1.12
  -1 -12  15   17.85    1.52
   0   0  16    0.19    0.16
   0   0 -16    0.54    0.20
   2   0  16    0.45    0.22
   2   0  16    0.42    0.10
  -2   0 -16    0.74    0.23
   2   0  16    0.26    0.07
   2   0 -16    0.23    0.16
   2   0  16    0.51    0.17
  -2   0  16    0.12    0.13
   4   0  16    0.01    0.14
   4   0  16    0.22    0.19
   4   0  16    0.09    0.11
  -4   0 -16    0.11    0.12
  -4   0  16    0.27    0.12
   4   0 -16    0.69    0.25
   6   0 -16    0.16    0.18
   6   0  16    0.01    0.21
   6   0  16   -0.04    0.14
  -6   0 -16   -0.05    0.16
   8   0 -16    0.37    0.27
   8   0  16   -0.01    0.25
   8   0  16    0.49    0.23
   1  -1  16    4.62    0.47
  -1   1  16    4.52    0.46
  -1  -1 -16    5.25    0.50
   1  -1  16    3.93    0.28
   1  -1  16    5.07    0.53
  -1  -1 -16    4.63    0.43
   1  -1  16    3.34    0.29
   1   1 -16    4.60    0.46
  -1  -1  16    4.04    0.26
  -1   1 -16    4.19    0.42
   1  -1 -16    4.24    0.46
   1   1  16    3.96    0.47
  -1  -1  16    4.12    0.46
  -1  -1  16    3.35    0.24
   3   1 -16    4.05    0.46
  -3   1  16    3.36    0.36
   3  -1  16    3.40    0.40
  -3  -1 -16    3.58    0.40
   3  -1  16    2.40    0.55
  -3   1 -16    3.56    0.39
   3   1  16    2.79    0.20
   3   1  16    3.69    0.67
  -3  -1  16    3.50    0.38
   3  -1 -16    3.16    0.60
   5   1 -16    2.78    0.48
  -5  -1 -16    2.52    0.41
  -5   1  16    2.30    0.25
   5  -1  16    1.82    0.37
   5  -1  16    1.70    0.30
   5  -1  16    2.45    0.48
  -5  -1  16    3.07    0.28
  -5  -1  16    1.89    0.27
  -5   1 -16    2.29    0.35
   5   1  16    1.80    0.42
   5  -1 -16    2.69    0.47
   5   1  16    2.50    0.30
   7  -1  16    1.64    0.38
   7   1 -16    1.31    0.36
   7  -1  16    1.39    0.41
   7   1  16    1.26    0.32
   7  -1 -16    1.63    0.47
   7   1  16    0.94    0.34
  -7   1 -16    0.66    0.27
   0  -2  16  123.67    3.47
   0  -2  16  116.78    2.99
   0  -2  16  109.81    2.80
   0  -2  16  101.68    3.18
   0   2 -16  120.62    3.22
   0  -2 -16  119.94    3.37
   0   2  16  119.53    3.39
  -2  -2 -16  111.88    3.20
   2   2 -16  113.01    3.19
   2  -2  16  106.71    3.05
  -2   2  16  109.83    3.10
   2  -2  16  108.97    3.37
  -2  -2  16  105.97    2.54
   2   2  16  109.89    3.34
  -2   2 -16  113.19    3.03
   2  -2 -16  111.02    3.29
  -2  -2  16  109.85    3.18
  -4   2  16   84.69    2.39
   4  -2  16   82.98    2.71
  -4  -2 -16   86.90    2.54
   4  -2  16   85.51    2.92
  -4  -2 -16   85.65    2.68
   4   2 -16   89.38    2.79
   4   2  16   83.19    2.86
   4  -2 -16   86.62    2.85
  -4  -2  16   84.74    2.47
  -4   2 -16   83.11    2.44
   4   2  16   88.65    2.34
   6  -2  16   56.49    2.21
   6  -2  16   56.45    2.04
   6   2 -16   55.46    2.17
   6  -2  16   55.53    2.26
   6   2  16   57.22    2.26
   6  -2 -16   56.76    2.27
   1  -3  16   16.25    0.84
   1   3 -16   15.72    0.85
  -1   3  16   17.76    0.95
   1  -3  16   18.16    1.05
  -1  -3 -16   16.42    0.96
  -1  -3  16   15.23    0.65
  -1  -3  16   18.11    1.00
  -1  -3  16   18.07    0.76
   1   3  16   16.93    0.99
  -1   3 -16   18.67    0.86
   1  -3 -16   17.21    0.99
   3  -3  16   14.84    0.88
   3  -3  16   13.80    0.96
  -3  -3 -16   14.19    0.88
   3   3 -16   13.64    0.85
  -3  -3 -16   14.23    0.81
  -3   3  16   13.71    0.75
  -3   3 -16   13.51    0.70
   3   3  16   13.66    0.93
  -3  -3  16   13.22    0.80
  -3  -3  16   13.10    0.47
   3  -3 -16   13.85    0.93
   5  -3  16    9.62    0.78
   5  -3  16    9.99    0.85
   5   3 -16   10.17    0.78
  -5  -3 -16    9.33    0.70
   5   3  16   10.14    0.84
  -5  -3  16    9.33    0.65
  -5  -3  16   10.32    0.60
   5  -3 -16   10.70    0.85
   7  -3  16    5.49    0.61
   7   3 -16    5.73    1.12
  -7  -3 -16    5.15    0.63
   7  -3  16    6.29    0.70
   7  -3  16    6.56    0.83
   7  -3 -16    6.56    1.12
  -7  -3  16    5.65    0.63
   7   3  16    5.18    1.07
   0  -4 -16    1.82    0.37
   0  -4  16    1.33    0.26
   0   4 -16    2.09    0.32
   0  -4  16    1.94    0.41
   0   4  16    2.07    0.38
  -2  -4 -16    1.32    0.38
   2  -4  16    1.50    0.33
  -2   4  16    2.13    0.37
   2   4 -16    1.99    0.35
  -2  -4 -16    1.47    0.33
   2  -4  16    1.41    0.35
  -2  -4  16    1.07    0.21
  -2  -4  16    1.29    0.18
   2   4  16    1.66    0.54
  -2  -4  16    1.61    0.34
   2  -4 -16    1.22    0.32
  -2   4 -16    1.28    0.25
   4  -4  16    1.26    0.34
  -4  -4 -16    0.93    0.28
   4   4 -16    0.88    0.26
  -4  -4 -16    0.84    0.27
  -4   4  16    0.88    0.23
   4  -4  16    1.28    0.38
  -4  -4  16    1.09    0.22
   4   4  16    1.17    0.31
  -4  -4  16    1.72    0.31
   4  -4 -16    1.16    0.33
   6  -4  16    0.76    0.30
   6  -4  16    0.61    0.28
  -6  -4 -16    1.16    0.31
   6   4 -16    0.85    0.28
  -6  -4  16    0.80    0.21
   6  -4 -16    1.05    0.34
   6   4  16    0.66    0.27
   1   5 -16   67.80    2.03
   1  -5  16   57.11    2.58
  -1  -5 -16   61.94    2.23
  -1   5  16   65.91    2.17
   1  -5  16   60.01    2.08
  -1  -5  16   63.79    2.26
  -1  -5  16   64.07    1.98
   1   5  16   64.63    2.37
   1  -5 -16   60.37    2.24
  -1   5 -16   63.77    1.88
  -3  -5 -16   54.12    2.05
   3  -5  16   54.81    2.20
   3  -5  16   52.73    2.02
  -3  -5 -16   56.25    2.05
   3   5 -16   52.53    1.89
  -3   5  16   56.38    1.83
  -3  -5  16   52.41    1.59
  -3  -5  16   55.97    1.98
   3   5  16   53.50    2.11
   3  -5 -16   55.15    2.14
  -5  -5 -16   38.25    1.68
   5   5 -16   39.78    1.66
   5  -5  16   39.63    1.85
   5  -5  16   37.93    1.77
  -5  -5  16   40.84    1.53
   5  -5 -16   39.39    1.82
   5   5  16   39.15    1.80
  -5  -5  16   39.76    1.45
   7  -5  16   26.03    1.51
  -7  -5 -16   25.30    1.39
   7  -5  16   25.47    1.50
  -7  -5  16   27.19    1.36
   7  -5 -16   26.28    1.53
   7   5  16   23.93    1.41
   0  -6  16   33.99    1.38
   0  -6  16   32.97    1.54
   0  -6 -16   32.85    1.51
   0   6  16   29.29    1.44
   0   6 -16   32.77    1.19
   2  -6  16   31.94    1.57
  -2  -6 -16   29.83    1.43
  -2   6  16   31.29    1.32
   2   6 -16   30.88    1.25
  -2  -6 -16   28.85    1.43
   2  -6  16   30.91    1.42
  -2  -6  16   30.72    1.43
  -2  -6  16   30.63    1.23
   2   6  16   30.54    1.47
   2  -6 -16   31.79    1.51
  -4  -6 -16   24.36    1.30
   4   6 -16   24.54    1.18
   4  -6  16   22.03    1.34
   4  -6  16   22.84    1.28
  -4  -6  16   23.14    0.96
  -4  -6  16   23.62    0.97
   4   6  16   23.03    1.31
   4  -6 -16   23.04    1.32
  -4  -6  16   23.96    1.15
  -6  -6 -16   17.15    1.13
   6  -6  16   16.81    1.57
   6  -6  16   16.43    1.17
  -6  -6  16   16.49    0.95
  -1  -7 -16   40.58    1.75
   1  -7  16   39.76    1.65
   1  -7  16   40.23    1.82
   1   7 -16   41.76    1.41
   1  -7 -16   38.24    1.73
  -1  -7  16   38.76    1.56
   1   7  16   40.59    1.71
  -1  -7  16   43.01    1.81
   3  -7  16   34.99    1.71
   3  -7  16   33.78    1.59
  -3  -7 -16   32.01    1.54
  -3  -7 -16   33.28    1.59
   3   7  16   32.31    1.57
  -3  -7  16   32.60    1.32
   3  -7 -16   34.67    1.64
  -3  -7  16   32.38    1.52
  -5  -7 -16   25.86    1.41
   5  -7  16   24.05    1.44
   5  -7  16   23.09    1.39
  -5  -7  16   24.23    1.30
   5   7  16   23.05    1.35
  -5  -7  16   21.87    1.10
   5  -7 -16   23.60    1.39
   0   8  16   31.26    1.44
   0  -8  16   27.08    1.60
   0  -8 -16   29.46    1.48
   0  -8  16   31.97    1.57
  -2  -8 -16   27.67    1.44
   2  -8  16   27.97    1.52
   2  -8  16   27.43    1.41
  -2  -8 -16   27.30    1.46
   2   8  16   28.06    1.43
  -2  -8  16   28.28    1.27
  -2  -8  16   28.51    1.44
   2  -8 -16   29.27    1.49
   4  -8  16   21.21    1.31
  -4  -8 -16   20.35    1.29
   4  -8  16   21.02    1.33
   4   8  16   22.86    1.32
   4  -8 -16   20.73    1.29
  -4  -8  16   22.37    1.06
  -4  -8  16   22.32    1.18
   1  -9  16   25.26    1.43
  -1  -9 -16   23.17    1.32
   1  -9  16   24.29    1.30
   1   9  16   23.94    1.30
  -1  -9  16   23.73    1.23
  -1  -9  16   24.13    1.36
   1  -9 -16   23.22    1.33
  -3  -9 -16   20.02    1.30
  -3  -9 -16   18.92    1.19
   3  -9  16   19.39    1.29
   3  -9  16   18.92    1.22
  -3  -9  16   20.39    1.19
   3  -9 -16   19.68    1.23
  -3  -9  16   20.27    1.06
   3   9  16   20.76    1.23
  -5  -9 -16   12.75    1.15
   5  -9  16   14.34    1.15
   5  -9  16   15.08    1.13
  -5  -9  16   13.14    0.91
   5  -9 -16   13.40    1.06
   5   9  16   14.62    1.08
   0 -10 -16    0.67    0.26
   0 -10  16    0.64    0.26
   0 -10  16    0.54    0.30
   2 -10  16    0.19    0.23
  -2 -10 -16    0.50    0.29
  -2 -10 -16    0.84    0.33
   2 -10  16    0.70    0.33
  -2 -10  16    0.42    0.26
   2  10  16    1.16    0.35
  -2 -10  16    0.44    0.22
   2 -10 -16    0.09    0.20
  -4 -10 -16    0.39    0.25
   4 -10  16   -0.10    0.24
   4 -10  16    0.36    0.31
  -4 -10 -16    0.14    0.23
  -4 -10  16    0.27    0.23
   4  10  16    0.49    0.28
  -4 -10  16    0.82    0.26
   4 -10 -16    0.25    0.26
   1 -11  16    3.58    0.60
  -1 -11 -16    3.48    0.59
   1 -11  16    3.56    0.64
  -1 -11  16    2.08    0.59
  -1 -11  16    3.43    0.57
   1 -11 -16    3.76    0.63
   3 -11  16    2.42    0.56
  -3 -11 -16    2.55    0.52
   3 -11  16    2.63    0.58
  -3 -11 -16    2.47    0.59
   3 -11 -16    3.23    0.58
  -3 -11  16    3.28    0.54
  -1   0 -17    1.58    0.34
   1   0  17    0.79    0.28
   3   0  17   -0.14    0.13
   3   0 -17    0.26    0.14
  -3   0  17    0.08    0.13
  -3   0 -17    0.03    0.13
   5   0  17    0.09    0.13
   5   0 -17    0.35    0.21
   5   0  17    0.01    0.12
  -7   0 -17   -0.33    0.21
   7   0  17    0.33    0.28
   7   0 -17   -0.18    0.18
   0  -1 -17    0.66    0.22
   0  -1  17    0.38    0.11
   0   1  17    0.14    0.15
   0  -1  17    0.74    0.23
   0   1 -17    0.26    0.14
  -2  -1 -17    0.20    0.18
   2  -1  17    0.07    0.14
  -2   1  17    0.01    0.13
   2   1 -17    0.18    0.14
  -2   1 -17   -0.05    0.10
  -2  -1  17    0.05    0.12
   2   1  17    0.58    0.23
   2  -1 -17    0.66    0.24
   4   1 -17    0.12    0.17
   4  -1  17    0.16    0.18
   4  -1  17   -0.11    0.12
   4  -1  17    0.29    0.14
  -4   1  17    0.00    0.12
  -4  -1  17   -0.09    0.12
  -4   1 -17    0.38    0.17
   4   1  17    0.22    0.20
   4  -1 -17    0.37    0.19
  -6  -1 -17   -0.06    0.17
   6  -1  17    0.14    0.20
  -6  -1 -17    0.16    0.22
   6  -1  17   -0.20    0.16
   6   1 -17   -0.16    0.16
   6  -1  17    0.03    0.14
   6   1  17    0.12    0.19
   6  -1 -17    0.35    0.24
  -6   1 -17    0.01    0.17
   1   2 -17   51.46    1.85
   1  -2  17   51.83    1.70
  -1   2  17   52.39    1.91
  -1  -2 -17   54.75    1.96
  -1  -2  17   52.60    1.96
  -1   2 -17   54.19    1.81
   1   2  17   53.11    2.24
  -1  -2  17   51.90    1.48
   3  -2  17   43.39    1.68
  -3   2  17   46.45    1.62
   3  -2  17   45.41    1.94
   3   2 -17   45.55    1.77
  -3  -2  17   46.77    1.68
   3  -2 -17   43.15    1.82
  -3   2 -17   45.69    1.59
   3   2  17   42.53    1.85
   5  -2  17   31.42    1.62
   5   2 -17   31.51    1.52
  -5  -2 -17   32.99    1.45
   5  -2  17   32.94    1.53
  -5   2 -17   32.60    1.27
   5   2  17   32.65    1.61
  -5  -2  17   30.47    1.13
   5  -2 -17   30.65    1.56
   7  -2  17   18.12    1.09
   7   2 -17   20.65    1.26
   7  -2  17   20.74    1.32
   7  -2  17   17.74    1.20
   7   2  17   19.90    1.27
   7  -2 -17   20.54    1.32
   0  -3  17   60.99    2.22
   0  -3 -17   63.17    2.21
   0   3  17   56.89    2.12
   0   3 -17   61.09    1.98
   0  -3  17   59.78    1.85
  -2   3  17   55.16    1.92
   2  -3  17   56.56    1.93
   2  -3  17   55.20    2.17
  -2  -3 -17   54.61    2.02
   2   3 -17   54.55    1.94
   2   3  17   55.03    2.12
  -2   3 -17   53.18    1.77
   2  -3 -17   56.39    2.11
  -2  -3  17   58.08    2.04
  -4  -3 -17   44.99    1.66
  -4   3  17   42.75    1.46
   4   3 -17   42.55    1.74
   4  -3  17   40.84    1.73
   4  -3  17   45.48    1.97
  -4  -3 -17   44.15    1.76
   4  -3 -17   41.17    1.83
  -4  -3  17   43.13    1.57
   4   3  17   40.40    1.84
   6  -3  17   31.79    1.59
   6  -3  17   28.88    1.59
   6   3 -17   30.04    1.50
  -6  -3  17   29.00    1.40
   6  -3 -17   32.61    1.74
   6   3  17   28.99    1.59
   1  -4  17   11.50    0.73
   1  -4  17   12.05    0.90
  -1   4  17   11.82    0.79
  -1  -4 -17   12.02    0.84
   1   4 -17   12.73    0.76
  -1  -4  17   11.17    0.64
  -1  -4  17   11.71    0.85
   1   4  17   11.05    0.82
   1  -4 -17   11.32    0.84
  -1   4 -17   12.02    0.68
   3  -4  17   10.09    0.84
  -3  -4 -17    9.21    0.70
   3  -4  17   10.32    0.77
  -3  -4 -17   10.08    0.77
   3   4 -17    9.57    0.72
  -3   4  17    9.94    0.66
   3  -4 -17   10.87    0.84
   3   4  17   10.55    0.84
  -3  -4  17   10.42    0.57
  -3  -4  17    9.90    0.71
  -5  -4 -17    7.50    0.70
  -5  -4 -17    7.40    0.68
   5  -4  17    7.04    0.69
   5  -4  17    8.02    0.80
   5   4 -17    6.93    0.68
  -5  -4  17    6.51    0.51
   5  -4 -17    7.57    0.76
   5   4  17    8.44    0.78
   0  -5  17   24.45    1.12
   0  -5  17   26.75    1.38
   0   5 -17   24.57    1.06
   0   5  17   26.34    1.29
   0  -5 -17   27.19    1.36
  -2  -5 -17   26.02    1.30
   2  -5  17   23.71    1.34
   2  -5  17   24.26    1.19
   2   5 -17   23.31    1.11
  -2   5  17   22.15    1.10
   2  -5 -17   24.06    1.30
  -2  -5  17   20.98    1.54
  -2  -5  17   23.51    0.97
   2   5  17   22.86    1.27
   4  -5  17   19.95    1.17
  -4  -5 -17   18.16    1.09
   4  -5  17   16.72    1.16
   4   5 -17   18.59    1.05
  -4  -5 -17   18.15    1.07
  -4  -5  17   18.76    0.99
   4   5  17   18.24    1.17
   4  -5 -17   17.94    1.16
  -4  -5  17   17.39    0.82
  -6  -5 -17   11.74    0.91
   6  -5  17   12.62    1.05
  -6  -5  17   11.70    0.81
   6  -5 -17   11.60    0.98
   6   5  17   12.90    1.01
   1  -6  17   17.67    1.00
  -1   6  17   18.15    1.02
   1   6 -17   16.97    0.86
   1  -6  17   16.73    1.11
  -1  -6 -17   18.00    1.10
   1   6  17   17.81    1.07
   1  -6 -17   17.68    1.10
  -1  -6  17   17.83    1.09
  -1  -6  17   17.07    0.89
  -3  -6 -17   16.03    1.03
   3  -6  17   12.83    0.92
  -3  -6 -17   14.95    0.98
   3   6 -17   14.87    0.87
  -3   6  17   14.81    0.84
   3  -6  17   14.36    1.07
   3   6  17   14.79    1.03
  -3  -6  17   14.04    0.74
  -3  -6  17   14.14    0.93
   3  -6 -17   12.27    0.95
   5  -6  17   12.72    1.34
   5  -6  17   10.00    0.89
   5  -6 -17   11.41    1.12
   0  -7  17   77.66    2.52
   0  -7 -17   80.94    2.77
   0  -7  17   75.54    2.75
   0   7  17   76.75    2.62
   2  -7  17   69.78    2.49
  -2   7  17   73.78    2.39
  -2  -7 -17   70.66    2.57
   2  -7  17   74.09    2.72
   2   7 -17   68.94    2.20
  -2  -7 -17   73.10    2.60
   2  -7 -17   69.73    2.60
  -2  -7  17   70.69    2.53
  -2  -7  17   70.27    2.26
   2   7  17   72.74    2.59
   4  -7  17   56.61    2.28
   4  -7  17   55.43    2.37
  -4  -7 -17   55.79    2.23
   4   7  17   56.70    2.28
   4  -7 -17   56.62    2.31
  -4  -7  17   54.57    2.04
   1  -8  17   18.84    1.09
  -1  -8 -17   17.22    1.12
  -1   8  17   17.07    1.01
   1  -8  17   17.58    1.18
   1   8  17   16.66    1.07
  -1  -8  17   16.07    1.01
   1  -8 -17   17.41    1.14
  -1  -8  17   16.39    1.10
   3  -8  17   15.67    1.14
  -3  -8 -17   14.25    1.06
   3  -8  17   14.96    1.07
  -3  -8 -17   14.27    1.03
   3   8  17   16.28    1.10
  -3  -8  17   15.19    1.01
   3  -8 -17   13.01    1.00
  -3  -8  17   15.61    0.87
   5  -8  17   11.16    0.98
   5  -8  17   10.60    0.98
   5   8  17    9.23    0.89
   5  -8 -17   11.04    0.96
   0  -9 -17   23.06    1.33
   0  -9  17   22.77    1.36
   0  -9  17   21.81    1.21
   0   9  17   21.68    1.23
   2  -9  17   19.33    1.30
  -2  -9 -17   19.19    1.27
   2  -9  17   19.90    1.22
  -2  -9 -17   22.05    1.71
   2  -9 -17   20.05    1.33
   2   9  17   18.61    1.19
  -2  -9  17   20.79    1.25
  -2  -9  17   21.66    1.13
   4  -9  17   14.40    1.12
  -4  -9 -17   17.98    1.18
  -4  -9 -17   16.60    1.24
   4   9  17   15.95    1.12
  -4  -9  17   15.60    1.03
   4  -9 -17   15.47    1.14
  -1 -10 -17    0.16    0.19
   1 -10  17    0.47    0.27
   1 -10  17    0.02    0.22
  -1 -10  17    0.69    0.34
   1 -10 -17    0.33    0.25
  -1 -10  17    0.16    0.23
  -3 -10 -17    0.16    0.27
   3 -10  17    0.36    0.27
  -3 -10 -17    0.42    0.26
   3 -10  17   -0.06    0.22
   3  10  17    0.14    0.24
   3 -10 -17   -0.16    0.21
  -3 -10  17   -0.05    0.25
   0 -11 -17   23.31    1.40
   0 -11  17   20.65    1.36
   0   0  18  111.97    3.43
   2   0 -18  103.83    3.18
  -2   0  18  105.52    3.10
   2   0  18  103.11    3.31
  -2   0 -18  100.20    3.05
   4   0  18   80.31    2.89
   4   0 -18   81.39    2.79
  -4   0 -18   82.99    2.58
   6   0  18   52.56    2.27
  -6   0 -18   53.20    1.93
   6   0 -18   55.62    2.28
  -1   1  18   19.12    1.06
   1  -1  18   19.25    0.84
   1  -1  18   19.43    1.14
  -1  -1 -18   18.91    1.06
  -1  -1  18   19.37    1.11
  -1   1 -18   20.17    1.02
   1   1  18   19.59    1.14
   1  -1 -18   17.78    1.04
   3  -1  18   17.91    0.94
  -3   1  18   16.99    0.91
   3  -1  18   14.49    0.72
   3   1 -18   17.49    1.05
   3  -1  18   17.23    1.11
  -3  -1 -18   16.97    0.97
   3   1  18   16.65    1.09
  -3   1 -18   14.94    0.87
  -3  -1  18   17.53    0.93
   3  -1 -18   17.10    1.06
   5   1 -18   13.44    0.98
  -5  -1 -18   12.30    0.83
   5  -1  18   13.24    1.01
   5   1  18   11.86    0.96
  -5   1 -18   12.27    0.78
   5  -1 -18   12.08    0.95
   0   2 -18   22.95    1.10
   0  -2 -18   20.32    1.13
   0  -2  18   21.91    1.22
   0   2  18   23.71    1.23
   0  -2  18   21.86    1.00
  -2  -2 -18   19.27    1.08
   2  -2  18   19.49    0.98
   2  -2  18   21.30    1.24
  -2   2  18   18.99    1.02
   2   2 -18   19.99    1.08
  -2   2 -18   19.06    0.96
   2  -2 -18   22.15    1.20
   2   2  18   20.30    1.20
  -2  -2  18   20.83    1.09
  -4   2  18   13.85    0.77
   4  -2  18   15.62    1.11
  -4  -2 -18   16.09    0.98
   4   2 -18   17.19    1.04
   4  -2  18   15.51    0.96
  -4   2 -18   16.77    0.85
   4  -2 -18   15.83    1.06
  -4  -2  18   14.89    0.84
   4   2  18   16.16    1.09
   6   2 -18   10.52    0.87
  -6  -2 -18   11.19    0.85
   6  -2  18   11.54    0.93
   6  -2  18   12.44    1.01
   6  -2 -18   10.53    0.91
   6   2  18   11.32    0.95
  -1  -3 -18    5.77    0.58
   1  -3  18    5.87    0.64
   1  -3  18    5.51    0.47
   1   3 -18    6.02    0.55
  -1  -3  18    5.67    0.38
   1  -3 -18    6.39    0.62
   1   3  18    5.92    0.61
  -1  -3  18    5.52    0.59
  -1   3 -18    6.10    0.52
  -3  -3 -18    5.62    0.57
   3  -3  18    4.66    0.61
   3   3 -18    5.77    0.56
  -3   3  18    4.52    0.46
   3  -3  18    5.07    0.58
   3  -3 -18    5.43    0.59
  -3  -3  18    5.98    0.56
   3   3  18    4.66    0.59
  -3   3 -18    5.28    0.47
  -5  -3 -18    3.37    0.53
   5  -3  18    3.49    0.63
   5  -3  18    2.88    0.50
   5   3 -18    4.26    0.55
   5   3  18    3.76    0.62
   5  -3 -18    5.11    0.60
   0   4  18   62.06    2.30
   0  -4  18   65.41    2.04
   0   4 -18   65.94    2.10
   0  -4 -18   66.56    2.38
   0  -4  18   66.84    2.43
  -2   4  18   61.72    2.17
   2   4 -18   62.26    2.12
  -2  -4 -18   60.95    2.25
   2  -4  18   61.28    2.39
  -2   4 -18   62.08    1.92
   2   4  18   63.88    2.36
   2  -4 -18   61.67    2.33
  -2  -4  18   62.06    2.23
  -2  -4  18   58.27    1.91
   4  -4  18   48.01    1.95
   4  -4  18   47.61    2.14
   4   4 -18   50.38    1.93
  -4   4  18   47.36    1.63
  -4  -4 -18   45.21    1.92
   4   4  18   50.58    2.11
  -4  -4  18   47.99    1.64
   4  -4 -18   49.74    2.09
  -4  -4  18   50.49    1.81
  -6  -4 -18   28.04    1.67
   6  -4  18   33.56    1.73
   6  -4  18   32.93    1.75
   6  -4 -18   33.99    1.76
  -6  -4  18   36.06    1.52
   6   4  18   32.23    1.70
  -1   5  18   12.48    0.85
   1  -5  18   12.68    0.96
  -1  -5 -18   12.93    0.93
   1   5 -18   13.62    0.80
   1  -5  18   13.07    0.82
   1   5  18   12.72    0.92
  -1  -5  18   12.99    0.73
  -1  -5  18   13.40    0.94
   1  -5 -18   13.25    0.95
   3  -5  18   11.21    0.84
  -3   5  18   11.21    0.73
  -3  -5 -18   10.83    0.85
   3   5 -18   12.29    0.80
   3  -5  18   10.60    0.91
   3   5  18   10.52    0.90
  -3  -5  18   11.69    0.82
   3  -5 -18   11.45    0.92
  -5  -5 -18    8.49    0.90
  -5  -5 -18    8.23    0.74
   5  -5  18    9.11    0.91
   5   5 -18    9.13    0.77
   5  -5  18    8.74    0.81
   5   5  18    8.23    0.80
   5  -5 -18    8.30    0.82
   0  -6  18    2.09    0.45
   0  -6 -18    3.09    0.54
   0  -6  18    2.09    0.36
   0   6  18    3.26    0.52
  -2  -6 -18    2.69    0.47
   2  -6  18    2.27    0.51
   2  -6  18    2.58    0.47
  -2   6  18    1.73    0.35
   2   6 -18    2.57    0.41
  -2  -6  18    2.29    0.42
   2  -6 -18    2.65    0.51
  -2  -6  18    2.10    0.32
   2   6  18    2.33    0.44
   4  -6  18    1.64    0.39
  -4  -6 -18    1.82    0.41
   4   6 -18    2.17    0.43
  -4  -6 -18    2.44    0.50
  -4  -6  18    2.09    0.40
   1  -7  18    4.42    0.52
  -1  -7 -18    4.56    0.58
   1  -7  18    4.06    0.67
  -1   7  18    4.48    0.52
  -1  -7  18    4.40    0.47
  -1  -7  18    4.13    0.56
   1  -7 -18    4.27    0.66
   1   7  18    3.98    0.52
  -3  -7 -18    4.17    0.66
  -3  -7 -18    2.87    0.53
   3  -7  18    3.91    0.90
   3  -7  18    2.97    0.52
   3  -7 -18    3.94    1.01
   3   7  18    3.62    0.69
  -3  -7  18    3.17    0.52
   0  -8  18    0.40    0.21
   0  -8 -18    0.44    0.26
   0   8  18    0.73    0.28
   0  -8  18    0.87    0.31
  -2  -8 -18   -0.09    0.22
   2  -8  18    0.83    0.31
  -2  -8  18   -0.13    0.17
  -2  -8  18    0.37    0.24
   2   8  18    0.11    0.23
   2  -8 -18    0.58    0.45
   4  -8  18   -0.01    0.25
   4  -8  18    0.16    0.26
  -4  -8 -18    0.61    0.25
   4   8  18    0.52    0.30
   4  -8 -18   -0.07    0.26
  -4  -8  18    0.80    0.28
   1  -9  18   19.63    1.19
   1  -9  18   19.11    1.29
  -1  -9 -18   18.31    1.21
  -1  -9  18   20.62    1.67
  -1  -9  18   18.61    1.08
   1  -9 -18   19.14    1.25
   0 -10  18   40.26    1.96
   1   0  19    8.90    0.77
  -1   0  19    8.18    0.70
   1   0 -19    9.10    0.74
  -1   0 -19    8.47    0.69
   3   0 -19    7.09    0.68
  -3   0 -19    7.49    0.62
  -3   0  19    6.60    0.59
   3   0  19    6.78    0.72
   5   0 -19    6.02    0.97
  -5   0 -19    4.36    0.51
   5   0  19    5.01    0.65
   0   1 -19   54.95    1.97
   0   1  19   51.37    2.05
   0  -1 -19   51.90    1.99
   0  -1  19   51.66    2.07
   2  -1  19   50.02    2.08
   2   1 -19   49.67    1.93
  -2  -1 -19   49.79    1.89
  -2   1  19   46.29    1.82
  -2  -1  19   47.81    1.86
   2  -1 -19   48.14    1.95
  -2   1 -19   47.41    1.78
   2   1  19   48.91    2.05
  -4  -1 -19   39.58    1.63
  -4   1  19   36.44    1.41
   4   1 -19   39.17    1.75
   4  -1  19   40.04    1.87
   4   1  19   34.68    1.77
  -4  -1  19   37.28    1.45
  -4   1 -19   40.47    1.56
   4  -1 -19   40.11    1.80
   1  -2  19   36.80    1.33
  -1  -2 -19   37.10    1.62
  -1   2  19   37.25    1.61
   1   2 -19   38.42    1.57
   1  -2  19   37.38    1.74
  -1  -2  19   36.69    1.64
   1  -2 -19   37.99    1.67
   1   2  19   37.12    1.69
  -1   2 -19   35.71    1.99
   3   2 -19   32.15    1.49
  -3   2  19   29.79    1.32
   3  -2  19   31.23    1.63
  -3  -2 -19   31.96    1.46
   3  -2 -19   32.24    1.57
   3   2  19   32.02    1.62
  -3  -2  19   30.81    1.46
  -5  -2 -19   25.75    1.29
   5   2 -19   21.48    1.73
   5  -2  19   24.47    1.32
   5  -2  19   24.03    1.45
   5  -2 -19   25.25    1.43
   5   2  19   23.24    1.41
   0  -3  19    0.02    0.19
   0  -3  19    0.15    0.11
   0  -3 -19    0.22    0.17
   0   3  19    0.19    0.17
   0   3 -19    0.02    0.18
   2  -3  19    0.03    0.16
   2  -3  19   -0.02    0.16
  -2   3  19   -0.15    0.11
  -2  -3 -19   -0.27    0.15
   2   3 -19    0.06    0.16
  -2  -3  19   -0.12    0.14
   2  -3 -19   -0.13    0.13
   2   3  19    0.47    0.21
  -2   3 -19   -0.27    0.12
  -4   3  19    0.03    0.24
   4  -3  19    0.20    0.35
   4   3 -19   -0.17    0.20
  -4  -3 -19    0.28    0.18
   4  -3  19   -0.40    0.17
  -4  -3  19   -0.05    0.31
   4   3  19    0.09    0.20
  -4   3 -19    0.09    0.16
   4  -3 -19    0.04    0.24
   1  -4  19    3.61    0.60
   1   4 -19    2.43    0.41
  -1   4  19    3.52    0.55
  -1  -4 -19    2.89    0.51
   1  -4  19    3.00    0.40
  -1   4 -19    3.24    0.39
   1   4  19    2.77    0.50
  -1  -4  19    2.77    0.52
   1  -4 -19    3.56    0.56
  -3   4  19    2.24    0.38
  -3  -4 -19    2.76    0.49
   3   4 -19    2.45    0.47
   3  -4  19    3.15    0.59
   3  -4  19    2.29    0.39
   3  -4 -19    2.09    0.48
  -3  -4  19    2.86    0.45
   3   4  19    3.11    0.57
   5  -4  19    1.76    0.58
   5   4 -19    1.49    0.36
  -5  -4 -19    1.43    0.40
   5  -4  19    2.03    0.48
   5   4  19    1.60    0.43
   5  -4 -19    1.57    0.42
   0  -5 -19   80.22    2.81
   0   5  19   81.19    2.76
   0   5 -19   82.11    2.44
   0  -5  19   77.57    2.42
   2  -5  19   74.53    2.81
   2  -5  19   73.60    2.50
  -2  -5 -19   76.89    2.70
   2   5 -19   72.99    2.43
  -2   5  19   77.63    2.52
  -2  -5  19   75.23    2.63
   2   5  19   76.14    2.75
   2  -5 -19   76.11    2.75
   4   5 -19   57.48    2.16
   4  -5  19   59.95    2.50
   4   5  19   57.57    2.40
  -4  -5  19   58.13    2.09
   4  -5 -19   60.68    2.43
  -1   6  19    5.15    0.57
   1  -6  19    4.90    0.54
  -1  -6 -19    4.93    0.61
   1  -6  19    5.77    0.67
   1   6  19    5.47    0.63
  -1  -6  19    6.00    0.51
   1  -6 -19    4.92    0.61
  -1  -6  19    4.78    0.60
   3  -6  19    5.16    0.67
   3   6 -19    5.02    0.53
   3  -6  19    4.08    0.57
  -3   6  19    4.03    0.46
  -3  -6  19    3.88    0.54
   3  -6 -19    5.01    0.64
   3   6  19    4.36    0.70
   0   7 -19   -0.58    0.23
   0  -7  19    0.53    0.26
   0   7  19    0.51    0.26
   0  -7  19    0.13    0.23
   2  -7  19    0.00    0.20
   2  -7  19    0.43    0.30
  -2  -7 -19    0.22    0.27
  -2   7  19    0.30    0.21
   2  -7 -19    0.14    0.21
  -2  -7  19    0.14    0.27
   2   7  19    0.62    0.34
  -1   8  19    6.79    0.68
   1  -8  19    6.54    0.77
   1  -8  19    6.44    0.69
  -1  -8 -19    6.48    0.72
   1   8  19    7.11    0.71
   1  -8 -19    5.35    0.68
   0   0 -20    2.75    0.48
   0   0  20    1.25    0.35
   2   0  20    1.00    0.34
  -2   0  20    0.85    0.27
   2   0 -20    0.92    0.31
  -2   0 -20    1.10    0.30
   4   0  20    0.66    0.30
  -4   0 -20    0.72    0.32
   4   0 -20    0.59    0.28
   1  -1  20    4.16    0.58
  -1  -1 -20    4.40    0.53
   1   1 -20    4.33    0.52
  -1   1  20    4.46    0.55
  -1   1 -20    3.67    0.46
   1  -1 -20    4.67    0.55
   1   1  20    4.82    0.59
  -1  -1  20    3.99    0.54
  -3   1  20    2.94    0.46
  -3  -1 -20    3.57    0.55
   3  -1  20    3.05    0.62
   3   1 -20    3.62    0.58
  -3  -1  20    2.98    0.50
   3  -1 -20    4.35    0.66
   3   1  20    3.35    0.62
   0  -2  20    7.27    0.72
   0   2  20    7.80    0.73
   0   2 -20    7.10    0.62
   0  -2 -20    8.59    0.73
  -2   2  20    7.54    0.67
   2  -2  20    6.73    0.54
  -2  -2 -20    8.13    0.72
   2  -2  20    6.90    0.73
   2   2 -20    7.16    0.68
  -2   2 -20    7.01    0.61
  -2  -2  20    7.17    0.69
   2  -2 -20    7.67    0.74
   2   2  20    6.47    0.69
   4  -2  20    4.81    0.60
  -4  -2 -20    5.07    0.60
   4  -2  20    4.91    0.66
   4   2 -20    4.95    0.95
   4   2  20    4.95    0.66
   4  -2 -20    5.88    0.67
  -1   3  20   63.05    2.29
   1  -3  20   58.55    2.40
  -1  -3 -20   65.60    2.37
   1   3 -20   61.70    2.18
   1   3  20   61.28    2.38
   1  -3 -20   62.62    2.37
  -1   3 -20   59.76    2.07
  -1  -3  20   60.40    2.33
   3  -3  20   49.33    1.91
  -3  -3 -20   56.63    2.13
   3  -3  20   47.17    2.21
   3  -3 -20   47.06    2.35
   3   3  20   55.31    2.76
  -3  -3  20   55.64    2.02
   0  -4 -20    2.21    0.45
   0  -4  20    2.45    0.49
   0   4 -20    2.53    0.44
   0   4  20    2.57    0.51
  -2   4  20    2.00    0.38
   2   4 -20    1.86    0.41
  -2  -4 -20    2.12    0.45
   2  -4  20    1.57    0.34
   2   4  20    1.24    0.41
  -2  -4  20    1.60    0.35
   4  -4  20    1.61    0.43
  -4  -4 -20    2.00    0.45
   4   4 -20    1.69    0.40
   4  -4  20    1.62    0.43
   4   4  20    2.23    0.49
   4  -4 -20    1.45    0.43
   1  -5  20    4.98    0.52
   1   5 -20    5.30    0.55
  -1   5  20    5.12    0.58
   1  -5  20    4.63    0.86
   1   5  20    6.43    0.70
   1  -5 -20    5.37    0.90
  -1  -5  20    4.89    0.64
   3  -5  20    3.78    0.68
   3  -5  20    4.60    0.59
  -3  -5 -20    5.14    0.63
  -3   5  20    4.62    0.51
   3  -5 -20    5.47    0.68
   3   5  20    5.18    0.65
  -3  -5  20    4.79    0.61
   0   6  20    0.19    0.21
   0   6 -20   -0.12    0.21
   0  -6 -20   -0.11    0.19
   2   6 -20    0.43    0.22
   2  -6  20    0.03    0.22
  -2  -6 -20   -0.07    0.20
  -2   6  20    0.46    0.22
  -2  -6  20    0.14    0.21
   2  -6 -20   -0.05    0.23
   2   6  20    0.07    0.20
   1  -7  20   80.12    2.95
  -1  -7 -20   74.11    2.85
  -1  -7  20   75.10    2.81
   1   7  20   77.24    2.80
   1  -7 -20   77.54    3.02
  -1   0 -21   22.13    1.20
  -1   0  21   21.84    1.26
   1   0  21   21.23    1.31
   1   0 -21   19.99    1.17
  -3   0  21   16.82    1.01
  -3   0 -21   17.01    1.04
   3   0  21   18.35    1.25
   0   1  21   10.90    0.89
   0  -1  21   11.71    0.91
   0  -1 -21   11.93    0.88
   0   1 -21    9.78    0.80
   2  -1  21   10.29    0.91
  -2   1  21    8.57    0.75
   2   1 -21   10.64    0.85
  -2  -1 -21   10.44    0.81
  -2  -1  21   10.51    0.81
  -2   1 -21    9.56    0.76
   2   1  21   10.31    0.91
   1   2 -21   56.70    2.15
  -1  -2 -21   62.28    2.29
  -1   2  21   55.15    2.20
  -1   2 -21   60.97    2.12
  -1  -2  21   59.43    2.29
   1   2  21   56.54    2.67
  -3   2  21   47.67    1.85
   3  -2  21   53.53    2.29
  -3  -2 -21   44.91    2.69
  -3  -2  21   49.24    1.92
   3   2  21   49.30    2.19
   0  -3  21   11.26    1.09
   0   3 -21   10.37    0.78
   0   3  21    9.94    0.87
   2   3 -21    9.57    0.78
  -2  -3 -21   10.94    0.87
   2   3  21   10.58    0.92
  -2  -3  21   10.53    0.84
   2  -3 -21    9.08    0.85
   1  -4  21    3.15    0.62
   1   4 -21    2.31    0.45
  -1  -4 -21    1.88    0.49
  -1   4  21    2.11    0.43
   1  -4 -21    1.65    0.44
   1   4  21    2.42    0.55
  -1  -4  21    1.98    0.60
   0   5  21   22.31    1.31
   0  -5 -21   22.93    1.36
   0  -5  21   21.75    1.36
   0   0   0    0.00    0.00
;
_shelx_hkl_checksum              77141
_shelx_res_file
;
TITL 17220zz in Imma redo of isocyanide D. Britton structure
CELL  0.71073   7.0552  10.4947  13.1557   90.000   90.000   90.000
ZERR    4.000   0.0003   0.0005   0.0005    0.000    0.000    0.000
LATT  2
SYMM -X, 1/2-Y, Z
SYMM -X, 1/2+Y, -Z
SYMM X, -Y, -Z
SFAC C  H I  N
UNIT 28 8 12 4
TEMP -173.130
SIZE 0.066 0.086 0.145
L.S. 10
ACTA
CONF
BOND $H
LIST 4
FMAP 2
PLAN 5
EQIV $1 1 - x, 1 - y, 2 - z
RTAB NC.. N17 C17
RTAB C..I C17 I12_$1
RTAB NC.I N17 C17 I12_$1
WGHT    0.004400    1.249900
EXTI    0.003122
FVAR       0.07154
I12   3    0.500000    0.462232    0.834723    10.50000    0.01610    0.00910 =
         0.01051    0.00184    0.00000    0.00000
I14   3    0.500000    0.750000    0.437150    10.25000    0.01561    0.01413 =
         0.00761    0.00000    0.00000    0.00000
N17   4    0.500000    0.750000    0.912230    10.25000    0.01335    0.01248 =
         0.01024    0.00000    0.00000    0.00000
C11   1    0.500000    0.750000    0.806814    10.25000    0.01063    0.01058 =
         0.00809    0.00000    0.00000    0.00000
C12   1    0.500000    0.633888    0.753886    10.50000    0.01210    0.00856 =
         0.00983    0.00118    0.00000    0.00000
C13   1    0.500000    0.634105    0.647897    10.50000    0.01382    0.00956 =
         0.01012    0.00002    0.00000    0.00000
AFIX  43
H13   2    0.500000    0.556099    0.611260    10.50000   -1.20000
AFIX   0
C14   1    0.500000    0.750000    0.596400    10.25000    0.01235    0.01156 =
         0.00855    0.00000    0.00000    0.00000
C17   1    0.500000    0.750000    1.000737    10.25000    0.01744    0.01480 =
         0.01273    0.00000    0.00000    0.00000
HKLF 4
REM  17220zz in Imma redo of isocyanide D. Britton structure
REM R1 =  0.0110 for    1267 Fo > 4sig(Fo)  and  0.0119 for all    1314 data
REM     40 parameters refined using      0 restraints
END
WGHT      0.0042      1.2636
REM Highest difference peak  0.720,  deepest hole -0.480,  1-sigma level  0.124
Q1    1   0.5000  0.6860  0.7855  10.50000  0.05    0.72
Q2    1   0.5000  0.3910  0.8285  10.50000  0.05    0.68
Q3    1   0.5000  0.7824  0.9502  10.50000  0.05    0.64
Q4    1   0.5000  0.5334  0.8884  10.50000  0.05    0.64
Q5    1   0.5000  0.6851  0.6193  10.50000  0.05    0.64
;
_shelx_res_checksum              39007
_shelxl_version_number           2014/6
loop_
_space_group_symop_operation_xyz
'x, y, z'
'-x, -y+1/2, z'
'-x, y+1/2, -z'
'x, -y, -z'
'x+1/2, y+1/2, z+1/2'
'-x+1/2, -y+1, z+1/2'
'-x+1/2, y+1, -z+1/2'
'x+1/2, -y+1/2, -z+1/2'
'-x, -y, -z'
'x, y-1/2, -z'
'x, -y-1/2, z'
'-x, y, z'
'-x+1/2, -y+1/2, -z+1/2'
'x+1/2, y, -z+1/2'
'x+1/2, -y, z+1/2'
'-x+1/2, y+1/2, z+1/2'
loop_
_atom_site_type_symbol
_atom_site_label
_atom_site_fract_x
_atom_site_fract_y
_atom_site_fract_z
_atom_site_U_iso_or_equiv
_atom_site_adp_type
_atom_site_calc_flag
_atom_site_occupancy
I I12 0.5000 0.46223(2) 0.83472(2) 0.01190(3) Uani d 1
I I14 0.5000 0.7500 0.43715(2) 0.01245(4) Uani d 1
N N17 0.5000 0.7500 0.91223(14) 0.0120(3) Uani d 1
C C11 0.5000 0.7500 0.80681(15) 0.0098(3) Uani d 1
C C12 0.5000 0.63389(13) 0.75389(11) 0.0102(2) Uani d 1
C C13 0.5000 0.63411(14) 0.64790(11) 0.0112(2) Uani d 1
H H13 0.5000 0.5561 0.6113 0.013 Uiso calc 1
C C14 0.5000 0.7500 0.59640(15) 0.0108(3) Uani d 1
C C17 0.5000 0.7500 1.00074(17) 0.0150(4) Uani d 1
loop_
_atom_site_aniso_label
_atom_site_aniso_U_11
_atom_site_aniso_U_22
_atom_site_aniso_U_33
_atom_site_aniso_U_12
_atom_site_aniso_U_13
_atom_site_aniso_U_23
I12 0.01610(5) 0.00910(4) 0.01051(4) 0.000 0.000 0.00184(3)
I14 0.01561(6) 0.01413(6) 0.00761(5) 0.000 0.000 0.000
N17 0.0134(7) 0.0125(7) 0.0102(7) 0.000 0.000 0.000
C11 0.0106(8) 0.0106(7) 0.0081(7) 0.000 0.000 0.000
C12 0.0121(5) 0.0086(5) 0.0098(5) 0.000 0.000 0.0012(4)
C13 0.0138(6) 0.0096(5) 0.0101(5) 0.000 0.000 0.0000(4)
C14 0.0124(8) 0.0116(8) 0.0086(7) 0.000 0.000 0.000
C17 0.0174(9) 0.0148(9) 0.0127(8) 0.000 0.000 0.000
loop_
_atom_type_symbol
_atom_type_description
_atom_type_scat_dispersion_real
_atom_type_scat_dispersion_imag
_atom_type_scat_source
C C 0.0033 0.0016 'International Tables Vol C Tables 4.2.6.8 and 6.1.1.4'
H H 0.0000 0.0000 'International Tables Vol C Tables 4.2.6.8 and 6.1.1.4'
I I -0.4742 1.8119 'International Tables Vol C Tables 4.2.6.8 and 6.1.1.4'
N N 0.0061 0.0033 'International Tables Vol C Tables 4.2.6.8 and 6.1.1.4'
loop_
_geom_angle_atom_site_label_1
_geom_angle_atom_site_label_2
_geom_angle_atom_site_label_3
_geom_angle_site_symmetry_1
_geom_angle_site_symmetry_3
_geom_angle
C17 N17 C11 . . 180.0
N17 C11 C12 . 2_665 119.75(9)
N17 C11 C12 . . 119.74(9)
C12 C11 C12 2_665 . 120.51(18)
C13 C12 C11 . . 119.65(13)
C13 C12 I12 . . 120.65(10)
C11 C12 I12 . . 119.70(11)
C14 C13 C12 . . 119.21(14)
C14 C13 H13 . . 120.4
C12 C13 H13 . . 120.4
C13 C14 C13 2_665 . 121.76(18)
C13 C14 I14 2_665 . 119.12(9)
C13 C14 I14 . . 119.12(9)
loop_
_geom_bond_atom_site_label_1
_geom_bond_atom_site_label_2
_geom_bond_site_symmetry_2
_geom_bond_distance
I12 C12 . 2.0920(14)
I14 C14 . 2.095(2)
N17 C17 . 1.164(3)
N17 C11 . 1.387(3)
C11 C12 2_665 1.4035(17)
C11 C12 . 1.4035(17)
C12 C13 . 1.394(2)
C13 C14 . 1.3922(17)
C13 H13 . 0.9500
C14 C13 2_665 1.3922(17)
loop_
_geom_torsion_atom_site_label_1
_geom_torsion_atom_site_label_2
_geom_torsion_atom_site_label_3
_geom_torsion_atom_site_label_4
_geom_torsion_site_symmetry_1
_geom_torsion_site_symmetry_4
_geom_torsion
N17 C11 C12 C13 . . 180.0000(10)
C12 C11 C12 C13 2_665 . 0.0000(10)
N17 C11 C12 I12 . . 0.0000(10)
C12 C11 C12 I12 2_665 . 180.000000
C11 C12 C13 C14 . . 0.0000(10)
I12 C12 C13 C14 . . 180.000000
C12 C13 C14 C13 . 2_665 0.000000
C12 C13 C14 I14 . . 180.000000

_cod_database_fobs_code 2242324
