#------------------------------------------------------------------------------
#$Date: 2018-12-04 05:51:32 +0200 (Tue, 04 Dec 2018) $
#$Revision: 212313 $
#$URL: file:///home/coder/svn-repositories/cod/cif/2/24/27/2242765.cif $
#------------------------------------------------------------------------------
#
# This file is available in the Crystallography Open Database (COD),
# http://www.crystallography.net/. The original data for this entry
# were provided by IUCr Journals, http://journals.iucr.org/.
#
# The file may be used within the scientific community so long as
# proper attribution is given to the journal article from which the
# data were obtained.
#
data_2242765
loop_
_publ_author_name
'Drozd, K. V.'
'Arkhipov, S. G.'
'Boldyreva, E. V.'
'Perlovich, G. L.'
_publ_section_title
;
 Crystal structure of a 1:1 salt of 4-aminobenzoic acid (vitamin B~10~)
 with pyrazinoic acid
;
_journal_issue                   12
_journal_name_full               'Acta Crystallographica Section E'
_journal_page_first              1923
_journal_page_last               1927
_journal_paper_doi               10.1107/S2056989018016663
_journal_volume                  74
_journal_year                    2018
_chemical_absolute_configuration syn
_chemical_formula_iupac          'C7 H8 N O2 +, C5 H3 N2 O2 -'
_chemical_formula_moiety         'C7 H8 N O2 +, C5 H3 N2 O2 -'
_chemical_formula_sum            'C12 H11 N3 O4'
_chemical_formula_weight         261.24
_chemical_name_common            '4-Carboxyanilinium pyrazine-2-carboxylate'
_chemical_name_systematic
;
4-Carboxyanilinium pyrazine-2-carboxylate
;
_space_group_crystal_system      monoclinic
_space_group_IT_number           7
_space_group_name_Hall           'P -2yc'
_space_group_name_H-M_alt        'P 1 c 1'
_symmetry_space_group_name_Hall  'P -2yc'
_symmetry_space_group_name_H-M   'P 1 c 1'
_atom_sites_solution_hydrogens   geom
_audit_creation_method
;
Olex2 1.2
(compiled 2018.05.29 svn.r3508 for OlexSys, GUI svn.r5506)
;
_cell_angle_alpha                90
_cell_angle_beta                 95.037(2)
_cell_angle_gamma                90
_cell_formula_units_Z            2
_cell_length_a                   5.95233(16)
_cell_length_b                   3.80345(11)
_cell_length_c                   25.6879(7)
_cell_measurement_reflns_used    4235
_cell_measurement_temperature    293
_cell_measurement_theta_max      29.2440
_cell_measurement_theta_min      3.1750
_cell_volume                     579.31(3)
_computing_cell_refinement
;
CrysAlis PRO (Rigaku OD, 2018)
;
_computing_data_collection
;
CrysAlis PRO (Rigaku OD, 2018)
;
_computing_data_reduction
;
CrysAlis PRO (Rigaku OD, 2018)
;
_computing_molecular_graphics
;
<i>OLEX2</i> (Dolomanov <i>et al.</i>,  2009)
;
_computing_publication_material
;
<i>OLEX2</i> (Dolomanov <i>et al.</i>,  2009)
;
_computing_structure_refinement
;
SHELXL2017 (Sheldrick, 2015b)
;
_computing_structure_solution
;
SHELXT2014 (Sheldrick, 2015a)
;
_diffrn_ambient_temperature      293
_diffrn_detector                 'CCD plate'
_diffrn_detector_area_resol_mean 10.3457
_diffrn_measured_fraction_theta_full 0.989
_diffrn_measured_fraction_theta_max 0.939
_diffrn_measurement_device       'four-circle diffractometer'
_diffrn_measurement_device_type
'Rigaku Oxford Diffraction Xcalibur Ruby Gemini ultra'
_diffrn_measurement_method       '\w scans'
_diffrn_radiation_monochromator  graphite
_diffrn_radiation_probe          x-ray
_diffrn_radiation_type           MoK\a
_diffrn_radiation_wavelength     0.71073
_diffrn_reflns_av_R_equivalents  0.0333
_diffrn_reflns_av_unetI/netI     0.0339
_diffrn_reflns_limit_h_max       8
_diffrn_reflns_limit_h_min       -7
_diffrn_reflns_limit_k_max       5
_diffrn_reflns_limit_k_min       -5
_diffrn_reflns_limit_l_max       33
_diffrn_reflns_limit_l_min       -35
_diffrn_reflns_number            8036
_diffrn_reflns_theta_full        25.242
_diffrn_reflns_theta_max         29.572
_diffrn_reflns_theta_min         1.592
_diffrn_source                   'fine-focus sealed X-ray tube'
_exptl_absorpt_coefficient_mu    0.115
_exptl_absorpt_correction_T_max  1.00000
_exptl_absorpt_correction_T_min  0.82169
_exptl_absorpt_correction_type   multi-scan
_exptl_absorpt_process_details
;
(CrysAlis PRO; Rigaku OD, 2018)
;
_exptl_crystal_colour            'light colourless'
_exptl_crystal_density_diffrn    1.498
_exptl_crystal_description       block
_exptl_crystal_F_000             272
_exptl_crystal_size_max          0.238
_exptl_crystal_size_mid          0.192
_exptl_crystal_size_min          0.184
_refine_diff_density_max         0.290
_refine_diff_density_min         -0.282
_refine_ls_extinction_method     none
_refine_ls_goodness_of_fit_ref   1.111
_refine_ls_hydrogen_treatment    constr
_refine_ls_matrix_type           full
_refine_ls_number_parameters     174
_refine_ls_number_reflns         2981
_refine_ls_number_restraints     2
_refine_ls_restrained_S_all      1.110
_refine_ls_R_factor_all          0.0530
_refine_ls_R_factor_gt           0.0491
_refine_ls_shift/su_max          0.001
_refine_ls_shift/su_mean         0.000
_refine_ls_structure_factor_coef Fsqd
_refine_ls_weighting_details
'w=1/[\s^2^(Fo^2^)+(0.0973P)^2^] where P=(Fo^2^+2Fc^2^)/3'
_refine_ls_weighting_scheme      calc
_refine_ls_wR_factor_gt          0.1398
_refine_ls_wR_factor_ref         0.1445
_reflns_number_gt                2746
_reflns_number_total             2981
_reflns_threshold_expression     'I > 2\s(I)'
_cod_data_source_file            rz5246sup1.cif
_cod_data_source_block           Ib
_cod_database_code               2242765
_shelx_space_group_comment
;
The symmetry employed for this shelxl refinement is uniquely defined
by the following loop, which should always be used as a source of
symmetry information in preference to the above space-group names.
They are only intended as comments.
;
_shelx_estimated_absorpt_t_min   0.973
_shelx_estimated_absorpt_t_max   0.979
_shelx_hkl_file
;
  -1   0   0  386.24    8.74
  -1   0   0  389.59    7.61
   1   0   0  402.72    9.14
  -2   0   0  639.02   15.34
  -2   0   0  651.44   13.17
   2   0   0  668.17   16.00
  -3   0   0 4092.99   68.08
   3   0   0 4033.14   73.32
  -3   0   0 4139.39   72.67
   4   0   0  235.99   11.44
  -4   0   0  244.59   11.33
  -4   0   0  251.60    8.55
   5   0   0   60.30    6.34
  -5   0   0   51.10    5.62
   6   0   0  404.77   18.97
  -6   0   0  418.96   18.81
   7   0   0   71.69    8.78
  -7   0   0   73.98    8.49
   0  -1   0   48.77    2.85
   0   1   0   49.51    2.39
   0   1   0   51.90    3.06
  -2  -1   0 1625.58   32.38
  -2   1   0 1593.71   31.72
  -2   1   0 1621.84   31.85
   2   1   0 1628.59   33.18
   2  -1   0 1623.55   32.13
   2  -1   0 1647.16   31.81
   3   1   0  209.95    7.16
   3   1   0  216.33   10.12
  -3   1   0  201.91    8.44
  -3   1   0  218.15    9.41
   3  -1   0  226.22    9.73
  -3  -1   0  214.46    9.12
  -3  -1   0  231.14    7.51
  -3  -1   0  215.09    9.60
   3  -1   0  207.16    9.27
  -4   1   0  115.55    7.71
   4  -1   0  123.34    8.10
  -4  -1   0  118.00    7.70
  -4  -1   0  125.33    5.70
   4   1   0  127.10    5.18
  -4  -1   0  122.40    8.17
   4   1   0  117.25    8.46
  -4   1   0  129.94    7.19
   5   1   0   69.50    7.28
   5  -1   0   64.37    6.76
  -5  -1   0   67.84    6.46
  -5   1   0   67.39    5.45
  -5  -1   0   72.11    7.05
  -5   1   0   58.80    6.35
  -6  -1   0  129.59   10.06
   6   1   0  105.73    9.98
   6  -1   0  116.91    9.81
  -6   1   0  105.41    9.44
   7  -1   0   15.61    4.40
  -7   1   0   35.94    6.19
  -7  -1   0   15.93    4.21
   7   1   0   22.67    4.93
   7  -1   0   27.99    5.65
   0  -2   0    0.49    1.16
   0   2   0    0.33    1.10
   1   2   0  482.52   14.70
   1  -2   0  463.74   14.02
  -1  -2   0  501.56   14.75
   1   2   0  470.92   14.24
  -1  -2   0  475.35   13.27
  -1   2   0  459.05   14.98
  -1   2   0  499.61   13.14
   1  -2   0  480.25   10.61
  -2   2   0  837.15   22.91
   2  -2   0  874.35   22.12
  -2   2   0  871.76   21.36
  -2  -2   0  882.40   22.88
   2   2   0  873.28   23.41
   2  -2   0  879.81   21.42
  -2  -2   0  890.34   20.19
   3  -2   0   73.81    5.73
  -3   2   0   85.91    6.17
  -3   2   0   79.16    6.19
  -3  -2   0   69.03    5.94
   3   2   0   80.72    6.74
   3   2   0   81.19    5.83
   3  -2   0   71.31    5.82
   4  -2   0  119.89    8.36
  -4   2   0  121.85    8.40
  -4  -2   0  127.33    8.87
   4   2   0  132.70    9.64
   4  -2   0  118.25    8.27
  -4   2   0  127.40    8.40
  -4  -2   0  121.65    8.02
   4   2   0  141.56    7.94
  -5   2   0  137.51   10.03
  -5   2   0  138.99    9.51
  -5  -2   0  145.37    9.97
  -5  -2   0  138.85   10.41
   5  -2   0  143.58   10.11
   5   2   0  144.35   11.32
   5  -2   0  131.36    9.83
   6  -2   0   38.07    5.86
  -6   2   0   49.47    6.74
  -6  -2   0   43.65    6.15
   6  -2   0   36.01    5.88
   6   2   0   43.49    7.19
  -6  -2   0   36.08    5.94
   7  -2   0   12.49    3.91
  -7  -2   0    5.75    3.09
  -7   2   0   14.54    4.39
   7  -2   0    6.05    3.48
   7   2   0   12.09    4.24
   0  -3   0  191.36    9.96
   0   3   0  188.64   10.46
   0   3   0  196.38    9.86
   0  -3   0  188.04    9.93
   1   3   0   69.28    6.12
  -1  -3   0   70.83    6.15
   1   3   0   71.80    6.26
  -1  -3   0   72.51    5.75
   1  -3   0   75.25    6.17
  -1   3   0   75.17    5.32
  -1   3   0   68.76    6.46
  -2  -3   0  304.87   13.92
  -2   3   0  318.22   12.41
   2   3   0  300.90   13.89
  -2  -3   0  314.80   12.11
   2  -3   0  275.44   12.69
  -2   3   0  311.54   14.59
   3   3   0   85.51    7.85
   3   3   0  107.31    8.90
   3  -3   0  100.65    7.87
  -3   3   0   97.05    7.19
  -3   3   0   78.42    7.50
  -3  -3   0   90.87    7.93
  -4   3   0   33.96    4.95
   4   3   0   28.31    5.00
  -4   3   0   36.56    5.48
   4   3   0   30.45    4.63
  -4  -3   0   38.58    4.88
   4  -3   0   35.83    5.33
  -4  -3   0   32.48    5.22
   4  -3   0   28.45    4.46
   5   3   0   33.66    6.03
   5  -3   0   34.37    5.55
  -5   3   0   35.51    5.65
  -5   3   0   40.51    6.10
  -5  -3   0   31.80    5.53
   6   3   0   38.69    7.00
  -6  -3   0   32.08    6.00
   6  -3   0   31.09    5.74
  -6   3   0   42.27    6.48
  -6   3   0   30.74    5.51
   0  -4   0   36.50    5.16
   0   4   0   25.41    4.59
   0  -4   0   34.08    5.12
  -1  -4   0   27.37    4.39
  -1   4   0   22.08    4.48
   1   4   0   20.13    4.43
   1  -4   0   21.48    4.02
   1  -4   0   24.78    4.82
  -1  -4   0   28.01    4.87
   2   4   0   27.51    5.44
  -2   4   0   11.72    3.02
  -2  -4   0   33.99    5.47
  -2   4   0   29.17    5.54
   2  -4   0   27.49    4.68
   2   4   0   29.36    4.94
  -3   4   0   33.03    5.71
   3  -4   0   52.68    6.57
  -3  -4   0   47.99    6.74
  -3   4   0   44.63    6.59
   3   4   0   33.22    5.90
   3   4   0   39.82    6.50
   4   4   0   36.25    6.05
   4   4   0   29.92    5.54
  -4  -4   0   36.19    6.10
   4  -4   0   46.55    6.54
  -4   4   0   35.81    6.19
   5  -4   0   -0.16    2.41
   5   4   0   -0.42    2.45
  -5   4   0   -0.43    2.27
   0   5   0   14.58    5.68
   0  -5   0    6.41    3.30
   1  -5   0    9.11    3.54
  -1  -5   0   14.06    4.28
   1  -5   0    7.35    3.38
  -1   5   0   18.57    5.19
  -1   5   0   16.11    5.61
   2  -5   0    5.12    2.87
   2  -5   0   -0.67    2.92
  -2  -5   0    7.32    3.77
   7   0  -1   -0.05    2.54
  -7   0   1    3.27    2.87
  -6   0   1    0.86    2.02
   6   0  -1    1.63    2.02
   5   0  -1    1.93    2.48
  -5   0   1    0.93    1.95
  -4   0   1    0.06    0.82
  -4   0   1   -0.64    1.27
   4   0  -1   -0.24    1.38
  -3   0   1   -0.54    1.22
   3   0  -1    0.57    1.18
  -3   0   1   -0.41    0.80
  -2   0   1   -0.37    0.51
   2   0  -1    0.32    1.04
  -2   0   1   -0.52    0.93
   1   0  -1    0.19    0.67
  -1   0   1   -0.03    0.58
   1   0   1    0.74    0.79
  -1   0  -1    1.06    0.67
  -1   0  -1    0.27    0.58
  -2   0  -1    0.44    0.91
   2   0   1    1.27    1.15
  -2   0  -1    1.03    0.74
  -3   0  -1   -0.04    1.03
   3   0   1    1.19    1.35
  -3   0  -1    0.24    0.81
   4   0   1    2.50    1.64
  -4   0  -1   -1.31    1.29
  -4   0  -1    1.90    1.24
   5   0   1    3.83    2.15
  -5   0  -1    0.06    0.93
  -5   0  -1    3.09    1.84
   6   0   1    4.07    3.54
  -6   0  -1    1.33    1.80
  -7   0  -1    2.29    2.66
   7   0   1    1.86    2.15
  -7  -1   1   21.66    4.76
  -7   1   1   13.57    4.50
   7   1  -1   20.44    5.08
   7  -1  -1   16.48    4.18
   7  -1  -1   14.30    3.99
  -6   1   1   75.82    8.03
  -6  -1   1   81.84    8.06
   6   1  -1   75.50    8.35
   6  -1  -1   70.48    7.62
  -5   1   1  108.70    8.55
   5  -1  -1  104.20    8.31
  -5  -1   1  113.32    8.42
  -5   1   1  115.57    7.00
   5   1  -1   95.30    8.57
   4  -1  -1  387.61   15.00
  -4  -1   1  393.93   14.81
  -4   1   1  392.78   15.22
  -4   1   1  420.74   13.52
   4   1  -1  423.99   10.73
  -4  -1   1  435.28   11.13
  -4  -1   1  413.54   15.62
   4   1  -1  422.36   16.71
  -3  -1   1  228.57    9.91
  -3  -1   1  242.69    9.69
   3   1  -1  235.15   10.69
  -3   1   1  230.31    6.82
  -3  -1   1  247.49    7.43
  -3   1   1  234.48    8.92
  -3   1   1  225.73    9.77
   3  -1  -1  231.20   10.01
   3  -1  -1  246.04    9.87
   3   1  -1  232.85    7.58
   2  -1  -1  795.09   18.75
  -2   1   1  777.20   17.94
   2   1  -1  791.53   19.63
  -2  -1   1  766.39   18.64
   2  -1  -1  784.12   17.90
  -2   1   1  759.65   18.30
  -1   1   1 2229.97   33.53
   1   1  -1 2200.11   34.92
   1   1  -1 2159.80   32.57
   1  -1  -1 2240.34   32.42
  -1  -1   1 2237.11   32.94
  -1  -1   1 2191.99   33.88
   1  -1  -1 2210.83   34.01
  -1   1   1 2196.62   34.37
   0  -1  -1 2825.56   48.24
   0   1   1 2835.90   47.16
   0   1   1 2852.89   48.66
   2  -1   1 1379.12   28.24
  -2   1  -1 1384.45   28.14
   2  -1   1 1378.17   28.00
  -2   1  -1 1344.01   27.72
  -2  -1  -1 1375.59   28.57
   2   1   1 1377.13   26.69
   2   1   1 1405.80   29.31
   3   1   1  834.49   22.51
   3   1   1  797.10   17.68
   3  -1   1  828.31   21.32
  -3   1  -1  800.94   20.87
   3  -1   1  804.58   21.36
  -3  -1  -1  861.80   18.55
  -3  -1  -1  799.97   21.32
  -3   1  -1  800.24   20.07
  -4  -1  -1  460.94   16.48
   4   1   1  484.71   18.14
   4  -1   1  477.53   17.20
  -4   1  -1  487.89   15.33
  -4   1  -1  461.06   16.56
  -4  -1  -1  496.21   13.50
   4   1   1  484.42   12.07
  -4  -1  -1  455.36   16.75
  -5  -1  -1  114.33    8.84
  -5   1  -1  126.11    7.68
  -5  -1  -1  120.04    8.77
   5  -1   1   95.39    8.14
  -5   1  -1  115.20    8.76
   5   1   1  116.85    9.46
   6   1   1    5.36    3.03
  -6  -1  -1    5.60    2.77
   6  -1   1    4.07    1.96
  -6   1  -1    5.77    3.02
  -7   1  -1   94.65    9.99
  -7  -1  -1   71.68    8.56
   7   1   1   71.67    8.99
   7  -1   1   89.76    9.45
  -7  -2   1   33.71    6.21
   7  -2  -1   23.00    5.22
  -7   2   1   34.19    6.14
   7   2  -1   34.81    6.98
   7  -2  -1   30.12    5.87
   6   2  -1   23.19    5.29
   6  -2  -1   12.32    3.58
  -6   2   1   20.21    4.65
  -6  -2   1   21.68    4.47
  -6  -2   1   14.72    3.79
   6  -2  -1   17.76    4.18
  -5  -2   1  178.76   11.09
  -5   2   1  202.78   11.30
   5  -2  -1  189.64   11.84
   5  -2  -1  204.44   12.07
  -5   2   1  179.24   11.59
  -5  -2   1  192.99   12.27
   5   2  -1  174.83   12.50
  -4   2   1   36.38    4.59
   4   2  -1   32.48    4.98
   4  -2  -1   30.60    4.29
   4   2  -1   35.02    3.95
  -4  -2   1   32.15    4.11
   4  -2  -1   33.97    4.53
  -4  -2   1   36.08    5.01
  -4   2   1   37.10    4.82
   3  -2  -1  194.78    9.88
  -3   2   1  197.72   10.06
  -3  -2   1  188.95    9.96
   3   2  -1  180.05   10.36
  -3   2   1  196.71    9.74
   3  -2  -1  208.18    9.60
   2   2  -1  444.30   15.42
   2  -2  -1  458.99   13.50
  -2   2   1  430.30   13.80
  -2   2   1  445.79   15.13
  -2  -2   1  448.05   14.82
  -2  -2   1  445.02   13.04
   2  -2  -1  442.65   14.41
   1   2  -1 2252.31   45.09
   1   2  -1 2353.51   44.36
  -1   2   1 2306.42   42.79
  -1  -2   1 2314.05   44.43
   1  -2  -1 2274.85   44.24
  -1   2   1 2284.48   45.71
  -1  -2   1 2303.46   43.15
   0   2   1  258.16    9.29
   0  -2   1  259.91    9.55
   0  -2   1  261.73    9.87
   0   2  -1  256.43   10.09
   0   2   1  247.84   10.04
   0  -2  -1  261.65    9.78
  -1   2  -1   33.61    3.80
   1   2   1   36.33    3.57
   1  -2   1   43.95    3.80
   1  -2   1   36.02    2.32
  -1  -2  -1   43.59    4.03
  -1  -2  -1   36.25    3.19
  -1   2  -1   44.76    3.31
  -2   2  -1 5030.17   85.89
   2  -2   1 4967.01   86.60
  -2  -2  -1 4847.04   88.10
   2  -2   1 4946.93   86.66
  -2   2  -1 4893.09   88.66
  -2  -2  -1 5067.74   83.77
   2   2   1 5104.52   89.05
  -3   2  -1  154.03    8.36
   3  -2   1  151.79    8.46
  -3   2  -1  152.89    8.83
  -3  -2  -1  143.01    8.71
   3  -2   1  140.71    8.07
   3   2   1  156.39    9.43
   3   2   1  150.73    8.11
   4   2   1    4.51    2.02
  -4  -2  -1    7.14    2.67
   4  -2   1    4.64    1.87
  -4  -2  -1    2.03    2.12
   4   2   1    4.41    2.68
  -4   2  -1    1.51    1.64
   4  -2   1    0.14    1.44
  -4   2  -1    4.98    2.20
   5  -2   1   34.70    5.10
   5   2   1   45.96    6.58
   5  -2   1   37.22    5.26
  -5   2  -1   41.87    5.61
  -5   2  -1   41.70    5.30
  -5  -2  -1   38.42    5.35
  -5  -2  -1   35.83    5.26
   6  -2   1   12.11    3.61
  -6  -2  -1   11.70    3.31
   6  -2   1   19.16    4.28
  -6   2  -1   16.47    3.80
   6   2   1   20.07    5.10
  -6  -2  -1   14.85    4.23
   7   2   1   35.61    6.72
   7  -2   1   31.55    5.77
   7  -2   1   39.93    6.82
  -7  -2  -1   35.67    6.13
  -7   2  -1   43.69    6.99
  -6   3   1   32.07    5.58
   6   3  -1   31.55    6.64
   6  -3  -1   26.54    5.42
  -6  -3   1   40.52    7.09
  -5   3   1   52.79    6.79
  -5   3   1   57.72    6.98
  -5  -3   1   53.56    6.87
   5   3  -1   59.46    8.06
   5  -3  -1   64.22    7.52
   4  -3  -1   75.80    7.41
  -4   3   1   77.20    7.26
  -4  -3   1   77.85    7.71
   4   3  -1   73.10    8.13
   4  -3  -1   78.78    7.02
  -4   3   1   62.25    6.87
   4   3  -1   76.49    7.22
  -3   3   1   52.18    6.03
   3   3  -1   50.29    6.16
  -3  -3   1   51.95    5.96
  -3   3   1   57.26    5.76
   3  -3  -1   47.16    5.49
  -3   3   1   50.09    5.69
   3   3  -1   44.28    5.52
   2  -3  -1  173.34    9.94
  -2  -3   1  178.98    9.05
  -2  -3   1  173.55   10.24
  -2   3   1  152.96   10.04
   2   3  -1  170.91   10.39
  -2   3   1  180.09    9.34
  -1  -3   1  303.75   12.34
   1   3  -1  281.17   12.67
  -1  -3   1  298.92   12.98
  -1   3   1  298.64   11.32
  -1   3   1  279.44   13.37
   1   3  -1  290.22   12.97
   1  -3  -1  286.63   12.63
   0   3   1  123.43    7.64
   0   3  -1  124.15    8.03
   0  -3   1  131.91    8.22
   0   3  -1  131.70    8.57
   0  -3   1  111.68    7.54
   0  -3  -1  131.86    8.15
   0   3   1  120.83    8.31
   0  -3  -1  110.22    7.62
  -1   3  -1  161.47   10.02
  -1   3  -1  179.93    8.03
  -1  -3  -1  177.35    9.89
  -1  -3  -1  173.61    8.83
   1  -3   1  169.37    9.29
   1   3   1  167.39    9.27
  -2   3  -1  230.61   12.54
   2   3   1  217.69   11.68
  -2   3  -1  242.74   10.51
   2   3   1  223.10   12.29
  -2  -3  -1  254.33   10.37
  -2  -3  -1  244.71   12.37
   2  -3   1  231.41   11.31
  -3   3  -1  199.50   10.50
   3   3   1  173.49   10.92
  -3   3  -1  179.50   11.46
   3   3   1  171.13   11.10
  -3  -3  -1  175.96   11.07
   3  -3   1  179.71   10.48
   4   3   1    4.87    2.07
  -4  -3  -1   15.65    3.88
  -4   3  -1   14.88    3.32
   4  -3   1    6.26    2.46
   4  -3   1   11.30    3.15
  -4   3  -1   15.52    4.10
   4   3   1    8.27    2.93
   5   3   1    3.75    2.27
  -5   3  -1    7.14    3.29
  -5   3  -1    8.13    3.20
  -5  -3  -1    9.24    3.86
   5  -3   1    7.14    3.01
   5  -3   1    4.24    2.47
  -6   3  -1    4.19    3.60
   6  -3   1    2.60    2.98
   6   3   1    3.52    2.85
  -6   3  -1    3.76    2.90
  -6  -3  -1   13.02    4.42
   5   4  -1    4.55    3.39
   5  -4  -1    1.53    1.96
  -5   4   1    0.73    2.43
   4   4  -1   80.25    9.16
  -4  -4   1   84.91    8.92
  -4   4   1   81.70    9.16
   4   4  -1   79.10    8.74
   4  -4  -1   59.23    7.36
  -3  -4   1   44.89    6.54
  -3   4   1   47.62    6.49
   3   4  -1   45.68    6.49
   3   4  -1   52.90    7.20
   3  -4  -1   48.13    6.17
  -3   4   1   40.90    6.37
  -2   4   1   27.61    5.05
  -2   4   1   28.07    5.22
   2   4  -1   28.88    5.55
   2   4  -1   26.44    4.64
  -2  -4   1   32.00    5.47
   2  -4  -1   22.96    4.32
   1  -4  -1    5.59    2.68
  -1   4   1    9.11    3.60
  -1   4   1   10.44    3.32
  -1  -4   1    9.36    2.95
   1  -4  -1    5.55    2.46
   1   4  -1    8.04    2.70
  -1  -4   1    5.99    2.45
   0   4  -1   39.57    5.76
   0  -4  -1   41.39    5.40
   0  -4  -1   41.13    5.62
   0   4   1   50.05    6.68
   0   4   1   34.57    5.76
   0  -4   1   41.00    5.62
   0  -4   1   50.82    6.11
   1  -4   1   37.98    5.33
   1  -4   1   46.14    5.97
  -1  -4  -1   47.30    5.95
  -1   4  -1   45.00    6.25
   1   4   1   43.48    6.37
  -2   4  -1    3.01    3.05
   2  -4   1    4.90    2.70
  -2  -4  -1    2.10    2.14
   2   4   1    6.90    3.57
  -3   4  -1  121.56   10.87
  -3  -4  -1  122.52   10.54
   3  -4   1  132.10   10.18
   3   4   1  107.56   10.23
  -3   4  -1  134.98   11.00
   3   4   1  136.49   10.87
  -4  -4  -1   -0.28    2.03
   4   4   1    0.29    2.42
   4  -4   1   -2.87    3.02
  -4   4  -1   -1.60    2.54
   4   4   1    6.74    2.89
   5   4   1    2.14    2.89
  -5   4  -1   -1.22    1.96
  -2  -5   1    9.12    4.07
   2  -5  -1    4.21    2.94
   2  -5  -1    7.51    3.22
   1  -5  -1   14.84    4.28
  -1  -5   1   11.76    4.38
   1  -5  -1   10.02    3.77
  -1   5   1    3.64    3.54
   0  -5  -1   -0.88    2.20
   0   5   1   -2.59    2.27
   0  -5   1   -0.45    1.97
   1  -5   1    4.92    2.81
  -1   5  -1    5.85    3.54
  -1   5  -1    1.04    2.25
   1  -5   1   -4.42    3.32
  -1  -5  -1    1.67    1.93
   2  -5   1   21.30    5.06
   7   0  -2   22.10    4.65
  -7   0   2   29.79    5.42
   6   0  -2    8.68    3.54
  -6   0   2    6.31    2.52
  -5   0   2   17.90    3.45
   5   0  -2   18.77    3.65
   4   0  -2  271.08   12.32
  -4   0   2  286.24   12.19
  -4   0   2  302.65    8.73
  -3   0   2 4247.33   68.63
   3   0  -2 4176.84   75.13
  -3   0   2 4147.41   74.12
  -2   0   2  122.45    5.51
  -2   0   2  136.05    3.81
   2   0  -2  125.93    5.76
   0   0   2 1072.11   20.68
   0   0  -2 1137.47   20.88
  -2   0  -2  825.20   18.35
   2   0   2  855.28   14.87
   2   0   2  850.12   19.38
  -2   0  -2  831.23   17.35
  -2   0  -2  864.28   18.97
  -3   0  -2 1172.73   23.78
  -3   0  -2 1189.96   26.84
   3   0   2 1128.74   19.24
   3   0   2 1195.58   27.40
  -3   0  -2 1182.00   19.37
  -4   0  -2 2077.27   44.42
   4   0   2 2036.46   44.89
  -4   0  -2 2079.36   39.88
  -5   0  -2   35.94    3.73
  -5   0  -2   36.99    5.01
   5   0   2   33.45    4.92
   6   0   2  238.29   14.35
  -6   0  -2  233.94   14.02
   7   0   2   31.26    5.84
  -7   0  -2   35.76    6.08
   7   1  -2    6.01    3.95
   7  -1  -2    8.04    3.24
  -7   1   2    1.83    1.94
   7  -1  -2   -1.00    2.54
  -7  -1   2    6.61    3.03
   6  -1  -2    5.73    2.77
   6   1  -2   10.07    4.00
  -6   1   2   11.46    3.59
  -6  -1   2    4.35    2.36
  -5  -1   2   92.93    7.51
   5  -1  -2   79.06    7.16
   5   1  -2   78.84    7.84
  -5   1   2   87.89    7.62
  -5   1   2   82.48    5.80
  -4  -1   2  401.39    9.79
  -4  -1   2  370.35   14.06
   4   1  -2  379.74   10.10
  -4   1   2  358.58   14.51
   4   1  -2  376.95   15.75
  -4  -1   2  375.12   14.84
  -4   1   2  383.43   12.60
   4  -1  -2  366.86   14.34
  -3   1   2  574.79   15.32
  -3   1   2  548.83   16.66
  -3  -1   2  554.18   16.89
  -3  -1   2  593.35   12.76
   3  -1  -2  589.76   16.59
   3   1  -2  599.88   18.22
  -3   1   2  572.74   12.76
  -3  -1   2  559.21   16.02
   3  -1  -2  564.97   17.19
  -2   1   2  955.70   20.75
  -2   1   2  961.85   19.96
   2   1  -2  975.76   22.19
  -2   1   2  953.16   15.38
  -2  -1   2  962.33   19.52
   2  -1  -2  985.36   21.18
   2  -1  -2  983.19   19.83
  -2  -1   2  950.77   20.75
  -2   1   2  956.30   18.31
   1   1  -2 1957.69   34.01
   1  -1  -2 1950.84   35.58
  -1   1   2 1922.81   35.52
   1  -1  -2 1936.47   33.38
   1   1  -2 1927.55   36.36
  -1   1   2 1969.60   35.24
  -1  -1   2 1937.59   35.12
  -1  -1   2 1968.57   34.82
   1  -1   2  153.15    5.39
   1  -1   2  159.68    4.12
  -1  -1  -2  155.08    4.35
  -1   1  -2  145.56    5.04
   1  -1   2  144.01    5.79
  -1   1  -2  149.26    6.09
   1   1   2  148.20    5.76
   1   1   2  154.05    5.93
  -1  -1  -2  157.83    6.05
   2  -1   2   30.97    2.90
   2   1   2   28.01    2.55
  -2  -1  -2   33.81    3.27
  -2   1  -2   27.07    2.71
  -2   1  -2   28.71    2.87
   2  -1   2   32.76    3.25
   2   1   2   28.42    3.12
   3   1   2 1713.06   37.57
  -3   1  -2 1677.04   35.81
  -3   1  -2 1669.27   35.12
  -3  -1  -2 1842.24   33.78
   3  -1   2 1736.51   36.94
   3   1   2 1721.84   32.38
  -3  -1  -2 1653.31   36.27
  -4  -1  -2    3.10    1.36
   4  -1   2    1.01    1.51
  -4  -1  -2    0.91    1.39
   4   1   2    1.90    1.63
   4   1   2    0.28    0.81
  -4   1  -2    1.70    1.08
  -4   1  -2   -0.20    1.36
  -4  -1  -2    2.09    1.75
  -5   1  -2   10.18    2.99
  -5   1  -2   10.04    2.41
   5   1   2    9.53    3.02
   5  -1   2   11.73    3.02
  -5  -1  -2   13.88    3.44
  -5  -1  -2   11.83    3.00
   6  -1   2   23.17    4.32
   6   1   2   19.95    4.89
  -6   1  -2   24.49    4.75
  -6  -1  -2   23.25    4.49
  -7   1  -2   28.73    5.60
  -7  -1  -2   40.27    6.15
   7  -1   2   40.56    6.73
   7   1   2   27.53    5.69
  -7  -2   2    0.64    1.94
  -7   2   2    8.82    3.53
   7   2  -2    8.99    3.89
   7  -2  -2   -0.82    2.14
   7  -2  -2    9.73    2.90
  -6  -2   2   37.18    5.35
  -6   2   2   45.57    6.70
   6  -2  -2   42.54    6.44
  -6  -2   2   43.83    6.57
   6   2  -2   43.54    6.93
   6  -2  -2   39.60    5.90
   5   2  -2   40.64    6.23
  -5   2   2   35.19    4.56
  -5  -2   2   30.82    4.96
  -5  -2   2   27.49    4.46
  -5   2   2   26.14    4.44
   5  -2  -2   30.79    4.75
   5  -2  -2   33.38    5.13
   4   2  -2  127.39    9.67
   4   2  -2  136.52    7.74
  -4   2   2  118.12    8.01
   4  -2  -2  150.52    9.01
  -4   2   2  126.06    8.69
  -4  -2   2  123.67    7.93
  -4  -2   2  121.28    8.69
   4  -2  -2  118.92    8.65
   3  -2  -2   94.05    6.88
  -3  -2   2  101.38    7.11
  -3   2   2   96.37    6.78
  -3  -2   2   95.34    6.04
   3  -2  -2   97.63    6.30
  -3   2   2  104.84    7.08
  -3   2   2  108.17    6.39
   3   2  -2   91.47    7.38
  -2  -2   2  511.99   16.10
  -2   2   2  518.37   15.55
   2  -2  -2  519.66   16.09
  -2  -2   2  536.10   15.02
   2  -2  -2  518.85   14.37
   2   2  -2  524.02   17.12
  -2   2   2  505.92   16.42
   1   2  -2  806.23   20.16
   1  -2  -2  821.79   20.63
  -1   2   2  835.54   19.66
  -1  -2   2  813.92   20.20
  -1  -2   2  813.53   19.80
  -1   2   2  811.00   21.38
   1   2  -2  816.26   21.39
   0  -2   2  805.86   20.03
   0  -2   2  779.65   18.89
   0   2   2  778.11   18.38
   0  -2  -2  764.93   19.53
   0   2   2  758.91   20.12
   0   2  -2  774.39   19.98
  -1   2  -2 2394.94   42.45
  -1  -2  -2 2356.09   43.00
   1  -2   2 2416.52   40.90
  -1  -2  -2 2404.18   46.17
   1  -2   2 2351.61   44.52
   1   2   2 2320.39   44.79
  -1   2  -2 2322.18   46.85
  -2  -2  -2  341.82   10.00
   2  -2   2  343.90   11.85
   2  -2   2  327.34   12.04
  -2   2  -2  333.41   11.22
  -2   2  -2  334.84   13.01
  -2  -2  -2  326.60   12.70
   2   2   2  338.72   12.65
   2   2   2  345.92   12.94
  -3   2  -2  211.31   10.54
  -3  -2  -2  205.81   10.59
  -3   2  -2  197.47    9.61
   3   2   2  203.59    9.65
   3   2   2  206.50   10.86
   3  -2   2  196.30    9.58
   3  -2   2  207.40   10.17
   4  -2   2    9.24    2.52
  -4  -2  -2    9.43    2.87
   4  -2   2   15.36    3.44
  -4   2  -2   14.60    3.08
  -4   2  -2   11.34    2.81
   4   2   2   14.84    2.81
   4   2   2   12.00    3.46
   5  -2   2  318.67   15.26
   5  -2   2  344.42   16.40
   5   2   2  310.70   16.72
  -5   2  -2  319.38   14.96
  -5   2  -2  302.48   15.15
  -5  -2  -2  296.95   15.69
  -5  -2  -2  307.78   15.10
   6  -2   2    3.77    2.56
   6  -2   2    0.02    2.17
  -6  -2  -2    5.86    3.65
  -6   2  -2    4.49    2.48
   6   2   2    2.85    2.41
  -6  -2  -2    2.26    1.94
  -7   2  -2   45.45    6.89
   7   2   2   42.83    7.81
   7  -2   2   34.95    6.44
   7  -2   2   29.06    5.88
  -7  -2  -2   35.34    6.15
  -6  -3   2   31.16    6.11
  -6   3   2   25.33    5.18
   6  -3  -2   26.20    5.42
   6   3  -2   30.33    6.28
   5   3  -2   29.48    5.56
  -5   3   2   31.95    5.20
   5  -3  -2   21.99    4.64
  -5  -3   2   31.77    5.62
  -5   3   2   27.39    4.88
  -4   3   2  106.16    8.67
  -4   3   2   97.52    8.64
  -4  -3   2   96.67    8.71
   4   3  -2  102.13    8.24
   4  -3  -2  102.00    8.78
   4   3  -2  104.37    9.43
   3   3  -2   74.65    7.62
  -3  -3   2   69.11    6.83
  -3   3   2   69.81    6.95
  -3   3   2   77.17    6.57
   3  -3  -2   68.90    6.77
  -3   3   2   82.11    7.08
  -2   3   2  314.84   12.91
  -2   3   2  321.31   14.24
  -2  -3   2  300.10   12.39
  -2   3   2  296.63   14.28
  -2  -3   2  291.62   13.50
   2   3  -2  294.58   14.09
   2  -3  -2  282.47   13.17
   1   3  -2  140.63    8.99
   1  -3  -2  122.30    8.23
   1   3  -2  123.69    8.13
  -1   3   2  130.53    7.47
  -1  -3   2  128.78    7.98
  -1   3   2  130.85    8.93
  -1  -3   2  119.33    7.99
   0   3   2   70.55    5.59
   0  -3   2   71.65    5.48
   0  -3  -2   77.03    6.38
   0  -3   2   75.41    6.34
   0  -3   2   70.09    5.98
   0  -3  -2   77.41    6.14
   0   3   2   64.93    6.10
   0   3  -2   71.13    6.32
   0   3  -2   73.38    6.38
   1   3   2  137.49    8.17
  -1  -3  -2  142.98    8.88
   1   3   2  139.94    9.37
  -1  -3  -2  158.13    8.16
   1  -3   2  137.05    8.29
  -1   3  -2  159.86    9.84
  -1   3  -2  137.89    6.71
  -2   3  -2   59.84    4.97
  -2   3  -2   64.27    6.82
   2  -3   2   59.04    5.52
   2   3   2   62.45    6.60
  -2  -3  -2   63.54    4.95
  -2  -3  -2   68.79    6.51
   2   3   2   72.95    6.45
  -3   3  -2   56.95    6.55
  -3  -3  -2   52.70    6.04
   3  -3   2   61.53    6.02
   3   3   2   62.43    6.65
  -3   3  -2   67.35    6.00
   3   3   2   59.50    6.48
  -4   3  -2  136.21   10.68
   4   3   2  145.19   11.11
   4  -3   2  134.00    9.56
  -4  -3  -2  137.21   10.62
   4   3   2  154.41   10.33
  -4   3  -2  161.29   10.33
   4  -3   2  163.03   10.80
  -5   3  -2    7.60    3.07
   5  -3   2    4.90    2.82
   5  -3   2    1.23    1.94
  -5  -3  -2    5.85    3.06
   5   3   2    1.44    2.21
  -5  -3  -2    2.30    1.70
  -5   3  -2    4.08    2.79
   6  -3   2   16.30    4.35
  -6   3  -2   21.24    4.98
  -6  -3  -2   23.74    5.71
  -6   3  -2   17.02    4.57
   6   3   2   22.32    5.22
   5   4  -2    6.27    3.13
  -5   4   2   -0.17    2.33
   5  -4  -2    2.69    2.19
  -4  -4   2   -1.82    2.49
  -4   4   2   -0.27    2.57
   4   4  -2   -2.64    3.27
   4   4  -2   -1.34    2.27
   4  -4  -2    2.39    2.67
  -3   4   2   51.03    6.70
   3  -4  -2   46.87    6.31
   3   4  -2   49.77    6.95
  -3  -4   2   50.69    6.83
   3   4  -2   48.58    6.72
  -3   4   2   46.66    6.86
   2   4  -2   14.94    3.85
  -2   4   2   30.79    5.25
  -2  -4   2   31.22    5.10
   2  -4  -2   23.01    4.55
  -2   4   2   19.96    4.60
  -1  -4   2   32.56    4.98
  -1  -4   2   29.68    4.75
   1   4  -2   37.06    5.23
   1   4  -2   35.60    5.09
   1  -4  -2   29.00    4.76
  -1   4   2   32.09    5.40
  -1   4   2   34.24    5.68
   1  -4  -2   33.43    5.26
   0  -4   2   10.61    3.27
   0  -4  -2   11.08    3.15
   0   4   2   14.25    4.17
   0  -4  -2   15.23    3.50
   0   4   2   14.42    3.71
   0   4  -2   12.84    3.49
   0   4  -2   17.31    4.10
   0  -4   2    8.91    2.99
   1  -4   2   16.86    4.01
   1   4   2   11.84    4.38
  -1   4  -2   17.27    4.25
   1  -4   2    9.67    3.07
  -1  -4  -2   13.73    3.78
   2   4   2    8.71    3.51
  -2   4  -2   18.49    4.42
   2  -4   2   21.83    4.94
  -2  -4  -2   11.02    2.89
   2  -4   2   10.16    2.92
  -3  -4  -2   83.23    8.64
   3  -4   2   72.89    7.56
  -3   4  -2   77.27    8.96
   3   4   2   70.96    8.13
   4   4   2    7.86    3.43
  -4   4  -2    9.28    3.94
  -4  -4  -2    9.09    3.73
   4  -4   2    6.21    2.72
  -5   4  -2   -1.58    2.10
   5   4   2   -2.95    2.75
   2  -5  -2    0.37    2.23
  -2  -5   2    0.81    2.70
   2  -5  -2    0.67    2.14
  -1   5   2    5.56    3.57
  -1  -5   2    2.66    2.00
   1  -5  -2    9.85    4.00
   0  -5   2    5.49    2.48
   0   5  -2   20.37    5.86
   0   5  -2   11.42    4.05
   0  -5  -2    4.94    2.86
   0   5   2    6.34    4.32
  -1   5  -2   17.89    5.62
   1  -5   2    1.47    2.21
  -1  -5  -2   10.12    3.95
   1  -5   2    5.14    3.35
   2  -5   2    1.88    2.68
   7   0  -3    0.52    2.83
  -7   0   3   -1.98    2.25
  -6   0   3   -0.56    1.99
   6   0  -3    1.26    1.91
   5   0  -3   -0.63    1.68
  -5   0   3   -2.63    2.35
  -4   0   3    0.99    1.10
   4   0  -3    0.27    1.39
  -4   0   3   -0.35    0.65
   3   0  -3   -0.03    1.05
  -3   0   3    0.51    0.62
  -3   0   3    0.36    1.09
   2   0  -3    0.35    0.87
  -2   0   3    0.42    0.43
  -2   0   3    0.53    0.43
   2   0  -3    0.46    0.39
  -2   0   3    0.29    0.76
  -1   0   3    0.88    0.70
  -1   0   3    0.12    0.50
   1   0  -3    1.39    0.70
  -1   0   3    0.49    0.70
   0   0  -3    0.13    0.34
   0   0   3    0.67    0.38
   0   0  -3    0.12    0.41
   0   0   3    0.01    0.45
  -1   0  -3    1.28    0.84
   1   0   3    0.63    0.65
   1   0   3    1.43    0.68
  -1   0  -3    1.08    0.50
   2   0   3    0.58    0.98
  -2   0  -3    0.50    0.96
   2   0   3    0.20    0.54
  -2   0  -3    0.74    0.96
   3   0   3   -1.00    1.36
   3   0   3    0.25    0.51
  -3   0  -3    0.38    1.16
  -3   0  -3   -0.26    0.95
  -4   0  -3    1.13    1.12
  -4   0  -3   -1.02    1.23
   4   0   3    3.90    1.87
  -5   0  -3    0.72    1.36
  -5   0  -3    0.07    1.77
   5   0   3    3.27    2.46
   6   0   3   -0.41    1.90
  -6   0  -3   -0.47    1.93
   7   0   3    4.84    3.19
  -7   0  -3   -1.29    2.25
   8  -1  -3    5.17    3.45
   7  -1  -3    2.87    2.93
  -7  -1   3    3.14    2.10
   7  -1  -3    6.74    2.81
   7   1  -3    6.17    3.00
  -7   1   3    2.79    2.54
  -6  -1   3   14.79    3.62
   6   1  -3   20.60    4.64
  -6   1   3   14.32    3.35
   6  -1  -3   14.51    3.65
  -5   1   3   21.37    3.11
  -5   1   3   19.96    4.04
   5  -1  -3   16.64    3.43
   5   1  -3   20.36    4.22
  -5  -1   3   20.25    3.68
  -4   1   3    1.63    1.30
  -4   1   3    3.55    2.01
   4  -1  -3    3.99    2.21
  -4  -1   3    2.36    1.58
   4   1  -3    2.41    2.23
   4   1  -3    1.78    0.79
   4  -1  -3    2.56    1.67
  -4  -1   3    1.64    1.36
  -3   1   3  229.88    8.63
  -3  -1   3  222.59    9.83
   3  -1  -3  255.82    9.74
   3   1  -3  234.48   10.69
  -3   1   3  236.30    7.10
  -3  -1   3  238.38    9.45
  -3   1   3  230.30    9.98
   3  -1  -3  232.74   10.27
  -3   1   3  220.76    6.82
  -3  -1   3  243.39    6.42
  -2  -1   3  763.19   16.47
  -2   1   3  741.40   15.68
   2  -1  -3  747.31   18.12
   2  -1  -3  745.75   16.45
  -2  -1   3  739.65   17.68
  -2   1   3  754.08   16.95
  -2   1   3  729.14   13.00
   2   1  -3  766.16   19.09
  -2   1   3  772.11   18.08
   1   1  -3  220.07    6.39
   1  -1  -3  213.35    5.69
   1  -1  -3  212.79    7.44
  -1  -1   3  214.84    7.17
  -1   1   3  212.85    7.26
   1   1  -3  215.53    7.96
   1  -1  -3  225.10    4.83
  -1  -1   3  209.35    6.92
  -1   1   3  212.46    7.31
  -1   1   3  225.24    7.15
  -1   1  -3 2125.29   36.81
  -1   1  -3 2156.86   39.40
  -1  -1  -3 2104.51   38.72
   1  -1   3 2117.50   37.06
   1  -1   3 2106.74   35.84
  -1  -1  -3 2191.36   35.02
   1   1   3 2141.82   38.78
   1  -1   3 2172.04   39.08
   1   1   3 2162.06   38.15
   2   1   3   98.63    4.89
  -2   1  -3  104.03    5.63
   2   1   3  100.18    5.74
  -2  -1  -3  101.72    5.62
   2  -1   3  101.67    5.10
  -2   1  -3  106.12    5.32
   2  -1   3  107.56    5.86
  -3   1  -3 1484.56   31.65
   3  -1   3 1466.51   32.93
   3   1   3 1446.73   28.54
   3   1   3 1477.70   33.49
  -3   1  -3 1403.75   31.52
  -3  -1  -3 1532.26   30.25
  -3  -1  -3 1396.84   32.08
  -4   1  -3  103.70    6.76
   4   1   3  109.53    5.16
  -4   1  -3  106.85    7.51
   4  -1   3  113.93    7.96
  -4  -1  -3  118.69    6.49
  -4  -1  -3  111.50    7.65
  -4  -1  -3  114.63    7.94
   4   1   3  116.53    8.30
  -5  -1  -3   13.87    3.34
  -5   1  -3    9.43    2.31
   5   1   3   13.68    3.41
  -5  -1  -3    8.78    2.96
   5  -1   3    9.21    3.40
  -5   1  -3   10.53    2.81
  -6   1  -3  138.23   10.78
  -6  -1  -3  136.76   10.64
   6  -1   3  134.56   10.92
   6   1   3  142.51   11.43
   7  -1   3   25.25    5.23
  -7  -1  -3   19.59    4.72
  -7   1  -3   22.04    4.90
   7   1   3   16.17    4.72
  -7  -2   3    9.10    3.62
  -7   2   3   13.86    4.19
   7   2  -3    9.11    4.11
   7  -2  -3    3.99    2.74
   7  -2  -3    8.18    3.67
   6  -2  -3   65.52    7.20
   6  -2  -3   54.94    7.10
  -6  -2   3   56.79    6.60
  -6   2   3   61.36    7.55
  -6  -2   3   53.11    7.30
   6   2  -3   62.76    8.47
  -5  -2   3   87.03    8.12
  -5   2   3   86.74    8.10
   5   2  -3   77.48    8.19
   5  -2  -3   82.56    7.78
  -5   2   3   80.49    6.92
   5  -2  -3   87.83    7.68
  -5  -2   3   78.74    7.06
   4  -2  -3   15.85    3.70
  -4   2   3   11.60    2.86
   4  -2  -3   15.02    3.05
   4   2  -3   15.92    3.63
  -4   2   3   15.24    2.96
  -4  -2   3   12.70    2.83
  -4  -2   3   17.12    3.52
  -3  -2   3   61.07    4.72
   3   2  -3   65.96    6.36
  -3   2   3   67.54    4.90
  -3   2   3   63.50    5.53
   3  -2  -3   52.43    5.12
   3  -2  -3   67.53    5.03
  -3   2   3   58.28    5.42
  -3  -2   3   62.21    5.51
  -2  -2   3   60.19    4.93
  -2   2   3   59.13    4.75
  -2   2   3   60.59    5.11
   2   2  -3   57.00    5.30
   2  -2  -3   55.40    4.93
  -2   2   3   58.15    4.64
  -2  -2   3   62.56    4.74
   2  -2  -3   62.32    4.19
  -1  -2   3 1270.48   27.15
   1  -2  -3 1215.31   27.71
  -1  -2   3 1212.13   27.00
  -1   2   3 1207.91   28.12
  -1   2   3 1231.18   28.49
   1   2  -3 1215.56   26.90
  -1   2   3 1248.91   26.92
   1   2  -3 1242.43   29.00
   0   2   3  211.08    7.68
   0  -2  -3  210.22    9.04
   0  -2   3  209.42    8.21
   0   2   3  214.86    9.26
   0   2   3  218.00    9.58
   0   2  -3  214.09    9.05
   0  -2   3  214.48    8.04
   0  -2   3  204.99    8.93
  -1   2  -3 2432.74   42.15
  -1   2  -3 2371.30   47.11
  -1  -2  -3 2375.84   46.41
  -1  -2  -3 2392.92   42.78
   1   2   3 2350.37   47.12
   1  -2   3 2348.79   41.30
   1   2   3 2375.44   44.82
   1  -2   3 2352.05   44.29
  -2   2  -3  175.67    7.53
   2   2   3  173.48    8.68
  -2  -2  -3  170.24    6.26
   2   2   3  160.58    8.40
   2  -2   3  165.11    7.69
   2  -2   3  164.06    8.39
  -2  -2  -3  155.82    8.45
  -2   2  -3  165.41    8.88
   3   2   3    7.11    2.57
  -3   2  -3    7.03    2.19
   3   2   3   14.19    2.88
   3  -2   3    7.62    1.98
  -3   2  -3    5.21    2.21
  -3  -2  -3    7.82    2.10
   3  -2   3   10.03    2.42
  -4  -2  -3   66.50    5.58
  -4   2  -3   67.57    6.40
   4   2   3   66.65    6.84
   4   2   3   71.26    5.74
  -4   2  -3   68.04    6.17
   4  -2   3   76.99    6.76
   4  -2   3   63.95    5.96
  -4  -2  -3   64.50    6.51
   5  -2   3  102.09    9.04
   5  -2   3  125.31    9.33
  -5   2  -3  115.73    8.81
  -5  -2  -3  112.11    9.30
  -5   2  -3  114.30    9.01
   5   2   3  107.40    9.89
  -5  -2  -3  111.65    8.98
  -6   2  -3    5.98    2.36
  -6  -2  -3    1.81    2.32
  -6   2  -3    2.29    1.98
   6  -2   3    7.40    3.09
  -6  -2  -3    5.07    2.61
   6  -2   3    5.30    2.43
   6   2   3    4.45    2.87
  -7  -2  -3    2.49    2.53
   7   2   3   -1.52    2.96
  -7   2  -3    1.31    2.85
   7  -2   3    3.91    2.89
   7  -2   3    0.71    2.55
   6   3  -3   39.08    7.45
   6  -3  -3   47.57    7.34
  -6  -3   3   37.34    6.25
  -6   3   3   44.34    6.89
  -5   3   3   19.67    4.26
  -5   3   3   11.20    3.40
   5  -3  -3   14.81    3.93
   5   3  -3   19.59    4.78
  -5  -3   3   25.79    4.68
  -4   3   3    4.21    2.44
   4   3  -3    4.20    2.33
   4  -3  -3    1.94    1.87
  -4   3   3    5.92    2.77
  -4  -3   3    7.73    2.76
   4   3  -3    4.01    2.72
   3   3  -3   39.41    5.68
   3  -3  -3   26.72    4.29
  -3  -3   3   33.73    4.65
  -3   3   3   41.17    5.44
  -3   3   3   36.15    4.82
  -3   3   3   45.37    5.19
  -2  -3   3  398.05   14.83
   2  -3  -3  369.31   15.33
  -2   3   3  381.61   15.78
  -2   3   3  396.14   16.67
  -2  -3   3  388.09   15.76
  -2   3   3  398.41   15.02
   2   3  -3  370.77   16.18
   1   3  -3  129.39    8.84
  -1  -3   3  144.16    8.58
  -1   3   3  131.05    9.03
  -1   3   3  146.65    8.12
  -1   3   3  133.15    9.14
   1   3  -3  130.36    8.38
   1  -3  -3  124.17    8.35
  -1  -3   3  142.04    8.54
   0  -3   3    6.97    2.33
   0  -3   3   11.53    2.66
   0   3   3    9.16    2.07
   0  -3   3    9.24    2.39
   0  -3  -3    5.57    1.97
   0   3   3    4.79    2.66
   0   3  -3    6.62    2.23
   0   3  -3    7.00    1.92
   0   3   3    7.02    2.36
  -1  -3  -3  106.59    6.47
   1   3   3   97.48    6.63
   1  -3   3  103.92    7.93
   1   3   3  103.72    8.04
  -1   3  -3  102.81    7.94
   1  -3   3   96.25    6.75
  -1  -3  -3  104.53    7.69
   2   3   3  551.70   20.54
   2   3   3  628.69   20.17
  -2  -3  -3  558.05   20.10
   2  -3   3  561.58   18.35
  -2   3  -3  578.28   17.02
  -2   3  -3  572.21   20.90
  -3  -3  -3   22.24    4.29
  -3   3  -3   19.46    3.24
   3  -3   3   16.01    3.31
   3   3   3   18.13    3.66
   3   3   3   14.79    3.30
  -3   3  -3   17.72    4.23
  -4   3  -3   32.27    5.21
   4  -3   3   41.23    5.50
  -4   3  -3   47.40    5.64
  -4  -3  -3   42.58    5.74
   4  -3   3   39.75    5.22
   4   3   3   45.04    5.66
   4   3   3   40.43    6.04
   5  -3   3   27.21    5.17
  -5  -3  -3   28.22    5.39
  -5   3  -3   33.66    5.41
   5   3   3   34.94    6.51
   5  -3   3   18.59    4.04
  -5  -3  -3   35.36    5.48
  -5   3  -3   31.87    5.29
  -6  -3  -3   17.35    4.24
   6  -3   3   23.90    5.03
  -6   3  -3   25.97    5.21
  -6   3  -3   15.93    4.33
  -6  -3  -3   20.93    5.04
   6   3   3   23.33    5.49
  -5   4   3    6.81    3.43
   5  -4  -3   13.41    4.37
   5   4  -3    9.74    3.51
   4  -4  -3   36.04    6.13
   4   4  -3   22.74    5.01
  -4   4   3   35.77    6.56
  -4  -4   3   37.96    6.24
   4   4  -3   30.20    5.89
   3  -4  -3   27.22    5.11
  -3   4   3   24.09    4.82
  -3  -4   3   38.21    5.97
   3   4  -3   26.58    5.11
  -3   4   3   32.83    5.27
   3   4  -3   35.07    5.97
  -2   4   3   40.87    6.35
   2   4  -3   36.49    5.49
  -2   4   3   32.51    5.64
  -2  -4   3   32.55    5.36
  -2  -4   3   35.26    5.34
   2  -4  -3   28.47    4.82
  -1   4   3   31.58    5.26
   1  -4  -3   36.39    5.41
  -1  -4   3   34.31    5.15
  -1  -4   3   32.42    5.00
   1   4  -3   37.53    5.52
  -1   4   3   39.78    6.15
   1   4  -3   30.06    5.08
   0  -4  -3   34.06    5.21
   0  -4   3   30.43    4.81
   0  -4   3   29.21    4.86
   0   4  -3   32.47    5.22
   0   4  -3   31.14    5.19
   0  -4  -3   31.96    4.69
   0   4   3   44.36    6.62
   1  -4   3   36.64    5.41
  -1  -4  -3   33.29    5.24
   1  -4   3   40.48    5.89
  -1   4  -3   34.91    5.62
  -1   4  -3   32.35    5.30
   1   4   3   45.40    6.58
   2  -4   3   19.11    3.88
   2  -4   3   24.04    5.08
  -2  -4  -3   23.05    4.72
  -2   4  -3   18.55    4.44
   2   4   3   27.12    5.36
   3   4   3   52.51    7.17
  -3  -4  -3   48.35    6.74
  -3   4  -3   54.74    7.69
   3  -4   3   46.67    5.95
  -4   4  -3   48.80    7.31
   4   4   3   51.42    7.36
  -4  -4  -3   40.53    6.75
   2  -5  -3    9.19    3.79
   2  -5  -3   16.17    4.50
  -2  -5   3   10.65    4.05
   1  -5  -3    0.44    2.00
  -1  -5   3    1.01    2.36
   0  -5   3    6.61    3.26
   0  -5  -3    8.50    3.23
   0   5  -3   10.91    3.93
   1  -5   3    0.49    2.46
  -1  -5  -3    0.33    1.99
  -7   0   4   72.52    8.60
   7   0  -4   76.35    8.71
   6   0  -4  118.27    9.94
  -6   0   4  144.55   10.69
  -5   0   4  105.38    8.07
   5   0  -4  107.79    8.55
   4   0  -4  288.48   12.69
  -4   0   4  276.92   12.05
  -4   0   4  299.25    7.77
  -3   0   4   48.86    4.15
   3   0  -4   50.12    1.77
  -3   0   4   50.69    2.29
   3   0  -4   52.83    4.56
  -2   0   4 2150.59   39.51
  -2   0   4 2163.16   35.56
   2   0  -4 2190.82   39.89
   0   0   4  739.53   15.04
   0   0  -4  825.19   14.95
  -2   0  -4 3057.61   53.29
   2   0   4 3069.41   55.11
  -2   0  -4 3093.47   53.56
   2   0   4 3097.73   50.90
  -3   0  -4  714.35   17.57
   3   0   4  704.02   14.04
   3   0   4  721.84   19.83
  -3   0  -4  717.25   19.31
   4   0   4  473.81   17.32
  -4   0  -4  465.98   14.45
  -4   0  -4  493.91   17.10
  -5   0  -4   54.10    6.15
  -5   0  -4   61.07    5.07
   5   0   4   60.58    6.49
  -6   0  -4  282.95   15.67
   6   0   4  299.19   16.46
   7   0   4  136.97   11.99
  -7   0  -4  132.88   11.61
   8  -1  -4   26.10    6.01
  -7   1   4   70.50    8.50
  -7  -1   4   72.29    8.19
   7  -1  -4   81.31    9.01
   7   1  -4   85.13    9.82
   7  -1  -4   91.55    9.98
   6  -1  -4  109.82    9.20
  -6  -1   4  112.69    9.28
   6  -1  -4  103.56    9.39
   6   1  -4  114.47   10.52
  -6   1   4  102.86    9.43
   5  -1  -4  450.22   17.71
   5   1  -4  441.93   19.14
  -5  -1   4  436.78   17.13
  -5   1   4  418.53   17.73
   5  -1  -4  460.19   18.72
   4   1  -4  295.08   13.81
  -4   1   4  290.81   12.98
  -4  -1   4  270.87   11.75
   4  -1  -4  292.58   12.35
   4  -1  -4  293.77   13.20
  -4  -1   4  303.03   13.09
  -4   1   4  277.43    9.41
  -4   1   4  314.30   10.79
   3  -1  -4  128.08    7.53
  -3  -1   4  132.19    7.37
  -3   1   4  127.15    7.35
  -3   1   4  135.93    5.23
  -3   1   4  132.77    6.24
   3   1  -4  130.74    7.88
   3  -1  -4  135.27    6.84
  -3  -1   4  126.38    6.56
  -3  -1   4  138.90    4.07
  -3   1   4  126.83    4.97
   2  -1  -4  699.32   15.22
  -2  -1   4  650.48   14.95
  -2   1   4  674.02   15.81
  -2   1   4  657.75   12.58
  -2  -1   4  678.49   16.62
   2   1  -4  712.36   18.21
   2  -1  -4  682.11   17.20
  -2   1   4  682.41   14.92
  -2   1   4  674.93   16.97
   2   1  -4  526.44   12.52
  -1  -1   4 1112.36   21.81
  -1   1   4 1109.29   22.64
  -1  -1   4 1123.32   19.58
  -1   1   4 1147.90   22.63
   1   1  -4 1130.30   21.00
   1  -1  -4 1106.14   19.51
  -1  -1   4 1117.77   22.80
   1  -1  -4 1107.97   23.05
  -1   1   4 1047.40   22.55
   1   1  -4 1087.25   23.80
   1  -1   4 1563.21   28.06
   1  -1   4 1569.76   30.68
   1   1   4 1587.57   29.49
  -1  -1  -4 1561.67   30.21
  -1   1  -4 1519.72   30.76
  -1  -1  -4 1595.97   25.85
   1  -1   4 1610.19   28.08
  -1   1  -4 1589.43   28.06
   1   1   4 1593.53   30.48
  -2   1  -4  324.18   10.14
   2   1   4  340.80   10.20
  -2   1  -4  341.37   11.24
   2  -1   4  339.02   10.07
   2  -1   4  339.22   11.46
  -2  -1  -4  328.22   10.98
   2   1   4  353.96   11.46
  -3  -1  -4  226.72   10.03
   3  -1   4  233.06   10.50
  -3   1  -4  232.93    9.75
   3   1   4  216.47   10.25
  -3   1  -4  219.89    9.51
  -3  -1  -4  238.18    9.12
   3   1   4  227.51    8.07
  -4   1  -4  263.91   11.43
  -4  -1  -4  278.28   10.79
   4  -1   4  249.02   12.35
   4   1   4  276.55   13.21
  -4  -1  -4  265.49   12.34
  -4   1  -4  276.38   12.30
   4   1   4  276.79    8.94
   5  -1   4  305.65   15.13
  -5   1  -4  293.80   14.38
  -5  -1  -4  292.41   14.60
   5   1   4  301.95   15.47
  -5   1  -4  316.91   13.31
  -5  -1  -4  275.53   14.20
   6   1   4   50.88    6.90
  -6   1  -4   55.14    6.82
   6  -1   4   39.38    6.06
  -6  -1  -4   54.27    7.02
   7  -1   4   21.95    4.99
  -7   1  -4   18.85    4.71
   7   1   4   22.58    4.93
  -7  -1  -4   27.58    6.67
   7   2  -4   80.60   10.41
  -7   2   4   59.85    8.23
  -7  -2   4   71.01    8.33
   7  -2  -4   70.46    8.93
  -6   2   4   32.86    5.59
   6  -2  -4   35.02    5.73
   6   2  -4   46.64    7.42
  -6  -2   4   38.48    5.62
   6  -2  -4   46.53    6.12
  -6  -2   4   42.77    6.44
  -5  -2   4   23.94    4.39
  -5  -2   4   26.79    4.20
   5  -2  -4   23.88    4.59
   5   2  -4   25.84    4.83
  -5   2   4   26.77    3.97
   5  -2  -4   23.85    4.19
  -5   2   4   27.34    4.59
  -4   2   4   90.23    5.74
  -4  -2   4   72.91    6.79
   4  -2  -4   94.71    6.96
   4   2  -4   86.77    8.03
  -4   2   4   85.40    6.73
  -4  -2   4   84.82    6.28
  -4   2   4   85.04    7.20
   4  -2  -4   87.11    7.46
  -3   2   4   29.62    3.69
   3  -2  -4   25.43    3.12
   3   2  -4   24.65    4.08
  -3  -2   4   23.42    2.99
  -3   2   4   28.02    3.13
  -3  -2   4   30.65    4.14
   3  -2  -4   32.37    4.15
  -3   2   4   28.69    3.83
  -2   2   4   13.69    2.55
   2   2  -4   17.23    2.27
  -2   2   4   12.90    2.52
  -2  -2   4   10.34    1.56
  -2   2   4   15.78    2.65
   2   2  -4   15.92    2.94
  -2  -2   4   11.78    2.25
   2  -2  -4   11.87    2.51
   2  -2  -4   11.98    1.97
  -2  -2   4   14.11    2.55
  -1   2   4  685.88   19.41
  -1   2   4  719.65   18.53
  -1  -2   4  725.52   18.78
   1  -2  -4  690.38   19.00
  -1   2   4  701.97   19.29
   1   2  -4  715.19   18.28
  -1  -2   4  706.26   18.08
   1   2  -4  676.53   19.84
   0   2   4   53.25    4.55
   0  -2   4   54.91    4.54
   0   2  -4   57.51    4.64
   0  -2   4   55.20    3.99
   0   2   4   56.73    4.85
   0  -2  -4   53.17    4.51
   0   2   4   57.73    3.58
   0  -2   4   61.38    4.13
   1  -2   4  915.80   19.04
   1   2   4  951.82   21.45
   1   2   4  965.47   23.94
   1  -2   4  902.31   20.84
  -1  -2  -4  906.00   22.83
  -1   2  -4  911.86   23.43
  -1   2  -4  920.17   18.94
  -1  -2  -4  906.57   19.42
   2  -2   4  543.68   14.49
  -2  -2  -4  509.13   16.01
   2   2   4  551.46   16.06
  -2   2  -4  563.18   17.13
   2  -2   4  546.41   16.25
  -2   2  -4  572.47   14.25
   2   2   4  517.57   15.97
   3  -2   4   17.77    3.20
  -3  -2  -4   25.92    3.71
  -3   2  -4   17.92    2.91
  -3   2  -4   22.41    3.75
   3   2   4   23.00    3.34
   3   2   4   19.40    3.31
   3  -2   4   26.23    3.41
   4  -2   4  180.98   10.07
  -4   2  -4  193.19   10.94
   4   2   4  199.61    9.82
  -4  -2  -4  201.87   10.09
  -4   2  -4  178.13   10.13
  -4  -2  -4  172.60   10.67
   4  -2   4  183.73   11.08
   4   2   4  172.00   11.08
   5  -2   4   30.70    4.66
  -5  -2  -4   30.67    4.84
  -5   2  -4   31.44    4.76
  -5   2  -4   31.78    4.76
  -5  -2  -4   32.83    5.09
   5   2   4   22.18    4.58
   5  -2   4   31.61    5.40
  -6  -2  -4   63.98    7.78
   6  -2   4   54.43    6.84
  -6  -2  -4   47.00    6.50
   6  -2   4   42.99    6.56
  -6   2  -4   72.18    7.32
  -6   2  -4   45.83    6.45
   6   2   4   59.21    7.83
  -7  -2  -4    3.86    2.93
   7  -2   4   16.78    4.80
  -7   2  -4   20.39    5.12
   7  -2   4    9.46    3.88
   7   2   4   15.02    4.44
   6  -3  -4    6.46    3.25
  -6   3   4    7.47    3.34
  -6  -3   4    4.78    3.28
   6   3  -4    3.77    2.57
  -5  -3   4    3.23    2.21
   5  -3  -4    5.24    2.54
   5   3  -4   12.85    4.30
  -5   3   4    5.54    2.74
  -5   3   4    6.24    2.56
  -4  -3   4   36.42    5.41
  -4   3   4   36.42    5.24
  -4   3   4   33.11    4.96
   4  -3  -4   37.06    5.59
   4   3  -4   29.53    5.38
  -3   3   4   39.96    5.45
  -3  -3   4   44.79    5.58
  -3   3   4   36.50    4.64
   3   3  -4   36.42    5.29
  -3   3   4   39.91    5.04
   3  -3  -4   36.61    5.05
   2  -3  -4   44.75    5.27
   2   3  -4   60.63    5.53
  -2   3   4   50.88    5.78
  -2   3   4   55.35    5.95
  -2  -3   4   50.98    5.19
  -2   3   4   51.02    5.34
   2   3  -4   45.34    5.77
  -2  -3   4   54.48    5.63
   1  -3  -4   60.20    5.85
  -1   3   4   63.53    4.97
   1   3  -4   58.61    6.01
   1   3  -4   60.69    5.71
  -1   3   4   62.95    6.24
  -1  -3   4   64.71    5.93
  -1   3   4   67.92    5.68
  -1  -3   4   59.49    5.47
  -1   3   4   63.00    6.22
  -1  -3   4   74.55    6.35
   0  -3   4   20.24    3.48
   0  -3   4   23.13    3.46
   0  -3  -4   25.97    3.79
   0  -3   4   24.45    3.41
   0   3  -4   20.55    3.67
   0   3  -4   19.93    3.50
   0   3   4   24.82    4.30
   0   3   4   23.22    3.02
  -1  -3  -4   28.80    4.14
   1  -3   4   39.16    4.94
  -1  -3  -4   36.70    3.81
  -1   3  -4   34.00    4.70
   1   3   4   35.62    4.06
   1   3   4   39.42    5.13
   1  -3   4   34.67    4.11
  -2   3  -4  313.96   14.99
   2   3   4  332.35   13.93
   2   3   4  285.36   14.27
   2  -3   4  310.47   12.80
  -2  -3  -4  300.23   14.16
   3   3   4  101.92    8.32
   3   3   4  110.07    8.59
  -3   3  -4   99.75    8.68
   3  -3   4  108.98    7.69
  -3  -3  -4   97.00    8.24
  -4   3  -4   28.14    5.09
  -4   3  -4   34.79    4.88
   4  -3   4   31.31    4.74
   4   3   4   33.45    4.94
  -4  -3  -4   25.17    4.42
   4   3   4   35.67    5.31
   4  -3   4   39.27    5.41
  -5  -3  -4   82.11    8.80
   5   3   4   71.46    8.56
   5  -3   4   93.63    9.08
  -5  -3  -4   85.82    8.27
  -5   3  -4   79.97    8.56
   5  -3   4   77.84    7.86
  -5   3  -4   81.53    7.93
  -6  -3  -4   16.45    4.33
   6   3   4   23.60    5.57
  -6   3  -4   14.09    3.88
   6  -3   4   12.06    3.81
  -6  -3  -4   11.23    3.32
   5  -4  -4   16.39    4.03
   5   4  -4   25.55    6.34
  -5   4   4   20.41    5.12
  -4   4   4    6.28    3.34
  -4  -4   4    7.30    3.07
   4  -4  -4    2.70    1.83
   4   4  -4   13.60    4.27
   4   4  -4    6.61    3.11
  -3   4   4    5.29    2.61
  -3  -4   4   -1.73    2.62
   3  -4  -4    0.10    1.88
   3   4  -4    1.98    2.23
  -3   4   4    3.57    2.71
  -2   4   4   -0.33    1.97
   2  -4  -4    1.64    2.15
  -2   4   4    2.93    2.71
   2   4  -4   -1.21    3.12
  -2  -4   4    1.06    1.97
  -2  -4   4   -3.76    2.48
  -1  -4   4   11.21    2.94
   1   4  -4   17.98    4.04
   1   4  -4   12.68    3.80
  -1  -4   4   17.50    3.96
  -1   4   4   18.66    4.21
  -1   4   4   16.00    4.23
   1  -4  -4   10.14    2.90
   0   4  -4   51.71    6.46
   0  -4   4   53.17    6.01
   0  -4   4   54.00    6.33
   0   4  -4   40.03    5.92
   0   4   4   54.92    7.00
   0  -4  -4   46.58    6.04
   0  -4  -4   47.04    5.58
  -1  -4  -4    3.02    2.49
   1  -4   4   -0.14    1.97
   1   4   4    3.50    2.75
   1  -4   4    0.32    1.57
  -1   4  -4    1.53    1.93
   2  -4   4   11.78    3.09
  -2  -4  -4   11.08    3.61
   2   4   4    8.20    3.01
   2  -4   4   12.67    3.87
  -2   4  -4   19.20    4.14
   3   4   4   53.83    7.48
  -3   4  -4   56.14    7.51
  -3  -4  -4   64.64    7.74
   4   4   4   32.00    6.08
  -4   4  -4   27.29    5.61
  -4  -4  -4   39.52    6.78
   2  -5  -4    8.29    3.27
   2  -5  -4    9.26    4.08
  -2  -5   4    9.21    4.01
   1  -5  -4    6.52    2.97
  -1  -5   4    6.55    3.76
   0  -5  -4    3.59    3.30
   0  -5   4   -1.27    3.11
  -1  -5  -4   20.89    4.98
   1  -5   4   19.22    4.71
   7   0  -5    5.84    2.97
  -7   0   5   -1.64    2.01
   6   0  -5    4.75    2.69
  -6   0   5   -0.49    2.05
  -5   0   5    0.85    1.41
   5   0  -5   -0.01    1.81
   4   0  -5   -0.90    1.35
  -4   0   5   -0.37    1.24
  -4   0   5   -0.21    0.61
  -3   0   5    1.20    0.48
  -3   0   5   -0.67    1.13
   3   0  -5    0.86    1.26
   2   0  -5    0.32    0.33
  -2   0   5    0.84    1.05
  -2   0   5   -0.66    0.95
  -2   0   5    0.97    0.68
   2   0  -5    1.86    1.21
  -1   0   5    3.13    1.12
  -1   0   5    1.39    0.92
  -1   0   5    0.83    0.71
   1   0  -5    0.33    0.66
   0   0  -5    1.25    0.42
   0   0   5    0.44    0.37
   0   0   5    0.55    0.71
   0   0  -5    0.66    0.72
  -1   0  -5    1.12    0.65
   1   0   5    1.25    0.63
   1   0   5    1.52    0.92
  -1   0  -5    0.51    0.79
   1   0   5    0.86    0.70
   2   0   5   -1.33    0.87
  -2   0  -5   -0.75    0.79
  -2   0  -5   -0.76    0.81
   2   0   5    1.51    0.83
   3   0   5    0.82    0.56
  -3   0  -5    2.96    1.41
   3   0   5    1.05    1.38
  -3   0  -5    0.00    1.11
   4   0   5    0.26    1.71
  -4   0  -5   -0.02    0.99
  -4   0  -5    1.14    1.49
   5   0   5   -0.05    1.80
  -5   0  -5    1.66    1.66
  -5   0  -5    0.12    1.12
  -6   0  -5    3.02    3.01
   6   0   5    2.97    2.26
  -7   0  -5   -2.09    1.92
   7   0   5   -1.30    2.13
   8  -1  -5   22.54    5.32
  -7   1   5    9.31    3.88
  -7  -1   5    6.08    3.46
   7  -1  -5    8.07    3.52
   7  -1  -5   10.79    3.16
   7   1  -5   13.06    4.19
  -6   1   5  141.73   10.86
   6  -1  -5  121.24    9.74
   6  -1  -5  126.87   10.67
   6   1  -5  139.95   11.56
  -6  -1   5  121.27    9.66
  -5  -1   5  376.64   15.62
  -5   1   5  383.74   16.73
   5  -1  -5  358.51   15.52
   5   1  -5  363.71   17.33
   5  -1  -5  378.21   16.84
   4  -1  -5   37.53    4.31
  -4   1   5   33.87    3.29
  -4   1   5   32.03    4.35
  -4   1   5   34.01    3.10
  -4  -1   5   37.20    4.47
   4  -1  -5   32.51    4.28
  -4  -1   5   32.31    4.01
   4   1  -5   38.36    4.96
  -3  -1   5  343.14   12.63
   3  -1  -5  357.20   13.30
  -3  -1   5  367.68    7.23
  -3  -1   5  358.89    7.11
   3  -1  -5  357.51   11.85
  -3   1   5  365.03    9.93
  -3   1   5  360.41   11.07
   3   1  -5  364.41   13.94
  -3  -1   5  368.58   11.94
  -3   1   5  360.87    9.65
  -3   1   5  350.78   13.00
  -2   1   5  497.50   12.36
  -2   1   5  481.87   12.78
  -2   1   5  486.27   14.07
   2   1  -5  497.54   10.07
   2   1  -5  500.17   14.97
  -2   1   5  469.45   10.36
   2  -1  -5  512.24   12.16
  -2  -1   5  499.10   12.18
  -2  -1   5  487.97   13.47
   2   1  -5  399.50   10.45
   2  -1  -5  501.29   14.33
  -1  -1   5  151.69    6.36
   1  -1  -5  157.28    6.50
  -1   1   5  150.04    6.09
  -1  -1   5  149.47    6.51
  -1  -1   5  151.55    5.56
   1   1  -5  150.97    5.19
   1  -1  -5  147.28    3.95
   1   1  -5  183.07    5.29
  -1   1   5  158.61    6.28
   1   1  -5  151.36    6.91
  -1   1   5  145.61    6.32
  -1  -1   5  173.62    4.42
   0   1   5  668.48   15.87
   0  -1  -5  655.09   15.25
   0  -1   5  639.21   14.92
   0  -1   5  650.51   15.52
   0   1  -5  630.72   14.97
   0  -1  -5  695.89   12.20
   0  -1   5  660.27   13.03
   0   1   5  681.06   12.00
  -1   1  -5 1010.28   22.21
  -1   1  -5 1010.00   19.39
   1   1   5 1049.09   22.04
   1   1   5 1071.09   20.78
  -1  -1  -5  958.21   19.12
   1  -1   5 1030.56   19.09
   1  -1   5 1063.95   22.42
   1  -1   5 1031.39   20.08
  -1  -1  -5 1022.70   21.59
   2  -1   5  137.27    5.78
  -2   1  -5  140.63    6.93
   2   1   5  151.18    7.01
   2  -1   5  132.45    6.95
   2   1   5  127.23    6.03
  -2  -1  -5  129.80    6.58
  -2   1  -5  130.25    5.99
  -3  -1  -5  254.59   10.70
  -3   1  -5  241.19   10.20
  -3  -1  -5  269.36   10.18
  -3   1  -5  239.00    9.99
   3   1   5  260.61   11.22
   3   1   5  251.34    8.79
   3  -1   5  242.25   10.99
   4  -1   5   44.18    5.30
  -4   1  -5   38.14    4.26
   4   1   5   42.35    3.38
  -4  -1  -5   38.09    4.37
  -4  -1  -5   35.97    4.02
  -4   1  -5   42.60    4.68
   4   1   5   37.17    4.77
  -5  -1  -5   38.03    5.20
   5  -1   5   40.01    5.47
  -5   1  -5   37.72    5.12
  -5  -1  -5   38.26    4.25
  -5   1  -5   41.22    4.98
  -5  -1  -5   31.27    4.87
   5   1   5   34.09    5.17
   6  -1   5    2.65    3.14
  -6   1  -5   -0.52    1.67
   6   1   5    0.68    2.38
  -6  -1  -5   -1.29    1.84
  -7  -1  -5   41.63    6.62
   7  -1   5   44.85    7.27
   7   1   5   53.99    8.16
  -7   1  -5   39.80    6.78
  -7   2   5    9.06    3.93
   7   2  -5    9.11    4.06
  -7  -2   5    5.75    3.12
   7  -2  -5   12.85    4.23
   6  -2  -5  250.57   14.28
   6  -2  -5  239.82   14.87
  -6  -2   5  229.97   13.45
   6   2  -5  248.79   16.65
  -6   2   5  228.83   14.78
  -5   2   5    3.48    1.63
  -5  -2   5    2.92    1.93
   5  -2  -5    4.84    2.51
  -5   2   5    6.48    3.26
  -5  -2   5    2.07    1.72
   5   2  -5    1.62    2.46
   5  -2  -5    2.38    2.44
   4  -2  -5  123.30    8.83
  -4   2   5   90.61    6.94
   4   2  -5  110.30    9.22
   4  -2  -5  119.61    7.69
  -4  -2   5  109.02    8.23
  -4   2   5  104.10    8.11
  -4  -2   5  112.53    7.22
  -4   2   5  118.49    6.69
  -3  -2   5  285.86   10.30
  -3   2   5  265.85   11.64
   3  -2  -5  295.72   10.66
   3  -2  -5  281.84   12.59
  -3   2   5  282.89   12.49
  -3  -2   5  256.12   11.80
   3   2  -5  288.29   13.76
  -3   2   5  283.35   10.94
  -2   2   5  108.53    6.49
  -2  -2   5  100.28    6.28
   2  -2  -5   95.52    4.99
   2   2  -5  105.18    5.59
  -2   2   5  101.04    6.49
   2   2  -5   98.01    7.12
  -2   2   5  102.58    6.69
  -2  -2   5   95.41    6.18
   2  -2  -5   96.27    6.67
  -2  -2   5   96.59    4.56
  -1  -2   5   18.08    2.60
  -1  -2   5   28.97    3.43
   1  -2  -5   22.09    3.04
   1   2  -5   18.80    2.56
  -1   2   5   30.49    3.31
   1   2  -5   23.35    3.36
  -1  -2   5   24.45    3.26
  -1   2   5   25.44    3.37
  -1   2   5   20.25    3.16
   0   2  -5 1245.84   27.89
   0   2   5 1271.60   28.98
   0   2   5 1208.58   24.01
   0  -2   5 1220.43   28.18
   0  -2  -5 1270.14   28.25
   0  -2   5 1204.28   26.24
   0  -2   5 1220.26   25.65
   1  -2   5  612.17   15.53
   1  -2   5  611.29   14.58
  -1  -2  -5  616.72   14.30
  -1   2  -5  585.54   17.92
  -1  -2  -5  617.51   17.84
   1   2   5  632.84   16.02
   1   2   5  622.85   18.38
  -1   2  -5  620.59   13.77
  -2   2  -5   26.27    3.63
   2   2   5   25.81    3.52
  -2  -2  -5   30.34    3.75
   2   2   5   33.98    3.73
  -2  -2  -5   18.15    1.46
   2  -2   5   27.06    2.91
   2  -2   5   28.40    3.60
  -2   2  -5   29.90    3.07
   3   2   5   15.52    2.92
   3  -2   5   19.97    3.63
  -3   2  -5   24.65    3.86
  -3  -2  -5   25.60    4.01
   3   2   5   22.78    3.70
  -3   2  -5   28.51    3.58
   3  -2   5   23.46    3.25
  -4  -2  -5   29.02    4.04
   4  -2   5   27.75    4.41
  -4   2  -5   25.00    4.21
  -4   2  -5   23.71    3.87
   4   2   5   30.25    3.91
   4   2   5   27.61    4.37
  -4  -2  -5   28.84    4.55
   4  -2   5   26.03    3.82
  -5  -2  -5    9.08    2.77
   5  -2   5   13.53    3.26
  -5  -2  -5   12.92    3.89
   5  -2   5   11.53    3.49
  -5   2  -5   10.97    3.47
  -5   2  -5   10.81    3.19
   5   2   5   11.62    3.55
  -6  -2  -5   15.84    4.37
   6  -2   5    6.32    3.37
  -6   2  -5   12.86    4.08
  -6   2  -5    8.08    2.89
   6  -2   5    6.44    2.47
  -6  -2  -5    4.54    2.53
   6   2   5    5.69    2.73
   7   2   5   32.59    6.18
   7  -2   5   19.16    4.79
  -7   2  -5   23.17    5.37
  -7  -2  -5   18.72    4.37
  -6  -3   5    5.23    3.30
  -6   3   5    1.21    1.93
   6  -3  -5    3.05    2.57
   6   3  -5   -9.99    4.02
   5  -3  -5   10.28    3.29
  -5   3   5   12.29    4.03
  -5   3   5    9.70    3.33
   5   3  -5   16.89    4.53
  -5  -3   5    8.46    3.37
   4  -3  -5   21.61    4.32
  -4  -3   5   29.89    4.84
  -4   3   5   24.39    4.30
  -4   3   5   30.85    5.06
   4   3  -5   27.11    5.32
  -3   3   5   41.63    5.51
  -3   3   5   44.66    5.34
   3  -3  -5   40.71    5.25
  -3  -3   5   44.05    5.38
  -3   3   5   39.80    4.90
   3   3  -5   42.85    5.88
  -2   3   5   31.30    4.55
  -2   3   5   29.16    4.17
   2   3  -5   33.46    4.10
  -2  -3   5   35.92    4.42
  -2   3   5   29.38    4.43
  -2  -3   5   26.08    4.04
   2  -3  -5   23.64    4.04
   2   3  -5   28.29    4.73
   1   3  -5   10.03    2.55
  -1   3   5    7.98    2.59
  -1   3   5   11.55    3.11
  -1  -3   5    6.28    2.26
   1   3  -5   10.15    2.84
  -1  -3   5    8.28    2.34
   1  -3  -5    5.55    1.98
  -1  -3   5   10.05    2.38
   0  -3   5  106.83    7.01
   0  -3   5  108.21    6.97
   0  -3  -5  105.35    7.84
   0   3  -5  111.96    8.00
   0   3   5  109.50    6.03
   0   3   5  105.40    8.27
   0  -3   5  101.09    7.70
   1   3   5  245.00   12.89
  -1  -3  -5  261.03   10.28
   1  -3   5  263.50   13.12
   1  -3   5  245.84   10.88
  -1   3  -5  241.46   12.59
   1   3   5  264.61   11.01
  -1  -3  -5  254.27   12.48
   2   3   5  297.18   12.96
   2   3   5  269.49   13.91
  -2   3  -5  277.91   14.19
   2  -3   5  279.46   11.92
  -2  -3  -5  275.93   13.61
  -3   3  -5   69.42    7.31
   3  -3   5   72.16    6.27
   3   3   5   70.38    6.94
   3   3   5   76.18    7.35
  -3  -3  -5   66.24    7.01
  -4   3  -5   24.94    5.14
  -4  -3  -5   24.26    4.74
   4   3   5   23.66    4.24
   4  -3   5   27.22    4.78
   4  -3   5   20.10    4.00
   4   3   5   26.30    4.64
   5  -3   5   24.80    4.72
   5   3   5   17.35    4.48
  -5   3  -5   19.53    4.52
  -5  -3  -5   24.14    4.66
   6   3   5   16.11    4.50
  -6  -3  -5   25.97    5.28
   6  -3   5   23.27    5.47
  -6  -3  -5   21.95    4.81
  -6   3  -5   30.76    5.61
   5  -4  -5    5.05    2.45
  -5   4   5    1.70    2.40
  -5  -4   5   14.06    4.21
   5   4  -5   13.93    4.61
  -4  -4   5    1.19    2.06
   4  -4  -5    0.33    2.81
  -4   4   5   -1.56    2.14
   4   4  -5   -1.08    3.11
  -4  -4   5    5.85    3.31
  -3   4   5    4.20    2.80
  -3  -4   5    7.08    2.99
   3   4  -5    6.70    3.08
   3  -4  -5    8.53    3.51
  -3   4   5    4.53    1.93
  -3  -4   5    6.66    3.43
   2   4  -5   -1.61    2.60
  -2   4   5   -1.37    2.29
  -2  -4   5    0.87    2.62
  -2  -4   5    3.63    1.91
  -2  -4   5    2.85    1.49
  -2   4   5   -0.17    2.30
   2  -4  -5    2.93    1.88
  -1  -4   5   88.89    7.98
   1  -4  -5   72.97    7.72
   1   4  -5   90.53    8.65
  -1   4   5  101.26    9.52
   1   4  -5   85.91    8.11
  -1  -4   5   88.82    8.18
   0  -4   5   14.76    3.50
   0  -4  -5   11.74    3.27
   0  -4   5   17.38    3.66
   0   4  -5   15.69    3.77
   0   4   5   21.33    5.01
   0   4  -5    9.37    3.21
  -1  -4  -5   23.37    4.73
  -1   4  -5   23.05    4.90
   1  -4   5   12.13    3.51
   1   4   5   12.30    4.06
   1  -4   5   14.23    3.54
  -2  -4  -5   88.84    8.86
   2   4   5   96.75    9.55
   2  -4   5  104.01    9.77
  -2   4  -5   97.73    9.53
   2  -4   5   78.35    7.21
   3  -4   5   31.64    5.99
   3   4   5   33.91    5.83
  -3  -4  -5   36.24    5.86
  -3   4  -5   26.83    5.44
  -4   4  -5   20.45    5.11
   4   4   5   22.89    5.00
  -4  -4  -5   13.58    4.09
  -2  -5   5   11.59    3.71
   1  -5  -5    5.57    3.44
   0  -5  -5   12.10    3.57
   0  -5   5   17.55    4.42
   0   5  -5   18.37    5.08
   1  -5   5    8.12    3.61
   8   0  -6  122.46   12.20
  -7   0   6   28.34    5.38
   7   0  -6   20.06    5.07
  -6   0   6  371.17   16.13
   6   0  -6  340.10   17.14
  -6   0   6  338.91   16.85
   5   0  -6  817.21   25.85
  -5   0   6  816.62   25.26
  -4   0   6  582.78   11.23
   4   0  -6  589.85   19.05
  -4   0   6  583.66   18.70
  -3   0   6  795.16   19.82
  -3   0   6  806.14   20.61
   3   0  -6  797.79   20.87
  -3   0   6  811.85   15.56
   2   0  -6 2756.06   49.99
  -2   0   6 3020.44   50.96
  -2   0   6 2745.18   50.16
  -2   0   6 2778.08   47.05
  -1   0   6 4323.69   70.83
   0   0   6   38.27    2.86
   0   0  -6   41.47    2.94
   0   0  -6   65.93    2.20
   1   0   6 1346.46   26.34
  -1   0  -6 1392.22   24.21
  -1   0  -6 1363.85   26.83
   1   0   6 1392.49   24.45
   1   0   6 1397.44   26.05
   2   0   6 2809.55   51.19
  -2   0  -6 2729.17   50.12
   2   0   6 2815.21   47.86
  -2   0  -6 2749.69   48.52
  -3   0  -6  988.71   23.41
   3   0   6  993.53   20.11
  -3   0  -6  991.14   23.23
   3   0   6  990.60   25.06
   4   0   6   19.40    3.49
   4   0   6   24.13    2.08
  -4   0  -6   18.80    3.61
  -4   0  -6   18.87    2.89
   5   0   6  163.93   10.91
  -5   0  -6  154.65    8.81
  -5   0  -6  146.56   10.03
  -6   0  -6   55.52    6.88
   6   0   6   63.41    7.62
  -7   0  -6   31.40    6.05
   7   0   6   36.58    6.25
   8  -1  -6   33.74    6.42
  -7  -1   6   29.53    5.61
   7   1  -6   27.21    5.95
  -7   1   6   26.10    5.26
   7  -1  -6   36.22    6.16
   7  -1  -6   35.10    6.42
   6   1  -6   35.09    5.96
  -6  -1   6   28.77    4.83
   6  -1  -6   29.50    5.07
  -6   1   6   30.26    5.47
   6  -1  -6   35.24    5.47
   5  -1  -6  124.59    8.72
  -5  -1   6  124.80    8.72
   5   1  -6  128.65   10.05
   5  -1  -6  135.75    9.90
  -5   1   6  108.66    8.71
  -4   1   6  569.55   15.00
  -4   1   6  581.90   15.57
   4   1  -6  553.32   20.00
  -4   1   6  531.46   18.75
   4  -1  -6  573.54   17.97
   4  -1  -6  583.23   19.67
  -4  -1   6  557.94   17.68
  -3  -1   6   65.46    5.10
  -3   1   6   60.80    3.57
   3  -1  -6   63.73    4.52
  -3  -1   6   63.98    4.55
   3   1  -6   62.41    5.46
  -3   1   6   59.96    4.05
   3  -1  -6   62.41    5.39
  -3   1   6   61.89    3.70
  -3   1   6   67.74    5.38
  -2   1   6  167.70    6.83
  -2   1   6  172.49    6.66
  -2  -1   6  163.61    7.08
   2   1  -6  171.39    8.19
   2   1  -6  143.13    5.54
   2  -1  -6  179.22    6.18
  -2   1   6  164.54    5.45
  -2  -1   6  179.85    6.34
   2   1  -6  175.43    4.87
   2  -1  -6  171.01    7.78
  -2   1   6  167.94    7.72
   1   1  -6  902.57   18.69
   1   1  -6  951.27   22.07
  -1   1   6  981.08   16.36
  -1  -1   6  940.48   21.15
  -1  -1   6  933.91   19.21
  -1  -1   6  888.98   20.95
   1  -1  -6  928.25   20.83
  -1   1   6  921.19   21.03
   1  -1  -6  909.79   16.11
  -1  -1   6  943.50   16.94
  -1   1   6  957.00   20.75
   0  -1   6  324.71    9.97
   0  -1   6  324.52    9.60
   0   1   6  333.15   10.26
   0   1  -6  322.55    9.51
   0  -1   6  327.26    7.38
   0  -1  -6  323.14    9.56
   1  -1   6  592.63   11.91
   1  -1   6  606.19   13.72
  -1  -1  -6  533.50   12.66
  -1   1  -6  589.79   15.27
   1   1   6  583.50   15.11
  -1  -1  -6  567.04   14.39
   1  -1   6  598.09   15.41
   1   1   6  602.66   13.63
  -1   1  -6  585.50   12.62
   1  -1   6  589.22   15.24
   2   1   6  719.42   17.49
  -2   1  -6  700.80   18.51
   2  -1   6  706.34   16.12
   2   1   6  720.21   18.33
   2  -1   6  705.00   18.98
  -2   1  -6  709.78   17.09
  -2  -1  -6  730.29   18.34
  -3  -1  -6  359.03   13.16
  -3   1  -6  358.94   13.05
  -3   1  -6  378.63   12.97
   3   1   6  365.66   11.37
   3   1   6  356.83   13.64
   3  -1   6  369.66   14.13
  -3  -1  -6  380.61   12.96
  -4   1  -6  103.82    7.11
  -4  -1  -6  112.62    7.88
   4   1   6  103.35    7.88
   4   1   6  110.89    5.73
  -4  -1  -6  108.17    7.00
  -4   1  -6  101.83    7.49
   4  -1   6  103.02    7.90
   5  -1   6  113.77    9.28
  -5  -1  -6  101.79    8.42
  -5  -1  -6  120.82    7.69
   5   1   6  115.64    9.39
  -5  -1  -6  117.40    9.11
  -5   1  -6  115.02    8.79
  -5   1  -6  117.04    8.29
  -6  -1  -6  131.70   10.77
  -6   1  -6  145.39   11.09
   6  -1   6  134.23   11.19
   6   1   6  123.65   10.87
   7   1   6    2.77    2.24
  -7   1  -6    6.48    3.17
   7  -1   6    5.31    2.70
  -7  -1  -6    6.28    3.35
  -7   2   6    9.81    4.03
  -7  -2   6   -2.18    3.16
   7  -2  -6    6.33    4.07
   7   2  -6    6.53    3.95
  -6  -2   6   63.09    7.12
  -6   2   6   67.39    8.08
   6   2  -6   60.98    8.41
   6  -2  -6   82.08    8.69
  -5  -2   6  113.14    8.23
  -5   2   6  114.56    7.98
   5   2  -6  122.73   10.63
   5  -2  -6  125.92    8.90
  -5  -2   6  119.68    9.51
  -5   2   6  110.20    9.44
   5  -2  -6  111.01    9.31
  -4  -2   6   86.64    7.22
   4   2  -6   86.17    8.13
  -4   2   6   73.81    6.22
  -4  -2   6   75.03    5.91
  -4   2   6   76.27    5.38
   4  -2  -6   77.86    7.25
   4  -2  -6   77.57    6.06
  -4   2   6   76.00    7.04
  -3   2   6   50.64    4.53
  -3   2   6   51.43    4.94
   3  -2  -6   50.59    3.99
  -3   2   6   48.81    5.03
   3   2  -6   57.29    6.26
  -3  -2   6   49.68    3.97
  -3  -2   6   51.48    5.07
   3  -2  -6   48.78    5.30
  -2  -2   6   35.39    3.73
  -2   2   6   36.01    4.02
   2   2  -6   39.31    3.42
  -2   2   6   39.97    4.20
  -2  -2   6   37.62    2.72
  -2   2   6   40.70    4.02
   2  -2  -6   41.20    3.08
   2   2  -6   36.11    4.41
   2  -2  -6   37.46    4.23
   1  -2  -6   71.77    5.39
  -1  -2   6   71.91    5.43
   1   2  -6   69.42    5.83
  -1   2   6   74.86    5.64
  -1  -2   6   76.64    5.57
  -1   2   6   74.78    5.61
  -1   2   6   76.60    5.53
  -1  -2   6   72.40    2.34
  -1  -2   6   72.04    4.77
   1   2  -6   75.02    5.04
   0   2   6   40.82    4.27
   0  -2   6   37.10    3.90
   0  -2  -6   41.01    4.03
   0   2  -6   40.57    3.87
   0   2   6   38.95    2.63
   0  -2   6   40.83    3.64
   0  -2   6   38.04    3.17
   1  -2   6  119.37    7.36
   1   2   6  119.12    7.33
  -1  -2  -6  120.37    4.98
   1  -2   6  113.54    5.56
   1   2   6  119.02    5.79
  -1  -2  -6  123.30    7.18
  -1   2  -6  108.30    6.96
   1  -2   6  113.53    5.42
  -1   2  -6  117.45    4.62
  -2  -2  -6  109.25    4.19
   2  -2   6  143.95    6.77
   2   2   6  152.50    7.91
  -2   2  -6  154.32    6.84
   2  -2   6  143.52    8.32
   2  -2   6  159.89    5.93
   2   2   6  142.88    8.22
  -2  -2  -6  149.29    8.35
  -2   2  -6  151.34    8.76
  -3   2  -6  321.66   14.07
   3   2   6  331.97   13.98
   3   2   6  342.10   13.42
  -3  -2  -6  327.64   13.93
   3  -2   6  323.85   14.05
   3  -2   6  328.95   12.18
  -3   2  -6  331.52   12.42
  -4  -2  -6   96.78    8.01
   4   2   6  101.44    8.41
   4   2   6  121.34    7.73
   4  -2   6  100.70    8.36
   4  -2   6  108.05    7.41
  -4   2  -6  110.28    7.90
  -4   2  -6  107.25    8.39
  -4  -2  -6  106.48    7.61
  -5  -2  -6   51.08    6.49
   5   2   6   46.32    6.27
  -5   2  -6   35.15    5.27
   5  -2   6   47.55    5.76
   5  -2   6   46.19    6.49
  -5   2  -6   48.97    5.82
   6  -2   6   17.43    4.32
  -6  -2  -6    9.65    3.54
   6   2   6   21.70    5.08
  -6  -2  -6   11.73    3.71
  -6   2  -6   15.62    4.10
  -6   2  -6   12.78    3.74
   6  -2   6   15.63    3.88
  -7  -2  -6   21.77    5.07
   7  -2   6   28.57    6.29
  -7  -2  -6   22.49    5.72
   7   2   6   30.20    6.06
  -7   2  -6   19.78    4.80
   6  -3  -6   18.86    4.88
  -6   3   6   10.11    3.43
  -6  -3   6   11.48    4.22
   6   3  -6   11.87    4.16
   5  -3  -6   19.52    4.23
  -5  -3   6   23.55    5.06
  -5   3   6   22.63    4.30
  -5   3   6   24.89    4.49
   5   3  -6   28.06    5.95
   4  -3  -6   21.24    4.24
  -4  -3   6   26.05    4.63
  -4   3   6   19.96    3.99
   4   3  -6   21.99    4.92
  -4   3   6   22.55    4.34
  -3  -3   6   25.00    4.15
  -3   3   6   26.50    4.29
  -3   3   6   14.29    6.39
  -3   3   6   27.41    4.23
   3   3  -6   27.55    4.84
   3  -3  -6   21.91    4.12
  -2   3   6   15.62    3.25
   2   3  -6   20.85    3.24
   2  -3  -6   17.49    3.51
  -2   3   6   12.69    3.22
  -2   3   6   20.95    3.92
  -2  -3   6   16.97    3.38
  -2  -3   6   13.23    3.00
   2   3  -6   19.20    4.13
  -2  -3   6   15.20    3.56
   1  -3  -6   66.74    6.40
  -1  -3   6   70.34    6.34
   1   3  -6   65.84    6.68
  -1   3   6   60.10    6.12
   1   3  -6   57.82    5.73
  -1   3   6   68.77    6.61
  -1  -3   6   64.91    5.98
  -1  -3   6   60.81    5.51
   0  -3   6   55.65    5.06
   0   3  -6   57.74    5.98
   0  -3   6   45.06    5.18
   0   3   6   52.11    5.93
   0  -3   6   57.11    5.15
   0  -3  -6   47.39    5.43
  -1  -3  -6  247.92    9.81
  -1   3  -6  243.21   12.64
   1   3   6  275.99   10.95
   1   3   6  244.96   13.06
   1  -3   6  254.08   10.91
   1  -3   6  234.45   12.71
  -1  -3  -6  221.46   11.83
   2   3   6  174.44    9.56
  -2  -3  -6  160.42   10.43
   2   3   6  153.17   10.42
  -2   3  -6  162.90   10.71
   2  -3   6  152.80    8.57
  -3   3  -6    3.05    2.78
   3   3   6    3.44    2.48
   3  -3   6   -0.78    1.18
  -3  -3  -6   -0.85    2.15
   3   3   6    3.11    2.09
   4   3   6   54.38    6.54
   4  -3   6   49.64    6.39
  -4   3  -6   52.12    6.86
   4   3   6   62.34    7.15
  -4  -3  -6   45.79    6.11
  -5  -3  -6   26.79    5.14
  -5   3  -6   27.69    5.39
   5   3   6   27.18    5.48
   5  -3   6   21.46    4.52
   6  -3   6    1.24    2.22
  -6   3  -6    3.53    2.52
  -6  -3  -6    3.68    2.57
   6   3   6   -0.31    2.32
  -6  -3  -6    4.42    2.75
   5  -4  -6   -1.19    3.45
   5   4  -6    2.21    2.64
  -5  -4   6    0.24    2.89
  -5   4   6    1.42    2.28
  -4  -4   6    9.51    3.70
  -4  -4   6    9.21    3.55
  -4   4   6   12.71    4.47
   4  -4  -6    6.29    1.93
   4   4  -6   10.44    3.62
  -3   4   6   16.80    4.20
   3  -4  -6   19.85    4.81
  -3  -4   6   12.67    3.99
  -3  -4   6    6.49    2.71
  -3   4   6    8.59    3.06
   3   4  -6   11.47    3.41
  -2  -4   6   27.22    4.68
   2  -4  -6   26.16    5.05
  -2   4   6   25.77    4.62
   2   4  -6   30.55    4.84
  -2  -4   6   25.68    4.64
  -2   4   6   27.04    5.45
   2   4  -6   22.00    4.58
  -2  -4   6   24.92    4.66
   1  -4  -6    9.31    3.66
  -1  -4   6   16.16    3.80
  -1  -4   6   10.13    2.84
   1   4  -6   14.24    3.61
  -1   4   6   17.23    4.06
   1   4  -6    6.91    3.15
   0  -4  -6   -1.06    2.12
   0  -4   6    2.93    1.38
   0  -4   6    4.55    2.15
   0   4  -6    2.35    2.42
   0   4   6    5.77    3.13
   0   4  -6    2.70    2.46
   1  -4   6   14.00    3.45
  -1  -4  -6   22.34    4.26
  -1   4  -6   23.30    4.73
   1  -4   6   18.99    4.04
   1   4   6   22.13    4.93
   2  -4   6   64.51    7.83
   2   4   6   71.14    8.23
  -2   4  -6   67.07    7.95
  -2  -4  -6   69.18    8.07
   3  -4   6    4.34    2.94
  -3  -4  -6    7.71    3.69
  -3   4  -6    4.81    3.86
   3   4   6    7.02    3.44
   4   4   6    1.12    3.00
  -4   4  -6   -5.60    3.09
  -4  -4  -6   -0.01    1.79
   1  -5  -6    5.49    3.39
   1   5  -6    3.44    2.64
   0  -5  -6   41.62    6.88
   0   5  -6   34.98    6.62
   0  -5   6   26.14    5.57
   1  -5   6   27.45    6.09
   8   0  -7    3.13    2.70
  -7   0   7   -0.78    1.87
   7   0  -7    1.46    2.62
  -6   0   7    0.13    2.26
   6   0  -7    2.43    2.00
  -6   0   7   -1.05    2.37
  -5   0   7    4.36    2.72
  -5   0   7    4.75    2.64
   5   0  -7    2.12    2.41
  -4   0   7    0.85    1.44
   4   0  -7    3.28    1.83
  -3   0   7   -0.72    1.16
  -3   0   7    1.69    1.44
  -3   0   7    1.25    0.77
   3   0  -7    0.94    1.30
  -2   0   7    2.68    1.26
  -2   0   7    1.61    1.35
   2   0  -7    1.01    1.02
  -2   0   7    0.58    1.05
  -1   0   7    2.24    0.85
   1   0  -7    0.44    0.71
  -1   0   7    0.32    0.81
  -1   0   7    1.80    1.03
   1   0  -7    0.19    0.63
   0   0  -7    0.93    0.45
   0   0  -7    0.32    0.77
   0   0   7    2.35    1.09
  -1   0  -7    1.68    1.17
   1   0   7    0.06    0.75
  -1   0  -7    0.04    0.97
   1   0   7    0.84    0.66
   1   0   7    0.94    0.99
  -1   0  -7    0.66    0.54
  -2   0  -7    1.61    1.05
  -2   0  -7    1.46    1.27
   2   0   7    1.86    1.23
   2   0   7    1.42    1.01
  -3   0  -7    1.64    1.36
  -3   0  -7    0.96    1.13
   3   0   7    1.06    1.70
   3   0   7    0.69    0.83
  -4   0  -7   -0.29    1.42
  -4   0  -7    1.83    1.39
   4   0   7   -2.04    1.77
   4   0   7    1.12    0.92
  -5   0  -7   -0.25    1.72
  -5   0  -7    0.34    1.20
   5   0   7   -0.35    1.49
   6   0   7   -1.49    1.83
  -6   0  -7    2.10    1.65
  -7   0  -7   -2.17    2.77
   7   0   7    0.99    3.39
  -7   1   7  131.75   11.68
  -7  -1   7  113.72   10.64
   7   1  -7  123.01   11.82
   7  -1  -7  107.97   10.05
  -7  -1   7  109.83   10.28
   7  -1  -7  117.98   11.30
   6   1  -7  377.55   19.35
   6  -1  -7  340.40   16.48
  -6  -1   7  319.15   16.05
   6  -1  -7  359.00   18.16
  -6   1   7  349.39   17.81
  -5  -1   7   98.91    7.74
   5   1  -7  114.22    9.36
   5  -1  -7  100.88    7.77
  -5   1   7   97.23    8.38
   5  -1  -7  110.09    9.04
  -4  -1   7  305.83   12.40
  -4   1   7  310.81   10.53
   4  -1  -7  330.32   14.29
  -4   1   7  298.28   13.50
   4  -1  -7  316.71   12.59
  -4   1   7  327.05   10.68
   4   1  -7  321.22   14.64
  -3   1   7   54.62    3.83
  -3   1   7   51.94    3.39
  -3  -1   7   50.13    4.04
   3   1  -7   41.59    3.53
   3  -1  -7   56.00    4.19
   3   1  -7   46.59    5.06
  -3   1   7   49.63    4.65
  -3   1   7   47.23    3.43
  -3  -1   7   49.19    4.53
   3  -1  -7   46.72    4.66
  -2  -1   7  271.87    9.44
  -2   1   7  257.81    7.65
   2  -1  -7  267.49   10.19
   2   1  -7  229.88    7.83
   2  -1  -7  268.57    7.83
  -2   1   7  266.11    8.95
   2   1  -7  266.10   10.74
  -2  -1   7  265.65    8.15
   2   1  -7  276.87    6.69
  -2   1   7  257.10    9.97
   1   1  -7  239.09    7.37
   1   1  -7  232.56    9.36
  -1  -1   7  249.10    6.04
   1   1  -7  341.32    8.21
  -1   1   7  241.84    8.70
  -1   1   7  253.12    9.18
  -1   1   7  259.94    7.79
  -1  -1   7  246.83    7.52
  -1  -1   7  257.78    9.31
  -1  -1   7  252.63    9.17
   1  -1  -7  238.45    8.68
   0  -1   7  720.20   16.97
   0  -1   7  722.27   17.55
   0   1  -7  731.61   16.94
   0  -1   7  759.96   13.85
   0   1   7  742.62   17.87
   0   1  -7  738.39   12.86
   0  -1  -7  750.12   17.07
  -1   1  -7  251.24    9.16
   1  -1   7  230.57    8.99
   1   1   7  252.55    9.07
  -1   1  -7  241.31    6.94
   1   1   7  245.33    7.50
   1  -1   7  238.87    8.85
  -1  -1  -7  225.00    7.29
  -1  -1  -7  237.10    8.30
   1  -1   7  240.31    6.01
   1  -1   7  247.04    8.08
  -2   1  -7  151.15    7.64
   2   1   7  164.09    7.42
   2  -1   7  154.02    7.91
  -2  -1  -7  155.52    7.39
  -2   1  -7  154.18    6.71
   2  -1   7  159.70    6.05
   2   1   7  152.11    7.03
  -3  -1  -7   94.01    6.37
   3   1   7   93.81    6.55
   3   1   7   98.47    5.54
   3  -1   7   82.45    6.45
  -3   1  -7   92.12    6.46
  -3  -1  -7   93.47    6.28
  -3   1  -7   97.86    6.30
  -4   1  -7   76.32    6.31
  -4  -1  -7   70.69    6.36
   4  -1   7   72.09    6.76
   4   1   7   75.59    4.98
  -4  -1  -7   73.91    5.87
  -4   1  -7   66.39    5.94
   4   1   7   82.13    7.08
   5  -1   7   82.02    8.03
  -5   1  -7   87.97    7.37
  -5  -1  -7   94.01    8.16
  -5   1  -7   83.36    7.41
   5   1   7   82.03    8.04
  -5  -1  -7   89.03    8.08
  -5  -1  -7   97.49    7.08
   6   1   7    3.36    2.87
  -6  -1  -7    5.71    2.93
  -6   1  -7    2.14    2.20
  -6   1  -7    8.58    3.43
   6  -1   7    1.78    1.93
   7  -1   7   56.01    7.99
  -7  -1  -7   75.56    8.93
   7   1   7   70.14    8.76
  -7   1  -7   78.63    9.16
   7   2  -7  235.25   17.61
  -7  -2   7  203.18   15.44
   7  -2  -7  203.11   15.07
  -7   2   7  207.13   15.29
  -6   2   7   64.63    7.80
   6  -2  -7   54.77    7.21
  -6  -2   7   52.96    6.34
   6   2  -7   65.95    8.47
   5  -2  -7   42.59    5.13
  -5  -2   7   41.32    5.84
  -5   2   7   36.56    5.51
  -5   2   7   41.43    4.78
   5  -2  -7   35.87    5.56
  -5  -2   7   39.47    4.98
   5   2  -7   43.10    6.35
  -4   2   7  404.82   15.45
  -4   2   7  434.39   14.37
   4  -2  -7  455.28   15.37
   4   2  -7  445.78   19.22
  -4  -2   7  407.34   16.89
  -4   2   7  407.03   17.18
   4  -2  -7  439.33   17.76
  -4  -2   7  430.07   14.88
   3   2  -7  448.58   17.91
  -3  -2   7  485.14   13.63
   3  -2  -7  453.28   16.92
  -3   2   7  442.45   16.43
  -3   2   7  444.74   14.84
   3  -2  -7  481.44   13.67
  -3   2   7  428.96   15.48
  -3  -2   7  422.47   15.64
  -2   2   7  110.59    6.82
  -2  -2   7  106.05    7.39
   2   2  -7  114.66    5.84
   2   2  -7  103.22    7.61
  -2   2   7  100.43    6.70
  -2  -2   7   97.61    6.23
   2  -2  -7  101.57    4.71
  -2  -2   7  110.55    4.54
  -2   2   7  108.37    6.99
   2  -2  -7  107.84    7.17
  -1   2   7   57.51    4.98
  -1  -2   7   57.59    4.18
  -1  -2   7   50.57    4.69
   1   2  -7   55.32    5.39
  -1   2   7   46.56    2.52
   1   2  -7   46.87    4.03
  -1   2   7   43.56    4.33
   1  -2  -7   48.44    4.72
  -1  -2   7   50.54    4.60
   0  -2   7  186.74    8.14
   0   2   7  190.12    9.31
   0  -2  -7  183.53    8.79
   0   2   7  188.48    5.97
   0   2  -7  192.53    8.81
   0  -2   7  183.20    9.09
   0  -2   7  176.35    7.05
   1  -2   7  226.42   10.50
   1  -2   7  218.74    8.12
   1   2   7  226.94    8.21
   1   2   7  225.84   10.51
  -1   2  -7  226.50    6.67
  -1  -2  -7  216.75    9.85
  -1   2  -7  213.27   10.11
   1  -2   7  223.89    7.96
  -2  -2  -7   60.49    5.29
   2   2   7   60.48    5.42
   2  -2   7   60.54    5.51
   2  -2   7   67.32    3.97
   2  -2   7   59.63    4.17
  -2   2  -7   62.60    5.64
  -2  -2  -7   43.23    2.71
   2   2   7   66.49    5.09
  -2   2  -7   65.99    4.34
   3   2   7   44.39    4.64
  -3   2  -7   39.95    4.97
  -3  -2  -7   37.45    4.75
   3   2   7   44.34    4.89
   3  -2   7   45.24    5.37
   3  -2   7   42.33    4.05
  -3   2  -7   44.93    4.44
  -4   2  -7  148.61   10.02
  -4  -2  -7  159.89    9.54
  -4   2  -7  154.45    9.33
  -4  -2  -7  132.07    9.43
   4   2   7  154.79    9.05
   4   2   7  144.95   10.06
   4  -2   7  134.25   10.02
   4  -2   7  159.85    8.98
   5  -2   7   19.36    3.77
   5  -2   7   14.80    3.80
  -5   2  -7   19.77    3.89
   5   2   7   21.93    4.57
  -5   2  -7   15.28    3.38
  -5  -2  -7   21.63    4.68
  -6   2  -7   13.11    4.12
  -6  -2  -7   11.80    3.94
  -6  -2  -7   11.71    4.01
   6  -2   7   14.57    4.46
  -6   2  -7   15.77    3.85
   6   2   7   17.35    4.74
   7   2   7   48.56    8.24
   7  -2   7   53.39    8.51
  -7  -2  -7   66.44    8.63
  -7  -2  -7   49.24    7.80
  -7   2  -7   57.31    8.23
  -6   3   7   10.89    3.66
  -6  -3   7   17.24    4.69
  -6  -3   7   10.33    4.25
   6  -3  -7   14.11    4.29
   6   3  -7   11.33    4.47
  -5  -3   7   12.95    3.65
  -5   3   7   11.47    3.26
  -5   3   7   19.40    4.36
   5  -3  -7   10.04    3.07
   5   3  -7   19.39    4.95
  -4   3   7  143.72   10.65
  -4   3   7  132.93    9.93
   4   3  -7  139.95   11.63
   4  -3  -7  141.72   10.73
  -4  -3   7  137.77   10.21
  -3  -3   7   38.52    5.63
   3  -3  -7   36.33    5.36
  -3   3   7   35.98    5.03
  -3  -3   7   35.42    5.06
  -3   3   7   38.85    4.98
  -3   3   7   33.35    4.99
   3   3  -7   30.23    5.21
  -2  -3   7   60.44    5.77
  -2   3   7   52.20    5.80
   2  -3  -7   57.13    6.11
  -2  -3   7   55.42    6.16
   2   3  -7   54.33    5.11
  -2   3   7   51.25    5.86
   2   3  -7   50.91    6.32
  -2  -3   7   51.46    5.68
  -2   3   7   55.99    5.93
   1   3  -7  256.83   12.10
   1  -3  -7  265.88   12.93
  -1  -3   7  247.61   12.17
  -1  -3   7  260.12   12.75
  -1   3   7  250.11   13.00
   1   3  -7  242.02   13.25
  -1  -3   7  271.27   11.72
   0   3  -7  269.98   12.89
   0  -3  -7  265.62   12.88
   0  -3   7  284.81   11.51
   0   3   7  264.48   13.70
   0  -3   7  266.47   11.52
   0  -3   7  262.74   13.05
   1  -3   7   45.64    4.46
  -1   3  -7   44.92    5.54
   1  -3   7   44.15    5.73
   1   3   7   44.97    5.71
  -1  -3  -7   45.20    5.23
  -2  -3  -7   95.29    7.82
   2   3   7   91.79    6.89
   2  -3   7  100.16    8.58
   2   3   7   81.55    7.67
   2  -3   7   98.16    6.63
  -2   3  -7   79.69    7.45
   3   3   7  101.49    8.13
   3   3   7   97.36    8.57
  -3   3  -7  102.45    8.97
   3  -3   7  104.82    7.35
  -3  -3  -7  126.32    9.62
  -4  -3  -7   10.51    3.92
  -4   3  -7    5.76    3.10
   4   3   7    0.29    1.79
   4  -3   7    6.61    3.00
   4   3   7    9.45    3.56
  -5  -3  -7   26.97    5.30
   5  -3   7   27.90    5.53
  -5   3  -7   20.98    4.70
   5   3   7   18.50    4.26
  -6  -3  -7   -2.33    2.63
   6   3   7    3.34    3.84
  -6   3  -7    1.03    3.10
   6  -3   7    1.68    2.57
  -5  -4   7    4.50    2.69
  -5   4   7   14.46    4.41
   4  -4  -7    1.32    1.78
  -4  -4   7    2.51    2.76
  -4  -4   7    0.06    2.25
  -4   4   7    2.19    2.31
   4   4  -7    1.50    3.39
  -3   4   7   66.82    8.07
  -3   4   7   87.10    8.65
  -3  -4   7   57.23    6.97
   3  -4  -7   69.20    8.03
  -3   4   7   61.46    7.32
  -3  -4   7   52.16    7.18
   3   4  -7   56.22    7.85
   2   4  -7   43.54    5.79
  -2  -4   7   48.53    5.99
   2  -4  -7   28.72    5.26
  -2  -4   7   33.03    5.52
  -2  -4   7   46.44    5.95
  -2   4   7   43.89    6.44
   2   4  -7   38.44    6.20
   1  -4  -7   58.75    7.11
   1   4  -7   66.92    7.21
   1   4  -7   50.58    6.90
  -1  -4   7   61.71    7.10
  -1   4   7   81.37    8.53
  -1  -4   7   64.04    6.70
   0  -4  -7   14.01    3.82
   0  -4   7   15.71    3.24
   0   4  -7   18.14    4.15
   0  -4   7   11.20    3.30
   0   4   7   12.95    3.92
   0   4  -7    9.32    3.82
   1  -4   7  180.46   12.80
  -1   4  -7  178.83   12.64
   1   4   7  203.27   13.92
  -1  -4  -7  179.21   12.17
   2  -4   7  115.18   10.58
  -2   4  -7  125.30   10.96
  -2  -4  -7  128.70   10.82
   2   4   7  119.40   10.76
   3   4   7   56.30    7.86
   3  -4   7   63.52    8.31
  -3   4  -7   58.41    7.73
  -3  -4  -7   68.64    8.39
  -4  -4  -7    7.67    3.52
  -4   4  -7    7.15    3.27
   4  -4   7   11.53    4.16
   4   4   7    9.38    4.02
   1   5  -7    7.09    3.56
   0   5  -7   31.05    6.56
   0  -5   7   19.20    4.93
   1  -5   7   11.45    4.56
   8   0  -8   21.11    5.86
   7   0  -8   15.14    4.54
  -7   0   8    4.40    2.52
  -6   0   8    6.09    2.39
   6   0  -8   11.97    3.79
  -6   0   8   12.94    3.61
  -5   0   8 4093.03   79.41
  -5   0   8 3994.40   76.94
   5   0  -8 4053.71   80.00
   4   0  -8  349.54   14.15
  -4   0   8  340.24   13.70
  -3   0   8  554.53   16.25
  -3   0   8  587.90   13.28
  -3   0   8  595.84   17.09
   3   0  -8  611.15   17.29
   0   0   8 1394.14   33.04
   0   0  -8 1385.02   32.27
  -1   0  -8 4160.72   70.88
   1   0   8 4020.48   67.59
  -1   0  -8 4648.83   69.42
   1   0   8 4086.97   69.77
   1   0   8 4227.17   70.11
  -2   0  -8  205.61    8.56
   2   0   8  204.13    6.66
   2   0   8  197.01    8.46
   2   0   8  206.60    7.51
  -2   0  -8  191.26    6.90
   3   0   8   19.07    2.39
  -3   0  -8   19.96    2.58
  -3   0  -8   21.89    3.07
   3   0   8   24.84    3.47
  -4   0  -8 1149.92   28.82
   4   0   8 1126.60   31.02
   4   0   8 1223.58   24.33
  -4   0  -8 1168.26   30.58
  -5   0  -8  139.28    8.77
   5   0   8  145.87   10.44
  -5   0  -8  130.13    9.63
  -6   0  -8   28.02    5.26
   6   0   8   35.78    5.86
  -7   0  -8   15.61    4.00
   7   0   8   24.27    5.50
   7  -1  -8   32.87    5.87
   7  -1  -8   30.61    6.04
  -7  -1   8   21.88    4.66
  -7   1   8   28.83    6.19
  -7  -1   8   28.61    5.67
   7   1  -8   28.34    5.90
  -6   1   8  340.53   17.66
   6   1  -8  343.15   18.62
   6  -1  -8  347.30   16.55
  -6  -1   8  321.52   16.80
   6  -1  -8  341.04   17.79
  -6  -1   8  320.25   16.19
  -5  -1   8  105.29    8.64
   5   1  -8  108.64    9.46
   5  -1  -8  117.87    8.42
  -5   1   8  121.96    9.32
  -5  -1   8  110.22    8.17
   5  -1  -8  140.30   10.12
   4   1  -8 1064.74   29.89
  -4   1   8 1064.27   23.47
   4  -1  -8 1024.06   28.69
  -4  -1   8 1036.75   26.51
  -4  -1   8 1018.30   28.53
   4  -1  -8 1068.90   26.51
  -4   1   8 1051.85   21.72
  -4   1   8 1058.01   23.76
  -4   1   8 1010.27   28.38
  -3   1   8  461.04   12.38
  -3  -1   8  469.82   16.08
  -3  -1   8  472.86   13.91
  -3   1   8  465.79   12.98
   3   1  -8  471.53   16.75
   3  -1  -8  484.72   13.73
  -3   1   8  483.79   12.83
   3  -1  -8  466.66   15.85
  -3   1   8  471.43   15.82
   3   1  -8  379.86   12.35
   2  -1  -8 1938.27   34.54
  -2   1   8 1898.24   38.95
   2  -1  -8 1944.72   39.05
   2   1  -8 1947.26   33.10
  -2   1   8 1967.87   37.18
   2   1  -8 1979.62   40.46
  -2   1   8 1954.74   35.23
  -2  -1   8 1914.00   37.19
  -2  -1   8 1967.93   35.41
   2   1  -8 1794.45   35.44
  -1  -1   8 1166.54   21.34
  -1   1   8 1175.83   26.17
   1   1  -8 1173.78   23.53
   1   1  -8 1158.11   26.88
  -1  -1   8 1123.47   26.11
  -1   1   8 1201.26   25.85
  -1   1   8 1209.47   24.27
  -1  -1   8 1175.48   23.24
   1  -1  -8 1173.71   25.62
  -1  -1   8 1137.95   26.02
   0  -1   8 2109.27   34.29
   0  -1   8 2006.71   38.78
   0  -1   8 2064.39   39.83
   0   1   8 2103.65   33.63
   0   1  -8 2049.66   38.70
   0  -1  -8 2101.71   33.72
   0  -1  -8 2041.39   38.58
   0   1   8 2076.30   39.88
   1  -1   8  304.99   10.38
   1   1   8  292.08   10.22
   1   1   8  300.13    8.59
  -1  -1  -8  284.04    9.45
  -1  -1  -8  275.40    8.68
   1  -1   8  300.30   10.57
   1  -1   8  291.78    6.56
   1  -1   8  297.66    9.54
  -1   1  -8  292.17   10.34
  -2  -1  -8   14.57    2.40
   2  -1   8   15.64    2.66
  -2  -1  -8   11.37    2.38
  -2   1  -8   10.74    2.35
  -2   1  -8   14.31    2.22
  -2  -1  -8    7.73    1.52
   2   1   8   11.67    2.19
   2   1   8   11.09    2.02
   2  -1   8   13.14    1.67
  -3  -1  -8  323.77   12.45
  -3  -1  -8  337.07   12.87
   3   1   8  311.48   12.72
   3   1   8  337.68   11.28
  -3   1  -8  319.74   12.70
  -3   1  -8  325.68   12.26
   3  -1   8  316.33   13.43
  -4  -1  -8   70.44    5.91
   4   1   8   63.58    6.24
   4  -1   8   63.11    6.48
   4   1   8   70.09    4.93
  -4  -1  -8   69.02    6.21
  -4   1  -8   64.20    6.02
  -4   1  -8   65.38    5.96
  -5  -1  -8   80.37    7.68
  -5  -1  -8   86.81    6.98
   5   1   8   68.94    7.32
   5  -1   8   80.75    8.03
  -5   1  -8   87.56    7.26
  -5   1  -8   85.58    7.56
  -5  -1  -8   73.63    7.56
  -6   1  -8   73.24    7.08
   6  -1   8  104.16    9.85
  -6   1  -8   67.95    7.82
   6   1   8   65.93    7.98
  -6  -1  -8   72.23    8.15
   7   1   8   10.55    4.02
  -7   1  -8    3.90    3.12
   7  -1   8    4.31    2.76
  -7  -1  -8    1.97    2.44
  -7   2   8   44.17    7.23
  -7  -2   8   45.58    7.56
   7   2  -8   44.13    7.55
   7  -2  -8   45.51    7.42
   6  -2  -8   34.70    5.91
  -6   2   8   28.43    5.59
  -6  -2   8   28.06    5.38
  -6  -2   8   28.01    4.51
   6   2  -8   28.58    5.94
  -5  -2   8   38.47    5.55
  -5  -2   8   41.93    4.97
  -5   2   8   41.21    5.91
   5   2  -8   43.06    6.36
   5  -2  -8   50.91    6.53
   4  -2  -8   30.21    4.70
   4  -2  -8   29.94    3.66
  -4  -2   8   28.71    3.57
  -4   2   8   31.55    4.21
  -4  -2   8   37.72    4.84
  -4   2   8   31.11    3.68
  -4   2   8   43.27    5.44
   4   2  -8   42.05    6.09
  -3   2   8  367.22   15.04
  -3  -2   8  380.82   14.52
   3   2  -8  377.37   16.31
  -3  -2   8  369.51   15.74
  -3   2   8  371.92   14.18
  -3   2   8  372.68   13.58
   3  -2  -8  378.05   11.61
  -3  -2   8  395.08   11.95
   3  -2  -8  381.94   15.49
  -2  -2   8   14.76    2.95
  -2  -2   8   14.35    1.60
   2   2  -8   11.79    2.00
  -2   2   8   12.81    2.41
  -2   2   8   17.52    2.93
  -2  -2   8   15.33    2.61
  -2   2   8   16.20    2.94
   2  -2  -8   15.20    1.70
   2  -2  -8   11.26    2.65
   2   2  -8   16.35    3.41
  -1  -2   8 1735.11   37.99
  -1   2   8 1772.73   29.38
  -1  -2   8 1783.04   38.22
   1   2  -8 1820.77   36.24
  -1   2   8 1751.91   38.44
   1   2  -8 1786.37   40.04
  -1   2   8 1765.46   38.30
   1  -2  -8 1767.26   38.14
  -1  -2   8 1784.06   35.09
   0  -2   8  522.40   15.54
   0  -2   8  525.88   16.97
   0   2  -8  555.72   16.65
   0   2   8  567.72   11.81
   0  -2  -8  527.74   16.57
   0  -2   8  557.30   13.92
   0   2   8  547.98   17.46
   1   2   8  380.32   14.44
  -1   2  -8  389.52   14.35
   1  -2   8  381.77   14.37
   1   2   8  416.58   11.62
   1  -2   8  385.95   11.86
   1  -2   8  393.29   11.03
  -1  -2  -8  369.02   13.59
  -1   2  -8  398.14    9.55
   2  -2   8   30.42    2.92
   2   2   8   30.41    3.57
  -2   2  -8   28.41    3.98
   2  -2   8   28.64    4.04
  -2  -2  -8   37.80    4.36
  -2   2  -8   34.84    3.15
   2   2   8   32.14    4.08
   2  -2   8   31.27    2.91
  -2  -2  -8   25.06    2.29
   3   2   8  124.86    8.07
  -3   2  -8  118.73    8.53
   3   2   8  127.93    8.38
  -3  -2  -8  129.81    8.69
   3  -2   8  122.63    8.80
   3  -2   8  120.34    6.70
  -3   2  -8  121.85    7.20
   4   2   8   46.12    4.88
   4  -2   8   44.83    5.73
  -4  -2  -8   36.87    4.69
  -4  -2  -8   36.39    5.02
  -4   2  -8   39.49    5.42
  -4   2  -8   40.84    4.77
   4  -2   8   39.33    4.41
   4   2   8   37.25    5.29
  -5  -2  -8   85.31    8.44
  -5   2  -8   61.59    6.89
   5   2   8   74.46    8.05
   5  -2   8   81.58    8.33
  -5   2  -8   73.33    7.31
  -6   2  -8   10.03    3.81
   6  -2   8    4.27    3.17
  -6   2  -8    5.45    2.58
  -6  -2  -8    9.29    3.83
  -6  -2  -8    4.65    2.33
   6   2   8   10.83    4.29
  -7   2  -8    4.45    2.86
  -6  -3   8    9.53    3.94
  -6  -3   8   11.75    4.10
   6  -3  -8    5.91    3.47
   6   3  -8    9.32    3.63
  -6   3   8   10.45    4.08
  -5   3   8   40.10    5.77
  -5  -3   8   51.12    7.08
   5  -3  -8   54.06    7.22
   5   3  -8   57.79    8.13
  -5  -3   8   43.83    7.06
  -5   3   8   51.77    6.92
   4  -3  -8   15.29    4.02
  -4  -3   8    9.66    2.91
  -4   3   8   11.04    2.90
  -4   3   8   10.01    3.33
  -4  -3   8   13.87    3.78
   4   3  -8   15.86    4.41
  -3  -3   8  169.88   10.48
  -3   3   8  167.75   10.91
  -3  -3   8  171.82   11.66
  -3   3   8  164.30   10.83
  -3   3   8  166.30   10.44
   3   3  -8  172.34   12.09
   3  -3  -8  196.83   11.95
  -2  -3   8  122.41    8.26
  -2   3   8  115.38    8.59
  -2  -3   8  129.72    9.47
   2   3  -8  137.55   10.25
   2   3  -8  140.50    8.40
  -2  -3   8  124.80    8.79
  -2   3   8  131.19    9.19
   2  -3  -8  121.05    8.99
   1   3  -8   46.69    5.87
   1   3  -8   51.62    5.46
   1  -3  -8   56.70    6.07
  -1  -3   8   52.33    5.69
  -1   3   8   45.24    5.55
  -1  -3   8   61.46    5.99
  -1  -3   8   51.98    5.03
   0  -3   8   75.05    5.96
   0   3  -8   79.76    6.96
   0  -3   8   66.46    6.57
   0  -3  -8   71.59    6.57
   0   3   8   70.25    6.95
   0  -3   8   81.81    5.90
  -1   3  -8   59.42    6.30
   1  -3   8   61.54    6.48
  -1  -3  -8   55.66    6.00
   1   3   8   55.62    6.38
   1  -3   8   52.84    4.76
   2  -3   8   94.89    8.29
  -2   3  -8   89.13    7.95
   2   3   8   87.02    7.97
   2  -3   8  100.88    6.66
  -2  -3  -8  104.19    8.49
  -3   3  -8  196.25   12.71
   3   3   8  224.60   12.17
   3   3   8  216.75   12.94
  -3  -3  -8  209.49   12.74
   4   3   8    3.25    2.16
  -4  -3  -8    6.23    2.88
   4  -3   8    5.49    2.49
  -4   3  -8    3.11    2.45
   4   3   8    3.58    2.16
   5  -3   8    2.72    2.55
  -5  -3  -8    4.05    3.07
  -5   3  -8    5.46    2.57
   5   3   8   10.29    3.76
   6   3   8   19.81    5.38
   6  -3   8   28.10    6.58
  -6   3  -8   17.90    5.06
  -6  -3  -8   20.10    4.90
  -5  -4   8    6.67    3.52
  -5   4   8    7.80    3.30
   4  -4  -8   -0.37    3.07
  -4  -4   8   -0.09    2.62
  -4  -4   8    0.13    2.50
  -4   4   8    3.50    3.46
  -4   4   8   -0.72    2.06
   4   4  -8    3.75    3.23
  -3   4   8    2.79    2.29
   3  -4  -8    8.95    3.58
  -3  -4   8    7.79    3.23
  -3   4   8    9.82    3.14
   3   4  -8    8.40    3.47
  -3  -4   8    4.90    2.89
   2  -4  -8   37.04    5.88
   2   4  -8   38.49    5.65
  -2  -4   8   41.26    5.67
  -2  -4   8   36.03    5.47
  -2   4   8   35.14    5.76
   2   4  -8   29.09    5.83
  -2  -4   8   28.42    5.37
   1  -4  -8   25.91    5.10
   1   4  -8   19.19    4.31
  -1  -4   8   27.87    4.94
  -1   4   8   22.57    5.15
   1   4  -8   24.44    5.28
  -1  -4   8   24.78    4.28
   0  -4  -8    1.20    1.87
   0   4  -8    3.99    2.52
   0  -4   8    2.24    2.20
   0   4  -8   -0.12    2.12
   0   4   8    4.97    3.15
  -1   4  -8   61.96    7.83
   1   4   8   47.95    7.02
   1  -4   8   62.61    7.46
  -1  -4  -8   56.85    7.12
   2  -4   8  110.92   10.61
  -2   4  -8  112.17   10.46
   2   4   8  123.61   11.18
  -2  -4  -8  123.36   10.53
  -3  -4  -8    1.45    2.56
  -3   4  -8    2.60    2.69
   3  -4   8   -1.61    2.80
   3   4   8   -0.74    2.22
   4   4   8    4.93    3.14
  -4   4  -8    9.28    3.94
   4  -4   8    8.11    3.87
  -4  -4  -8   10.46    4.20
   1   5  -8    3.00    2.04
  -1  -5   8    3.63    2.33
   0   5  -8   24.45    5.42
   0  -5   8   18.39    4.85
   8   0  -9    5.64    3.64
  -7   0   9    4.37    3.20
   7   0  -9    1.75    2.37
  -6   0   9    0.68    2.00
   6   0  -9    2.13    2.65
  -6   0   9    0.16    2.64
  -5   0   9    1.29    2.30
  -5   0   9    2.81    2.71
   5   0  -9    5.06    3.03
  -4   0   9   -0.36    1.42
  -4   0   9   -0.80    1.16
   4   0  -9    1.02    1.40
  -3   0   9    0.06    1.12
  -3   0   9    0.00    1.28
  -3   0   9    0.96    0.91
   3   0  -9    2.54    1.63
  -2   0   9    1.09    1.18
   2   0  -9   -0.11    0.57
   2   0  -9    1.13    1.12
  -2   0   9    0.72    1.21
  -2   0   9    0.16    1.26
  -1   0   9    2.03    1.12
   1   0  -9    1.62    0.88
  -1   0   9    1.57    1.38
  -1   0   9    1.19    0.79
   1   0  -9    0.77    0.73
   1   0  -9    0.55    0.75
   0   0  -9    2.36    0.68
   0   0  -9    1.13    1.03
   0   0   9    2.41    1.25
   1   0   9    0.05    0.98
  -1   0  -9    0.82    0.73
  -1   0  -9    2.57    1.48
   1   0   9    1.70    0.82
  -1   0  -9    1.33    1.47
   1   0   9    0.92    1.13
  -2   0  -9    0.74    1.02
   2   0   9    1.05    1.04
  -2   0  -9    1.14    1.47
   2   0   9    0.14    0.67
   2   0   9    0.23    1.00
  -3   0  -9   -1.32    1.24
   3   0   9    1.28    1.55
  -3   0  -9    0.40    1.05
   3   0   9    0.06    0.93
  -4   0  -9    6.56    2.78
   4   0   9   -0.23    2.22
  -4   0  -9    0.99    1.84
   4   0   9   -0.64    0.84
  -5   0  -9    4.72    2.52
  -5   0  -9    1.27    1.67
   5   0   9   -0.28    2.07
  -6   0  -9   -0.01    1.83
   6   0   9   -1.51    2.33
   7   0   9    3.03    2.15
  -7   0  -9   -0.62    1.98
   7  -1  -9   57.74    7.30
  -7  -1   9   54.54    7.10
  -7   1   9   55.60    7.81
  -7  -1   9   40.57    6.41
   7   1  -9   73.71    9.29
   7  -1  -9   58.22    8.29
  -6  -1   9  177.76   12.32
   6   1  -9  212.61   14.46
   6  -1  -9  177.79   11.67
  -6   1   9  199.62   13.38
   6  -1  -9  181.95   12.80
  -6  -1   9  176.55   11.71
  -5  -1   9  142.37   10.08
   5   1  -9  145.19   10.99
   5  -1  -9  152.16    9.57
  -5  -1   9  139.85    9.32
   5  -1  -9  135.97   10.09
  -5   1   9  135.73    9.96
   4   1  -9 1071.62   30.80
  -4   1   9 1089.56   24.93
  -4  -1   9 1125.94   30.21
   4  -1  -9 1138.16   27.55
  -4   1   9 1143.73   23.44
   4  -1  -9 1125.04   30.28
  -4  -1   9 1072.90   27.47
  -4   1   9 1055.60   29.51
  -3  -1   9  551.81   17.91
   3  -1  -9  551.25   17.60
   3   1  -9  560.10   18.57
   3   1  -9  439.49   13.98
   3  -1  -9  593.29   15.34
  -3   1   9  546.08   14.45
  -3  -1   9  547.45   15.29
  -3   1   9  522.16   14.00
  -3   1   9  517.83   17.19
  -2   1   9  454.74   14.53
   2   1  -9  447.85   10.36
   2   1  -9  451.59   15.25
  -2  -1   9  446.99   11.78
   2  -1  -9  455.88   11.17
  -2   1   9  467.49   13.35
   2   1  -9  525.21   13.08
  -2   1   9  469.02   12.39
   2  -1  -9  433.38   14.22
  -2  -1   9  446.89   13.03
  -1   1   9 2102.43   42.63
  -1  -1   9 2142.44   42.76
  -1   1   9 2213.03   42.39
  -1  -1   9 2144.31   42.87
  -1  -1   9 2162.15   37.48
  -1  -1   9 2166.79   38.93
  -1   1   9 2127.30   40.88
   1   1  -9 2120.01   39.79
   1  -1  -9 2154.62   41.96
   1   1  -9 2122.69   43.52
   0   1  -9 1811.54   34.82
   0  -1   9 1792.21   35.79
   0   1   9 1798.13   35.91
   0  -1  -9 1791.98   34.41
   0   1   9 1789.46   29.55
   0  -1   9 1812.80   29.57
   0  -1   9 1755.14   35.05
  -1  -1  -9  592.88   15.19
   1  -1   9  662.54   17.19
   1   1   9  644.55   14.72
   1   1   9  641.87   17.21
   1  -1   9  634.50   17.51
   1  -1   9  635.03   16.33
   1  -1   9  663.26   11.79
  -1   1  -9  670.23   17.50
  -1  -1  -9  636.52   16.07
  -2  -1  -9  586.02   15.98
   2   1   9  556.15   15.74
  -2  -1  -9  573.15   16.67
   2   1   9  592.32   15.83
   2  -1   9  583.86   16.35
   2  -1   9  578.73   17.25
   2  -1   9  591.67   13.08
  -2   1  -9  590.11   17.24
  -2   1  -9  602.26   15.22
  -3  -1  -9  169.20    9.05
  -3   1  -9  164.64    9.00
   3  -1   9  167.06    9.55
   3   1   9  172.26    9.10
   3   1   9  170.39    7.87
  -3  -1  -9  168.64    8.64
  -3   1  -9  158.53    8.30
  -4   1  -9  122.08    8.37
  -4  -1  -9  123.82    8.37
  -4   1  -9  123.06    8.28
   4   1   9  133.93    9.19
   4  -1   9  115.43    9.02
   4   1   9  134.07    7.09
  -4  -1  -9  121.67    7.96
  -5  -1  -9  266.12   12.93
  -5   1  -9  256.43   13.24
  -5  -1  -9  262.38   13.74
  -5   1  -9  256.21   13.72
   5   1   9  253.40   14.40
   5  -1   9  246.28   14.54
   6  -1   9    0.31    1.94
  -6  -1  -9    3.83    2.31
  -6   1  -9   -0.83    2.07
  -6   1  -9    3.69    2.96
   6   1   9    1.85    3.51
   7   1   9   38.63    6.94
  -7   1  -9   27.89    5.39
  -7  -1  -9   42.82    6.85
   7  -1   9   27.80    6.04
  -7   2   9   35.72    6.49
  -7  -2   9   33.96    6.31
   7  -2  -9   30.18    6.24
   7   2  -9   31.75    6.93
  -6  -2   9   61.35    7.76
   6  -2  -9   78.53    8.71
   6   2  -9   59.10    8.07
  -6   2   9   65.37    7.93
  -5  -2   9   85.29    8.04
  -5  -2   9   79.59    6.77
  -5  -2   9   80.32    8.39
  -5   2   9   79.92    8.11
   5   2  -9   77.51    8.73
   5  -2  -9   87.46    8.28
  -4   2   9    4.03    2.32
  -4  -2   9    8.84    2.16
  -4  -2   9    7.37    2.80
  -4   2   9    8.16    2.45
  -4   2   9    5.70    2.21
   4  -2  -9    6.74    2.92
   4   2  -9    6.95    3.57
  -4  -2   9    4.90    2.90
  -3   2   9 1034.65   29.09
  -3  -2   9 1122.59   30.80
  -3   2   9 1069.31   27.71
  -3  -2   9 1103.26   28.30
  -3   2   9 1147.23   27.75
   3  -2  -9 1113.20   30.06
   3   2  -9 1136.78   31.77
  -3  -2   9 1156.39   24.62
  -2  -2   9   43.43    4.13
  -2  -2   9   42.20    4.78
   2   2  -9   45.46    5.17
  -2   2   9   44.68    4.55
   2  -2  -9   43.16    4.65
  -2   2   9   41.71    4.58
   2   2  -9   47.69    3.82
  -2  -2   9   46.78    2.72
  -1  -2   9  106.93    5.71
  -1  -2   9  110.65    7.15
   1   2  -9   99.18    6.07
   1   2  -9  106.65    7.53
  -1  -2   9  102.83    6.87
  -1   2   9   96.46    6.78
  -1   2   9  107.96    7.16
   1  -2  -9  106.93    6.97
   0  -2   9  734.38   19.71
   0   2  -9  733.97   20.30
   0  -2   9  717.78   20.97
   0   2   9  733.86   21.44
   0  -2   9  755.28   16.99
   0   2   9  751.88   14.17
   0  -2  -9  728.63   20.50
  -1   2  -9   19.81    3.15
   1  -2   9   20.65    3.56
   1  -2   9   21.41    2.76
  -1  -2  -9   23.40    3.26
   1   2   9   24.56    3.67
   1  -2   9   19.62    2.10
   1   2   9   19.52    2.22
  -1   2  -9   18.70    1.66
  -2   2  -9  274.24   12.54
   2   2   9  282.28   10.89
   2   2   9  287.04   12.53
   2  -2   9  271.84   12.45
   2  -2   9  301.28   10.05
  -2  -2  -9  191.06    7.21
   2  -2   9  255.18   12.23
  -2   2  -9  277.04    9.43
   2  -2   9  269.94    9.00
  -2  -2  -9  258.65   11.58
  -3   2  -9   52.17    5.74
   3   2   9   49.45    5.28
   3   2   9   53.71    5.45
   3  -2   9   56.63    6.06
  -3   2  -9   47.49    4.55
   3  -2   9   53.78    4.35
  -3  -2  -9   55.77    5.86
  -4  -2  -9  179.92   11.22
  -4  -2  -9  179.76   10.66
  -4   2  -9  169.07   11.07
   4   2   9  187.65   10.28
   4   2   9  182.27   11.27
   4  -2   9  175.71   11.72
   4  -2   9  188.42    9.63
  -4   2  -9  202.01   10.74
  -5   2  -9   34.91    5.00
   5  -2   9   42.19    6.51
  -5  -2  -9   38.19    5.80
  -5   2  -9   36.37    5.38
   5   2   9   37.25    5.44
  -6  -2  -9  182.61   13.33
   6  -2   9  168.36   13.43
   6   2   9  171.40   13.34
  -6   2  -9  170.43   12.38
  -6  -2  -9  177.77   13.09
  -6   2  -9  160.22   12.06
  -7   2  -9   28.68    5.81
  -6   3   9   15.50    4.58
  -6  -3   9   18.30    5.22
  -6  -3   9   11.03    4.28
   6  -3  -9    9.29    4.13
   6   3  -9    7.29    3.80
  -5  -3   9   33.95    5.55
  -5  -3   9   33.58    6.17
  -5   3   9   49.56    7.24
  -5   3   9   39.18    5.79
   5  -3  -9   41.00    6.41
   5   3  -9   40.84    6.94
  -4  -3   9  116.95    9.40
  -4   3   9  125.58   10.16
  -4  -3   9  124.97   10.91
  -4   3   9  132.55    9.98
   4   3  -9  132.41   11.42
   4  -3  -9  121.77   10.11
  -3  -3   9   41.04    5.38
  -3  -3   9   38.60    5.76
  -3   3   9   49.15    5.86
  -3   3   9   49.87    6.19
   3   3  -9   37.28    5.91
   3  -3  -9   45.50    6.09
  -2  -3   9  125.67    9.38
  -2   3   9  112.62    8.72
   2   3  -9  115.06    7.68
   2   3  -9  103.52    8.98
  -2  -3   9  120.36    8.06
  -2  -3   9  114.55    8.63
   2  -3  -9  113.99    8.82
  -2   3   9  105.99    8.40
  -1  -3   9   56.07    6.09
  -1  -3   9   63.87    6.31
   1   3  -9   59.49    6.81
   1   3  -9   58.34    5.76
  -1   3   9   56.06    6.35
   1  -3  -9   57.92    6.18
  -1  -3   9   61.71    5.43
   0   3  -9  105.73    8.06
   0   3   9  108.02    8.69
   0  -3   9  115.37    7.60
   0  -3   9  108.65    8.57
   0  -3   9  125.53    7.21
   0  -3  -9  122.99    8.78
  -1  -3  -9   19.77    3.75
  -1   3  -9   24.50    4.40
   1  -3   9   23.15    4.16
   1   3   9   19.92    4.08
   1  -3   9   20.99    2.94
  -2  -3  -9   41.39    5.43
  -2   3  -9   39.34    5.52
   2  -3   9   37.86    5.50
   2   3   9   39.76    5.65
   3  -3   9  248.51   14.64
   3   3   9  276.22   14.89
  -3  -3  -9  278.82   14.81
  -3   3  -9  278.96   15.22
  -4  -3  -9    2.36    2.10
  -4   3  -9    0.96    2.76
   4  -3   9    0.62    2.14
   4   3   9    2.37    2.61
   4   3   9    2.08    2.57
  -5  -3  -9   37.73    6.58
   5  -3   9   38.16    6.74
  -5   3  -9   40.89    6.50
   5   3   9   40.80    6.67
  -6  -3  -9   14.59    4.13
  -6   3  -9   21.75    5.28
   6  -3   9   11.19    3.45
   6   3   9   21.11    5.08
  -5  -4   9   13.73    4.01
   4  -4  -9    9.38    4.06
  -4  -4   9    1.69    2.56
  -4   4   9    5.15    3.33
  -4  -4   9    7.53    2.77
   4   4  -9    1.78    2.71
  -3  -4   9   11.23    3.46
  -3  -4   9   15.67    4.48
  -3   4   9   11.42    3.24
  -3   4   9   20.92    4.66
   3   4  -9   12.65    3.69
   3  -4  -9   11.08    3.69
  -2  -4   9  137.46   10.12
  -2  -4   9  158.56   11.79
   2   4  -9  138.75   11.90
  -2   4   9  132.33   11.04
  -2  -4   9  148.76   11.17
   2  -4  -9  142.38   11.31
   1  -4  -9   19.95    4.58
   1   4  -9   21.16    4.34
  -1  -4   9   22.47    4.63
  -1   4   9   22.65    5.18
   1   4  -9   12.49    3.91
   0  -4  -9   13.15    3.83
   0   4  -9   17.03    4.02
   0  -4   9   19.47    4.46
   0   4  -9    9.80    3.83
   0   4   9   15.04    4.23
  -1   4  -9   65.63    7.89
   1  -4   9   68.93    7.95
   1   4   9   71.96    8.66
  -1  -4  -9   69.78    7.82
  -2   4  -9  210.70   14.53
   2   4   9  255.13   16.31
   2  -4   9  220.89   14.99
  -2  -4  -9  256.07   15.38
  -3  -4  -9   20.81    4.34
   3   4   9   13.65    4.16
  -3   4  -9   25.93    5.72
   3  -4   9   17.65    4.88
   4   4   9   40.52    6.75
  -4  -4  -9   50.60    7.75
  -4   4  -9   45.73    7.51
   4  -4   9   51.61    7.88
   1   5  -9   22.10    5.31
  -1  -5   9   34.72    7.12
   0   5  -9   11.34    4.55
   0  -5   9   25.99    5.70
   8   0 -10   40.52    7.49
   7   0 -10   -2.06    2.99
  -7   0  10    3.54    2.69
  -6   0  10 1013.97   30.05
   6   0 -10 1026.43   32.68
  -6   0  10  989.60   31.76
   5   0 -10  533.60   20.10
  -5   0  10  485.46   18.06
  -5   0  10  530.86   19.80
  -4   0  10  183.97    9.46
   4   0 -10  197.85   10.44
  -4   0  10  196.66    6.87
  -4   0  10  179.21    9.84
   3   0 -10 1409.72   23.84
   3   0 -10 1323.02   30.45
  -3   0  10 1290.12   26.75
  -3   0  10 1331.18   30.55
  -2   0  10  601.97   15.81
   2   0 -10  474.57   11.56
   2   0 -10  565.25   14.94
  -2   0  10  465.49   13.17
  -2   0  10  622.28   15.45
  -1   0  10 5867.30  101.78
  -1   0  10 6398.77  102.35
   0   0  10 1287.39   32.00
   0   0 -10 1354.43   32.68
  -2   0 -10  642.18   15.01
  -2   0 -10  636.95   17.99
   2   0  10  635.24   14.79
   2   0  10  659.31   17.95
   2   0  10  649.45   16.72
  -3   0 -10  332.32   11.38
  -3   0 -10  339.27   12.99
   3   0  10  324.13   13.17
   3   0  10  320.52   11.01
   4   0  10 1116.90   31.33
   4   0  10 1208.31   25.78
  -4   0 -10 1164.64   30.06
  -5   0 -10  305.51   14.01
   5   0  10  286.46   15.33
  -5   0 -10  294.43   15.07
   6   0  10    7.77    3.47
  -6   0 -10    5.95    3.35
   7   0  10   19.85    5.08
  -7   0 -10   29.14    5.91
   7  -1 -10   39.45    6.17
   7  -1 -10   39.79    6.92
  -7  -1  10   32.04    5.69
  -7  -1  10   33.21    5.69
  -7   1  10   29.26    5.37
   7   1 -10   43.57    7.46
   6   1 -10  117.13   10.78
   6  -1 -10  122.54    9.47
  -6  -1  10  105.92    9.59
   6  -1 -10  117.08   10.29
  -6  -1  10  108.92    9.17
  -6   1  10  115.57   10.22
  -5  -1  10 1011.97   30.83
  -5  -1  10 1034.68   29.36
   5   1 -10 1063.20   32.90
   5  -1 -10 1119.11   29.52
  -5   1  10 1080.71   31.68
   5  -1 -10 1037.53   31.59
   4  -1 -10  318.72   14.48
  -4  -1  10  323.30   14.53
   4  -1 -10  348.12   13.15
  -4   1  10  333.73   10.57
  -4  -1  10  350.14   13.31
   4   1 -10  337.02   15.44
  -4   1  10  329.88   11.61
  -4   1  10  334.15   14.69
   3   1 -10   39.21    3.88
   3   1 -10   50.52    5.31
   3  -1 -10   55.40    4.04
  -3   1  10   47.62    4.84
  -3   1  10   50.26    3.95
  -3  -1  10   56.35    5.31
   3  -1 -10   48.40    4.91
  -3  -1  10   47.92    4.10
  -3   1  10   45.84    3.73
   2   1 -10 1235.93   30.06
   2   1 -10 1222.71   23.80
   2  -1 -10 1248.86   24.31
  -2   1  10 1238.71   27.46
  -2  -1  10 1201.43   25.17
  -2   1  10 1212.01   28.84
  -2   1  10 1250.02   26.41
   2  -1 -10 1244.14   28.80
  -1  -1  10  456.92   11.26
  -1   1  10  475.89   14.18
  -1  -1  10  465.03   10.66
  -1   1  10  444.44   14.32
   1   1 -10  429.92   14.61
   1   1 -10  458.04   12.39
  -1  -1  10  468.31   14.98
  -1   1  10  469.93   13.46
   1  -1 -10  447.38   13.53
   0  -1  10 1291.14   28.45
   0   1  10 1326.75   28.64
   0   1  10 1296.68   22.53
   0   1 -10 1303.69   27.53
   0  -1  10 1313.27   28.08
   0  -1  10 1313.58   21.81
   0   1 -10 1350.10   21.79
   0  -1 -10 1284.97   26.95
   0  -1  10 1241.71   27.83
   1  -1  10  130.27    6.88
  -1   1 -10  141.08    7.30
   1  -1  10  141.17    7.09
  -1  -1 -10  135.14    6.26
  -1  -1 -10  130.23    6.21
   1   1  10  138.04    5.60
   1   1  10  136.96    7.10
   1  -1  10  137.76    7.23
   1  -1  10  146.22    6.97
   2   1  10 1021.38   23.66
  -2  -1 -10 1027.64   24.72
   2  -1  10 1015.63   23.93
  -2   1 -10  995.34   24.79
   2   1  10 1028.85   23.21
   2  -1  10 1073.69   25.62
   2  -1  10 1052.31   19.52
  -2  -1 -10 1058.48   23.59
  -3  -1 -10  419.93   15.09
  -3   1 -10  389.01   14.91
  -3  -1 -10  389.38   13.88
   3   1  10  369.16   14.23
   3   1  10  393.12   13.14
   3  -1  10  363.03   15.00
  -3   1 -10  373.25   13.56
   4  -1  10   21.21    4.15
  -4  -1 -10   20.26    3.55
  -4   1 -10   20.94    3.62
  -4  -1 -10   21.75    3.72
  -4   1 -10   16.66    3.54
   4   1  10   23.94    3.86
   4   1  10   26.87    3.26
  -5  -1 -10   87.77    7.93
  -5  -1 -10   97.43    7.89
  -5   1 -10   92.68    8.10
  -5   1 -10   90.60    7.98
   5   1  10   97.08    8.83
   5  -1  10   91.96    8.73
   6   1  10   80.72    8.98
  -6   1 -10   82.98    7.99
   6  -1  10   75.19    8.59
  -6  -1 -10   94.51    9.46
  -6   1 -10   77.54    8.26
  -7  -1 -10   17.20    4.49
  -7   1 -10   20.14    4.98
   7   1  10   14.36    4.36
   7  -1  10   21.19    5.43
  -7  -2  10   40.95    6.95
  -7   2  10   38.14    6.98
   7  -2 -10   36.25    6.55
  -6  -2  10   77.09    8.93
  -6   2  10   70.75    8.38
   6   2 -10   62.70    8.55
   6  -2 -10   66.98    8.00
   5  -2 -10   17.72    4.28
  -5   2  10   18.11    4.46
  -5  -2  10   15.09    3.83
   5   2 -10   20.37    4.68
  -4  -2  10  970.95   28.37
   4   2 -10  994.31   31.80
  -4   2  10 1011.32   25.57
  -4  -2  10  974.30   30.54
   4  -2 -10  969.35   29.43
  -4   2  10  950.17   29.15
  -4  -2  10 1042.35   25.49
  -3  -2  10   42.17    4.66
  -3  -2  10   47.38    5.74
   3   2 -10   61.17    6.78
  -3   2  10   52.97    4.87
  -3   2  10   50.70    5.67
   3  -2 -10   59.80    6.02
  -3  -2  10   52.12    3.88
  -2  -2  10   52.97    4.53
  -2   2  10   44.71    4.87
  -2  -2  10   49.91    5.46
   2   2 -10   50.63    3.98
   2   2 -10   54.58    5.94
  -2   2  10   55.95    5.09
   2  -2 -10   47.13    5.03
   1  -2 -10   25.12    3.60
  -1  -2  10   22.18    2.54
  -1   2  10   21.20    3.32
   1   2 -10   28.81    3.30
  -1  -2  10   21.66    3.53
   1   2 -10   22.97    3.83
  -1   2  10   26.78    3.81
  -1  -2  10   27.73    3.77
   0   2  10 1449.67   34.16
   0   2 -10 1460.07   32.74
   0  -2  10 1438.63   33.79
   0   2  10 1427.77   24.03
   0  -2  10 1398.15   31.72
   0  -2 -10 1445.80   32.86
   0  -2  10 1467.18   27.93
  -1   2 -10   32.62    4.28
   1  -2  10   32.65    4.18
   1   2  10   36.62    2.93
   1   2  10   31.10    4.02
  -1  -2 -10   32.65    3.93
   1  -2  10   31.67    3.51
  -1   2 -10   33.67    2.23
   1  -2  10   35.43    2.71
   2   2  10  516.88   15.55
   2  -2  10  534.65   13.33
  -2   2 -10  488.45   17.77
  -2  -2 -10  486.53   16.89
   2  -2  10  492.97   17.98
  -2  -2 -10  390.96   11.84
   2  -2  10  543.29   15.05
   2  -2  10  518.28   18.23
   2   2  10  515.91   17.86
  -2   2 -10  500.10   13.76
  -3   2 -10  209.07   11.88
   3   2  10  203.99   10.64
   3   2  10  216.22   11.15
   3  -2  10  200.30   11.73
   3  -2  10  212.95    8.83
  -3   2 -10  215.92    9.82
  -3  -2 -10  204.69   11.19
  -4   2 -10  147.41   10.40
  -4   2 -10  157.62    9.45
   4   2  10  146.81   10.10
   4   2  10  163.17    9.53
   4  -2  10  151.42   11.02
  -4  -2 -10  148.22   10.21
  -4  -2 -10  135.88    9.51
   5  -2  10   37.39    6.51
  -5  -2 -10   43.86    6.42
  -5  -2 -10   34.57    5.05
  -5   2 -10   30.79    5.22
  -5   2 -10   39.03    5.43
   5   2  10   30.20    5.15
   6   2  10   39.96    6.79
  -6   2 -10   41.01    6.29
  -6  -2 -10   31.29    5.86
  -6  -2 -10   41.86    6.17
  -6   2 -10   47.11    6.86
   6  -2  10   33.20    6.51
  -7   2 -10   29.63    6.05
   6  -3 -10   28.50    5.88
  -6  -3  10   31.80    6.22
  -6   3  10   38.12    6.64
   6   3 -10   28.84    6.30
   5  -3 -10   20.56    4.66
  -5  -3  10   24.78    4.68
  -5   3  10   28.28    5.67
  -5  -3  10   27.30    5.72
   5   3 -10   35.57    6.77
  -4  -3  10  131.01   10.04
  -4  -3  10  118.69   10.61
   4   3 -10  133.86   11.58
  -4   3  10  126.03   10.30
   4  -3 -10  132.47   10.61
  -3  -3  10  170.92   10.50
  -3   3  10  161.32   11.16
  -3  -3  10  163.86   11.79
   3   3 -10  153.50   11.76
  -3   3  10  149.40   10.27
   3  -3 -10  181.74   11.84
  -2  -3  10   73.13    6.25
  -2  -3  10   75.90    7.41
   2   3 -10   81.22    6.30
   2   3 -10   73.36    7.78
  -2   3  10   74.86    7.10
  -2  -3  10   69.71    6.82
  -2   3  10   81.31    7.71
   2  -3 -10   75.93    7.27
  -1  -3  10  303.24   13.94
   1   3 -10  280.43   15.06
   1   3 -10  291.05   13.19
  -1  -3  10  299.41   14.44
  -1   3  10  272.83   14.04
   1  -3 -10  285.34   14.04
  -1  -3  10  305.97   12.18
   0  -3 -10    5.85    2.40
   0   3 -10    4.86    2.10
   0  -3  10    1.33    1.69
   0   3  10    5.69    2.59
   0  -3  10    2.02    1.33
   0  -3  10    5.02    2.33
  -1   3 -10  224.58   12.46
   1  -3  10  221.30   12.78
  -1  -3 -10  225.46   12.21
   1   3  10  214.74   12.71
   2  -3  10  383.14   17.66
  -2   3 -10  377.63   17.37
   2   3  10  382.71   17.72
  -2  -3 -10  374.99   16.81
   3  -3  10   73.02    7.98
  -3   3 -10   79.97    8.08
   3   3  10   79.20    7.96
  -3  -3 -10   74.89    7.75
   4  -3  10   12.34    4.17
  -4  -3 -10   15.24    4.22
  -4   3 -10   10.31    3.66
   4   3  10   11.33    3.55
   5  -3  10    7.92    3.69
  -5  -3 -10   11.23    4.14
  -5   3 -10   10.64    3.65
  -6   3 -10   10.50    3.69
  -6  -3 -10   25.79    5.67
  -5  -4  10    3.28    2.89
   4  -4 -10    7.77    4.14
  -4  -4  10    5.11    3.41
  -4  -4  10   -0.61    2.35
  -4   4  10    8.50    3.08
   4   4 -10    3.44    3.13
  -3  -4  10   67.98    7.66
  -3   4  10   66.41    7.94
  -3  -4  10   62.80    8.52
  -3   4  10   56.10    7.18
   3   4 -10   67.27    8.46
   3  -4 -10   62.34    7.73
   2   4 -10   64.25    8.66
  -2  -4  10   82.91    8.60
  -2   4  10   86.27    9.06
  -2  -4  10   67.54    7.74
   2  -4 -10   87.30    9.06
   1   4 -10    8.81    3.19
  -1  -4  10    4.64    2.81
  -1   4  10    8.42    3.30
   1   4 -10    6.84    3.40
   1  -4 -10    9.88    3.59
   0   4 -10   52.46    6.82
   0  -4  10   42.96    6.51
   0   4 -10   38.43    6.34
   0   4  10   46.60    7.06
   0  -4 -10   46.13    6.50
  -1   4 -10   77.45    8.56
   1  -4  10   82.34    8.99
  -1  -4 -10   88.47    8.98
   1   4  10   91.90    9.81
  -2   4 -10   42.29    6.70
   2  -4  10   36.75    6.66
  -2  -4 -10   36.91    6.02
   2   4  10   35.79    6.50
  -3  -4 -10    2.59    2.28
  -3   4 -10    2.02    2.79
   3  -4  10   -2.25    3.16
   3   4  10    0.12    2.56
   4   4  10   21.35    5.01
  -1  -5  10   14.62    4.87
  -7   0  11    1.32    2.00
   7   0 -11   -1.30    2.53
  -6   0  11    0.13    2.41
  -6   0  11    0.56    2.12
   6   0 -11   -2.17    2.60
  -5   0  11   -0.07    1.47
  -5   0  11    2.68    2.49
   5   0 -11    3.54    3.07
  -4   0  11    0.66    1.29
  -4   0  11   -1.11    1.58
  -4   0  11    0.10    0.82
   4   0 -11    0.38    1.20
   3   0 -11    0.63    0.65
  -3   0  11    0.96    1.08
   3   0 -11    0.07    1.11
  -3   0  11    0.82    1.06
  -2   0  11    2.54    1.24
   2   0 -11    0.34    0.76
   2   0 -11    2.68    1.26
  -2   0  11   -0.38    1.06
  -2   0  11    1.97    1.36
  -1   0  11   -0.44    1.02
   1   0 -11    1.54    1.17
   1   0 -11    4.35    1.35
  -1   0  11    0.66    1.18
   1   0 -11   -0.69    0.86
  -1   0  11    2.10    1.61
   0   0 -11    1.97    0.72
   0   0 -11    1.48    1.30
   0   0  11    1.85    1.42
  -1   0 -11    0.77    0.87
   1   0  11   -0.99    0.89
  -1   0 -11    6.26    2.16
   1   0  11    0.64    0.91
  -1   0 -11    6.52    2.02
   1   0  11   -0.45    1.16
  -2   0 -11    1.04    1.00
   2   0  11    0.10    0.71
   2   0  11    1.11    1.19
   2   0  11    1.77    1.39
  -2   0 -11    1.04    1.35
  -3   0 -11    1.96    1.22
   3   0  11   -0.96    1.37
  -3   0 -11   -0.71    1.18
   3   0  11   -0.06    0.85
   3   0  11    1.15    1.17
  -4   0 -11   -0.16    1.53
   4   0  11    0.17    2.07
   4   0  11    0.26    1.27
   5   0  11    0.95    2.64
  -5   0 -11    3.88    2.67
  -5   0 -11    1.96    1.92
  -6   0 -11    1.16    2.39
  -6   0 -11    0.68    1.85
   6   0  11    3.04    2.41
   7   0  11    3.08    2.71
  -7   0 -11   -0.70    2.27
  -7  -1  11    4.47    2.84
   7  -1 -11   12.25    4.25
  -7   1  11    5.83    3.41
   7   1 -11   18.66    5.09
  -7  -1  11   13.66    4.32
   6   1 -11   61.14    8.14
   6  -1 -11   58.95    6.74
  -6  -1  11   55.71    7.04
   6  -1 -11   63.16    7.86
  -6  -1  11   57.67    6.50
  -6   1  11   56.43    7.16
  -5  -1  11  788.50   26.71
  -5  -1  11  844.98   25.67
   5   1 -11  862.76   29.01
   5  -1 -11  892.31   25.67
  -5   1  11  828.31   27.41
   5  -1 -11  836.36   27.60
  -4   1  11  100.82    6.15
   4   1 -11  109.79    8.69
   4  -1 -11  114.16    7.11
  -4   1  11  117.23    6.06
   4  -1 -11  103.33    8.02
  -4  -1  11   96.23    7.72
  -4  -1  11   92.99    6.70
  -4   1  11  104.07    7.99
   3   1 -11   92.58    5.92
   3   1 -11  107.67    7.69
   3  -1 -11   95.22    6.97
   3  -1 -11  107.39    5.71
  -3   1  11  103.09    5.91
  -3  -1  11  106.88    7.53
  -3  -1  11   94.49    5.76
  -3   1  11   93.28    6.92
  -3   1  11   91.15    5.45
  -2   1  11 2369.99   49.06
   2   1 -11 2363.99   43.21
   2   1 -11 2391.49   50.42
  -2   1  11 2437.62   47.36
   2  -1 -11 2404.84   43.19
   2  -1 -11 2394.36   48.53
  -2   1  11 2459.36   46.43
  -2  -1  11 2332.28   44.50
  -1   1  11  362.09   12.60
   1   1 -11  369.66   10.80
   1  -1 -11  336.56    6.96
  -1  -1  11  366.40    9.17
   1  -1 -11  345.31   11.66
  -1   1  11  362.19   12.32
   1  -1 -11  337.51    6.91
  -1   1  11  364.11   11.74
  -1  -1  11  350.11   12.43
   0   1 -11  364.45   11.63
   0  -1  11  326.84   11.71
   0   1  11  347.22   12.08
   0  -1  11  328.37   11.71
   0  -1 -11  351.45   10.95
   0  -1  11  344.45   11.72
  -1  -1 -11 1945.37   38.49
  -1   1 -11 2046.49   41.24
   1  -1  11 1996.80   40.28
  -1  -1 -11 2053.37   38.84
   1   1  11 2054.47   37.12
   1   1  11 2039.57   40.92
   1  -1  11 2062.99   41.38
   1  -1  11 1976.70   39.98
   1  -1  11 2030.30   40.27
   2  -1  11  484.41   15.20
  -2   1 -11  498.28   16.41
   2   1  11  496.38   14.63
   2   1  11  503.60   15.27
   2  -1  11  514.44   16.66
  -2  -1 -11  499.39   14.72
   2  -1  11  503.35   14.92
  -2  -1 -11  514.93   16.22
   2  -1  11  508.63   11.23
  -3   1 -11  209.15   10.78
  -3  -1 -11  230.88   11.12
   3   1  11  209.51   10.43
   3   1  11  228.58    9.86
   3  -1  11  222.34   11.48
  -3   1 -11  204.02    9.80
  -3  -1 -11  219.64   10.12
  -4  -1 -11 1462.98   35.59
  -4   1 -11 1372.24   35.72
   4   1  11 1401.80   36.40
   4  -1  11 1433.71   37.88
   4   1  11 1502.40   32.80
  -4  -1 -11 1433.42   35.12
  -4   1 -11 1384.39   35.08
  -5   1 -11  141.65   10.11
  -5  -1 -11  144.31   10.07
   5   1  11  140.23   10.61
   5  -1  11  140.59   11.11
  -5  -1 -11  122.68    8.94
  -5   1 -11  125.07    9.56
   6  -1  11    5.17    2.91
  -6   1 -11    6.17    2.76
  -6   1 -11    7.49    2.88
   6   1  11    7.01    3.34
  -6  -1 -11    4.58    2.83
   7   1  11    2.09    3.27
  -7  -1 -11    6.77    3.98
  -7   1 -11    4.54    2.60
   7  -1  11   12.71    4.89
  -7  -2  11   45.02    7.08
  -6  -2  11   63.70    8.13
   6   2 -11   67.14    9.00
   6  -2 -11   64.09    8.04
  -6   2  11   67.84    8.48
  -5  -2  11   25.60    5.03
  -5   2  11   26.98    4.84
   5  -2 -11   27.85    4.95
   5   2 -11   25.73    5.16
  -4   2  11 1242.99   35.33
  -4  -2  11 1299.91   34.14
  -4  -2  11 1292.76   36.50
   4   2 -11 1314.31   38.04
  -4   2  11 1328.04   31.14
   4  -2 -11 1323.36   35.98
  -3   2  11  364.80   15.52
  -3  -2  11  361.80   14.17
  -3  -2  11  357.32   16.03
  -3   2  11  377.05   14.29
   3  -2 -11  382.88   15.94
   3   2 -11  376.17   16.80
  -2  -2  11   36.47    4.71
   2   2 -11   37.42    3.51
  -2   2  11   36.37    4.59
  -2  -2  11   32.17    3.55
  -2   2  11   38.71    4.47
   2   2 -11   31.69    4.62
   2  -2 -11   37.42    4.65
  -1   2  11  367.06   14.36
  -1  -2  11  352.45   13.98
  -1  -2  11  354.08   13.91
   1   2 -11  363.29   15.10
  -1  -2  11  366.72   11.18
  -1   2  11  347.45   13.96
   1   2 -11  353.60   12.55
   1  -2 -11  354.42   13.74
   0  -2  11  318.70   12.30
   0   2 -11  332.21   12.90
   0   2  11  332.94   13.77
   0  -2  11  343.46   13.89
   0  -2 -11  328.04   12.99
   0  -2  11  348.79    9.68
  -1  -2 -11   26.47    3.68
  -1   2 -11   26.52    3.81
   1   2  11   24.84    2.36
   1  -2  11   22.87    3.59
  -1   2 -11   28.82    2.10
   1   2  11   27.20    3.96
   1  -2  11   33.20    3.57
   1  -2  11   24.33    2.20
  -2  -2 -11   72.64    4.47
  -2   2 -11  101.42    7.71
   2  -2  11  103.29    7.64
   2   2  11  100.16    6.15
   2   2  11   97.03    7.42
   2  -2  11  108.31    6.38
  -2   2 -11  100.20    5.44
   2  -2  11  102.87    4.92
  -2  -2 -11  111.31    7.57
   3  -2  11 2152.07   49.74
  -3   2 -11 2333.50   51.39
   3   2  11 2280.63   48.06
   3   2  11 2289.13   49.02
  -3   2 -11 2305.02   45.78
   3  -2  11 2147.33   50.61
  -3  -2 -11 2206.14   49.30
  -4   2 -11   28.36    4.15
  -4  -2 -11   25.45    4.41
   4  -2  11   30.40    5.14
  -4  -2 -11   31.51    4.72
  -4   2 -11   26.86    4.71
   4   2  11   38.16    4.77
   4   2  11   32.89    4.85
  -5  -2 -11   85.64    8.36
  -5  -2 -11   89.87    8.25
  -5   2 -11   79.32    8.20
   5   2  11   75.93    8.09
   5  -2  11   88.95    9.32
  -5   2 -11   82.11    7.74
  -6  -2 -11  122.79   11.11
   6   2  11  107.08   10.67
   6  -2  11  109.80   11.15
  -6   2 -11  116.37   10.55
  -6  -2 -11  131.03   11.54
  -6   2 -11  120.46   10.46
  -6   3  11   53.15    8.04
   6  -3 -11   36.60    6.63
   5  -3 -11   18.76    4.67
  -5  -3  11   19.24    4.53
  -5  -3  11   19.57    4.43
  -5   3  11   20.98    4.98
   5   3 -11   26.40    6.11
   4  -3 -11   41.51    6.08
  -4  -3  11   37.28    6.10
  -4  -3  11   38.69    5.62
  -4   3  11   39.56    5.98
   4   3 -11   44.80    6.94
  -3   3  11  842.81   27.93
  -3  -3  11  782.06   28.10
   3   3 -11  817.21   29.46
  -3  -3  11  864.82   25.98
  -3   3  11  850.49   26.85
   3  -3 -11  863.75   28.08
  -2  -3  11    5.65    2.79
   2  -3 -11    5.07    2.25
  -2  -3  11    2.15    1.90
  -2   3  11    4.03    2.33
   2   3 -11    2.11    1.54
  -2   3  11    3.29    2.10
  -2  -3  11    6.03    2.77
   2   3 -11    5.84    3.30
  -1  -3  11   54.11    5.99
   1   3 -11   52.42    6.63
   1   3 -11   59.06    5.96
  -1  -3  11   51.94    6.20
  -1   3  11   46.63    6.06
   1  -3 -11   59.58    6.38
  -1  -3  11   48.27    4.65
   0  -3 -11   25.57    4.23
   0   3 -11   40.51    5.28
   0  -3  11   35.97    5.14
   0   3  11   28.13    4.87
   0  -3  11   32.18    4.39
  -1   3 -11   46.95    5.93
   1  -3  11   52.73    6.40
   1   3  11   64.19    7.12
  -1  -3 -11   51.35    6.03
   2  -3  11  772.72   26.82
  -2   3 -11  785.46   26.68
   2   3  11  816.22   27.56
  -2  -3 -11  774.67   25.84
   3  -3  11   71.21    7.94
  -3   3 -11   77.90    8.09
   3   3  11   79.73    7.99
  -3  -3 -11   72.07    7.69
   4  -3  11   36.83    6.32
  -4  -3 -11   33.76    5.57
  -4   3 -11   26.12    4.94
   4  -3  11   33.14    5.96
   4   3  11   38.21    5.66
  -5  -3 -11   60.87    8.19
   5  -3  11   80.13    9.33
  -5   3 -11   71.47    8.57
   5  -3  11   69.88    8.99
   4  -4 -11   18.81    4.77
  -4  -4  11   16.61    4.40
  -4   4  11   19.64    4.61
  -4  -4  11   20.31    5.40
   4   4 -11   20.40    5.26
  -3   4  11   17.79    4.63
   3  -4 -11   19.06    5.11
  -3   4  11   18.18    4.22
   3   4 -11   21.05    5.09
  -3  -4  11   22.14    5.53
  -2  -4  11  210.44   13.88
   2   4 -11  193.00   14.26
  -2  -4  11  186.31   13.11
  -2   4  11  176.97   13.10
   2  -4 -11  196.49   13.48
   1  -4 -11   11.53    3.45
   1   4 -11    6.11    2.78
  -1  -4  11    2.53    2.08
  -1   4  11   11.58    3.79
   1   4 -11   10.68    4.06
   0  -4 -11    7.42    3.13
   0   4 -11    9.76    2.89
   0  -4  11    9.62    3.70
   0   4 -11   10.17    3.23
   0   4  11   13.21    4.11
  -1   4 -11  102.53    9.81
   1  -4  11  115.78   10.62
   1   4  11  102.24   10.12
  -1  -4 -11  110.34   10.08
  -2  -4 -11   53.19    7.28
  -2   4 -11   47.96    7.06
   2  -4  11   54.25    7.33
   2   4  11   52.29    7.59
  -3  -4 -11   12.99    3.88
   3  -4  11   12.34    4.05
   3   4  11    7.47    3.07
  -3   4 -11    5.26    2.77
   4   4  11   46.96    7.70
  -1  -5  11   29.64    6.29
  -7   0  12   50.62    7.12
   7   0 -12   48.76    7.36
  -6   0  12   90.33    8.08
   6   0 -12  104.08    9.57
  -6   0  12   97.69    9.11
  -5   0  12  510.14   18.92
   5   0 -12  555.35   20.77
  -5   0  12  524.11   19.97
  -4   0  12  458.42   16.52
   4   0 -12  471.38   17.20
  -4   0  12  500.40   13.39
  -4   0  12  451.82   16.95
   3   0 -12  337.97    8.57
   3   0 -12  331.77   12.53
  -3   0  12  301.86   10.35
  -3   0  12  305.40   12.19
  -2   0  12 5999.25   97.30
  -2   0  12 5989.08   98.43
   2   0 -12 5894.77   97.01
  -2   0  12 5758.17   96.41
   2   0 -12 5567.28   97.08
  -1   0  12 7491.02  123.57
  -1   0  12 7446.81  124.35
  -1   0  12 7514.36  124.62
   0   0 -12 2305.49   50.99
   0   0  12 2273.32   51.38
   1   0  12 1559.75   30.80
  -1   0 -12 1737.04   32.30
  -1   0 -12 1597.10   34.05
   1   0  12 1623.73   33.56
   1   0  12 1585.67   32.46
  -1   0 -12 1570.28   28.36
  -2   0 -12 1578.43   30.50
   2   0  12 1596.89   30.97
   2   0  12 1619.78   35.02
   2   0  12 1674.58   34.04
  -2   0 -12 1603.73   35.61
  -3   0 -12  219.84    8.94
   3   0  12  224.76    8.30
  -3   0 -12  217.18   10.74
   3   0  12  215.91   10.92
   3   0  12  211.21    9.26
  -4   0 -12  102.02    7.77
   4   0  12   98.19    8.01
   4   0  12   98.09    6.12
  -5   0 -12 2436.27   53.94
   5   0  12 2400.84   56.42
  -5   0 -12 2355.43   55.34
  -6   0 -12   21.74    4.29
   6   0  12   29.96    5.51
  -6   0 -12   26.76    5.67
   7   0  12   49.15    7.76
  -7   0 -12   44.98    7.39
  -7  -1  12   56.25    7.16
  -7  -1  12   59.38    7.80
  -7   1  12   73.48    9.12
   7  -1 -12   66.42    8.82
   7   1 -12   62.59    8.74
   6  -1 -12   46.44    6.54
  -6  -1  12   44.57    5.91
  -6   1  12   47.14    6.53
  -6  -1  12   38.92    5.75
   6  -1 -12   47.87    6.01
   6   1 -12   51.21    7.33
  -5  -1  12   47.76    5.89
   5   1 -12   52.82    6.86
   5  -1 -12   57.46    5.87
   5  -1 -12   47.16    6.27
  -5  -1  12   47.08    5.46
  -5   1  12   52.37    6.41
  -4  -1  12  311.22   14.52
   4   1 -12  308.64   15.15
   4  -1 -12  323.81   12.47
  -4   1  12  322.68   11.14
   4  -1 -12  301.53   14.06
  -4  -1  12  296.63   12.48
  -4   1  12  293.28   14.02
  -3   1  12  322.76   13.74
  -3  -1  12  357.64   14.48
   3   1 -12  315.23   13.99
   3  -1 -12  352.11   11.27
  -3   1  12  337.02   11.77
   3  -1 -12  319.71   13.37
  -3   1  12  333.87   11.63
  -3  -1  12  330.01   11.73
  -2  -1  12  403.90   11.60
  -2   1  12  383.44   14.31
   2  -1 -12  411.41   10.60
   2   1 -12  422.45   11.06
   2   1 -12  403.68   15.11
   2  -1 -12  434.97   14.45
  -2   1  12  396.68   13.54
  -2   1  12  404.79   13.08
  -1   1  12 1570.99   35.13
  -1  -1  12 1601.86   29.75
   1   1 -12 1574.91   32.00
   1  -1 -12 1510.98   27.01
  -1   1  12 1607.31   34.52
  -1  -1  12 1788.98   35.17
  -1   1  12 1621.41   34.00
  -1  -1  12 1565.07   34.86
   1  -1 -12 1612.30   33.54
   0   1 -12  622.69   16.93
   0  -1 -12  616.73   15.92
   0  -1  12  611.47   17.40
   0   1  12  594.23   17.28
   0  -1  12  584.81   17.32
   0  -1  12  591.05   17.12
  -1   1 -12  726.42   20.14
   1  -1  12  721.03   19.45
   1   1  12  731.59   16.84
   1   1  12  730.04   19.92
   1  -1  12  687.10   19.22
   1  -1  12  740.81   20.38
   1  -1  12  745.50   19.66
  -1  -1 -12  748.77   18.63
  -1  -1 -12  738.38   18.13
  -2   1 -12  186.51    9.60
  -2  -1 -12  178.63    9.25
   2  -1  12  179.04    8.71
  -2  -1 -12  124.13    6.24
   2   1  12  177.37    8.19
   2   1  12  184.19    8.85
   2  -1  12  186.23    9.62
   2  -1  12  179.61    8.59
   2  -1  12  185.73    5.59
  -2  -1 -12  195.92    8.55
  -3  -1 -12  112.69    7.04
  -3  -1 -12   97.85    7.30
  -3   1 -12   95.78    7.41
   3  -1  12   92.48    6.63
   3   1  12  102.14    7.21
   3   1  12  104.45    6.70
   3  -1  12   92.59    7.47
  -3   1 -12  102.83    6.93
  -4  -1 -12 1525.82   36.84
  -4  -1 -12 1514.82   37.49
  -4   1 -12 1545.40   38.46
   4   1  12 1469.86   37.97
   4  -1  12 1451.61   39.29
   4   1  12 1620.90   35.14
  -4   1 -12 1502.37   37.09
  -5   1 -12  103.56    8.93
   5   1  12   90.87    8.64
   5  -1  12  102.79    9.51
  -5  -1 -12  101.50    8.54
  -5  -1 -12  103.71    8.41
  -5   1 -12   94.25    8.38
  -6   1 -12  136.34   10.81
   6   1  12  131.41   11.48
   6  -1  12  141.73   12.37
  -6   1 -12  142.77   11.44
  -6  -1 -12  147.26   11.95
  -7   1 -12   44.20    7.03
   7   1  12   43.60    7.36
  -7  -2  12   -2.73    3.45
  -6   2  12   43.26    7.02
  -6  -2  12   58.25    7.70
   6  -2 -12   54.60    7.56
   6   2 -12   56.51    8.40
   5  -2 -12    7.80    3.23
  -5  -2  12   11.53    3.53
  -5   2  12   11.19    3.51
   5   2 -12   13.43    3.98
  -4  -2  12   57.70    6.18
  -4   2  12   62.14    7.04
  -4  -2  12   64.10    7.08
   4   2 -12   60.35    7.33
  -4   2  12   56.47    5.29
   4  -2 -12   58.64    6.53
  -3   2  12  140.09    9.45
  -3  -2  12  127.12    8.06
  -3  -2  12  140.72    9.78
   3   2 -12  127.53    9.56
  -3   2  12  132.98    8.23
   3  -2 -12  130.83    9.22
  -2  -2  12  126.78    6.99
  -2   2  12  114.85    8.16
  -2  -2  12  114.09    8.26
   2   2 -12  117.24    6.30
   2   2 -12  116.06    8.80
  -2   2  12  119.83    7.83
   2  -2 -12  120.13    8.18
  -1  -2  12  471.54   12.92
  -1  -2  12  430.20   15.91
   1   2 -12  456.48   14.81
   1   2 -12  433.90   17.38
  -1  -2  12  433.11   16.33
  -1   2  12  446.63   16.36
  -1   2  12  435.11   16.43
   1  -2 -12  463.70   16.22
   0   2 -12  275.66   11.83
   0  -2  12  286.34   12.79
   0   2  12  279.00   12.77
   0  -2 -12  286.27   12.05
   0  -2  12  275.18   11.66
   0  -2  12  295.93    8.48
  -1   2 -12  101.84    7.39
   1  -2  12   85.87    6.89
   1   2  12   93.32    4.64
   1   2  12   98.50    7.48
   1  -2  12  104.17    6.56
  -1  -2 -12   93.33    6.71
   1  -2  12   96.99    4.14
  -2   2 -12   95.25    7.52
   2  -2  12   89.69    7.37
   2   2  12   84.25    5.65
   2   2  12   82.06    6.96
  -2  -2 -12   63.91    4.35
   2  -2  12   89.30    6.13
  -2   2 -12   85.68    5.08
  -2  -2 -12   86.76    6.82
   3  -2  12  784.93   25.15
  -3   2 -12  795.86   25.85
  -3   2 -12  825.82   22.09
   3   2  12  815.84   23.64
   3   2  12  811.74   24.49
   3  -2  12  810.06   26.28
  -3  -2 -12  804.94   24.79
   4   2  12   26.64    4.56
  -4   2 -12   30.80    5.05
  -4   2 -12   29.86    4.35
  -4  -2 -12   25.03    4.59
   4  -2  12   35.77    5.91
  -4  -2 -12   34.06    5.18
   4  -2  12   30.44    4.87
   4   2  12   38.34    5.01
   5  -2  12   49.10    7.03
  -5  -2 -12   50.55    6.37
  -5   2 -12   47.90    6.44
   5   2  12   54.42    7.06
  -5  -2 -12   60.92    7.25
  -5   2 -12   56.43    6.43
  -6  -2 -12   59.28    8.22
  -6   2 -12   57.16    7.33
  -6   2 -12   65.84    8.23
   6   2  12   64.67    8.46
   6  -2  12   81.59    9.84
  -6  -2 -12   65.59    8.29
  -6   3  12   16.64    4.45
   5  -3 -12   52.39    7.27
  -5  -3  12   49.40    6.85
  -5   3  12   37.61    6.16
   5   3 -12   40.34    7.32
  -5  -3  12   43.27    6.88
  -4  -3  12   21.32    4.25
  -4   3  12   20.71    4.27
   4  -3 -12   25.67    4.91
  -4  -3  12   32.27    5.70
   4   3 -12   21.01    4.94
  -3   3  12  285.14   15.32
  -3  -3  12  287.75   16.03
   3   3 -12  286.77   16.54
  -3  -3  12  296.39   14.10
  -3   3  12  293.21   14.84
   3  -3 -12  311.51   15.97
  -2  -3  12   53.87    5.26
  -2   3  12   44.48    5.91
   2   3 -12   55.79    5.48
  -2  -3  12   49.99    6.14
  -2   3  12   45.70    5.89
   2   3 -12   49.95    6.56
   2  -3 -12   51.78    6.28
  -2  -3  12   49.73    6.20
  -1  -3  12   63.43    5.15
  -1  -3  12   57.64    6.24
   1   3 -12   65.30    7.26
   1   3 -12   57.67    6.04
  -1  -3  12   57.15    6.56
  -1   3  12   46.61    6.09
   1  -3 -12   60.17    6.56
   0  -3  12  240.31   11.82
   0   3 -12  243.04   12.70
   0  -3  12  237.46   13.37
   0   3  12  242.71   13.78
   0  -3 -12  256.60   13.23
  -1   3 -12   90.81    8.34
   1  -3  12   90.87    8.24
   1   3  12   99.28    8.82
  -1  -3 -12   93.06    8.03
  -2   3 -12  162.00   11.43
   2  -3  12  142.00   10.85
   2   3  12  177.65   12.10
  -2  -3 -12  154.86   10.71
   3  -3  12  111.98    9.90
  -3   3 -12  108.18    9.76
   3   3  12  117.73    9.95
  -3  -3 -12  115.65    9.59
  -4  -3 -12   24.52    4.91
  -4  -3 -12   27.41    5.05
  -4   3 -12   33.76    6.13
   4  -3  12   21.49    4.54
   4   3  12   27.31    5.15
  -5  -3 -12   59.31    8.01
  -5   3 -12   47.85    7.23
   5  -3  12   54.82    7.71
   5  -3  12   75.39    9.18
  -4  -4  12    3.04    3.95
   4  -4 -12   12.27    4.23
  -4   4  12    1.66    2.69
   4   4 -12    4.51    3.84
  -3  -4  12   17.97    4.94
   3  -4 -12   17.29    4.44
  -3   4  12   11.35    4.10
  -3   4  12   15.63    4.69
   3   4 -12    9.99    4.03
  -2  -4  12  101.00    9.68
   2   4 -12   98.32   10.22
  -2  -4  12   97.13    9.54
  -2   4  12  104.23   10.09
   2  -4 -12  100.21    9.73
   1   4 -12   31.97    5.21
  -1  -4  12   28.15    5.40
   1   4 -12   21.23    5.02
  -1   4  12   36.26    6.16
   1  -4 -12   29.94    5.17
   0  -4 -12    7.57    3.14
   0   4 -12    9.17    3.07
   0  -4  12    6.82    3.45
   0   4 -12   -0.69    2.22
   0   4  12    3.56    3.15
  -1   4 -12  102.64    9.93
   1  -4  12  111.95   10.56
   1   4  12   89.70    9.71
  -1  -4 -12   93.58    9.49
  -2  -4 -12   51.39    7.39
  -2   4 -12   56.78    7.54
   2  -4  12   56.37    7.98
   2   4  12   43.60    6.95
  -3  -4 -12   15.67    4.46
  -3   4 -12   12.56    4.22
   3  -4  12   11.42    4.17
   3   4  12   10.23    4.05
   4   4  12    5.55    3.00
  -7   0  13    0.75    2.23
   7   0 -13    2.47    3.56
  -6   0  13   -0.28    1.86
   6   0 -13   -0.55    1.79
  -6   0  13   -2.80    2.05
  -5   0  13    2.50    2.18
   5   0 -13    0.82    1.91
  -5   0  13    1.02    1.95
  -4   0  13    3.61    2.00
  -4   0  13   -1.06    1.13
   4   0 -13   -0.53    1.55
  -4   0  13    3.04    1.89
  -3   0  13    1.70    1.53
   3   0 -13    0.04    0.66
   3   0 -13    2.42    1.42
  -3   0  13    0.70    1.08
  -3   0  13   -0.25    1.10
   2   0 -13    0.19    0.81
  -2   0  13   -0.25    1.07
   2   0 -13   -0.82    0.89
   2   0 -13   -0.50    1.17
  -2   0  13    0.43    1.13
   1   0 -13    1.50    0.96
  -1   0  13   -1.27    1.17
   1   0 -13    1.25    1.03
  -1   0  13    1.16    1.34
   1   0 -13    3.31    1.44
  -1   0  13    1.42    1.36
   0   0 -13    4.78    1.85
   0   0 -13    5.68    0.90
   0   0  13    6.07    2.26
  -1   0 -13    1.66    0.83
   1   0  13   -0.88    0.89
  -1   0 -13    0.69    1.65
   1   0  13    0.12    0.82
   1   0  13    1.33    1.59
  -1   0 -13    1.79    1.67
   2   0  13    3.43    1.78
  -2   0 -13    0.50    0.76
  -2   0 -13    1.68    1.83
   2   0  13   -0.22    0.68
   2   0  13    0.43    1.23
   3   0  13    0.50    1.34
  -3   0 -13   -0.25    0.82
  -3   0 -13    0.74    1.35
   3   0  13    1.67    1.09
   3   0  13    0.59    1.42
   4   0  13    0.46    1.97
  -4   0 -13    2.33    2.20
   4   0  13    0.39    1.34
  -5   0 -13    3.90    2.53
  -5   0 -13   -0.56    1.69
   5   0  13    1.69    1.80
   6   0  13   -0.77    2.26
  -6   0 -13    0.39    1.74
  -6   0 -13    1.39    1.85
  -7   0 -13   -0.28    2.13
  -7  -1  13    3.03    3.20
  -7  -1  13    4.34    2.46
  -7   1  13   11.54    4.19
   7  -1 -13    3.80    2.90
   7   1 -13   11.14    4.26
  -6  -1  13   31.79    5.49
  -6   1  13   37.59    6.08
  -6  -1  13   30.90    5.15
   6  -1 -13   35.66    5.92
   6   1 -13   47.84    7.14
   5   1 -13  154.60   11.52
   5  -1 -13  145.33    9.35
  -5  -1  13  147.36   10.67
   5  -1 -13  136.20   10.39
  -5  -1  13  134.71    9.26
  -5   1  13  124.67    9.92
  -4   1  13  120.99    8.92
   4   1 -13   98.29    7.00
   4   1 -13  140.19   10.16
   4  -1 -13  140.55    7.89
  -4   1  13  131.77    7.00
   4  -1 -13  115.28    8.68
  -4  -1  13  129.97    9.26
  -4  -1  13  131.97    8.00
  -3   1  13   86.41    6.87
  -3  -1  13   91.84    7.19
   3   1 -13   98.21    7.54
   3  -1 -13   95.89    5.48
  -3   1  13   94.84    6.03
   3  -1 -13   94.14    6.99
  -3   1  13   93.77    6.06
  -3  -1  13   88.89    5.78
  -2  -1  13  125.62    5.87
  -2   1  13  116.13    7.58
   2   1 -13  143.34    5.85
   2   1 -13  127.95    8.43
  -2  -1  13  149.99    8.74
   2  -1 -13  128.84    5.14
  -2   1  13  141.19    7.59
  -2   1  13  133.60    7.16
   2  -1 -13  132.81    7.57
  -1  -1  13  314.60   12.49
   1   1 -13  304.25   10.21
   1  -1 -13  276.51    6.69
  -1   1  13  296.91   11.80
  -1   1  13  264.75   11.03
  -1  -1  13  337.29   12.05
  -1   1  13  279.94   11.07
   1  -1 -13  279.13   10.51
   0   1 -13  933.65   22.71
   0  -1  13  916.42   23.31
   0   1  13  911.58   23.41
   0  -1  13  937.44   23.29
   0  -1  13  887.98   23.08
   0  -1 -13  922.75   21.40
  -1   1 -13  877.53   23.08
   1  -1  13  861.83   22.36
   1   1  13  877.24   19.47
   1   1  13  851.31   22.66
   1  -1  13  862.42   22.28
   1  -1  13  874.13   22.70
  -1  -1 -13  834.45   21.05
  -1  -1 -13  866.10   20.55
  -2  -1 -13  890.75   24.20
  -2   1 -13  915.66   24.82
   2  -1  13  923.38   23.39
   2   1  13  904.64   22.14
   2  -1  13  953.18   16.82
   2   1  13  929.11   23.65
   2  -1  13  917.11   24.80
   2  -1  13  911.89   23.06
  -2  -1 -13  950.29   22.57
  -3  -1 -13  797.99   21.98
  -3  -1 -13  789.04   23.72
  -3   1 -13  790.70   24.17
   3  -1  13  755.35   21.81
   3   1  13  769.42   22.64
   3   1  13  800.99   22.06
   3  -1  13  786.24   24.49
  -3   1 -13  788.68   22.20
  -4  -1 -13  237.04   11.86
  -4  -1 -13  218.74   12.08
   4  -1  13  233.33   11.46
  -4   1 -13  202.98   12.02
   4   1  13  241.59   12.80
   4  -1  13  226.92   13.35
   4   1  13  250.81   11.31
  -4   1 -13  213.62   11.63
  -5   1 -13   82.80    7.87
  -5  -1 -13   81.40    7.79
  -5   1 -13   86.13    8.18
   5   1  13   67.07    7.43
   5  -1  13   74.90    8.38
  -5  -1 -13   87.31    7.82
  -6   1 -13  157.98   11.77
   6   1  13  137.20   11.81
   6  -1  13  160.32   13.04
  -6  -1 -13  153.80   12.44
  -6   1 -13  139.52   11.43
  -7   1 -13   17.56    4.17
  -6   2  13   32.28    5.76
  -6  -2  13   39.53    6.65
   6   2 -13   30.80    6.56
   6  -2 -13   30.67    6.12
  -5   2  13   31.73    5.30
   5  -2 -13   36.48    5.85
  -5  -2  13   42.32    6.30
   5   2 -13   38.41    6.63
   4  -2 -13    3.16    2.15
  -4  -2  13   -0.53    2.40
  -4   2  13    1.41    2.32
  -4   2  13    0.11    1.39
   4   2 -13    2.54    3.00
  -3  -2  13  208.53   10.38
  -3  -2  13  196.44   11.93
   3   2 -13  193.26   12.12
  -3   2  13  202.99   10.49
  -3   2  13  202.36   11.77
   3  -2 -13  188.34   11.26
  -2  -2  13    8.03    1.91
   2  -2 -13   10.49    2.76
  -2   2  13    9.51    2.65
   2   2 -13   11.14    2.24
   2   2 -13    8.67    2.84
  -2   2  13   10.45    2.64
  -2  -2  13   12.69    3.26
  -1  -2  13  199.74    7.61
  -1  -2  13  193.13   10.30
   1   2 -13  185.66    8.99
   1   2 -13  180.54   10.82
  -1  -2  13  169.11    9.96
  -1   2  13  188.32   10.39
   1  -2 -13  191.05   10.06
   0  -2  13  165.72    5.80
   0   2 -13  170.77    9.14
   0  -2  13  156.64    9.45
   0   2  13  161.02    9.77
   0  -2 -13  150.22    8.82
   0  -2  13  165.03    8.91
  -1  -2 -13   30.48    4.01
  -1   2 -13   42.24    5.02
   1  -2  13   31.47    3.86
   1   2  13   40.35    5.12
   1  -2  13   37.23    4.62
  -1  -2 -13   30.13    3.98
  -2   2 -13  637.88   21.53
   2  -2  13  622.36   21.10
   2   2  13  651.43   17.70
   2   2  13  639.26   21.10
  -2  -2 -13  474.29   14.64
   2  -2  13  702.99   19.46
  -2   2 -13  666.25   16.57
  -2  -2 -13  635.75   20.18
   3   2  13   25.58    3.97
  -3  -2 -13   26.27    4.52
  -3   2 -13   28.85    4.83
   3  -2  13   30.49    4.62
  -3  -2 -13   31.49    4.50
   3  -2  13   25.06    4.46
   3   2  13   32.07    4.72
  -3   2 -13   33.12    3.87
  -4  -2 -13   53.33    6.56
   4  -2  13   47.10    5.97
  -4   2 -13   48.98    6.38
   4   2  13   59.76    6.47
   4   2  13   60.95    6.23
   4  -2  13   60.30    7.40
  -4  -2 -13   54.85    6.35
  -4   2 -13   58.97    5.88
  -5  -2 -13   76.45    7.91
   5  -2  13   68.89    7.70
  -5   2 -13   69.36    7.97
  -5  -2 -13   65.44    7.56
   5   2  13   67.64    7.80
   5  -2  13   77.36    8.88
  -5   2 -13   67.41    7.15
   6   2  13   24.62    5.64
  -6   2 -13   11.51    3.91
   6  -2  13   15.45    4.47
  -6  -2 -13   13.71    4.19
  -6   2 -13   16.33    4.66
   5  -3 -13    8.72    3.74
  -5  -3  13   17.59    4.94
  -5  -3  13    5.71    2.35
  -5   3  13   11.80    3.94
   5   3 -13   11.46    3.86
  -4   3  13   63.59    7.75
  -4  -3  13   73.26    7.53
  -4  -3  13   77.75    9.03
   4   3 -13   66.70    8.56
   4  -3 -13   78.17    8.39
  -3  -3  13   33.17    5.29
  -3   3  13   51.91    6.77
   3  -3 -13   29.23    5.20
  -3  -3  13   40.33    5.01
  -3   3  13   48.54    6.05
   3   3 -13   43.21    6.33
   2  -3 -13   13.29    3.47
  -2  -3  13    8.72    2.39
  -2   3  13    7.39    2.78
   2   3 -13    9.52    2.40
  -2   3  13   11.40    3.25
   2   3 -13    7.24    3.20
  -2  -3  13    8.81    3.39
   1  -3 -13   28.61    4.47
   1   3 -13   39.29    4.79
  -1  -3  13   28.40    4.74
   1   3 -13   23.92    4.66
  -1   3  13   30.94    4.96
  -1  -3  13   37.18    5.25
   0   3 -13   56.99    6.16
   0  -3  13   55.61    6.55
   0   3  13   64.42    7.30
   0  -3 -13   50.92    5.90
   0  -3  13   72.81    6.53
  -1   3 -13   49.67    6.24
   1  -3  13   53.00    6.58
   1   3  13   55.51    6.97
  -1  -3 -13   53.35    6.27
  -2  -3 -13   24.99    4.66
  -2   3 -13   22.64    4.76
   2  -3  13   17.52    4.04
   2   3  13   22.27    4.74
   3  -3  13   61.00    7.59
  -3   3 -13   66.63    7.60
   3   3  13   71.34    8.07
  -3  -3 -13   73.81    7.83
  -4  -3 -13   50.02    6.84
  -4   3 -13   45.47    6.87
   4  -3  13   43.04    6.39
   4   3  13   60.47    7.28
  -4  -3 -13   44.54    6.60
  -5  -3 -13    8.56    3.10
   5  -3  13    7.45    3.30
  -5   3 -13    5.26    2.75
   5  -3  13   10.03    3.87
  -4  -4  13   65.56    9.03
  -4   4  13   54.37    7.77
   4   4 -13   48.28    8.01
  -3   4  13  128.47   11.40
  -3  -4  13  107.63   10.97
   3   4 -13  112.73   11.63
  -3   4  13  130.59   11.29
   3  -4 -13  122.64   11.27
  -2  -4  13   32.92    5.95
  -2   4  13   37.27    6.34
   2   4 -13   33.85    6.41
   2  -4 -13   35.44    6.01
  -2  -4  13   43.22    6.26
   1  -4 -13    5.75    2.83
   1   4 -13    6.19    2.88
  -1  -4  13    9.71    3.64
   1   4 -13    3.06    2.08
  -1   4  13    4.76    2.98
   0  -4 -13    7.83    3.27
   0   4 -13    5.23    2.48
   0  -4  13   11.32    3.63
   0   4 -13    7.89    3.43
   0   4  13    9.53    3.77
  -1   4 -13   78.75    9.02
   1  -4  13   84.69    9.59
   1   4  13   95.91   10.05
  -1  -4 -13   83.95    9.03
  -2  -4 -13   23.33    5.20
  -2   4 -13   28.16    6.13
   2  -4  13   14.77    4.21
   2   4  13   20.36    5.29
  -3   4 -13    3.32    3.00
   3  -4  13    5.60    3.32
   3   4  13    1.45    3.67
  -3  -4 -13    9.46    3.75
   7   0 -14   89.57    9.87
  -7   0  14   92.87    9.67
  -6   0  14  110.06    9.11
   6   0 -14  113.87    9.99
  -6   0  14  106.78    9.49
  -5   0  14  248.06   12.90
   5   0 -14  263.78   13.97
  -5   0  14  257.56   13.63
  -4   0  14  114.11    7.92
   4   0 -14  116.61    8.13
  -4   0  14  113.05    6.17
  -4   0  14  118.70    8.23
  -3   0  14  213.08   10.25
  -3   0  14  208.33   10.54
   3   0 -14  214.42    7.19
   3   0 -14  209.68   10.20
  -3   0  14  218.70    9.42
  -2   0  14  792.19   20.95
   2   0 -14  845.42   19.23
   2   0 -14  835.89   20.98
  -2   0  14  812.57   20.90
   2   0 -14  819.79   20.52
  -1   0  14   20.56    2.77
   1   0 -14   18.70    2.75
   1   0 -14   21.88    2.64
  -1   0  14   16.39    2.93
   1   0 -14   21.76    2.27
   0   0 -14 1802.71   42.92
   0   0  14 1768.74   44.22
  -1   0 -14  942.01   21.51
   1   0  14  908.90   23.02
   1   0  14  889.28   21.78
  -1   0 -14  866.99   23.03
  -1   0 -14  864.39   17.49
  -2   0 -14  951.25   20.16
  -2   0 -14  948.42   25.50
   2   0  14  943.07   21.19
   2   0  14  921.61   24.33
   2   0  14  949.96   24.10
  -3   0 -14  954.49   22.49
  -3   0 -14  911.33   26.34
   3   0  14  968.87   21.81
   3   0  14  885.02   26.05
   3   0  14  987.23   24.72
  -4   0 -14 2400.94   53.82
   4   0  14 2355.54   54.57
   4   0  14 2581.74   49.87
  -5   0 -14   28.92    5.20
   5   0  14   22.53    4.81
  -5   0 -14   30.69    5.04
   6   0  14   10.50    3.89
  -6   0 -14   17.33    4.00
  -6   0 -14   11.48    3.13
  -7  -1  14   20.93    4.73
  -7  -1  14   20.53    4.96
  -7   1  14   20.82    5.13
   7  -1 -14   27.52    5.85
   7   1 -14   15.06    5.77
  -6  -1  14    9.56    4.31
   6  -1 -14   11.90    4.10
  -6  -1  14    9.93    3.06
  -6   1  14    8.61    3.39
   6   1 -14    5.47    2.64
  -5  -1  14   66.53    6.47
  -5  -1  14   65.45    7.24
   5   1 -14   58.30    7.28
   5  -1 -14   66.01    7.31
  -5   1  14   52.96    6.62
  -4   1  14   65.72    6.70
  -4  -1  14   65.85    6.88
   4   1 -14   64.80    5.92
   4   1 -14   74.09    7.49
   4  -1 -14   74.34    5.72
  -4   1  14   72.49    5.27
   4  -1 -14   80.18    7.22
  -4   1  14   71.30    5.68
  -4  -1  14   80.68    6.46
   3   1 -14   24.82    3.35
  -3  -1  14   22.03    2.89
  -3   1  14   17.58    3.42
   3  -1 -14   22.16    2.78
   3  -1 -14   21.18    3.40
   3   1 -14   20.32    3.79
  -3   1  14   20.20    3.00
  -3  -1  14   20.36    3.67
   2   1 -14   20.08    2.30
  -2  -1  14   16.39    2.21
  -2   1  14   14.38    2.98
   2  -1 -14   16.79    1.80
  -2   1  14   13.67    2.60
   2   1 -14   11.73    2.71
  -2   1  14   15.50    2.78
   2  -1 -14   14.01    2.71
  -2  -1  14   17.40    3.16
  -2  -1  14   16.03    2.60
  -1   1  14  183.67    9.47
   1  -1 -14  182.42    5.39
   1   1 -14  196.88    8.33
  -1   1  14  196.33    9.44
  -1  -1  14  208.11    9.58
   1  -1 -14  199.71    8.82
  -1  -1  14  194.40    9.73
   0   1 -14   52.88    4.66
   0  -1 -14   63.31    5.93
   0  -1  14   58.41    5.08
   0   1  14   52.36    4.75
   0  -1  14   56.88    4.89
   0  -1  14   55.36    4.86
   0  -1 -14   57.14    4.30
  -1  -1 -14 1668.98   37.68
  -1   1 -14 1752.20   38.30
   1  -1  14 1725.66   37.38
   1   1  14 1689.19   37.84
   1   1  14 1769.03   33.77
   1  -1  14 1744.76   37.64
   1  -1  14 1825.83   38.31
  -1  -1 -14 1738.35   35.91
  -1  -1 -14 1743.16   35.11
  -2   1 -14  171.64    9.66
   2  -1  14  163.22    8.63
  -2  -1 -14   99.57    6.01
   2   1  14  169.40    8.31
   2   1  14  164.57    8.85
   2  -1  14  154.91    9.16
   2  -1  14  170.07    8.76
  -2  -1 -14  148.98    8.88
  -2  -1 -14  163.41    8.03
  -3  -1 -14  629.20   19.03
  -3  -1 -14  602.01   20.58
  -3   1 -14  613.81   21.03
   3  -1  14  590.20   18.86
   3   1  14  609.28   19.57
   3   1  14  627.20   19.34
   3  -1  14  596.46   21.15
  -3   1 -14  590.75   18.87
  -4  -1 -14  379.42   15.31
  -4  -1 -14  336.39   15.52
  -4   1 -14  334.92   15.86
   4  -1  14  338.03   14.19
   4   1  14  331.92   15.55
   4  -1  14  333.03   16.48
   4   1  14  356.68   14.26
  -4   1 -14  328.85   14.97
  -5  -1 -14  205.17   12.32
  -5  -1 -14  182.30   11.77
  -5   1 -14  197.25   12.88
   5   1  14  171.26   12.22
   5  -1  14  200.48   13.64
  -5   1 -14  200.57   12.49
   6   1  14   51.74    7.37
  -6   1 -14   47.69    6.89
   6  -1  14   54.82    7.86
  -6   1 -14   59.22    7.58
  -6  -1 -14   58.47    8.02
   6  -2 -14   34.79    6.04
  -6  -2  14   31.76    6.21
  -6   2  14   37.54    6.34
   6   2 -14   46.88    7.53
  -5  -2  14   18.53    4.39
  -5   2  14   16.54    4.37
   5  -2 -14   16.78    4.35
   5   2 -14   18.30    5.56
  -4  -2  14    8.15    3.35
   4  -2 -14    2.28    1.77
  -4   2  14    4.45    2.81
  -4   2  14    5.06    2.11
   4   2 -14    2.14    2.43
  -3  -2  14   45.82    4.84
  -3   2  14   41.32    5.54
   3   2 -14   32.86    3.87
  -3   2  14   41.32    4.87
   3   2 -14   44.22    5.95
   3  -2 -14   43.15    5.49
  -3  -2  14   43.06    5.74
  -2  -2  14  230.88    9.60
  -2   2  14  215.95   11.98
  -2  -2  14  219.14   11.96
   2   2 -14  234.55    9.59
   2   2 -14  212.20   12.45
  -2   2  14  217.74   11.26
   2  -2 -14  204.78   11.25
  -1  -2  14   44.10    3.39
  -1  -2  14   50.33    5.40
   1   2 -14   50.75    4.76
   1   2 -14   51.17    5.79
  -1  -2  14   43.18    5.05
  -1   2  14   56.75    5.68
   1  -2 -14   43.82    4.90
   0   2 -14  438.73   15.76
   0  -2  14  422.38   16.49
   0   2  14  426.55   16.68
   0  -2 -14  426.11   15.62
   0  -2  14  412.81   15.49
  -1  -2 -14   28.00    3.97
  -1   2 -14   32.48    4.44
  -1  -2 -14   23.18    3.60
   1  -2  14   33.24    4.05
   1  -2  14   30.68    4.41
   1   2  14   33.70    4.47
  -2   2 -14  166.22   10.47
   2  -2  14  157.92   10.03
   2   2  14  152.36    7.71
   2   2  14  167.65   10.33
  -2  -2 -14  112.36    6.32
   2  -2  14  170.28    9.10
  -2  -2 -14  155.44    9.38
   3   2  14   10.38    2.72
  -3  -2 -14   13.64    3.21
   3  -2  14   11.71    3.24
  -3  -2 -14   11.35    3.22
  -3   2 -14    7.52    2.99
   3  -2  14    6.89    2.50
   3   2  14   13.89    3.17
  -4  -2 -14   59.97    6.73
  -4  -2 -14   68.26    7.40
   4  -2  14   70.54    7.21
  -4   2 -14   58.51    6.93
   4   2  14   57.75    6.38
   4   2  14   63.29    6.40
   4  -2  14   58.18    7.30
  -4   2 -14   56.01    5.74
   5   2  14   21.67    4.93
  -5   2 -14   24.37    4.26
  -5  -2 -14   21.63    4.27
   5  -2  14   22.30    5.01
  -5  -2 -14   18.84    4.17
  -5   2 -14   28.61    5.51
   5  -2  14   20.91    4.25
   6   2  14   31.99    6.23
   6  -2  14   52.42    8.27
  -6  -2 -14   43.57    7.04
  -6   2 -14   38.51    6.60
  -5  -3  14   24.45    5.83
   5  -3 -14   22.82    5.45
  -5   3  14   22.37    5.35
   5   3 -14   22.01    5.46
  -4  -3  14  108.82    9.13
  -4   3  14   93.13    9.33
  -4  -3  14   95.84    9.84
   4   3 -14   83.76    9.57
   4  -3 -14   92.03    9.20
   3  -3 -14   18.89    4.40
  -3  -3  14   11.76    3.00
  -3   3  14   17.73    4.47
  -3   3  14   14.62    3.55
   3   3 -14   18.57    4.65
  -3  -3  14    9.46    3.53
  -2   3  14   80.14    8.06
  -2  -3  14   83.12    7.99
   2   3 -14   87.34    9.03
  -2   3  14   90.39    8.31
   2  -3 -14   85.10    8.01
  -1  -3  14   45.40    5.76
   1   3 -14   48.72    5.53
  -1  -3  14   57.42    6.62
   1   3 -14   38.07    5.96
  -1   3  14   53.60    6.29
   1  -3 -14   56.10    6.53
   0  -3 -14   25.09    4.35
   0   3 -14   31.28    4.90
   0  -3  14   33.30    5.16
   0  -3  14   30.35    4.51
   0   3  14   24.47    4.62
  -1  -3 -14   20.39    4.12
  -1   3 -14   21.54    4.27
   1  -3  14   26.64    3.93
   1  -3  14   24.39    4.75
   1   3  14   28.05    5.03
  -2   3 -14   75.21    7.98
   2  -3  14   73.76    8.00
   2   3  14   89.51    8.75
  -2  -3 -14   79.22    7.69
  -3  -3 -14   52.48    6.69
  -3   3 -14   56.20    7.31
   3  -3  14   46.00    6.75
   3   3  14   45.10    6.62
  -4  -3 -14   11.34    3.21
  -4  -3 -14    9.94    3.84
  -4   3 -14   16.84    4.12
   4  -3  14   15.66    4.40
   4   3  14   16.52    3.94
  -5  -3 -14   13.90    4.30
   5  -3  14    9.81    3.84
  -5   3 -14    4.52    3.52
   5  -3  14   10.10    3.50
  -4   4  14   13.23    4.53
  -4  -4  14   11.54    4.19
   3  -4 -14   66.04    8.32
  -3   4  14   60.84    7.92
  -3   4  14   59.76    7.69
   3   4 -14   60.95    8.62
  -3  -4  14   48.85    7.44
   2  -4 -14   11.14    4.12
  -2   4  14    7.85    3.55
  -2  -4  14    9.91    3.87
   2   4 -14    9.11    3.91
  -2  -4  14   18.15    5.05
   1  -4 -14    6.46    3.47
   1   4 -14    2.20    2.66
  -1  -4  14    9.71    3.88
   1   4 -14   -0.28    2.03
  -1   4  14   13.27    4.43
   0  -4 -14    4.19    2.21
   0   4 -14    9.40    3.26
   0  -4  14   11.59    3.99
   0   4 -14    4.54    2.19
   0   4  14    4.90    3.08
  -1  -4 -14   19.60    4.84
  -1   4 -14   21.15    4.97
   1  -4  14   21.09    5.25
   1   4  14   21.80    5.42
  -2  -4 -14    3.20    3.07
  -2   4 -14    9.81    3.90
   2  -4  14    5.92    3.53
   2   4  14    4.40    2.47
  -3  -4 -14    3.39    3.02
  -3   4 -14    0.44    2.52
   3  -4  14    8.06    3.81
   3   4  14    0.96    2.83
  -7   0  15    0.20    2.82
   7   0 -15    4.83    2.86
  -6   0  15   -6.05    2.76
  -6   0  15    1.83    1.74
   6   0 -15    0.56    1.88
  -5   0  15    1.68    1.50
  -5   0  15    0.95    1.89
   5   0 -15    1.16    2.25
  -4   0  15    1.98    1.80
  -4   0  15    0.13    1.74
  -4   0  15    1.33    1.40
   4   0 -15   -2.00    1.56
  -3   0  15   -0.04    1.52
   3   0 -15    0.25    0.81
  -3   0  15    0.42    1.34
   3   0 -15    2.27    2.55
  -3   0  15    4.77    1.94
   3   0 -15    0.54    1.32
  -2   0  15    0.04    1.10
   2   0 -15    1.90    1.35
   2   0 -15   -0.50    0.74
  -2   0  15   -0.18    1.18
   2   0 -15   -1.67    1.18
  -2   0  15   -0.29    1.05
   1   0 -15    0.84    1.03
  -1   0  15    3.17    1.44
   1   0 -15    0.25    0.97
   1   0 -15    0.69    0.87
  -1   0  15    1.55    1.54
   0   0 -15    4.44    0.96
   0   0 -15    4.65    1.72
   0   0 -15    6.30    2.40
   0   0  15    2.69    2.00
  -1   0 -15    0.19    0.66
   1   0  15    0.97    1.26
  -1   0 -15    0.74    1.35
   1   0  15    1.23    1.46
  -1   0 -15    0.24    1.41
   2   0  15    0.41    1.09
  -2   0 -15    1.42    0.82
  -2   0 -15    1.24    1.69
   2   0  15    1.29    1.03
   2   0  15    0.25    1.04
   3   0  15    0.25    1.48
  -3   0 -15    0.88    1.24
  -3   0 -15   -0.82    1.64
   3   0  15    0.06    1.00
   3   0  15    0.53    1.58
   4   0  15   -0.27    2.04
  -4   0 -15    2.60    2.12
   4   0  15    0.84    2.25
  -5   0 -15   -1.26    2.25
   5   0  15   -1.68    1.72
  -5   0 -15   -2.12    2.52
   6   0  15    2.09    2.86
  -6   0 -15   -1.04    2.11
  -6   0 -15    0.53    2.23
   7  -1 -15   18.45    4.89
  -7  -1  15   12.91    3.81
  -7   1  15   15.27    4.48
   7   1 -15   19.14    5.19
  -7  -1  15   14.02    3.98
  -6  -1  15   70.04    8.22
  -6   1  15   58.65    7.54
  -6  -1  15   56.00    6.73
   6   1 -15   59.26    8.26
   6  -1 -15   75.47    8.50
  -5  -1  15   12.70    3.26
  -5   1  15   12.20    3.22
   5  -1 -15   17.73    4.18
   5   1 -15   11.38    3.49
  -5  -1  15   20.38    4.62
  -4   1  15  160.30   10.54
  -4  -1  15  151.36   10.34
   4   1 -15  135.14    8.59
   4   1 -15  159.39   11.07
   4  -1 -15  174.03    8.95
  -4   1  15  157.30    8.29
   4  -1 -15  166.29   10.60
  -4   1  15  159.60    8.78
  -4  -1  15  178.79    9.68
  -3  -1  15   53.32    4.56
   3   1 -15   70.17    5.66
  -3   1  15   52.45    5.67
  -3  -1  15   55.17    5.81
   3   1 -15   44.72    5.35
   3  -1 -15   54.99    4.14
  -3   1  15   48.77    4.67
   3  -1 -15   56.18    5.60
  -2  -1  15   40.31    3.44
  -2   1  15   35.87    4.63
  -2  -1  15   42.71    4.95
   2   1 -15   45.56    3.59
   2   1 -15   38.61    4.93
   2  -1 -15   43.35    3.01
  -2   1  15   39.96    4.41
  -2  -1  15   41.75    4.32
   2   1 -15   71.21    5.33
   2  -1 -15   40.16    4.44
  -1   1  15  157.43    9.06
   1   1 -15  164.52    7.94
   1  -1 -15  160.73    5.35
   1   1 -15  224.95    8.92
  -1   1  15  165.23    8.98
  -1  -1  15  187.38    9.36
   1  -1 -15  164.81    8.20
  -1  -1  15  199.47   10.29
   0   1 -15   48.50    4.40
   0  -1 -15   46.18    5.41
   0  -1  15   43.99    4.49
   0   1  15   40.59    4.40
   0  -1  15   40.20    4.52
   0  -1  15   41.63    4.53
   0   1 -15   43.72    4.26
   0  -1 -15   39.44    3.70
  -1  -1 -15  104.71    7.07
  -1   1 -15  112.58    7.47
   1  -1  15  114.82    7.22
   1   1  15  114.87    7.67
   1   1  15  117.38    5.84
   1  -1  15  106.99    7.12
   1  -1  15  111.98    7.47
  -1  -1 -15  101.51    6.37
  -1  -1 -15  107.00    6.02
   2   1  15    8.08    1.94
  -2  -1 -15   13.89    2.53
   2  -1  15    9.42    2.43
  -2  -1 -15    6.92    2.09
  -2   1 -15   15.65    3.41
   2  -1  15   11.69    2.39
  -2  -1 -15    6.46    2.12
   2   1  15   13.41    2.13
   2  -1  15    6.44    2.42
  -3  -1 -15  167.66    8.97
  -3  -1 -15  139.83    9.37
  -3   1 -15  149.61    9.98
   3  -1  15  150.55    8.79
   3   1  15  145.33    8.91
   3   1  15  163.03    9.22
   3  -1  15  148.14    9.96
   3  -1  15  157.15    8.99
   4   1  15    5.35    2.24
  -4   1 -15    4.49    2.39
   4  -1  15    6.48    2.91
  -4  -1 -15    6.79    2.34
  -4  -1 -15    4.92    2.61
  -4   1 -15    8.13    3.83
   4  -1  15    6.04    2.25
   4   1  15    5.40    2.62
  -5  -1 -15  386.41   17.20
  -5  -1 -15  381.40   17.89
  -5   1 -15  384.44   18.48
   5   1  15  357.68   18.00
   5  -1  15  380.46   19.34
  -5   1 -15  358.28   17.38
  -6   1 -15   85.82    9.16
   6   1  15   92.52   10.01
   6  -1  15   78.99    9.23
  -6  -1 -15   75.41    8.87
  -6   1 -15   77.46    8.69
  -6  -2  15   14.62    4.31
   6  -2 -15   27.25    5.74
  -6   2  15   26.44    5.81
   6   2 -15   25.96    6.43
  -5   2  15  150.82   11.73
  -5  -2  15  131.84   11.27
   5   2 -15  149.73   12.55
   5  -2 -15  148.79   11.54
  -4  -2  15    1.92    2.43
  -4   2  15    1.71    1.98
  -4   2  15    1.78    1.75
   4   2 -15    2.60    1.79
   4  -2 -15    7.69    2.82
  -3   2  15   63.35    6.84
  -3  -2  15   74.83    7.65
   3   2 -15   62.47    4.98
   3   2 -15   65.78    7.46
  -3   2  15   69.28    6.25
   3  -2 -15   65.44    6.72
  -2  -2  15  113.93    6.55
  -2   2  15  109.58    8.53
  -2  -2  15  114.40    8.73
   2   2 -15  118.20    6.80
   2   2 -15  107.10    8.80
   2  -2 -15  112.93    8.19
  -2   2  15  116.25    8.27
  -1  -2  15   48.94    5.54
   1   2 -15   44.79    4.57
  -1  -2  15   46.43    5.33
   1   2 -15   34.74    5.11
  -1   2  15   40.56    4.84
   1  -2 -15   40.05    4.82
   0  -2 -15   11.74    2.71
   0   2 -15    8.42    2.36
   0  -2  15    9.24    2.37
   0  -2  15   15.09    3.14
   0   2  15   12.25    3.20
  -1   2 -15   97.71    7.68
  -1  -2 -15   69.98    6.06
   1  -2  15   89.00    7.48
   1   2  15   95.13    7.78
   1  -2  15   92.66    7.00
  -1  -2 -15   85.65    6.71
  -2   2 -15  289.50   14.33
   2  -2  15  287.24   13.89
   2   2  15  281.43   13.87
  -2  -2 -15  211.50    9.18
   2  -2  15  319.35   13.20
  -2  -2 -15  291.07   13.15
  -3  -2 -15   89.39    8.16
  -3   2 -15   85.90    8.21
   3  -2  15   84.40    7.69
   3   2  15   94.51    7.11
   3   2  15   93.90    7.71
   3  -2  15   89.07    8.41
  -3  -2 -15   93.84    7.74
  -4  -2 -15   46.74    6.02
   4  -2  15   45.47    6.68
  -4  -2 -15   43.78    6.02
  -4   2 -15   36.28    5.71
   4  -2  15   44.25    5.92
   4   2  15   54.97    6.34
   4   2  15   50.25    6.05
  -5  -2 -15   92.50    8.99
  -5  -2 -15   84.68    8.62
   5  -2  15   83.05    8.52
  -5   2 -15   91.92    9.40
   5   2  15   88.20    8.84
   5  -2  15   87.29    9.39
  -6  -2 -15   99.91   10.33
  -6   2 -15  116.47   11.21
   6   2  15  114.21   11.17
  -5  -3  15    1.08    2.45
   5  -3 -15    4.86    2.44
  -5   3  15   11.95    4.49
   5   3 -15    4.53    3.37
  -4  -3  15   48.18    6.13
  -4  -3  15   64.90    8.40
  -4   3  15   52.20    7.09
   4  -3 -15   48.71    6.99
   4   3 -15   58.89    8.35
  -3  -3  15   70.41    8.03
  -3   3  15   62.02    7.55
  -3   3  15   51.21    6.36
   3   3 -15   51.85    7.21
   3  -3 -15   52.75    6.85
  -2   3  15   83.20    8.30
  -2  -3  15   78.22    8.06
   2   3 -15   84.69    8.98
  -2   3  15   99.27    8.77
   2  -3 -15   92.84    8.43
  -1  -3  15   87.99    7.83
   1   3 -15   97.24    7.74
   1   3 -15   92.84    9.21
  -1  -3  15   92.56    8.66
  -1   3  15   95.28    8.71
   1  -3 -15   97.70    8.47
   0   3 -15   81.63    7.65
   0  -3  15   77.80    8.17
   0   3  15   81.85    8.24
   0  -3 -15   84.84    7.90
   0  -3  15   74.64    6.97
  -1  -3 -15   10.59    3.08
  -1   3 -15   12.08    3.80
   1  -3  15    6.48    2.44
   1  -3  15    6.81    2.60
   1   3  15    4.30    2.50
  -2  -3 -15    4.86    2.76
  -2   3 -15    4.41    2.76
   2  -3  15   -2.42    2.84
   2   3  15    1.43    2.20
  -3   3 -15  139.67   11.49
   3  -3  15  128.52   11.17
   3   3  15  142.65   11.19
  -3  -3 -15  136.78   10.83
  -4  -3 -15    7.73    3.19
  -4  -3 -15    5.82    3.07
  -4   3 -15    6.39    3.21
   4  -3  15    8.83    3.91
   4   3  15    6.62    3.05
  -5  -3 -15    5.74    3.30
   5  -3  15    1.88    2.79
  -5   3 -15    6.27    3.17
   5  -3  15    9.19    4.21
  -4   4  15  106.23   11.31
  -3  -4  15   76.30    9.34
  -3   4  15   85.24    9.39
   3   4 -15   67.37    9.28
   3  -4 -15   79.75    9.24
   2  -4 -15   29.44    6.11
  -2   4  15   37.15    6.29
   2   4 -15   46.94    7.53
  -2  -4  15   38.46    6.26
   1  -4 -15   33.17    6.14
   1   4 -15   36.66    5.88
  -1  -4  15   32.74    6.00
   1   4 -15   26.12    5.55
  -1   4  15   39.83    7.04
   0  -4 -15   49.89    7.02
   0   4 -15   32.21    5.47
   0  -4  15   41.89    6.67
   0   4 -15   39.08    6.50
   0   4  15   44.03    6.85
  -1  -4 -15   13.65    4.09
  -1   4 -15   14.67    4.53
   1  -4  15   15.78    4.52
   1   4  15    4.52    3.10
  -2  -4 -15   36.75    6.60
  -2   4 -15   30.70    6.03
   2  -4  15   35.77    6.59
   2   4  15   41.38    6.92
  -3  -4 -15    8.99    4.27
   3   4  15    8.36    4.29
   7   0 -16   35.35    6.64
  -7   0  16   38.19    6.30
   7   0 -16   42.96    6.97
  -6   0  16  139.71   10.57
   6   0 -16  136.40   11.25
  -6   0  16  125.77   10.55
  -5   0  16   34.17    5.34
  -5   0  16   25.89    4.28
   5   0 -16   36.71    5.31
  -4   0  16  188.37   10.77
  -4   0  16  170.32   10.24
   4   0 -16  197.61   10.98
  -4   0  16  187.82    8.89
   4   0 -16  180.33   11.10
  -3   0  16  786.66   22.27
  -3   0  16  717.50   21.13
   3   0 -16  653.10   16.40
   3   0 -16  669.58   20.65
  -3   0  16  572.34   20.80
   3   0 -16  755.08   21.76
  -2   0  16  925.81   24.28
   2   0 -16 1003.26   22.52
   2   0 -16  946.35   23.70
   2   0 -16 1031.53   25.87
  -2   0  16  882.73   24.04
   2   0 -16  888.18   23.03
  -2   0  16  928.48   25.10
   1   0 -16 1566.04   34.76
   1   0 -16 1596.69   33.70
  -1   0  16 1542.83   35.14
  -1   0  16 1513.37   35.41
   1   0 -16 1604.97   30.94
   0   0 -16  724.86   21.08
   0   0  16  774.28   22.39
   0   0  16  750.12   22.35
   0   0 -16  778.29   16.53
  -1   0 -16  101.04    7.09
  -1   0 -16   83.01    5.62
   1   0  16   87.34    6.45
   1   0  16   87.49    5.95
  -1   0 -16  101.41    4.15
  -2   0 -16  131.29    5.55
  -2   0 -16  109.34    7.89
   2   0  16  129.63    6.50
   2   0  16  119.34    7.73
   2   0  16  124.35    7.75
  -3   0 -16  673.58   17.56
  -3   0 -16  624.75   21.77
   3   0  16  617.61   21.26
   3   0  16  683.28   20.55
  -4   0 -16  680.84   23.90
   4   0  16  657.78   24.19
   4   0  16  689.99   20.90
  -5   0 -16   46.53    6.12
   5   0  16   40.50    6.71
  -5   0 -16   44.64    6.18
   6   0  16   49.75    7.43
  -6   0 -16   57.48    7.86
  -6   0 -16   53.61    7.03
  -7  -1  16  101.30   10.56
   7   1 -16  140.63   13.13
   7  -1 -16  113.27   11.36
  -7  -1  16  123.16   10.92
  -7   1  16  110.94   11.19
   6  -1 -16   12.46    3.61
  -6  -1  16   14.52    3.64
  -6   1  16   10.94    3.83
   6   1 -16    7.14    3.33
  -6  -1  16    8.44    3.71
  -5   1  16   81.41    8.30
  -5  -1  16   76.41    8.03
   5   1 -16   92.51    9.22
   5  -1 -16   86.52    8.45
  -5  -1  16   82.11    7.33
  -4   1  16   79.78    7.55
  -4  -1  16  100.83    8.49
   4   1 -16  133.30    8.38
   4   1 -16   98.29    8.78
  -4   1  16  104.25    6.81
   4  -1 -16   90.84    7.71
  -4   1  16   96.40    7.00
  -4  -1  16   90.33    6.91
  -3  -1  16  112.07    6.78
  -3   1  16  107.89    8.28
  -3  -1  16  114.65    8.61
   3   1 -16  118.14    8.79
  -3   1  16  116.77    7.53
  -3   1  16  121.15    7.80
   3  -1 -16  128.54    8.73
   3   1 -16  195.72    9.75
  -2  -1  16  594.99   19.68
  -2  -1  16  532.36   15.08
  -2   1  16  472.57   17.70
   2   1 -16  523.50   14.69
   2   1 -16  486.30   18.11
   2  -1 -16  514.81   13.22
  -2   1  16  503.61   17.30
  -2  -1  16  566.58   17.73
   2  -1 -16  520.12   18.09
   1   1 -16   84.70    5.79
   1  -1 -16   82.80    3.84
   1   1 -16  106.69    6.25
  -1   1  16   79.46    6.33
  -1  -1  16   85.75    6.58
  -1   1  16   70.58    5.97
   1   1 -16   90.70    4.15
   1  -1 -16   77.93    5.56
  -1  -1  16   84.66    6.55
   0  -1 -16   43.82    5.00
   0   1 -16   23.83    3.37
   0  -1  16   28.13    3.72
   0   1 -16   30.81    3.82
   0  -1  16   28.05    3.99
   0  -1  16   26.31    3.60
   0   1  16   21.70    3.62
   0  -1 -16   30.66    3.30
  -1  -1 -16  132.07    8.29
  -1   1 -16  140.53    8.73
   1  -1  16  135.93    8.09
   1   1  16  143.17    8.71
   1   1  16  151.78    6.85
   1  -1  16  123.43    7.91
   1  -1  16  137.04    8.51
  -1  -1 -16  146.01    7.78
  -1  -1 -16  150.36    7.32
   2   1  16   14.11    2.57
  -2  -1 -16   15.30    2.54
   2  -1  16   13.29    3.11
  -2  -1 -16    9.72    2.69
  -2   1 -16   12.27    2.88
   2  -1  16   13.05    2.78
  -2  -1 -16    8.03    2.28
   2   1  16   12.72    2.69
   2  -1  16   12.91    2.89
  -3  -1 -16  172.26    9.28
  -3  -1 -16  170.47   10.59
  -3   1 -16  176.77   11.08
   3  -1  16  167.59    9.45
   3   1  16  170.45    9.79
   3   1  16  187.20   10.25
   3  -1  16  147.47   10.27
   3  -1  16  186.17   10.03
  -4  -1 -16   78.74    6.78
  -4  -1 -16   72.25    7.20
  -4   1 -16   60.23    6.86
   4  -1  16   65.58    6.12
   4   1  16   61.45    6.55
   4   1  16   77.97    6.70
   4  -1  16   63.10    7.27
  -4   1 -16   65.28    6.61
  -5  -1 -16  108.75    8.82
  -5  -1 -16   99.45    9.03
  -5   1 -16  100.31    9.38
   5   1  16  106.20    9.49
   5  -1  16  101.69   10.01
  -5   1 -16   89.12    8.52
   6   1  16    8.65    3.58
  -6  -1 -16   10.59    3.87
  -6   1 -16   10.87    3.74
   6  -1  16    8.88    3.22
  -6   1 -16   13.27    3.73
  -6   2  16  159.69   13.16
  -6  -2  16  150.01   13.02
   6   2 -16  179.86   15.02
   6  -2 -16  179.86   13.81
  -5   2  16  118.52   10.67
  -5  -2  16  115.08   10.62
   5   2 -16  120.98   11.34
   5  -2 -16  144.83   11.39
   4  -2 -16   42.45    6.00
  -4   2  16   45.90    6.07
  -4   2  16   43.58    5.04
   4   2 -16   35.87    5.71
  -4  -2  16   49.68    6.65
  -3   2  16   55.69    6.51
  -3  -2  16   65.66    7.11
   3   2 -16   61.36    7.07
   3   2 -16   48.63    4.57
  -3   2  16   47.12    5.46
   3  -2 -16   52.34    6.28
  -2   2  16  293.67   14.55
  -2  -2  16  270.22   13.90
   2   2 -16  292.00   11.37
   2   2 -16  272.03   14.50
  -2   2  16  282.82   13.38
   2  -2 -16  285.94   13.64
   1   2 -16   23.37    3.43
   1   2 -16   24.27    4.25
   1  -2 -16   25.57    4.07
  -1  -2  16   26.01    4.37
  -1  -2  16   24.01    4.11
  -1   2  16   22.60    3.89
   0  -2 -16   18.88    3.28
   0   2 -16   14.38    2.96
   0  -2  16   18.61    3.40
   0  -2  16   18.84    3.55
   0   2  16   14.03    3.61
  -1  -2 -16   78.90    6.74
  -1   2 -16  109.15    8.19
   1  -2  16   97.50    7.97
   1   2  16   84.84    7.63
   1  -2  16  100.14    7.39
  -1  -2 -16  101.97    7.48
  -2   2 -16   50.62    6.37
  -2  -2 -16   32.22    3.64
   2  -2  16   52.31    5.90
   2   2  16   49.39    6.07
   2  -2  16   61.63    5.89
  -2  -2 -16   51.97    5.48
  -3  -2 -16   15.48    3.35
   3  -2  16   11.37    3.47
  -3  -2 -16    8.32    2.89
  -3   2 -16   11.22    3.22
   3  -2  16    9.61    3.32
   3   2  16   17.24    4.05
  -4  -2 -16  145.35   10.41
  -4  -2 -16  122.93   10.34
  -4   2 -16  126.04   10.63
   4  -2  16  136.09   10.33
   4   2  16  128.90    9.58
   4   2  16  154.73   10.51
   4  -2  16  143.72   11.73
  -5  -2 -16   29.63    5.16
   5  -2  16   36.99    6.96
  -5  -2 -16   41.27    6.43
   5   2  16   36.53    5.90
  -5   2 -16   30.43    5.81
   5  -2  16   40.98    6.14
   6   2  16   11.43    3.89
  -6  -2 -16    7.32    2.47
  -6   2 -16    8.74    3.60
   5  -3 -16   17.41    4.90
  -5   3  16   22.73    5.53
   5   3 -16   21.31    5.56
  -5  -3  16   25.47    5.67
   4  -3 -16   10.85    4.23
  -4   3  16    5.90    2.89
   4   3 -16   11.96    4.30
  -4  -3  16   13.19    3.71
  -3   3  16  104.64    9.93
  -3  -3  16  113.66   10.47
   3   3 -16  113.80   10.83
  -3   3  16  114.81    9.65
   3  -3 -16  127.51   10.69
  -2  -3  16   98.01    9.13
   2   3 -16   97.57    9.81
  -2   3  16   85.52    8.36
   2  -3 -16   96.05    8.76
   1  -3 -16    5.63    2.64
   1   3 -16    0.92    1.88
  -1  -3  16    6.29    2.99
   1   3 -16   -0.64    2.33
  -1   3  16    0.65    2.48
  -1  -3  16    3.62    2.81
   0  -3 -16   18.72    4.22
   0   3 -16   21.48    4.12
   0  -3  16   19.15    4.38
   0  -3  16   18.94    3.72
   0   3  16   21.52    4.56
  -1  -3 -16    0.83    1.73
  -1   3 -16    5.68    2.49
   1  -3  16    4.17    2.42
   1  -3  16    2.82    2.12
   1   3  16    0.72    1.85
  -2  -3 -16   24.32    4.55
  -2   3 -16   29.70    5.45
   2  -3  16   23.66    4.64
   2   3  16   21.51    4.67
  -3  -3 -16   47.64    6.56
  -3   3 -16   39.61    6.34
   3  -3  16   40.16    6.21
   3   3  16   46.02    6.47
  -4  -3 -16   14.60    4.21
  -4  -3 -16   16.24    4.42
  -4   3 -16   19.79    5.54
   4  -3  16   18.57    4.85
   4   3  16   16.47    4.63
  -5  -3 -16   25.07    5.18
   5  -3  16   21.81    5.16
   3  -4 -16   63.23    8.41
  -3   4  16   48.94    7.33
   3   4 -16   64.39    8.83
  -3  -4  16   67.81    8.97
   2  -4 -16    5.85    2.83
  -2   4  16    5.15    2.97
   2   4 -16    6.48    2.93
  -2  -4  16    6.49    2.85
   1  -4 -16    2.28    2.61
   1   4 -16    0.63    2.43
  -1  -4  16    1.52    2.33
   1   4 -16    5.44    4.01
  -1   4  16    4.56    2.96
   0  -4 -16   25.17    5.67
   0   4 -16   15.76    4.13
   0  -4  16   22.11    5.37
   0   4 -16   12.06    4.74
   0   4  16   21.73    4.85
  -1  -4 -16    7.89    3.80
  -1   4 -16    7.43    3.62
   1  -4  16    8.64    4.24
   1   4  16    8.73    4.67
  -2  -4 -16   24.04    5.28
  -2   4 -16   11.14    4.47
   2  -4  16   14.95    4.17
   2   4  16   13.50    4.98
   3   4  16   12.22    4.60
   7   0 -17    2.31    3.17
  -7   0  17    1.64    2.35
   6   0 -17    3.84    2.96
  -6   0  17   -0.95    1.92
  -6   0  17    0.16    1.81
   6   0 -17   -1.38    2.20
   5   0 -17   -0.24    1.61
  -5   0  17   -2.29    2.50
  -5   0  17   -0.86    1.87
   5   0 -17    0.26    1.65
   4   0 -17    3.05    2.10
  -4   0  17    1.63    1.90
  -4   0  17   -0.01    2.00
   4   0 -17    1.25    1.60
  -4   0  17    1.20    1.49
   3   0 -17    0.71    1.47
  -3   0  17    0.03    1.37
  -3   0  17   -0.55    1.32
   3   0 -17    1.76    1.89
  -3   0  17    1.95    1.61
   2   0 -17    0.23    1.11
  -2   0  17    1.43    1.39
   2   0 -17    0.74    1.52
  -2   0  17    1.31    1.65
   2   0 -17    1.02    1.48
  -2   0  17    4.72    2.14
   2   0 -17    0.78    1.82
   1   0 -17    1.42    0.90
   1   0 -17    1.57    2.26
   1   0 -17    3.79    1.75
  -1   0  17   -0.42    1.61
  -1   0  17    2.51    2.05
   0   0 -17    4.05    1.89
   0   0  17    5.99    2.29
   0   0 -17    2.54    2.01
   0   0 -17    4.07    0.95
   0   0  17    3.16    1.99
  -1   0 -17    0.95    0.69
   1   0  17    0.95    1.19
  -1   0 -17   -0.38    1.26
   1   0  17   -1.77    1.37
  -1   0 -17   -0.56    1.47
   2   0  17    1.58    1.81
  -2   0 -17    0.08    0.74
  -2   0 -17    0.39    1.19
   2   0  17    1.14    1.08
   2   0  17    0.26    1.25
   3   0  17    2.83    1.78
  -3   0 -17    3.50    2.50
   3   0  17    3.49    1.94
   4   0  17    2.85    2.50
  -4   0 -17    0.68    2.26
   4   0  17    3.43    2.22
   5   0  17    0.04    1.93
  -5   0 -17   -0.41    1.82
  -6   0 -17   -0.38    1.92
  -6   0 -17   -1.29    2.12
  -7   1  17    7.31    3.31
   7   1 -17   -1.16    2.71
  -7  -1  17    3.51    3.47
   6  -1 -17   22.45    5.06
  -6  -1  17   16.25    4.13
  -6   1  17   19.05    5.07
   6   1 -17   25.55    5.57
  -6  -1  17   16.28    4.48
  -5   1  17   52.34    6.56
   5   1 -17   40.49    5.99
  -5  -1  17   46.98    6.47
   5  -1 -17   43.98    6.33
  -5  -1  17   54.78    6.02
  -4  -1  17  120.33    8.11
  -4   1  17  111.59    8.94
   4   1 -17  142.59    8.95
  -4  -1  17  117.93    9.40
   4   1 -17  129.18   10.03
  -4   1  17  131.72    7.93
   4  -1 -17  119.31    9.15
  -4   1  17  120.20    8.11
  -3  -1  17   68.22    5.38
  -3   1  17   63.37    6.64
  -3  -1  17   72.18    6.83
   3   1 -17   77.14    7.10
  -3   1  17   77.85    6.30
  -3   1  17   73.60    6.59
   3  -1 -17   73.06    6.88
   3   1 -17  113.17    7.58
   2  -1 -17    4.14    1.48
  -2   1  17    9.22    2.69
  -2  -1  17    4.88    1.53
   2   1 -17    6.32    1.82
  -2   1  17    4.85    1.94
   2   1 -17    7.72    2.40
   2   1 -17    4.81    2.14
  -2  -1  17    3.41    2.03
  -2   1  17    4.68    1.88
  -2  -1  17    3.66    1.67
   1   1 -17   47.27    4.44
   1  -1 -17   46.46    3.00
   1   1 -17   60.26    4.79
  -1   1  17   41.64    4.80
  -1  -1  17   51.31    5.32
  -1   1  17   48.53    5.02
   1   1 -17   52.95    3.02
   1  -1 -17   51.35    4.60
  -1  -1  17   43.23    4.95
   0  -1 -17  205.76   10.41
   0  -1 -17  275.16   11.82
   0   1 -17  218.24   10.50
   0   1 -17  229.13   10.23
   0  -1  17  217.93   10.77
   0   1  17  209.90   10.81
   0  -1  17  199.99   10.80
   0  -1  17  196.29   10.58
   0  -1 -17  223.25    9.28
  -1  -1 -17  148.10    9.16
  -1   1 -17  162.72    9.63
   1  -1  17  171.02    9.28
   1   1  17  157.17    9.44
   1   1  17  165.45    7.40
   1  -1  17  166.33    9.41
  -1  -1 -17  170.30    8.64
   1  -1  17  155.78    9.51
  -1  -1 -17  160.44    7.73
  -2  -1 -17   63.15    6.31
  -2   1 -17   55.59    5.98
   2  -1  17   66.23    5.87
  -2  -1 -17   42.05    4.09
   2   1  17   69.07    5.47
   2   1  17   59.71    5.76
   2  -1  17   69.47    6.50
   2  -1  17   62.54    6.09
  -2  -1 -17   67.43    5.29
   3   1  17   25.29    4.09
  -3  -1 -17   27.47    3.72
   3  -1  17   27.95    4.61
  -3  -1 -17   26.62    4.44
  -3   1 -17   30.30    4.82
   3  -1  17   23.21    3.50
   3   1  17   27.86    4.06
   3  -1  17   19.02    3.73
  -4  -1 -17  170.17   10.23
  -4  -1 -17  189.83   12.02
  -4   1 -17  197.01   12.85
   4  -1  17  189.13   10.68
   4   1  17  170.74   11.22
   4   1  17  207.29   11.34
   4  -1  17  191.77   12.78
  -4   1 -17  184.29   11.40
   5   1  17   27.72    5.25
  -5   1 -17   44.06    6.20
   5  -1  17   34.78    6.31
  -5  -1 -17   28.37    4.88
  -5   1 -17   35.44    5.85
   6   1  17    5.73    2.92
  -6  -1 -17   11.96    3.89
  -6   1 -17    8.84    3.44
   6  -1  17    8.82    3.10
  -6  -1 -17   11.27    3.49
  -6   1 -17    4.28    2.84
   6  -2 -17    7.69    3.29
  -6   2  17    8.16    2.91
   6   2 -17    7.35    3.46
  -6  -2  17    4.08    3.06
   5  -2 -17   10.15    3.43
  -5   2  17   19.14    4.20
   5   2 -17   15.94    4.83
  -5  -2  17   23.83    5.17
   4  -2 -17   19.62    4.28
  -4   2  17   17.37    3.89
  -4   2  17   18.55    3.64
   4   2 -17   22.41    4.88
  -4  -2  17   19.09    3.76
  -3   2  17   92.15    8.37
  -3  -2  17   85.21    8.19
   3   2 -17   85.66    8.59
   3   2 -17   71.34    5.72
  -3   2  17   87.42    7.36
   3  -2 -17   88.11    7.92
  -2   2  17  110.18    8.93
  -2  -2  17  108.21    8.69
   2   2 -17  123.96    7.31
   2   2 -17  102.58    8.94
  -2   2  17  120.53    8.74
   2  -2 -17  117.90    8.61
   1   2 -17  397.60   14.76
   1   2 -17  328.62   16.14
  -1  -2  17  358.26   16.01
  -1   2  17  372.48   16.05
   1  -2 -17  373.67   15.24
  -1  -2  17  346.13   15.29
   0  -2 -17   12.70    3.02
   0   2 -17   17.59    3.36
   0  -2  17   14.22    3.14
   0  -2  17   21.35    4.12
   0   2  17   17.98    3.71
  -1  -2 -17   68.81    5.90
  -1   2 -17   80.63    7.36
   1  -2  17   77.58    7.27
   1   2  17   88.39    7.74
   1  -2  17   86.28    7.19
  -1  -2 -17   81.52    6.74
  -2   2 -17  158.33   10.88
   2  -2  17  145.70   10.09
  -2  -2 -17  131.83    7.43
   2   2  17  164.00   10.74
   2  -2  17  194.66   10.78
  -2  -2 -17  174.27   10.17
  -3  -2 -17    7.17    2.94
   3  -2  17    8.21    3.37
  -3  -2 -17    8.97    3.18
  -3   2 -17    5.53    3.32
   3  -2  17    9.08    3.09
   3   2  17    5.98    2.60
  -4  -2 -17    3.42    2.22
   4  -2  17    4.68    3.02
  -4  -2 -17    6.05    3.02
  -4   2 -17    1.27    2.06
   4  -2  17    6.84    2.92
   4   2  17    6.64    2.99
  -5  -2 -17  226.84   14.37
  -5  -2 -17  208.34   14.11
  -5   2 -17  245.61   15.87
   5  -2  17  215.81   13.92
   5  -2  17  223.61   15.92
  -6   2 -17    6.37    3.47
   5  -3 -17   47.74    7.34
  -5   3  17   37.82    6.67
   5   3 -17   49.35    8.06
  -5  -3  17   48.10    7.85
  -4   3  17   93.83    9.71
  -4  -3  17   98.42   10.38
   4   3 -17   85.99    9.95
   4  -3 -17   95.62    9.70
   3  -3 -17   54.84    7.01
  -3  -3  17   68.21    8.31
  -3   3  17   47.23    6.86
  -3   3  17   61.42    7.30
   3   3 -17   58.15    7.98
  -2  -3  17  103.66    9.47
   2   3 -17   86.88    9.22
  -2   3  17  106.42    9.48
   2  -3 -17  104.50    9.34
   1  -3 -17   22.29    4.63
   1   3 -17   26.73    4.44
   1   3 -17   17.87    4.36
  -1  -3  17   19.45    4.48
  -1  -3  17   18.82    4.02
  -1   3  17   18.90    3.97
   0  -3 -17    4.71    2.92
   0   3 -17   -3.29    2.16
   0  -3  17    3.73    2.57
   0  -3  17    6.10    2.52
   0   3  17    8.17    3.35
  -1  -3 -17    4.58    2.64
  -1   3 -17    2.80    2.24
   1  -3  17    9.55    3.11
   1  -3  17    5.67    3.05
   1   3  17    0.52    2.36
  -2  -3 -17   11.50    3.35
  -2   3 -17    5.54    2.91
   2  -3  17    3.58    2.65
   2   3  17    0.57    2.44
  -3  -3 -17   28.17    5.07
  -3   3 -17   27.70    5.35
   3  -3  17   38.85    6.36
   3   3  17   35.16    5.98
  -4  -3 -17   27.19    5.19
  -4  -3 -17   25.71    5.69
  -4   3 -17   23.02    5.67
   4  -3  17   25.13    5.02
   4   3  17   26.74    5.45
  -5  -3 -17    1.08    2.55
   5  -3  17    5.71    4.21
  -3   4  17   38.54    6.72
   3   4 -17   31.88    6.11
  -3  -4  17   32.70    6.35
   2  -4 -17    4.74    3.72
  -2   4  17   10.05    4.40
   2   4 -17   -0.08    3.34
  -2  -4  17    0.32    2.38
   1  -4 -17   17.09    4.50
  -1  -4  17   16.88    4.65
   1   4 -17   17.97    5.26
  -1   4  17   20.58    4.88
   0  -4 -17   19.96    5.12
   0   4 -17   13.97    3.53
   0  -4  17   26.59    5.85
   0   4 -17   22.51    5.32
   0   4  17   16.03    4.88
  -1  -4 -17    5.84    3.66
  -1   4 -17   -0.43    1.82
   1  -4  17   10.61    4.45
   1   4  17    5.02    4.19
  -2  -4 -17    9.73    4.82
  -2   4 -17    7.76    3.41
   2  -4  17    6.41    3.75
   2   4  17   10.50    4.00
   7   0 -18   68.88    9.08
  -7   0  18   58.78    7.98
   6   0 -18   20.78    4.68
  -6   0  18   26.03    4.90
  -6   0  18   29.22    5.05
   6   0 -18   24.78    4.93
  -5   0  18  140.54   10.42
  -5   0  18  130.58    9.86
   5   0 -18  148.09   10.66
   5   0 -18  138.66   10.64
  -4   0  18  521.11   19.95
  -4   0  18  521.94   19.87
   4   0 -18  610.33   20.90
  -4   0  18  611.00   18.96
   4   0 -18  586.37   21.03
  -3   0  18  915.61   25.68
   3   0 -18  792.56   24.46
  -3   0  18  940.48   24.74
   3   0 -18  866.35   25.47
  -3   0  18  972.79   26.82
  -2   0  18  324.22   13.15
   2   0 -18  339.00   11.92
   2   0 -18  326.55   12.55
   2   0 -18  343.63   13.97
  -2   0  18  309.33   13.04
   2   0 -18  303.54   11.71
  -2   0  18  316.25   13.65
   1   0 -18 2095.96   44.19
   1   0 -18 2209.96   43.79
  -1   0  18 2106.24   45.17
  -1   0  18 1922.75   44.98
   1   0 -18 2123.64   39.77
   0   0 -18  563.18   18.33
   0   0  18  548.05   18.79
   0   0  18  561.00   19.49
   0   0 -18  573.46   13.36
  -1   0 -18  401.46   15.47
  -1   0 -18  403.06   13.94
   1   0  18  419.67   15.74
   1   0  18  402.09   14.28
   2   0  18   26.51    3.94
  -2   0 -18   22.99    3.85
   2   0  18   27.76    3.87
   3   0  18   11.37    3.27
  -3   0 -18   10.91    3.02
   3   0  18   18.38    3.67
  -4   0 -18  134.22   10.29
   4   0  18  161.57   11.25
   4   0  18  151.69    9.51
   5   0  18   20.32    4.28
  -5   0 -18   29.52    5.63
  -6   0 -18   32.16    5.97
   6   0  18   29.13    6.02
  -6   0 -18   20.67    4.79
   7   1 -18   40.84    7.50
  -7  -1  18   45.67    7.52
  -6   1  18  120.70   10.97
  -6  -1  18  131.48   11.55
   6   1 -18  138.87   12.39
   6  -1 -18  145.94   12.10
  -5   1  18  108.00    9.61
  -5  -1  18  110.75    9.85
   5   1 -18  119.55   10.59
   5  -1 -18  112.02    9.75
  -5  -1  18  113.16    8.69
   4  -1 -18   26.74    4.63
   4   1 -18   39.62    5.23
  -4  -1  18   27.96    3.99
  -4   1  18   23.06    4.30
  -4   1  18   22.52    3.60
  -4   1  18   25.75    3.68
   4   1 -18   27.42    5.00
  -4  -1  18   25.76    4.71
  -3  -1  18   29.14    3.73
   3  -1 -18   23.90    4.07
  -3   1  18   22.84    4.42
  -3   1  18   21.22    3.85
   3   1 -18   32.41    4.64
  -3   1  18   32.34    4.10
  -3  -1  18   32.82    4.91
   3   1 -18   42.99    4.85
  -2   1  18  446.89   18.01
  -2  -1  18  529.65   16.04
   2   1 -18  517.89   15.49
   2   1 -18  484.88   19.58
  -2   1  18  505.64   18.19
   2   1 -18  734.16   19.16
  -2  -1  18  550.60   18.38
  -2   1  18  509.38   18.48
   2  -1 -18  485.49   17.19
  -2  -1  18  666.93   21.46
   1   1 -18  434.30   14.85
   1   1 -18  483.51   15.37
  -1   1  18  411.89   16.06
  -1  -1  18  459.01   16.62
  -1   1  18  398.91   15.80
   1  -1 -18  401.44   14.19
  -1  -1  18  400.51   16.06
   0  -1 -18  215.26   10.34
   0  -1 -18  115.04    7.78
   0   1 -18  133.25    8.23
   0   1 -18  120.85    7.69
   0   1  18  113.38    8.27
   0  -1  18  120.72    8.21
   0  -1  18  122.53    8.52
   0  -1 -18  126.27    6.88
  -1   1 -18   75.61    6.63
  -1  -1 -18   66.04    6.24
   1  -1  18   74.66    6.19
   1   1  18   75.33    6.84
   1   1  18   82.19    5.17
   1  -1  18   79.70    6.72
  -1  -1 -18   76.32    5.75
   1  -1  18   68.95    6.61
  -1  -1 -18   76.60    5.29
  -2  -1 -18    9.22    2.30
   2   1  18   10.26    2.69
   2  -1  18    6.45    2.61
  -2  -1 -18   10.47    2.82
  -2   1 -18    8.08    2.77
   2  -1  18    9.84    2.57
  -2  -1 -18    7.46    2.21
   2   1  18    7.19    2.23
   2  -1  18   10.27    3.08
  -3  -1 -18  156.40    8.89
  -3  -1 -18  150.99   10.36
  -3   1 -18  161.70   10.99
   3  -1  18  160.24    9.53
   3   1  18  158.67    9.78
   3   1  18  162.14   10.18
   3  -1  18  157.85   10.95
   3  -1  18  152.88    9.88
  -4  -1 -18   71.13    7.58
  -4   1 -18   82.87    8.33
   4   1  18   87.69    7.98
   4   1  18   88.79    7.57
   4  -1  18   84.90    8.77
  -4   1 -18   77.63    7.38
   5   1  18   23.75    4.71
  -5   1 -18   25.77    4.83
   5  -1  18   26.63    5.68
  -5  -1 -18   21.52    4.78
  -5   1 -18   17.96    4.35
   6   1  18   34.23    6.12
  -6   1 -18   39.05    6.30
   6  -1  18   34.92    6.59
  -6  -1 -18   32.40    5.96
  -6   1 -18   44.39    6.72
  -6  -1 -18   38.13    7.14
   6  -2 -18   -2.76    2.43
  -6   2  18    4.77    3.28
   6   2 -18   -1.20    2.44
  -6  -2  18    1.17    2.68
  -5   2  18  125.98   11.15
  -5  -2  18  116.54   10.88
   5   2 -18  136.52   12.60
   5  -2 -18  134.66   11.34
   4  -2 -18    3.95    2.60
  -4   2  18   -0.40    1.89
  -4   2  18    1.64    2.14
   4   2 -18    2.70    2.14
  -4  -2  18    0.63    1.78
  -3   2  18  268.84   14.91
  -3  -2  18  238.10   14.17
   3   2 -18  236.68   14.56
   3   2 -18  259.16   11.32
  -3   2  18  257.79   13.27
   3  -2 -18  267.52   14.29
  -2  -2  18  186.43   11.74
  -2   2  18  180.56   11.72
   2   2 -18  221.72   10.12
   2   2 -18  180.79   12.12
  -2   2  18  189.72   11.35
   2  -2 -18  200.29   11.58
   1   2 -18   41.71    4.81
   1   2 -18   40.60    5.58
  -1  -2  18   39.28    5.19
  -1   2  18   32.89    4.99
   1  -2 -18   39.97    5.05
   0   2 -18   96.04    7.61
   0  -2  18   88.79    7.92
   0   2  18   91.62    8.07
   0  -2  18   89.95    7.56
   0  -2 -18   95.13    7.34
  -1  -2 -18   66.32    6.16
  -1   2 -18   86.39    7.94
   1  -2  18   87.64    7.85
   1   2  18   90.22    8.04
   1  -2  18   82.39    7.37
  -1  -2 -18   87.52    7.01
  -2  -2 -18   28.54    4.18
  -2  -2 -18   21.40    3.40
   2  -2  18   36.14    4.84
  -2  -2 -18   32.89    5.06
  -2   2 -18   29.46    5.16
   2  -2  18   29.69    4.57
   2   2  18   25.42    4.29
  -3  -2 -18   35.69    5.06
   3  -2  18   32.11    5.48
  -3  -2 -18   35.91    5.55
  -3   2 -18   25.35    5.00
   3  -2  18   32.08    4.97
   3   2  18   22.99    4.27
  -4  -2 -18  122.65    9.57
  -4  -2 -18   98.14    9.56
  -4   2 -18   97.94    9.77
   4  -2  18  111.90    9.55
   4   2  18  130.60    9.98
   4  -2  18  107.79   10.46
  -5  -2 -18   20.17    4.55
   5  -2  18   12.53    4.47
  -5  -2 -18   18.57    4.55
  -5   2 -18   14.83    4.28
   5  -3 -18    5.67    3.35
  -5   3  18    4.67    2.92
   5   3 -18    3.90    3.17
  -5  -3  18    7.61    4.48
  -4   3  18   60.78    8.06
   4   3 -18   62.05    8.79
  -4  -3  18   71.57    8.97
   4  -3 -18   77.32    8.73
  -3   3  18  141.62   11.75
  -3  -3  18  125.78   11.15
   3   3 -18  134.67   11.94
  -3   3  18  120.22   10.13
   3  -3 -18  135.81   11.18
   2  -3 -18    3.79    2.82
   2   3 -18    3.50    3.27
  -2   3  18    4.73    2.11
  -2  -3  18   -2.18    3.32
   1  -3 -18   20.06    4.22
   1   3 -18   17.75    4.04
   1   3 -18   26.71    5.04
  -1  -3  18   22.76    4.87
  -1  -3  18   23.18    4.53
  -1   3  18   18.35    3.98
   0  -3 -18   40.10    5.66
   0   3 -18   43.27    5.87
   0  -3  18   40.07    5.49
   0  -3  18   41.89    6.45
   0   3  18   37.73    5.80
  -1  -3 -18    9.61    3.56
  -1   3 -18    9.66    3.82
   1  -3  18    8.43    3.31
   1   3  18    7.77    3.44
  -2  -3 -18   43.75    6.32
  -2   3 -18   37.89    6.16
   2  -3  18   38.88    6.17
   2   3  18   52.04    7.21
  -3  -3 -18   15.06    3.80
  -3  -3 -18   13.36    4.53
  -3   3 -18   13.32    4.00
   3  -3  18   16.43    4.25
   3   3  18   13.17    4.10
  -4  -3 -18    6.96    4.39
  -4  -3 -18    8.16    3.57
  -4   3 -18   19.17    6.10
   4  -3  18    7.91    3.41
   4   3  18    8.09    3.79
  -3   4  18    9.99    3.78
  -3  -4  18   -3.88    3.53
   2  -4 -18    1.64    2.76
   2   4 -18   -1.10    2.23
  -2   4  18    7.43    3.57
  -2  -4  18    3.08    2.55
   1  -4 -18    5.43    3.50
  -1  -4  18   14.24    4.34
   1   4 -18    8.81    3.97
  -1   4  18   17.62    4.79
   0  -4 -18   -0.41    2.06
   0   4 -18    1.91    2.53
   0  -4  18    6.46    3.31
   0   4 -18    2.07    2.82
   0   4  18    2.98    3.22
  -1  -4 -18    6.22    2.98
  -1   4 -18    2.07    3.22
   1  -4  18    7.90    4.10
   1   4  18   -0.15    2.20
  -2  -4 -18    3.35    3.12
  -2   4 -18    0.88    2.61
   2   4  18    0.77    2.39
   7   0 -19    2.93    2.84
  -7   0  19    0.46    2.32
   6   0 -19    3.31    2.96
  -6   0  19    3.06    2.61
  -6   0  19   -2.37    2.40
   5   0 -19    4.00    2.51
  -5   0  19    0.65    1.64
  -5   0  19   -1.23    1.69
   5   0 -19    2.82    2.90
   4   0 -19    1.45    1.79
  -4   0  19   -0.74    1.91
  -4   0  19   -0.15    1.60
   4   0 -19   -0.12    1.54
  -4   0  19    3.32    2.10
   3   0 -19    0.70    1.75
  -3   0  19    0.25    1.40
   3   0 -19    3.78    2.47
  -3   0  19   -0.34    1.70
   3   0 -19   -0.27    1.12
  -3   0  19    0.77    1.23
   2   0 -19    3.94    1.51
  -2   0  19    3.33    1.89
   2   0 -19    2.29    1.64
  -2   0  19    2.76    2.29
   2   0 -19   -0.50    1.26
   2   0 -19    0.19    1.84
  -2   0  19    0.73    1.34
   1   0 -19   -0.12    2.51
   1   0 -19    2.02    1.23
   1   0 -19    2.77    1.83
  -1   0  19    2.00    2.33
   1   0 -19   -0.66    1.26
  -1   0  19    0.85    1.63
   0   0 -19   10.47    1.57
   0   0 -19   17.50    3.47
   0   0 -19   10.81    3.11
   0   0  19    5.31    2.71
   0   0  19   10.83    3.09
  -1   0 -19    1.04    1.59
  -1   0 -19    3.11    2.04
   1   0  19   -0.06    1.96
   2   0  19    0.82    1.64
  -2   0 -19   -0.47    1.72
   2   0  19    0.20    2.03
   3   0  19   -0.04    1.44
  -3   0 -19    0.17    1.55
   3   0  19   -0.23    1.52
   4   0  19   -1.18    1.88
  -4   0 -19   -1.56    2.50
   4   0  19    0.24    1.47
   5   0  19    1.50    2.92
  -5   0 -19    1.23    2.60
  -6   0 -19   -0.46    2.22
   6   0  19    1.69    2.15
  -6   0 -19    1.37    2.60
  -7  -1  19   57.99    8.44
   7   1 -19   59.42    9.04
   6  -1 -19   22.73    4.89
  -6   1  19   18.76    4.92
   6   1 -19   16.44    4.30
  -6  -1  19   22.69    5.06
   5  -1 -19   28.19    5.20
  -5   1  19   27.17    4.99
   5   1 -19   51.52    7.30
  -5  -1  19   38.34    5.94
   4   1 -19  277.43   12.93
  -4  -1  19  170.64    9.96
  -4   1  19  169.27   11.56
  -4  -1  19  167.77   11.72
   4   1 -19  176.94   12.14
  -4   1  19  162.94    9.59
  -4   1  19  179.47   10.69
   4  -1 -19  179.45   11.51
  -3  -1  19  116.14    9.29
  -3  -1  19  112.18    7.32
  -3   1  19  128.41    9.72
   3   1 -19  131.74    9.72
  -3   1  19  122.82    8.57
   3   1 -19  198.84   10.26
  -3   1  19  128.58    9.17
   3  -1 -19  130.44    8.98
  -2   1  19  474.39   18.93
  -2  -1  19  530.11   17.00
   2   1 -19  546.14   16.56
   2   1 -19  621.00   21.97
  -2   1  19  506.23   18.87
   2   1 -19  769.67   20.07
  -2  -1  19  584.81   19.53
  -2   1  19  553.77   19.72
   2   1 -19  524.48   15.50
   2  -1 -19  529.21   18.43
  -2  -1  19  652.00   21.84
   1  -1 -19 1517.88   35.74
   1   1 -19 1468.85   34.78
   1   1 -19 1670.23   35.43
  -1   1  19 1358.23   36.35
  -1  -1  19 1600.03   37.71
  -1   1  19 1362.82   36.25
  -1  -1  19 1571.52   38.31
   1  -1 -19 1418.55   33.77
   0  -1 -19  178.69   10.10
   0   1 -19  195.82   10.51
   0   1 -19  177.55    9.98
   0   1  19  196.28   11.04
   0  -1  19  197.08   11.05
   0  -1  19  202.92   11.40
   0  -1 -19  205.46    9.21
  -1  -1 -19  161.37   10.04
  -1   1 -19  178.94   10.67
   1  -1  19  164.54    9.63
   1   1  19  174.39   10.47
   1  -1  19  169.97   10.05
   1   1  19  182.48    8.19
  -1  -1 -19  168.28    8.99
   1  -1  19  158.19   10.12
  -1  -1 -19  173.93    8.36
  -2   1 -19   49.29    6.02
  -2  -1 -19   39.57    5.26
   2  -1  19   44.83    5.07
   2   1  19   58.28    6.34
   2   1  19   39.54    4.36
   2  -1  19   52.44    5.91
  -2  -1 -19   24.43    4.04
   2  -1  19   38.63    5.10
  -2  -1 -19   49.51    4.61
   3   1  19    2.49    1.92
  -3  -1 -19    1.26    1.96
   3  -1  19    3.83    2.53
  -3  -1 -19    2.06    1.60
  -3   1 -19   -0.37    1.75
   3  -1  19    4.57    2.26
   3   1  19    2.71    2.08
   3  -1  19    4.58    2.33
  -4   1 -19   17.06    3.78
   4   1  19   23.10    4.34
   4  -1  19   27.06    5.29
  -4  -1 -19   19.45    4.22
  -4   1 -19   17.88    4.30
   4   1  19   20.69    3.83
   5   1  19   14.14    3.53
  -5   1 -19   20.69    4.60
   5  -1  19   17.65    4.36
  -5  -1 -19   27.90    5.34
  -5   1 -19   22.77    5.26
   6   1  19    7.13    2.38
  -6   1 -19    4.22    3.34
  -6  -1 -19    7.49    3.75
  -6   1 -19   11.62    3.63
  -6   2  19   45.92    7.62
   6   2 -19   67.95    9.90
   6  -2 -19   79.59    9.40
  -6  -2  19   57.74    8.75
   5  -2 -19    2.01    2.53
  -5   2  19   -1.15    2.65
   5   2 -19    3.03    3.53
  -5  -2  19    3.55    2.87
   4  -2 -19    8.02    3.57
  -4   2  19    8.30    3.39
  -4   2  19    9.34    2.88
   4   2 -19    5.12    2.95
  -4  -2  19   10.15    3.99
   3  -2 -19   14.57    3.84
  -3   2  19   11.11    3.75
   3   2 -19   11.58    2.72
   3   2 -19    9.95    3.64
  -3   2  19    9.41    3.13
  -3  -2  19   11.35    3.48
  -2  -2  19  732.17   25.39
  -2   2  19  761.34   26.41
   2   2 -19  740.08   26.39
  -2   2  19  760.92   25.04
   2  -2 -19  746.49   24.56
   1  -2 -19    4.28    2.07
   1   2 -19   11.33    2.72
  -1  -2  19    8.31    3.30
   1   2 -19    3.65    2.43
  -1   2  19    6.14    3.02
   0   2 -19  265.31   13.14
   0  -2  19  233.98   13.13
   0  -2 -19  235.78   12.56
   0   2  19  251.35   13.75
   0  -2  19  247.86   13.04
   0  -2 -19  266.50   12.66
  -1  -2 -19  154.24    9.46
  -1   2 -19  196.26   11.93
   1  -2  19  177.07   11.47
   1   2  19  173.96   11.33
   1  -2  19  195.49   11.48
  -1  -2 -19  199.92   10.85
  -2  -2 -19   53.38    6.37
  -2   2 -19   57.26    6.99
   2  -2  19   54.54    6.37
   2   2  19   62.55    6.97
   2  -2  19   56.36    6.26
  -2  -2 -19   68.11    6.56
  -3  -2 -19    8.96    2.74
  -3  -2 -19   13.52    3.80
  -3   2 -19   15.54    4.10
   3  -2  19   11.58    3.18
   3   2  19   13.26    3.43
  -4  -2 -19   48.94    6.36
  -4  -2 -19   55.57    7.31
   4  -2  19   59.49    7.97
   4  -2  19   63.55    7.27
  -4   2 -19   58.09    7.81
   4   2  19   54.78    6.68
   5  -2  19   30.60    6.53
  -5  -2 -19   30.11    5.93
  -5   2 -19   24.84    5.41
   4  -3 -19   25.09    5.47
  -4   3  19   23.00    5.57
   4   3 -19   21.18    5.45
  -4  -3  19   20.51    5.24
  -3   3  19  243.65   15.86
  -3  -3  19  206.33   14.69
   3   3 -19  227.46   15.86
  -3   3  19  243.73   14.56
   3  -3 -19  243.30   15.28
   2  -3 -19   21.53    4.50
   2   3 -19   13.85    4.10
  -2   3  19   14.06    3.59
  -2  -3  19   18.97    4.63
   1  -3 -19   21.54    4.44
   1   3 -19   21.70    4.30
  -1  -3  19   18.57    4.08
   1   3 -19   18.31    4.24
  -1  -3  19   17.81    4.49
  -1   3  19   15.70    4.14
   0   3 -19   70.37    7.59
   0  -3  19   60.14    7.77
   0   3  19   67.20    7.97
   0  -3  19   69.49    7.26
   0  -3 -19   74.06    7.74
  -1   3 -19  179.52   12.65
   1  -3  19  155.93   12.14
   1   3  19  172.16   12.81
  -1  -3 -19  175.07   11.96
  -2  -3 -19   30.78    5.10
  -2   3 -19   34.77    6.14
   2  -3  19   28.31    5.67
   2   3  19   25.49    5.10
  -3  -3 -19   10.76    3.02
  -3  -3 -19   10.88    3.67
  -3   3 -19    3.97    2.36
   3  -3  19    7.88    3.51
   3   3  19   21.41    4.92
  -4  -3 -19   19.67    4.53
  -4  -3 -19   15.35    4.75
  -4   3 -19   23.23    5.61
   4  -3  19   17.93    4.79
   4   3  19   29.87    5.67
  -3   4  19   16.79    4.53
  -3  -4  19   17.32    4.83
   2  -4 -19    6.35    3.63
   2   4 -19   13.46    4.67
  -2   4  19   10.95    3.90
  -2  -4  19   12.53    3.71
   1  -4 -19   14.46    4.43
  -1  -4  19   16.24    4.72
   1   4 -19   27.83    6.57
  -1   4  19   16.37    4.95
   0  -4 -19    2.41    2.33
   0   4 -19   13.90    4.33
   0  -4  19    7.19    3.57
   0   4 -19    9.87    4.73
   0   4  19   13.86    5.68
  -1  -4 -19   14.75    4.55
  -1   4 -19   17.06    4.49
   1  -4  19   13.35    4.10
   1   4  19   21.55    5.74
  -7   0  20  117.76   11.43
  -6   0  20   71.55    8.26
  -6   0  20   82.62    8.62
   6   0 -20   96.84    9.90
  -5   0  20  301.14   15.55
  -5   0  20  280.08   15.33
   5   0 -20  331.38   16.46
   5   0 -20  289.09   15.92
  -4   0  20  131.27    9.70
   4   0 -20  136.14    9.65
  -4   0  20  159.91    9.33
   4   0 -20  140.49    9.88
  -4   0  20  132.15    9.75
   3   0 -20   17.55    3.41
   3   0 -20   23.49    4.43
  -3   0  20   20.74    3.61
  -3   0  20   20.91    3.80
   3   0 -20   20.97    3.66
  -3   0  20   14.57    3.32
  -2   0  20 1260.82   31.68
   2   0 -20 1231.29   31.92
   2   0 -20 1357.80   30.39
   2   0 -20 1297.07   31.05
  -2   0  20 1209.96   32.24
  -2   0  20 1175.74   32.66
   2   0 -20 1244.22   29.16
   1   0 -20   18.93    2.49
   1   0 -20   20.66    3.50
  -1   0  20   11.08    3.06
   1   0 -20   23.23    3.28
  -1   0  20   13.75    3.14
   1   0 -20   18.27    3.49
   0   0 -20 3381.70   70.54
   0   0  20 3586.34   71.76
   0   0  20 3383.49   72.11
  -1   0 -20    6.28    2.58
  -1   0 -20   -0.86    1.63
   1   0  20    4.93    1.81
  -2   0 -20  572.86   21.16
   2   0  20  614.79   21.07
   2   0  20  615.15   20.51
  -3   0 -20  221.59   13.10
   3   0  20  225.76   12.81
   3   0  20  246.10   12.61
   4   0  20   10.02    3.57
  -4   0 -20   15.78    3.88
   4   0  20   12.60    2.70
   5   0  20    3.84    2.68
  -5   0 -20   10.61    3.34
  -6   0 -20   37.72    6.57
   6   0  20   27.28    5.73
  -6   0 -20   30.86    6.08
  -7  -1  20   10.22    4.12
   7   1 -20   18.55    5.34
  -6   1  20   59.38    8.02
   6  -1 -20   42.20    6.78
  -6  -1  20   49.92    7.25
   6   1 -20   61.33    8.49
   5  -1 -20   54.97    6.97
  -5   1  20   45.10    6.47
  -5  -1  20   54.02    7.12
   5   1 -20   57.86    7.63
  -4   1  20  194.00   12.84
  -4  -1  20  197.73   12.81
   4   1 -20  208.93   13.26
  -4   1  20  200.87   10.94
  -4   1  20  202.92   11.65
   4  -1 -20  198.31   12.18
   4   1 -20  311.26   14.16
   3  -1 -20   14.32    3.24
  -3  -1  20    8.70    2.44
  -3   1  20   16.10    3.68
  -3   1  20   14.63    3.56
  -3  -1  20    8.03    2.99
   3   1 -20   14.67    3.40
   3   1 -20   18.16    4.09
  -3   1  20   17.22    3.67
  -2   1  20   95.57    8.46
   2   1 -20   92.13    6.27
   2   1 -20   84.72    7.79
   2   1 -20  127.12    7.88
  -2   1  20   76.85    7.04
  -2  -1  20   94.29    7.67
  -2   1  20   85.67    7.49
   2  -1 -20   86.28    6.81
  -2  -1  20  105.73    8.66
   1  -1 -20 1452.35   35.33
   1   1 -20 1392.20   34.22
   1   1 -20 1592.87   34.96
  -1   1  20 1364.24   36.43
  -1  -1  20 1460.11   36.76
  -1   1  20 1329.09   36.27
  -1  -1  20 1512.74   39.50
   1  -1 -20 1394.31   33.32
   0  -1 -20  207.98   11.14
   0   1 -20  224.64   11.58
   0   1 -20  194.45   10.64
   0   1  20  218.11   12.17
   0  -1  20  220.67   11.74
   0  -1  20  229.54   12.49
   0  -1 -20  234.02    9.98
  -1  -1 -20  278.97   13.66
  -1   1 -20  278.62   13.81
   1  -1  20  264.70   12.71
   1   1  20  301.34   14.32
  -1  -1 -20  263.85   11.68
   1  -1  20  283.26   13.68
   1   1  20  286.16   10.89
   1  -1  20  292.67   14.27
  -1  -1 -20  286.60   11.12
  -2  -1 -20  178.26   11.29
  -2   1 -20  181.33   11.58
   2  -1  20  197.01   10.68
   2   1  20  185.96   11.30
   2   1  20  208.50   10.17
   2  -1  20  192.80   11.21
  -2  -1 -20  196.25    9.44
  -3  -1 -20  175.66   11.79
  -3   1 -20  180.28   12.33
   3  -1  20  200.05   11.17
   3   1  20  181.98   10.71
   3   1  20  192.04   11.61
   3  -1  20  190.50   12.47
   3  -1  20  180.42   11.30
  -4  -1 -20  104.99    9.55
  -4   1 -20   92.10    9.09
   4   1  20  101.79    9.06
   4   1  20   91.85    8.06
   4  -1  20   95.46    9.47
  -4   1 -20   95.30    8.35
  -5   1 -20   24.70    4.92
   5   1  20   25.93    5.46
   5  -1  20   23.12    5.43
  -5  -1 -20   21.31    4.42
  -5   1 -20   19.18    5.11
   6   1  20    4.74    2.70
  -6   1 -20   -1.50    2.20
  -6  -1 -20    7.23    3.56
  -6   1 -20    3.68    3.34
   6   2 -20   60.44    8.84
   5  -2 -20   44.40    6.76
  -5   2  20   37.05    6.43
   5   2 -20   39.50    7.11
  -5  -2  20   42.31    6.72
   4  -2 -20   21.29    4.38
  -4   2  20   34.08    6.02
   4   2 -20   23.65    5.07
  -4  -2  20   27.37    5.31
  -3  -2  20   61.82    7.33
  -3   2  20   81.25    8.48
   3   2 -20   67.47    7.97
   3   2 -20   78.80    6.52
  -3   2  20   66.71    7.12
   3  -2 -20   78.23    8.02
  -2  -2  20  381.55   17.98
  -2   2  20  444.49   19.61
   2   2 -20  394.46   18.88
  -2   2  20  448.26   18.62
   2  -2 -20  418.94   17.61
   1  -2 -20   13.02    3.05
   1   2 -20   16.71    3.45
  -1  -2  20   16.97    3.83
   1   2 -20   14.07    3.52
  -1   2  20   16.25    3.71
   0   2 -20  194.21   11.54
   0  -2 -20  178.23   10.73
   0  -2  20  180.94   11.71
   0   2  20  201.99   12.39
   0  -2  20  175.97   11.31
   0  -2 -20  190.69   10.77
  -1   2 -20  119.37    9.62
   1  -2  20  117.07    9.31
   1   2  20  112.73    9.47
   1  -2  20  116.75    9.11
  -1  -2 -20  110.11    8.16
  -1  -2 -20  118.45    8.25
  -2  -2 -20    8.43    2.96
   2  -2  20    9.06    2.92
  -2  -2 -20    7.63    2.99
  -2   2 -20    7.94    3.21
   2  -2  20    7.40    2.78
   2   2  20   11.29    3.13
  -3   2 -20   62.44    7.69
  -3  -2 -20   55.77    6.92
   3  -2  20   49.10    6.31
   3   2  20   61.04    7.04
  -3  -2 -20   62.86    6.64
  -4  -2 -20   81.71    8.11
  -4  -2 -20   86.44    9.07
  -4   2 -20   96.53   10.01
   4  -2  20   79.41    8.25
   4   2  20   84.08    8.29
   4  -2  20   76.16    8.93
   5  -2  20   49.67    7.92
  -5  -2 -20   44.33    7.12
  -5   2 -20   52.75    7.96
   4  -3 -20   26.73    5.93
  -4   3  20   40.19    6.62
   4   3 -20   39.71    7.38
  -4  -3  20   39.36    7.24
   3  -3 -20   29.91    5.78
  -3   3  20   26.01    5.35
   3   3 -20   24.75    5.63
  -3   3  20   20.63    4.56
  -3  -3  20   24.63    5.08
   2  -3 -20   26.70    5.04
   2   3 -20   37.29    6.52
  -2  -3  20   26.02    4.74
  -2   3  20   28.13    5.56
   1  -3 -20    3.19    1.83
   1   3 -20    4.70    1.86
  -1  -3  20    7.60    3.26
   1   3 -20    6.84    3.90
  -1  -3  20   10.08    3.71
  -1   3  20    3.27    2.56
   0  -3 -20   26.77    4.93
   0   3 -20   32.09    5.33
   0  -3  20   38.16    5.87
   0  -3  20   35.14    6.13
   0   3  20   36.93    6.28
  -1   3 -20   93.15    9.30
   1  -3  20   75.98    8.71
   1   3  20   92.77    9.64
  -1  -3 -20   91.16    8.77
  -2  -3 -20   39.11    5.98
  -2   3 -20   39.96    6.64
   2  -3  20   46.92    6.84
   2   3  20   45.05    6.80
  -3  -3 -20   57.99    7.46
  -3   3 -20   68.11    8.80
  -3  -3 -20   58.86    7.97
   3  -3  20   50.76    7.36
   3   3  20   65.09    8.46
  -4  -3 -20   59.95    7.78
  -4  -3 -20   54.33    8.27
   4  -3  20   60.44    8.32
   4   3  20   71.17    8.62
  -3   4  20    5.86    3.15
  -2  -4  20    7.32    3.44
  -2   4  20    0.90    2.44
   1  -4 -20   11.63    4.01
   1   4 -20    8.44    4.64
  -1  -4  20    9.11    4.33
  -1   4  20    1.59    2.54
   0  -4 -20    3.49    2.70
   0   4 -20    7.30    3.95
   0  -4  20   10.47    4.42
   0   4 -20    6.69    3.78
   0   4  20    2.35    3.56
  -1  -4 -20   14.38    4.64
  -1   4 -20   13.87    4.35
  -7   0  21    0.01    2.05
   6   0 -21   -1.86    2.30
  -6   0  21    1.84    2.33
  -6   0  21    0.13    1.75
   5   0 -21   -0.65    2.05
  -5   0  21   -0.65    2.00
  -5   0  21   -1.71    2.30
   4   0 -21    2.76    2.38
  -4   0  21    0.50    2.22
   4   0 -21    7.12    2.99
  -4   0  21    4.44    3.05
   4   0 -21   -1.78    1.79
  -4   0  21    0.45    1.36
   3   0 -21    3.30    1.90
   3   0 -21   -0.13    2.17
  -3   0  21    0.85    1.51
  -3   0  21   -0.99    1.79
   3   0 -21    2.62    1.60
  -3   0  21   -0.01    1.45
   2   0 -21    1.73    1.34
  -2   0  21    0.42    1.51
   2   0 -21    2.23    1.78
   2   0 -21    1.17    2.34
  -2   0  21    3.20    1.82
   2   0 -21   -0.76    1.43
  -2   0  21   -0.54    1.44
   1   0 -21   11.69    3.97
  -1   0  21    9.97    3.61
   1   0 -21    5.74    3.23
  -1   0  21   10.04    4.14
   1   0 -21   14.23    5.59
   0   0 -21   33.87    4.87
   0   0 -21   37.96    4.50
   0   0  21   33.53    5.19
   0   0  21   30.95    5.04
  -1   0 -21    3.18    2.41
  -1   0 -21    4.13    2.45
   1   0  21    0.77    1.69
   2   0  21    2.10    1.93
  -2   0 -21   -0.63    1.76
   2   0  21    1.61    2.19
   3   0  21   -0.73    2.06
  -3   0 -21   -1.75    1.78
   3   0  21   -1.57    1.97
  -4   0 -21    3.52    2.63
   4   0  21    0.28    1.90
   5   0  21    0.18    2.65
  -5   0 -21   -0.29    1.92
  -6   0 -21   -0.47    2.97
  -6   1  21   62.44    8.46
   6  -1 -21   53.86    7.91
  -6  -1  21   44.51    7.15
   6   1 -21   52.22    7.78
   5  -1 -21   35.64    5.53
  -5   1  21   48.54    6.73
  -5  -1  21   34.04    5.71
   5   1 -21   44.05    6.66
  -4  -1  21  162.33   11.77
  -4   1  21  176.58   12.39
   4   1 -21  156.46   11.72
  -4   1  21  166.35   10.10
  -4   1  21  170.73   10.88
   4  -1 -21  190.25   12.34
   4   1 -21  269.94   13.53
  -3   1  21  283.47   14.95
   3  -1 -21  284.02   12.49
   3   1 -21  294.74   15.46
  -3   1  21  269.44   13.62
  -3  -1  21  303.89   14.22
   3   1 -21  460.14   16.23
  -3   1  21  296.82   15.58
   3  -1 -21  265.29   14.73
  -3  -1  21  317.99   15.99
  -2   1  21  972.12   31.46
   2  -1 -21 1138.71   29.94
   2   1 -21 1069.61   27.60
   2   1 -21 1276.42   33.65
   2   1 -21 1473.26   31.61
  -2   1  21 1037.08   30.95
  -2  -1  21 1175.56   31.94
  -2   1  21 1037.46   31.20
   2  -1 -21 1055.25   29.21
  -2  -1  21 1425.72   35.67
   1  -1 -21  864.15   25.11
   1   1 -21  815.73   24.07
   1   1 -21  865.39   24.02
  -1   1  21  783.53   25.71
  -1  -1  21  827.76   25.83
  -1   1  21  781.43   25.95
  -1  -1  21  917.31   27.88
   1  -1 -21  829.04   23.06
   0  -1 -21  203.44   11.57
   0   1 -21  234.67   12.12
   0   1 -21  190.66   10.95
   0   1  21  215.00   12.28
   0  -1  21  212.52   11.86
   0  -1  21  213.37   12.49
   0  -1 -21  211.12    9.74
  -1  -1 -21  274.47   13.98
  -1   1 -21  290.52   14.35
   1  -1  21  273.89   13.15
   1   1  21  302.18   14.79
  -1  -1 -21  288.70   12.40
   1  -1  21  283.90   14.13
   1  -1  21  255.89   13.84
  -1  -1 -21  297.55   11.41
   2   1  21   15.79    3.02
  -2  -1 -21   25.95    4.78
  -2   1 -21   16.04    3.80
   2  -1  21   24.55    3.85
  -2  -1 -21   10.11    3.06
   2   1  21   25.58    4.37
   2  -1  21   20.30    3.68
  -3  -1 -21   78.23    7.88
  -3   1 -21   82.42    8.34
   3  -1  21   89.82    7.45
   3   1  21   79.68    7.33
   3   1  21   89.51    7.98
   3  -1  21   85.30    8.35
   3  -1  21   82.65    7.71
  -4  -1 -21   61.02    7.49
  -4   1 -21   82.72    8.87
   4   1  21   71.07    7.53
   4   1  21   83.94    7.85
   4  -1  21   71.18    8.28
  -4   1 -21   82.26    7.89
  -5  -1 -21   59.53    7.70
  -5   1 -21   56.44    7.95
   5   1  21   65.63    8.13
   5  -1  21   76.35    9.43
  -5   1 -21   61.55    7.69
   6   1  21    1.66    2.03
   5  -2 -21   17.01    4.45
  -5   2  21   20.27    4.80
   5   2 -21   15.60    4.90
  -5  -2  21   15.68    4.47
   4  -2 -21    2.23    2.00
  -4   2  21    4.14    2.91
   4   2 -21   13.16    4.58
  -4  -2  21    3.57    2.31
  -3  -2  21  652.04   25.66
  -3   2  21  674.19   26.30
   3   2 -21  625.06   25.86
   3   2 -21  688.37   21.67
  -3   2  21  665.79   24.08
   3  -2 -21  723.74   25.38
   2  -2 -21   37.01    5.29
  -2  -2  21   27.16    4.88
   2   2 -21   36.52    5.79
  -2   2  21   34.56    5.22
   1  -2 -21   27.07    4.38
   1   2 -21   28.06    4.39
  -1  -2  21   26.29    4.90
   1   2 -21   22.84    4.77
  -1   2  21   18.46    4.15
   0   2 -21  457.87   18.61
   0  -2 -21  419.68   17.99
   0  -2  21  446.51   19.37
   0   2  21  437.33   19.32
   0  -2  21  441.40   19.02
   0  -2 -21  457.30   17.57
  -1  -2 -21   61.13    6.87
  -1   2 -21   61.55    7.12
   1  -2  21   54.81    6.58
   1   2  21   57.34    6.95
   1  -2  21   61.85    6.77
  -1  -2 -21   61.44    6.13
  -1  -2 -21   57.00    5.99
  -2  -2 -21  117.85    9.95
  -2   2 -21  127.84   10.41
   2  -2  21  129.96   10.15
   2   2  21  125.11   10.29
   2  -2  21  132.21    9.95
  -2  -2 -21  140.05    9.50
  -3  -2 -21   18.59    4.07
  -3  -2 -21    6.85    2.73
  -3   2 -21   12.81    4.57
   3  -2  21   12.19    3.50
   3   2  21   10.27    3.37
  -4  -2 -21   74.65    8.73
  -4   2 -21   82.79    9.46
   4  -2  21   67.34    7.62
   4   2  21   78.57    8.32
   4  -2  21   83.15    9.61
  -5  -2 -21   15.26    4.96
   4  -3 -21   15.74    4.73
  -4   3  21   16.08    4.16
   4   3 -21   20.86    5.84
  -4  -3  21   12.59    4.52
  -3  -3  21   65.17    8.66
  -3   3  21   67.25    8.83
   3   3 -21   61.09    8.47
  -3   3  21   54.31    7.25
   3  -3 -21   70.16    8.57
  -2  -3  21   63.58    7.99
   2   3 -21   74.13    8.94
  -2   3  21   68.46    8.03
   2  -3 -21   70.86    8.22
   1  -3 -21   16.53    4.07
   1   3 -21   26.89    4.99
  -1  -3  21   21.53    4.36
   1   3 -21   19.51    4.24
  -1   3  21   20.66    4.50
   0  -3 -21   39.81    5.84
   0   3 -21   40.77    5.89
   0  -3  21   45.52    6.48
   0  -3  21   39.87    6.46
   0   3  21   46.25    6.92
  -1   3 -21  100.01    9.73
   1  -3  21   92.31    9.70
   1   3  21   97.72    9.84
  -1  -3 -21  101.01    9.36
  -2  -3 -21   46.20    6.55
  -2   3 -21   53.22    7.42
   2  -3  21   39.62    6.54
   2   3  21   54.82    7.59
  -3  -3 -21   45.50    6.55
  -3  -3 -21   49.64    7.48
  -3   3 -21   49.94    7.76
   3  -3  21   46.66    7.48
   3   3  21   52.24    7.61
  -4  -3 -21   40.44    6.37
  -4  -3 -21   30.40    6.44
   4  -3  21   38.96    6.79
  -2  -4  21    9.84    3.70
   0  -4 -21   10.09    3.79
   0   4 -21   13.56    3.87
  -1   4 -21    2.33    2.31
  -6   0  22   80.29    8.80
   6   0 -22   84.37    9.07
   5   0 -22    1.99    2.76
  -5   0  22    2.05    1.81
  -5   0  22    0.61    1.79
  -4   0  22  232.27   13.58
   4   0 -22  317.12   16.18
  -4   0  22  286.03   13.53
   4   0 -22  260.51   14.43
  -4   0  22  247.54   14.19
  -3   0  22  190.08   11.55
   3   0 -22  218.80   12.41
   3   0 -22  175.02   10.75
  -3   0  22  204.48   11.62
   3   0 -22  202.49   10.96
  -3   0  22  201.29   12.20
   2   0 -22  734.51   23.92
   2   0 -22  821.51   22.76
   2   0 -22  810.33   23.36
  -2   0  22  753.91   24.35
  -2   0  22  739.23   25.11
   2   0 -22  788.63   21.23
   1   0 -22 9868.62  181.22
   1   0 -22 9999.00  177.05
  -1   0  22 9960.39  182.29
   0   0 -22  478.81   18.31
   0   0 -22  627.76   18.97
   0   0  22  496.65   21.23
   0   0  22  503.88   20.08
  -1   0 -22   54.24    5.95
   1   0  22   45.17    5.80
  -1   0 -22   23.28    4.79
  -2   0 -22  458.40   19.36
   2   0  22  461.74   18.89
   2   0  22  480.10   18.40
  -3   0 -22   69.37    7.73
   3   0  22   54.18    6.33
   3   0  22   60.23    6.60
   4   0  22   13.52    3.83
  -4   0 -22   15.66    4.24
   4   0  22   23.47    4.49
  -5   0 -22  140.56   12.03
   5   0  22  128.05   11.71
   6  -1 -22   36.68    6.12
  -6   1  22   31.84    5.76
  -6  -1  22   34.91    6.58
   6   1 -22   34.67    6.51
   5  -1 -22   12.82    4.27
  -5   1  22    4.62    2.91
  -5  -1  22    1.71    2.00
   5   1 -22    8.37    3.36
  -4  -1  22   68.32    7.69
  -4   1  22   79.49    8.70
  -4   1  22   73.27    6.83
   4   1 -22   65.92    7.65
   4   1 -22  117.69    8.87
  -4   1  22   68.01    7.41
   4  -1 -22   74.33    7.85
  -3   1  22  117.39    9.52
   3   1 -22  109.12    9.54
  -3   1  22   97.37    8.23
  -3  -1  22   81.07    7.50
   3   1 -22  143.38    9.14
  -3   1  22   96.62    8.70
   3  -1 -22  101.19    8.24
  -3  -1  22  116.95    9.64
  -2   1  22  902.55   29.05
   2  -1 -22  940.05   26.48
   2   1 -22  885.61   24.60
   2   1 -22 1032.85   29.79
   2   1 -22 1087.14   27.10
  -2   1  22  843.66   27.65
  -2  -1  22  952.17   28.38
  -2   1  22  845.96   27.81
   2  -1 -22  874.51   25.87
  -2  -1  22 1141.42   31.70
   1  -1 -22  168.82   10.52
   1   1 -22  174.46   10.20
   1  -1 -22  317.72   14.44
   1   1 -22  203.85   10.49
  -1   1  22  185.85   11.54
  -1  -1  22  180.50   11.23
  -1   1  22  188.69   11.78
  -1  -1  22  171.57   11.37
   1  -1 -22  179.65    9.55
   0  -1 -22 1356.42   36.23
   0   1 -22 1440.70   36.90
   0   1 -22 1180.64   34.12
   0   1  22 1432.83   38.12
   0  -1  22 1392.84   37.14
   0  -1  22 1450.77   38.88
   0  -1 -22 1419.54   32.56
  -1  -1 -22  328.42   15.49
  -1   1 -22  303.07   15.16
   1  -1  22  288.11   13.91
  -1  -1 -22  305.57   13.19
   1   1  22  332.81   15.86
   1  -1  22  308.21   15.12
   1  -1  22  313.36   15.67
  -2  -1 -22    6.82    2.76
  -2   1 -22    7.61    3.12
  -2  -1 -22    0.13    1.83
   2  -1  22    3.73    1.86
   2   1  22    7.29    3.26
   2  -1  22    7.58    2.75
  -3  -1 -22   76.73    8.08
  -3   1 -22   99.25    9.35
   3   1  22   98.73    8.14
   3   1  22  102.63    8.63
   3  -1  22   83.16    8.58
   3  -1  22   83.79    7.88
  -4   1 -22    6.45    2.68
   4   1  22    4.47    2.60
   4  -1  22    8.81    3.26
  -4  -1 -22    5.41    2.85
  -4   1 -22    8.24    3.06
   4   1  22    8.30    2.87
  -5   1 -22   50.02    6.80
   5   1  22   43.59    6.71
   5  -1  22   54.71    8.01
  -5  -1 -22   45.49    7.20
  -5   1 -22   66.07    8.59
  -5   2  22   49.62    7.39
   5   2 -22   61.57    8.86
  -5  -2  22   60.49    8.38
   5  -2 -22   71.57    8.54
   4  -2 -22   16.31    4.37
  -4   2  22    9.00    3.55
   4   2 -22   20.71    5.19
  -4  -2  22    9.10    3.31
  -3  -2  22   88.84    8.99
  -3   2  22  100.75    9.88
   3   2 -22   85.67    9.03
   3   2 -22   79.05    7.19
  -3   2  22   89.62    8.43
   3  -2 -22   91.97    8.68
  -2   2  22   73.99    7.64
   2   2 -22   55.80    7.14
   2  -2 -22   74.15    7.27
  -2  -2  22   57.49    7.12
   1  -2 -22   12.04    3.27
   1   2 -22   21.12    3.83
  -1  -2  22   11.56    3.40
   1   2 -22   14.75    4.09
  -1   2  22   15.15    3.65
   0  -2 -22    2.70    1.58
   0   2 -22    2.89    3.06
   0  -2  22    0.52    2.18
   0  -2  22    3.93    2.95
   0   2  22    0.60    1.97
   0  -2 -22    4.25    2.66
  -1  -2 -22  294.43   15.52
  -1   2 -22  300.40   15.96
   1  -2  22  292.78   15.63
   1   2  22  293.31   15.90
   1  -2  22  316.07   16.16
  -1  -2 -22  289.19   13.74
  -1  -2 -22  290.88   13.97
  -2  -2 -22    9.63    2.82
  -2  -2 -22    6.90    3.24
  -2   2 -22    9.81    3.66
   2  -2  22   12.90    3.81
   2   2  22   13.56    3.92
  -3  -2 -22   37.23    5.82
  -3   2 -22   30.58    5.94
   3  -2  22   22.58    4.84
   3   2  22   27.26    5.24
   4  -2  22   31.01    6.28
  -4  -2 -22   30.74    5.94
  -4   2 -22   52.76    7.92
   4  -2  22   32.28    5.59
   4   2  22   47.93    6.73
  -5  -2 -22   28.79    6.30
   4  -3 -22   46.07    7.09
  -4   3  22   44.79    7.56
   4   3 -22   56.20    8.65
  -4  -3  22   37.06    6.85
   3  -3 -22   50.55    7.30
   3   3 -22   35.89    6.47
  -3   3  22   46.24    6.72
  -3  -3  22   34.09    6.18
   2   3 -22   68.63    8.85
  -2   3  22   68.50    8.20
  -2  -3  22   58.80    7.68
   2  -3 -22   68.62    8.11
   1  -3 -22   13.06    4.06
  -1  -3  22   21.23    4.78
   1   3 -22   12.56    4.25
  -1   3  22   16.14    4.16
   0  -3 -22    7.59    2.90
   0  -3 -22    8.48    3.01
   0   3 -22   10.90    3.79
   0  -3  22    8.91    3.44
   0  -3  22    8.37    3.17
   0   3  22    9.98    4.05
  -1   3 -22  137.47   11.68
   1  -3  22  124.55   11.32
   1   3  22  122.66   11.30
  -1  -3 -22  125.47   10.59
  -2  -3 -22   49.25    7.45
  -2   3 -22   60.62    8.40
   2  -3  22   45.52    7.21
   2   3  22   53.11    7.65
  -2  -3 -22   71.63    7.98
  -3  -3 -22   17.85    4.11
  -3  -3 -22   13.32    4.57
  -3   3 -22   15.73    4.40
   3  -3  22   13.99    4.32
   3   3  22   30.10    6.60
   0   4 -22   13.36    5.05
   6   0 -23   -4.12    3.58
   6   0 -23    3.03    2.57
  -6   0  23   -0.49    2.55
   5   0 -23   -3.16    2.76
  -5   0  23   -1.27    2.45
  -5   0  23   -4.11    2.15
   5   0 -23    3.24    2.84
   4   0 -23    3.46    2.18
  -4   0  23   -1.92    2.18
   4   0 -23    2.96    2.78
  -4   0  23    5.85    2.75
  -4   0  23    0.65    1.55
   3   0 -23   -0.93    1.47
  -3   0  23   -0.64    1.43
  -3   0  23    0.57    1.69
   3   0 -23    3.41    2.25
  -3   0  23    4.14    2.22
   2   0 -23    2.96    2.68
   2   0 -23    4.10    2.01
  -2   0  23   -1.97    2.06
   2   0 -23    1.68    1.72
  -2   0  23    2.13    1.71
   1   0 -23   36.17    7.31
   1   0 -23   10.25    4.29
  -1   0  23   37.48    7.47
   1   0 -23   62.53    7.35
  -1   0  23   69.40    8.35
   0   0 -23   10.58    2.94
   0   0  23    4.24    2.28
   0   0 -23    6.57    2.42
   0   0  23    6.29    2.82
  -1   0 -23   -2.64    1.53
  -1   0 -23   -4.12    2.10
   1   0  23   -0.48    2.03
   2   0  23    2.05    2.36
  -2   0 -23    0.38    1.93
   2   0  23    0.61    1.77
   3   0  23    1.97    1.99
  -3   0 -23    4.09    2.98
   3   0  23   -0.37    2.02
   4   0  23   -0.55    1.74
  -4   0 -23   -2.00    2.43
   5   0  23    0.55    2.07
  -5   0 -23   -1.59    2.15
   6  -1 -23    8.06    3.20
  -6   1  23   11.67    4.36
  -6  -1  23   -0.93    2.23
   6   1 -23    5.16    3.42
  -5  -1  23   95.61    9.76
  -5   1  23   95.89    9.64
   5   1 -23   93.40    9.84
   5  -1 -23   93.14    9.84
   4  -1 -23    8.04    3.08
  -4   1  23    0.84    2.01
  -4   1  23    2.82    2.40
  -4  -1  23    4.86    2.61
   4   1 -23   -0.67    2.13
   4   1 -23    1.04    2.12
  -4   1  23    3.91    1.91
   3  -1 -23    6.35    2.85
  -3   1  23    9.05    3.16
  -3   1  23    8.97    3.29
   3   1 -23   12.95    3.41
  -3  -1  23   12.09    3.69
   3   1 -23    9.03    2.85
  -3   1  23    8.89    2.83
  -3  -1  23    6.95    2.80
   2  -1 -23  204.67   11.29
   2   1 -23  231.28   13.14
   2  -1 -23  240.84   14.39
   2   1 -23  237.39   11.53
  -2   1  23  174.84   11.57
  -2  -1  23  202.98   12.08
  -2   1  23  193.65   12.22
   2  -1 -23  187.36   10.59
  -2  -1  23  225.97   13.38
   1  -1 -23   66.84    6.89
   1  -1 -23   38.65    5.24
   1   1 -23   43.85    5.20
  -1  -1  23   43.18    5.86
  -1   1  23   47.58    6.20
  -1  -1  23   44.70    6.00
   1   1 -23   35.20    4.57
   1  -1 -23   40.66    4.56
   0  -1 -23 1165.11   32.67
   0   1 -23 1155.10   32.45
   0   1 -23  934.28   29.76
   0   1  23 1174.34   33.94
   0  -1  23 1122.19   33.63
   0  -1  23 1165.78   34.29
  -1  -1 -23   41.29    5.14
  -1  -1 -23   46.73    6.09
  -1   1 -23   44.47    5.97
   1  -1  23   52.27    6.58
   1   1  23   45.79    6.16
   1  -1  23   43.52    5.71
  -2  -1 -23   27.29    4.68
  -2   1 -23   27.59    4.84
  -2  -1 -23    2.95    2.86
   2  -1  23   38.90    5.15
   2   1  23   29.42    5.04
   2  -1  23   22.29    4.35
  -3  -1 -23  159.07   11.67
  -3   1 -23  153.90   11.94
   3   1  23  153.00   11.09
   3  -1  23  165.49   12.32
   3  -1  23  155.42   11.07
  -4  -1 -23   74.36    8.76
  -4   1 -23   84.59    9.58
   4   1  23   90.21    8.65
   4  -1  23   82.09    9.22
  -4   1 -23   89.40    8.69
   5  -1  23    5.85    3.52
  -5  -1 -23    1.91    2.59
  -5   1 -23    0.85    3.61
   5  -2 -23   27.90    6.06
  -5   2  23   26.16    5.90
  -5  -2  23   20.17    4.96
   5   2 -23   28.75    6.67
  -4   2  23   49.81    7.69
  -4  -2  23   58.18    7.67
   4   2 -23   55.70    8.03
   4  -2 -23   61.08    7.60
   3  -2 -23   30.24    5.14
  -3   2  23   22.21    4.84
   3   2 -23   32.47    4.70
  -3  -2  23   33.94    5.86
   3   2 -23   24.32    5.36
  -3   2  23   29.90    5.18
   2   2 -23  202.43   13.79
  -2   2  23  188.22   12.63
   2  -2 -23  209.33   12.55
  -2  -2  23  199.61   13.37
   1   2 -23   68.37    6.80
  -1  -2  23   53.92    6.78
  -1   2  23   66.59    7.40
   1   2 -23   46.53    6.64
   1  -2 -23   48.32    7.26
   1  -2 -23   61.00    6.60
   0   2 -23   42.61    5.76
   0  -2  23   48.11    6.58
   0  -2 -23   44.74    5.95
   0   2  23   45.92    6.13
   0  -2 -23   56.92    6.25
  -1  -2 -23  666.94   25.21
  -1   2 -23  713.16   26.17
   1  -2  23  684.79   25.54
   1   2  23  698.61   26.18
   1  -2  23  689.15   25.87
  -1  -2 -23  602.17   21.69
  -1  -2 -23  751.59   23.61
  -2  -2 -23  109.34    9.80
  -2   2 -23   91.15    9.46
   2  -2  23  109.79    9.78
   2   2  23  111.41   10.08
  -3  -2 -23   17.93    4.77
  -3   2 -23   17.39    4.46
   3  -2  23   17.90    4.23
   3   2  23   21.11    4.60
  -4  -2 -23   25.23    5.25
  -4   2 -23   33.77    6.34
   4  -3 -23    9.07    3.61
   3  -3 -23   24.27    5.34
  -3  -3  23   19.62    5.14
   3   3 -23   26.03    6.23
  -3   3  23   14.28    4.31
   2   3 -23   94.71   10.23
  -2   3  23   97.14    9.78
   2  -3 -23  101.12    9.85
  -2  -3  23   98.40   10.08
   1  -3 -23   28.95    5.45
  -1  -3  23   34.97    6.05
   1   3 -23   25.43    5.54
  -1   3  23   29.63    5.54
   0  -3 -23   26.67    5.46
   0  -3 -23   20.62    5.01
   0   3 -23   29.14    5.52
   0  -3  23   21.67    4.88
   0  -3  23   24.71    5.50
   0   3  23   32.12    6.03
  -1  -3 -23   28.24    5.06
  -1   3 -23   28.02    5.67
   1  -3  23   27.10    5.60
   1   3  23   23.87    5.49
  -2  -3 -23  160.35   13.39
  -2   3 -23  161.15   13.54
   2  -3  23  159.53   13.15
   2   3  23  171.56   13.63
  -2  -3 -23  148.07   11.64
  -3  -3 -23    9.75    3.15
  -3  -3 -23   12.56    4.22
   3  -3  23    4.65    2.85
   3   3  23   10.59    4.83
  -6   0  24   73.81    8.70
   6   0 -24   74.06    8.78
   6   0 -24   50.56    7.68
   5   0 -24   26.47    4.74
  -5   0  24   17.98    4.27
  -5   0  24   11.17    3.56
   5   0 -24   16.69    4.65
  -4   0  24  302.10   15.95
   4   0 -24  371.24   17.55
  -4   0  24  347.19   16.06
   4   0 -24  340.77   16.57
  -4   0  24  312.64   16.96
  -3   0  24    1.28    2.06
   3   0 -24   -2.64    2.49
  -3   0  24    1.09    1.84
  -3   0  24    2.62    2.00
   2   0 -24  633.88   20.15
  -2   0  24  579.44   21.70
  -2   0  24  542.78   21.94
   2   0 -24  539.75   20.56
   1   0 -24    3.90    2.60
  -1   0  24    1.33    2.32
   1   0 -24    5.82    2.60
   1   0 -24    1.15    1.72
  -1   0  24    1.68    2.38
   0   0 -24  342.76   16.02
   0   0 -24  399.10   15.56
   0   0  24  344.48   16.76
   0   0  24  340.24   17.11
  -1   0 -24  116.62    9.21
  -1   0 -24   66.24    6.82
   1   0  24  109.33    9.05
  -2   0 -24  127.13   10.12
   2   0  24  112.94    9.26
   2   0  24  126.62    9.28
  -3   0 -24  207.58   13.75
   3   0  24  210.93   13.11
   3   0  24  223.35   13.63
   4   0  24   29.24    5.40
  -4   0 -24   33.37    6.10
  -5   0 -24   84.00    9.69
   5   0  24   99.12   10.42
   6  -1 -24   13.95    4.18
  -6   1  24    7.39    3.78
  -6  -1  24    6.13    3.00
   6   1 -24    6.29    2.29
   5  -1 -24    6.19    2.82
  -5   1  24    6.39    3.65
  -5  -1  24    3.89    2.78
   5   1 -24    4.66    3.40
   4  -1 -24   12.24    3.53
  -4   1  24   13.53    4.30
  -4   1  24   14.77    4.19
  -4  -1  24   22.71    5.06
   4   1 -24   19.65    4.32
   4   1 -24   23.18    5.02
  -4   1  24   13.25    3.37
  -3   1  24   51.54    7.53
   3   1 -24   64.10    7.26
  -3   1  24   54.60    6.46
   3   1 -24   72.15    6.91
  -3  -1  24   61.92    6.83
  -3   1  24   52.31    6.92
   3  -1 -24   56.26    6.38
  -3  -1  24   63.36    7.65
   2  -1 -24   31.68    4.42
   2   1 -24   42.98    5.10
   2  -1 -24   41.12    5.21
   2   1 -24   51.85    6.56
  -2   1  24   28.71    4.99
  -2  -1  24   43.23    6.08
   2  -1 -24   35.64    6.13
  -2   1  24   31.52    5.19
  -2  -1  24   29.81    4.79
   1  -1 -24  154.31   10.41
   1  -1 -24   93.63    8.20
   1   1 -24   93.18    7.73
   1   1 -24  101.67    7.67
  -1   1  24   81.55    8.08
  -1  -1  24   95.44    8.63
  -1  -1  24  107.90    9.56
   0  -1 -24   25.79    5.28
   0   1 -24   19.65    4.72
   0  -1  24   23.24    4.93
   0   1 -24   28.73    4.74
   0   1  24   20.16    4.70
   0  -1 -24   40.43    5.54
   0  -1  24   22.68    5.33
  -1  -1 -24    3.53    2.28
   1  -1  24    5.14    3.09
  -1  -1 -24    2.91    2.62
  -1   1 -24    4.77    2.88
   1   1  24    7.56    2.94
   1  -1  24    2.99    2.46
  -2  -1 -24  138.95   10.51
  -2   1 -24  138.96   10.72
   2  -1  24  133.22    9.40
   2   1  24  129.92   10.20
   2  -1  24  115.12    9.94
   3  -1  24    5.44    3.58
  -3  -1 -24    6.47    3.26
  -3   1 -24    4.26    2.61
   3   1  24   10.44    3.70
   3  -1  24    9.95    3.84
   4  -1  24   58.33    7.73
  -4  -1 -24   54.75    7.55
  -4   1 -24   52.34    7.51
   5  -1  24   28.72    6.22
  -5  -1 -24   18.57    4.76
   5  -2 -24    3.91    3.29
  -5   2  24    1.91    3.79
  -5  -2  24    5.77    4.16
   5   2 -24    1.17    2.52
  -4   2  24   45.76    7.16
  -4  -2  24   50.63    7.19
   4   2 -24   58.18    7.96
   4  -2 -24   71.26    7.99
  -3   2  24   70.85    8.61
   3   2 -24   58.61    6.38
  -3   2  24   64.02    7.38
  -3  -2  24   62.42    7.89
   3   2 -24   51.82    7.36
   3  -2 -24   60.80    7.04
   2  -2 -24    7.68    2.92
  -2  -2  24    9.27    3.47
   2   2 -24    5.38    3.09
  -2   2  24   10.83    3.48
   1   2 -24  353.39   16.08
   1   2 -24  313.41   17.47
   1  -2 -24  320.35   17.06
  -1   2  24  336.09   17.42
  -1  -2  24  320.19   17.16
   1  -2 -24  340.42   15.88
   0  -2 -24  216.15   12.63
   0  -2 -24  172.34   11.91
   0   2 -24  203.13   12.86
   0   2  24  173.16   12.44
   0  -2  24  170.87   12.18
   0  -2 -24  211.84   11.95
  -1  -2 -24   44.71    5.54
  -1  -2 -24   49.77    6.60
   1  -2  24   48.58    6.85
  -1   2 -24   47.35    6.41
  -1  -2 -24   34.32    5.08
   1  -2  24   35.86    5.91
   1   2  24   30.94    5.54
  -2  -2 -24    7.80    3.22
  -2   2 -24   10.79    3.79
   2  -2  24    7.19    3.01
   2   2  24    3.85    3.12
  -3  -2 -24   85.64    9.24
  -3   2 -24   82.75    9.38
   3  -2  24   77.95    8.39
   3   2  24   84.26    8.97
  -4  -2 -24  104.63   10.78
  -4   2 -24  123.77   12.10
   3  -3 -24   67.11    8.28
  -3  -3  24   57.81    8.00
   3   3 -24   64.75    8.90
  -3   3  24   55.29    7.33
  -2   3  24   73.63    8.72
  -2  -3  24   66.27    8.50
   2   3 -24   57.25    8.28
   2  -3 -24   80.13    9.01
   1  -3 -24   13.85    3.90
  -1  -3  24    7.54    3.52
   1   3 -24    6.71    3.82
  -1   3  24   14.12    4.36
   0   3 -24  114.98   10.48
   0  -3  24  111.55   11.05
   0   3  24  102.51   10.50
   0  -3  24  106.97   10.34
   0  -3 -24   63.37    8.24
   0  -3 -24  108.13    9.95
  -1  -3 -24   19.60    4.66
  -1   3 -24   22.42    5.55
   1  -3  24   18.35    4.61
   1   3  24   26.88    5.89
  -2  -3 -24   25.27    5.06
  -2  -3 -24   18.94    5.35
  -2   3 -24   29.23    5.97
   2  -3  24   21.71    5.23
   2   3  24   27.69    6.23
   3  -3  24   40.86    7.03
   3   3  24   49.36    7.75
   6   0 -25   -8.23    3.40
  -6   0  25   -6.38    3.04
   6   0 -25    6.28    3.85
   5   0 -25    4.44    3.99
  -5   0  25   -0.98    1.89
  -5   0  25    1.99    2.20
  -4   0  25    3.67    2.28
  -4   0  25   -0.35    2.29
   4   0 -25    2.22    2.74
  -4   0  25    2.10    1.93
  -3   0  25   -1.46    1.60
   3   0 -25    3.25    3.12
  -3   0  25   -0.29    1.80
  -3   0  25   -0.22    1.88
   2   0 -25    1.82    1.89
  -2   0  25    2.84    2.69
  -2   0  25    5.07    2.70
   2   0 -25    1.33    2.88
   1   0 -25    2.08    2.31
  -1   0  25    3.67    2.90
   1   0 -25    0.06    2.13
  -1   0  25    0.88    1.74
   0   0 -25    4.83    2.50
   0   0  25    1.56    2.50
   0   0 -25    5.72    2.66
   0   0  25    5.39    2.73
  -1   0 -25    3.36    2.57
  -1   0 -25    1.82    2.16
   1   0  25    1.92    2.24
  -2   0 -25    0.34    2.05
   2   0  25    0.47    1.97
   3   0  25    0.49    1.64
  -3   0 -25    1.79    2.85
   3   0  25    0.77    2.08
   4   0  25    0.38    2.76
  -4   0 -25    3.84    3.76
   5   0  25    3.46    2.71
   6  -1 -25   12.08    4.32
   5  -1 -25   11.51    3.46
  -5   1  25    6.18    3.45
  -5  -1  25    8.09    3.80
   5   1 -25    5.15    3.33
   4  -1 -25   31.03    5.25
  -4   1  25   27.91    5.54
  -4   1  25   34.01    6.29
   4   1 -25   35.43    5.55
  -4  -1  25   33.57    5.79
   4   1 -25   22.07    4.97
  -4   1  25   22.43    4.27
  -3   1  25   33.15    5.72
   3   1 -25   48.92    6.67
   3   1 -25   59.05    6.07
   3  -1 -25   52.65    6.94
  -3   1  25   46.70    6.64
  -3   1  25   41.51    5.82
  -3  -1  25   43.78    5.81
   3  -1 -25   44.72    5.95
  -3  -1  25   56.84    7.54
   2   1 -25   43.04    5.07
   2  -1 -25   36.09    6.09
   2  -1 -25   38.39    4.67
   2  -1 -25   40.09    5.33
  -2   1  25   30.23    4.94
  -2  -1  25   35.05    6.04
   2   1 -25   34.88    5.59
  -2   1  25   34.33    5.59
  -2  -1  25   36.18    5.69
   1  -1 -25  330.00   15.93
   1   1 -25  357.36   15.82
   1   1 -25  332.89   16.42
   1   1 -25  306.97   14.25
  -1   1  25  324.70   16.77
  -1  -1  25  358.17   17.21
  -1  -1  25  353.78   18.36
   0  -1 -25   13.47    3.50
   0   1 -25    8.10    3.13
   0  -1  25   13.31    3.94
   0   1 -25    5.10    2.54
   0  -1 -25   14.76    3.49
   0   1  25    3.19    2.59
   0  -1  25   10.92    3.27
  -1  -1 -25   40.42    5.40
   1  -1  25   47.90    6.83
  -1  -1 -25   49.04    6.17
  -1   1 -25   48.05    6.27
   1  -1  25   55.25    6.65
   1   1  25   41.34    6.30
  -2  -1 -25  124.19   10.19
  -2   1 -25  123.18   10.45
   2   1  25  122.55   10.19
   2  -1  25  126.54   10.16
  -3  -1 -25    0.40    2.08
  -3   1 -25    4.71    3.27
   3   1  25   -0.16    1.83
   3  -1  25    5.27    3.19
   4  -1  25    5.33    2.97
  -4  -1 -25   11.44    3.97
  -4   1 -25   14.53    4.51
   5  -2 -25    7.94    2.72
   5   2 -25    9.51    3.95
   4  -2 -25    9.26    3.67
  -4   2  25    3.62    3.37
  -4  -2  25    5.88    3.04
   4   2 -25    5.21    3.61
   3  -2 -25    6.09    2.76
  -3   2  25   11.56    4.06
   3   2 -25   15.49    3.82
  -3  -2  25    7.29    4.30
   3   2 -25    2.03    2.58
  -3   2  25    2.85    2.48
   2   2 -25   52.39    7.34
  -2   2  25   64.67    7.52
  -2  -2  25   60.24    7.77
   2  -2 -25   59.60    6.84
   1   2 -25   62.22    6.77
   1   2 -25   58.84    7.70
   1  -2 -25   81.94    8.54
  -1  -2  25   54.38    7.22
  -1   2  25   48.37    6.77
   1  -2 -25   55.99    6.54
   0  -2 -25  204.33   12.56
   0  -2 -25  216.38   13.66
   0   2 -25  228.62   13.93
   0   2  25  210.23   14.23
   0  -2  25  230.09   14.54
   0  -2 -25  236.15   12.80
  -1  -2 -25    4.78    2.66
   1  -2  25   10.17    3.45
  -1   2 -25    3.37    2.43
  -1  -2 -25    7.93    3.05
   1  -2  25    3.21    2.65
   1   2  25    9.05    3.44
  -2  -2 -25    2.39    1.84
  -2   2 -25   13.22    4.30
   2  -2  25    2.24    2.38
   2   2  25    7.67    4.59
  -3  -2 -25   30.09    5.95
  -3   2 -25   32.80    6.65
   3  -2  25   24.72    5.16
   3   2  25   24.38    5.35
   3  -3 -25   38.57    6.56
  -3  -3  25   54.51    8.10
   3   3 -25   35.67    6.96
  -3   3  25   44.62    6.80
   2  -3 -25    9.90    3.44
  -2  -3  25   10.77    3.62
   2   3 -25    2.61    2.29
  -2   3  25    3.12    2.67
   1  -3 -25    5.17    2.78
   1  -3 -25   -0.02    2.99
  -1  -3  25    9.54    3.97
   1   3 -25    9.97    4.10
  -1   3  25   12.59    4.64
   0  -3 -25   40.78    6.23
   0   3 -25   43.08    6.91
   0  -3  25   56.59    7.99
   0  -3  25   57.74    8.10
   0   3  25   38.75    6.51
  -1   3 -25   98.07   10.44
   1  -3  25   77.83    9.46
   1   3  25   86.09    9.82
  -1  -3 -25   78.90    8.83
  -2   3 -25   12.67    4.08
   2  -3  25   12.13    4.40
   2   3  25    9.89    3.91
  -5   0  26  141.43   11.74
   5   0 -26  183.51   13.30
  -5   0  26  131.37   11.33
  -4   0  26   25.58    4.77
   4   0 -26   31.65    5.63
  -4   0  26   25.18    5.27
  -4   0  26   39.20    5.66
   3   0 -26  241.78   13.82
  -3   0  26  246.03   13.93
  -3   0  26  230.01   13.66
  -3   0  26  231.57   14.46
   2   0 -26  261.39   12.85
  -2   0  26  218.19   13.45
  -2   0  26  212.79   13.69
   2   0 -26  211.27   12.50
   1   0 -26  146.07   11.03
  -1   0  26  148.55   12.14
   1   0 -26  164.67   10.15
  -1   0  26  142.77   11.32
   0   0 -26  199.29   12.51
   0   0 -26  223.16   11.82
   0   0  26  194.87   12.92
   0   0  26  200.23   13.46
  -1   0 -26   34.37    5.38
  -1   0 -26   20.17    4.45
   1   0  26   31.77    5.19
  -2   0 -26   10.35    3.12
   2   0  26    4.05    2.61
   3   0  26   19.60    4.76
  -3   0 -26   16.20    4.07
   3   0  26   19.12    4.41
   4   0  26   45.65    6.76
  -4   0 -26   36.61    6.65
   5   0  26  166.63   13.85
   5  -1 -26    8.31    3.15
  -5   1  26   10.54    3.95
  -5  -1  26    9.71    3.65
   4  -1 -26   35.02    5.68
  -4   1  26   34.62    6.10
  -4   1  26   40.67    6.67
  -4  -1  26   44.21    6.72
   4   1 -26   66.23    6.89
   4   1 -26   44.94    6.63
  -4   1  26   34.21    5.42
  -3   1  26   66.56    8.58
   3   1 -26   77.48    8.60
   3  -1 -26   97.97    9.62
   3   1 -26   92.94    7.86
  -3   1  26   60.88    7.02
  -3  -1  26   61.93    7.23
  -3   1  26   72.69    8.47
  -3  -1  26   79.29    8.89
   2  -1 -26   56.62    6.55
   2  -1 -26   70.67    8.18
   2   1 -26   56.77    7.10
  -2   1  26   43.69    6.31
  -2  -1  26   48.92    6.73
   2   1 -26   52.09    5.85
  -2   1  26   40.21    5.98
  -2  -1  26   42.74    6.30
   1  -1 -26  542.74   20.32
   1  -1 -26  359.65   16.87
   1   1 -26  353.90   16.17
   1   1 -26  344.61   17.04
   1   1 -26  341.92   15.52
  -1   1  26  329.80   17.16
  -1  -1  26  341.28   17.46
  -1  -1  26  369.22   18.75
   0  -1 -26    5.55    3.22
   0   1 -26    2.49    2.60
   0  -1  26   -0.96    3.01
   0   1 -26    4.69    2.85
   0  -1 -26    2.74    2.77
   0   1  26    0.58    2.14
   0  -1  26    1.85    3.41
   1  -1  26   36.93    5.99
  -1  -1 -26   40.53    6.01
  -1   1 -26   42.49    6.10
   1   1  26   35.29    5.52
   1  -1  26   38.84    6.09
  -1  -1 -26   24.01    4.86
  -2  -1 -26   30.96    5.27
  -2   1 -26   27.60    5.12
  -2  -1 -26    5.14    3.08
   2   1  26   23.26    4.84
   2  -1  26   23.26    4.94
  -3  -1 -26   10.95    3.70
  -3   1 -26    3.16    2.54
   3   1  26   13.12    3.82
   3  -1  26   16.66    4.50
   4  -1  26   64.04    8.42
  -4  -1 -26   44.94    6.93
  -4   1 -26   56.96    8.18
   5  -2 -26    5.18    3.15
   5   2 -26    0.20    2.16
   4  -2 -26   11.87    3.93
  -4   2  26    7.70    3.49
  -4  -2  26    0.42    2.54
   4   2 -26    6.66    3.87
   3  -2 -26    5.01    3.06
   3   2 -26    0.10    2.51
  -3  -2  26    8.58    4.09
   3   2 -26    0.85    2.32
  -3   2  26    5.66    3.24
   2  -2 -26   47.13    6.08
  -2  -2  26   50.97    7.21
   2   2 -26   41.96    6.51
  -2   2  26   45.59    6.48
   2  -2 -26   31.80    7.99
   1  -2 -26   14.33    3.40
   1  -2 -26    6.29    2.85
   1   2 -26   18.68    4.09
  -1  -2  26    5.43    3.23
   1   2 -26   10.63    3.63
  -1   2  26   17.21    4.36
   1  -2 -26   18.77    4.61
   0  -2 -26   93.06    8.90
   0   2 -26  100.28    9.26
   0   2  26   97.34    9.70
   0  -2  26   81.67    8.97
   0  -2 -26   85.79    8.42
  -1  -2 -26   13.08    4.04
   1  -2  26   11.49    3.32
  -1  -2 -26   13.55    3.63
  -1   2 -26    6.95    3.14
   1  -2  26   10.01    3.18
   1   2  26   18.15    4.37
  -2  -2 -26   13.07    3.97
  -2   2 -26   24.12    5.08
   2  -2  26   14.85    3.78
   2   2  26   29.60    5.73
  -3  -2 -26   82.61    9.30
  -3   2 -26   83.90    9.95
   3  -2  26   78.20    8.79
   3   2  26   76.09    9.05
   3  -3 -26    9.46    3.97
  -3   3  26   13.04    4.35
  -2  -3  26    3.30    2.73
   2   3 -26    0.93    3.03
  -2   3  26   -1.13    2.20
   1  -3 -26    1.76    2.37
   1  -3 -26    2.00    3.94
  -1  -3  26    2.82    2.82
   1   3 -26    2.62    3.41
  -1   3  26    5.83    3.43
   0  -3 -26   10.72    3.16
   0   3 -26   12.66    4.15
   0  -3  26   19.10    5.00
   0   3  26   18.13    5.08
  -1  -3 -26   49.97    7.68
  -1   3 -26   51.90    8.12
   1  -3  26   51.89    7.73
   1   3  26   49.86    7.83
  -1  -3 -26   67.59    7.98
   2  -3  26   17.31    5.12
  -5   0  27    8.26    3.78
  -5   0  27    9.13    3.48
   5   0 -27   -2.84    3.10
  -4   0  27   -1.73    2.58
  -4   0  27   -0.52    2.75
  -4   0  27   -0.19    2.06
  -3   0  27    0.26    2.04
  -3   0  27    0.17    1.67
  -2   0  27    0.71    2.81
   2   0 -27    1.05    2.22
  -2   0  27   -0.14    1.84
   1   0 -27    6.91    2.97
   1   0 -27    0.07    1.71
  -1   0  27    0.34    2.25
  -1   0  27    2.80    2.91
   0   0  27    8.74    3.19
   0   0 -27    9.26    2.76
   0   0  27    6.12    3.23
   0   0 -27    3.72    2.30
  -1   0 -27    2.12    2.46
  -1   0 -27    0.91    2.30
   1   0  27    3.10    2.80
  -2   0 -27    6.04    2.94
   2   0  27    0.72    2.25
   3   0  27    6.03    3.55
  -3   0 -27   -0.11    2.39
   3   0  27   -2.07    2.15
   4   0  27    3.40    3.03
  -4   0 -27    1.73    2.39
   5  -1 -27   53.45    7.62
  -5   1  27   64.26    8.66
  -5  -1  27   51.80    8.02
  -4   1  27  125.74   11.74
   4   1 -27   94.55    9.88
   4  -1 -27   98.83   10.56
   4   1 -27  127.94    9.99
  -4  -1  27   96.62   10.26
   3   1 -27    7.20    2.87
   3  -1 -27    6.90    4.17
  -3   1  27    3.79    2.79
  -3  -1  27    7.16    3.90
   3   1 -27    4.51    2.20
  -3   1  27   -0.58    2.10
  -3  -1  27    3.44    2.13
  -2   1  27   27.03    5.30
   2  -1 -27   27.96    4.98
  -2  -1  27   24.46    5.96
   2  -1 -27   47.95    6.89
   2   1 -27   42.97    6.21
  -2   1  27   22.29    4.85
  -2  -1  27   34.26    5.62
   2   1 -27   27.96    4.57
   1  -1 -27   74.90    7.81
   1   1 -27   73.07    7.32
   1   1 -27   83.32    8.29
   1   1 -27   70.06    7.23
  -1   1  27   66.39    7.77
  -1  -1  27   65.63    7.63
  -1  -1  27   81.05    9.07
   1  -1 -27  121.40    9.69
   0  -1 -27   75.17    7.82
   0   1 -27   76.92    7.86
   0   1  27   65.08    7.77
   0  -1  27   71.64    7.99
   0  -1 -27   98.90    8.42
   0  -1  27   75.01    8.63
   1  -1  27   16.17    4.15
  -1  -1 -27   28.37    5.25
  -1   1 -27   26.49    4.76
   1   1  27   23.45    4.73
   1  -1  27   27.17    5.14
  -1  -1 -27   15.80    3.93
  -2  -1 -27    4.07    3.07
  -2   1 -27    9.59    4.35
  -2  -1 -27    3.27    2.80
   2   1  27    8.52    3.37
   2  -1  27    5.11    3.00
  -3  -1 -27    5.50    3.55
   3   1  27    3.84    2.76
   3  -1  27    2.05    2.52
   4  -1  27    5.96    3.21
   4  -2 -27   37.65    6.16
  -4   2  27   28.24    6.04
  -4  -2  27   25.73    5.81
   4   2 -27   33.52    6.47
   3  -2 -27   32.48    5.52
   3   2 -27   32.91    5.66
  -3  -2  27   29.53    5.87
   3   2 -27   26.80    5.62
  -3   2  27   24.00    5.14
   2  -2 -27    4.39    2.19
   2  -2 -27    5.42    2.72
   2  -2 -27   12.63    4.36
  -2  -2  27    6.21    3.25
   2   2 -27    9.55    3.58
  -2   2  27   10.70    3.58
   1  -2 -27   86.73    8.66
   1  -2 -27  107.99   10.01
   1   2 -27   78.73    8.96
  -1   2  27   83.17    9.15
  -1  -2  27   79.52    9.17
   0  -2 -27  106.87   10.04
   0   2 -27  131.95   10.94
   0   2  27  128.15   11.21
   0  -2  27  112.72   10.97
   0  -2 -27   91.31    8.99
  -1  -2 -27    5.41    2.71
  -1  -2 -27    6.54    3.02
   1  -2  27    2.00    2.75
  -1   2 -27    5.16    3.07
   1   2  27    7.70    3.46
  -2  -2 -27   11.33    4.44
  -2   2 -27    5.18    3.46
   2  -2  27    8.45    2.92
   2   2  27    4.91    3.14
  -3  -2 -27    4.06    2.77
  -3   2 -27   10.92    4.85
   3   2  27    1.49    2.04
  -3   3  27    4.52    3.31
   2  -3 -27   15.73    5.00
  -2  -3  27   13.13    4.46
  -2   3  27   12.74    4.25
   1  -3 -27   27.47    5.41
  -1  -3  27   26.94    6.08
   1  -3 -27   24.86    5.72
   1   3 -27   39.40    7.73
  -1   3  27   52.82    7.83
   0  -3 -27   64.17    7.95
   0   3 -27   60.31    8.23
   0  -3  27   50.04    7.85
  -1   3 -27   45.13    7.44
   1  -3  27   42.22    7.57
   5   0 -28  103.45   10.20
  -5   0  28   87.78    9.70
   4   0 -28   27.17    5.16
  -4   0  28   23.22    4.72
  -4   0  28   22.95    5.01
  -4   0  28   30.79    5.31
  -3   0  28  349.26   17.31
  -3   0  28  319.48   17.94
   3   0 -28  332.85   17.06
  -2   0  28    9.39    4.01
   2   0 -28   19.90    4.24
  -2   0  28   23.66    4.87
   1   0 -28   35.09    4.95
   1   0 -28   30.15    4.84
  -1   0  28   33.94    5.89
  -1   0  28   36.34    5.71
   0   0 -28   75.71    7.83
   0   0 -28   83.01    7.54
   0   0  28   74.42    8.42
  -1   0 -28  127.45   10.41
  -1   0 -28   73.17    7.88
   1   0  28  131.91   11.20
  -2   0 -28  124.48   10.91
   2   0  28  116.47   10.31
  -3   0 -28    5.41    3.11
   3   0  28    7.39    2.67
   4   0  28  103.00   10.47
  -5   1  28   27.71    5.81
  -4   1  28   -0.93    2.27
   4   1 -28   -0.68    2.10
  -4  -1  28    4.00    3.14
   4  -1 -28   -3.83    3.35
   3   1 -28   32.44    5.06
  -3   1  28   25.81    5.06
  -3  -1  28   41.01    6.65
   3   1 -28   47.24    6.56
  -3   1  28   29.21    5.21
  -3  -1  28   28.85    5.09
   3  -1 -28   56.97    7.49
   2  -1 -28  159.74   11.93
   2  -1 -28  146.55   10.75
   2   1 -28  130.97   11.17
   2   1 -28  128.31    9.29
  -2   1  28  109.44    9.98
  -2  -1  28  101.99    9.96
  -2   1  28  118.40   10.86
  -2  -1  28  154.51   12.65
   1  -1 -28   64.59    7.50
   1   1 -28   69.35    7.39
   1   1 -28   53.26    6.83
   1   1 -28   62.19    6.80
  -1  -1  28   69.85    8.43
  -1   1  28   54.63    7.27
  -1  -1  28   66.72    8.45
   1  -1 -28  101.12    8.86
   0  -1 -28   35.79    5.86
   0  -1  28   48.88    7.34
   0   1 -28   43.69    6.20
   0  -1 -28   64.34    7.05
   0  -1  28   61.56    7.50
   0   1  28   46.86    6.66
  -1  -1 -28   28.79    5.33
  -1   1 -28   36.29    5.69
   1   1  28   30.76    5.34
   1  -1  28   39.44    6.23
  -1  -1 -28   22.13    4.52
  -2  -1 -28   50.64    7.02
  -2   1 -28   57.27    7.56
  -2  -1 -28   12.27    4.49
   2   1  28   51.00    7.50
   2  -1  28   56.43    7.62
  -3  -1 -28   73.38    8.59
  -3   1 -28   66.04    8.65
   3   1  28   65.64    8.32
   3  -1  28   80.82    8.98
   4  -2 -28    7.86    3.54
   4   2 -28    8.75    3.61
   3  -2 -28    2.67    1.90
   3   2 -28   -3.19    2.87
  -3  -2  28    0.87    2.28
   3   2 -28    1.29    2.25
  -3   2  28   -1.81    2.98
   2  -2 -28    9.07    3.03
  -2  -2  28   10.98    4.27
   2  -2 -28    2.86    3.62
   2   2 -28   11.27    3.93
  -2   2  28   16.79    4.36
   1  -2 -28  119.73   10.62
   1  -2 -28  105.63    9.75
   1   2 -28   88.95    9.68
  -1   2  28   99.16    9.99
  -1  -2  28   93.23   10.25
   0  -2 -28   40.07    6.21
   0  -2  28   40.64    7.05
   0   2 -28   39.73    6.47
   0   2  28   39.17    6.75
   0  -2 -28   43.79    6.37
  -1  -2 -28    4.08    3.11
  -1  -2 -28    7.20    3.66
   1  -2  28    3.17    2.25
  -1   2 -28    4.30    3.16
   1   2  28    8.42    3.35
  -2  -2 -28   24.71    5.36
  -2   2 -28   24.64    5.91
   2  -2  28   25.79    4.95
   2   2  28   32.39    6.47
   3   2  28    0.74    2.60
   2  -3 -28   38.02    6.60
   1  -3 -28   33.12    5.81
  -1  -3  28   48.89    7.73
   1  -3 -28   23.82    6.53
   0  -3  28   12.74    4.94
   0   3 -28   22.03    5.44
   5   0 -29    6.14    3.72
  -5   0  29    0.91    2.34
   4   0 -29    1.63    2.70
  -4   0  29   -3.15    2.96
  -4   0  29    1.51    2.03
  -3   0  29    3.01    2.98
  -3   0  29    5.34    2.87
   3   0 -29    8.23    3.49
  -2   0  29   -2.56    2.86
   2   0 -29   -1.70    2.12
  -2   0  29    4.12    3.36
   1   0 -29   -2.35    2.09
  -1   0  29    0.97    2.54
   1   0 -29    2.47    2.42
  -1   0  29   -1.13    1.92
   0   0 -29    4.76    3.18
   0   0  29    1.06    2.23
   0   0 -29    1.74    2.21
  -1   0 -29    4.46    2.87
  -1   0 -29    2.16    2.63
   1   0  29    0.69    2.96
  -2   0 -29    2.60    2.66
   2   0  29    1.09    2.11
  -3   0 -29   -0.24    2.53
   3   0  29    5.56    3.20
   4  -1 -29   33.19    6.58
  -4   1  29   28.86    6.16
   4   1 -29   24.55    4.77
  -4  -1  29   24.40    5.89
   3   1 -29   -0.11    1.70
  -3   1  29    3.95    3.65
  -3  -1  29    2.10    2.77
   3  -1 -29    9.91    4.62
  -3   1  29    3.93    2.79
  -3  -1  29   -2.15    2.04
   2  -1 -29   23.37    5.17
  -2   1  29   17.09    4.53
   2  -1 -29   21.42    4.53
  -2  -1  29   27.51    5.83
   2   1 -29   12.23    3.86
  -2   1  29   19.90    5.09
  -2  -1  29   21.51    5.12
   2   1 -29   17.79    3.98
   1  -1 -29   25.97    5.41
   1   1 -29   20.46    4.48
  -1  -1  29   15.96    4.96
   1   1 -29    9.77    3.26
   1   1 -29   18.23    4.30
  -1   1  29   17.12    4.50
   1  -1 -29   19.60    4.50
  -1  -1  29   17.81    4.70
   0  -1 -29   69.72    7.87
   0   1 -29   80.32    8.51
   0  -1 -29  106.52    9.00
   0   1  29   69.66    8.31
   0  -1  29   92.19    9.44
   0  -1  29   73.26    8.93
  -1  -1 -29   27.72    5.13
  -1   1 -29   19.38    4.89
   1   1  29   30.07    5.65
   1  -1  29   27.73    5.66
  -1  -1 -29   13.95    4.29
  -2  -1 -29    3.15    2.56
  -2   1 -29    1.54    2.89
   2   1  29    2.88    2.10
   2  -1  29    3.97    2.89
  -3  -1 -29    6.15    3.55
  -3   1 -29   10.66    3.92
   3   1  29    8.88    3.63
   3  -1  29    7.95    3.70
   4   2 -29   20.52    5.09
  -3  -2  29    5.52    2.96
   3   2 -29    0.91    2.43
  -3   2  29   -1.96    2.13
   3  -2 -29    0.75    3.69
   2  -2 -29    5.13    3.81
   2  -2 -29    5.08    3.14
  -2  -2  29   -1.11    2.24
   2   2 -29    7.02    3.76
  -2   2  29    2.37    2.95
   1  -2 -29   31.25    5.75
   1  -2 -29   31.47    5.69
  -1  -2  29   34.91    6.83
   1   2 -29   25.50    5.86
  -1   2  29   39.38    7.01
   0  -2 -29   27.86    5.55
   0  -2  29   29.32    5.95
   0   2 -29   29.56    5.96
   0   2  29   23.83    5.45
   0  -2 -29   29.02    5.31
  -1  -2 -29    2.26    2.06
   1  -2  29    6.60    4.27
  -1  -2 -29   10.61    3.40
  -1   2 -29    1.92    3.27
   1   2  29    5.54    3.37
  -2   2 -29   42.66    7.00
   2   2  29   33.13    6.30
   1  -3 -29   33.74    7.07
   0  -3  29    5.71    3.32
  -5   0  30   11.89    4.92
  -4   0  30  107.33   10.82
   4   0 -30   90.10    9.25
  -3   0  30  622.14   25.41
  -3   0  30  646.53   27.27
   3   0 -30  572.11   23.45
  -2   0  30  163.76   12.82
   2   0 -30  155.59   10.91
  -2   0  30  135.74   12.17
   1   0 -30  103.27    9.34
   1   0 -30  108.39    8.89
  -1   0  30   99.11   10.04
  -1   0  30   72.06    8.94
   0   0 -30  169.98   12.19
   0   0 -30  178.28   11.34
   0   0  30  149.48   12.28
  -1   0 -30  108.27   10.02
  -1   0 -30   32.37    6.18
   1   0  30  103.92   10.04
  -2   0 -30   15.21    4.50
   2   0  30   13.43    4.00
  -3   0 -30  186.70   14.27
   3   0  30  165.85   13.12
  -4   1  30   70.11    9.23
   4   1 -30   89.82    8.63
  -4  -1  30   79.15    9.58
   3  -1 -30   99.64   10.30
  -3   1  30   62.75    8.30
   3   1 -30   79.78    7.80
  -3  -1  30   69.02    8.17
  -3   1  30   61.26    7.76
  -3  -1  30   94.09   10.27
   2  -1 -30  140.24   11.59
   2   1 -30   96.50    8.42
  -2   1  30   76.52    8.80
  -2  -1  30  107.09   10.34
  -2  -1  30  114.27   11.60
   1  -1 -30  140.44   11.17
   1   1 -30  146.00   11.55
   1   1 -30  116.44    9.82
  -1   1  30  128.60   11.41
  -1  -1  30  159.10   12.52
   1  -1 -30  204.24   13.21
  -1  -1  30  141.33   12.53
   0  -1 -30   73.38    8.30
   0   1 -30   72.23    8.28
   0  -1 -30  124.12    9.55
   0   1  30   87.85    9.34
   0  -1  30   83.71    9.44
   0  -1  30   76.89    9.23
  -1  -1 -30    3.21    2.18
  -1   1 -30    5.62    2.96
   1   1  30    5.00    3.45
   1  -1  30    3.53    3.60
  -1  -1 -30   -6.17    2.79
  -2  -1 -30   32.73    6.18
  -2   1 -30   33.61    6.29
   2   1  30   24.52    4.83
   2  -1  30   36.73    6.78
   3   1  30   25.07    5.10
   3  -1  30   25.62    5.35
   3   2 -30    6.42    3.73
  -3   2  30    2.37    2.14
   2  -2 -30  186.33   13.23
   2  -2 -30  208.81   15.69
   2   2 -30  176.50   14.49
  -2   2  30  183.39   14.23
  -2  -2  30  206.25   15.68
   1  -2 -30   45.31    7.05
   1  -2 -30   39.56    6.72
  -1  -2  30   51.09    8.04
   1   2 -30   26.19    6.03
  -1   2  30   47.02    7.70
   0  -2 -30   18.98    4.66
   0  -2  30   18.93    5.02
   0   2 -30   25.09    5.84
   0  -2 -30   28.65    5.34
   0   2  30   25.12    5.70
  -1  -2 -30   -2.01    2.63
   1  -2  30   -1.15    2.47
  -1  -2 -30    3.77    3.31
  -1   2 -30    0.53    2.38
   1   2  30    5.72    3.35
  -4   0  31   -0.46    2.77
   4   0 -31   -3.40    2.88
  -3   0  31    2.40    3.74
   3   0 -31    2.90    3.88
  -3   0  31    1.35    2.26
   2   0 -31    0.62    1.97
  -2   0  31   -0.51    2.53
  -2   0  31    2.37    2.75
   1   0 -31    2.23    3.04
  -1   0  31    3.56    2.70
   1   0 -31    0.01    2.37
  -1   0  31    0.69    2.14
   0   0 -31    8.79    3.83
   0   0 -31   10.84    3.35
   0   0  31    7.48    3.67
  -1   0 -31    7.43    3.70
   1   0  31   -2.90    2.88
  -2   0 -31    1.66    2.32
   2   0  31    0.21    2.51
   3   0  31    0.45    3.13
   4   1 -31   12.90    3.86
   3  -1 -31   25.58    5.99
  -3   1  31   25.85    5.95
  -3  -1  31   27.73    6.29
  -3   1  31   29.74    5.68
  -3  -1  31   17.56    4.47
   3   1 -31   20.94    4.25
   2   1 -31  114.12    9.54
  -2   1  31  102.06   10.23
  -2  -1  31  118.36   11.34
  -2  -1  31  149.84   13.39
   2  -1 -31  137.21   11.90
   1  -1 -31  191.18   13.53
   1   1 -31  159.38   11.89
  -1   1  31  198.31   14.57
  -1  -1  31  209.43   14.91
   1  -1 -31  299.37   15.90
  -1  -1  31  223.71   16.11
   0  -1 -31   55.69    6.62
   0  -1  31   52.19    8.14
   0  -1 -31   33.59    5.97
   0   1 -31   43.47    6.57
   0   1  31   36.33    6.38
   0  -1  31   49.12    7.52
  -1  -1 -31   28.88    5.51
  -1   1 -31   39.51    6.58
   1   1  31   44.60    6.76
  -1  -1 -31   23.90    5.16
   1  -1  31   48.21    7.34
  -2  -1 -31   33.26    6.49
  -2   1 -31   31.71    6.32
   2   1  31   33.53    6.22
   2  -1  31   40.49    6.75
   3  -1  31   27.80    5.65
   3   2 -31   25.87    6.38
  -3   2  31   36.56    6.60
   2   2 -31   17.57    5.34
  -2   2  31   16.64    5.15
   1  -2 -31   80.96    9.28
   1  -2 -31   73.93    8.83
   1   2 -31   73.10    9.50
  -1  -2  31   74.20    9.58
  -1   2  31   64.13    8.54
   0  -2 -31    3.93    3.31
   0  -2  31    9.00    3.35
   0   2 -31    9.61    4.13
   0  -2 -31    0.90    2.74
   1  -2  31   44.57    7.57
  -1   2 -31   34.90    6.84
  -3   0  32   31.50    6.52
   3   0 -32   29.94    5.44
  -3   0  32   20.91    4.63
   2   0 -32  353.08   17.32
  -2   0  32  461.39   21.87
  -2   0  32  350.22   20.90
  -1   0  32    3.22    3.82
   1   0 -32    8.93    2.91
  -1   0  32    3.96    3.44
   1   0 -32   -1.30    2.56
   0   0 -32  542.73   23.80
   0   0 -32  536.04   22.09
   0   0  32  599.19   26.60
  -1   0 -32   35.58    5.94
   1   0  32   26.64    5.68
  -2   0 -32   17.86    4.36
   2   0  32   11.40    3.83
   3   1 -32   86.57    8.70
  -3   1  32   74.42    8.96
  -3  -1  32   83.48    9.37
  -3   1  32   83.81   10.13
  -2  -1  32   25.40    5.90
   2   1 -32   20.65    4.91
  -2   1  32   16.63    4.92
  -2  -1  32   24.12    5.52
   2  -1 -32   27.68    5.71
   1  -1 -32   67.85    8.19
  -1  -1  32   73.27    9.25
   1   1 -32   57.98    7.32
  -1  -1  32   80.41    9.69
   1  -1 -32  105.22    9.48
  -1   1  32   52.73    7.76
   0  -1 -32   14.37    3.79
   0  -1  32   11.36    3.89
   0  -1 -32   13.91    4.62
   0   1 -32    5.77    3.23
   0   1  32   13.31    4.40
   0  -1  32   19.08    5.52
  -1  -1 -32   53.58    7.46
  -1   1 -32   73.94    8.89
   1   1  32   61.51    8.56
   1  -1  32   71.10    9.10
  -1  -1 -32   44.49    6.51
   2   2 -32   28.82    6.65
   1  -2 -32   86.21    9.68
   1   2 -32   91.60   10.72
   0  -2 -32   24.26    4.99
   0   2 -32   26.33    5.62
  -3   0  33   -1.47    2.23
  -3   0  33    0.17    2.48
   2   0 -33    0.22    2.56
  -2   0  33   -0.63    2.49
  -2   0  33    2.42    2.53
  -1   0  33   -2.47    2.67
   1   0 -33    2.35    2.88
   0   0 -33   18.17    4.66
   0   0 -33    6.06    3.47
   0   0  33   11.42    4.46
  -1   0 -33   -0.49    2.36
   1   0  33    0.48    3.18
  -3   1  33  113.22   11.02
  -3   1  33  116.91   12.21
  -2   1  33   26.73    5.77
  -2  -1  33   44.08    7.49
   1  -1 -33   19.93    4.65
   1  -1 -33   33.38    6.09
  -1  -1  33   18.20    5.59
   1   1 -33   18.03    4.45
  -1   1  33   23.96    5.71
  -1  -1  33   24.36    5.14
   0  -1  33   64.41    9.20
   0  -1 -33   52.25    7.45
   0   1 -33   60.77    8.22
   0   1  33   58.75    8.25
   0  -1  33   64.33    8.64
   0  -1 -33   58.22    7.10
  -1   1 -33  118.85   11.47
  -1  -1 -33   75.62    8.74
   0   0 -34   74.63    8.77
   1  -1 -34   21.58    5.38
   0  -1 -34   17.72    4.76
   0   1 -34   14.17    4.54
   0   0 -35   -2.37    2.94
   0   0   0    0.00    0.00
TITL PABA-PyrazAc_2_pl in P2/c
REM P2/c (#13 in standard setting)
CELL 0.71073   5.952328   3.803445  25.687898  90.0000  95.0372  90.0000
ZERR    3.00   0.000157   0.000109   0.000666   0.0000   0.0023   0.0000
LATT  1
SYMM -x, y,-z+1/2
SFAC C H N O
UNIT 33.00 30.00 3.00 3.00
TREF
HKLF 4
END
_computing_structure_solution     'SHELXT 2014/5 (Sheldrick, 2014)'
;
_shelx_hkl_checksum              93343
_shelx_res_file
;
TITL paba-pyrazac_2_pl_a.res in Pc
    paba_poa293.res
    created by SHELXL-2017/1 at 19:49:16 on 27-Jun-2018
REM Old TITL PABA-PyrazAc_2_pl in P2/c #13
REM SHELXT solution in Pc
REM R1 0.134, Rweak 0.062, Alpha 0.002, Orientation as input
REM Flack x = -0.315 ( 0.492 ) from Parsons' quotients
REM Formula found by SHELXT: C12 N4 O3
CELL 0.71073 5.952328 3.803445 25.687898 90 95.0372 90
ZERR 2 0.000157 0.000109 0.000666 0 0.0023 0
LATT -1
SYMM +X,-Y,0.5+Z
SFAC C H N O
UNIT 24 22 6 8
EQIV $1 1+X,2-Y,0.5+Z
EQIV $2 +X,2-Y,0.5+Z
EQIV $3 1+X,1-Y,0.5+Z
L.S. 4 0 0
PLAN  20
SIZE 0.184 0.192 0.238
TEMP 19.85
HTAB O1 N3
HTAB N1 O3_$1
HTAB N1 O4_$2
HTAB N1 N2_$3
BOND
BOND $H
CONF
list 4
fmap 2 53
acta
REM <olex2.extras>
REM <HklSrc "%.\\PABA_POA293.hkl">
REM </olex2.extras>
WGHT    0.097300
FVAR       1.78452
O3    4    0.311358    0.415870    0.254931    11.00000    0.03903    0.06549 =
         0.02412   -0.00029    0.00394    0.01405
O4    4    0.619522    0.558006    0.306769    11.00000    0.03563    0.08304 =
         0.03364    0.01217    0.00683   -0.01026
O1    4    0.443055    0.587017    0.534038    11.00000    0.04910    0.09084 =
         0.02415   -0.01315    0.00339   -0.02359
AFIX 147
H1    2    0.415003    0.501947    0.504859    11.00000   -1.50000
AFIX   0
O2    4    0.758458    0.751739    0.500735    11.00000    0.06179    0.09202 =
         0.02442   -0.01223    0.01487   -0.02377
N2    3    0.101969    0.201670    0.338692    11.00000    0.02730    0.04238 =
         0.02847   -0.00516    0.00111   -0.00088
N1    3    0.932257    1.183447    0.745030    11.00000    0.02876    0.03435 =
         0.02109   -0.00074    0.00071    0.00110
AFIX 137
H1A   2    1.042185    1.341470    0.744245    11.00000   -1.20000
H1B   2    0.982136    0.999337    0.764065    11.00000   -1.20000
H1C   2    0.815616    1.279554    0.759180    11.00000   -1.20000
AFIX   0
N3    3    0.287681    0.363517    0.438779    11.00000    0.04291    0.04979 =
         0.02208   -0.00281    0.00269   -0.00490
C8    1    0.422880    0.451404    0.298261    11.00000    0.02948    0.04275 =
         0.02256    0.00358    0.00590    0.00783
C5    1    0.861121    1.068051    0.691633    11.00000    0.02919    0.03052 =
         0.01901    0.00086    0.00215    0.00257
C9    1    0.303920    0.355499    0.346489    11.00000    0.02689    0.03312 =
         0.02177   -0.00107    0.00220    0.00279
C6    1    0.649060    0.928210    0.681409    11.00000    0.02881    0.04413 =
         0.02153    0.00110    0.00672   -0.00423
AFIX  43
H6    2    0.552972    0.909327    0.707932    11.00000   -1.20000
AFIX   0
C1    1    0.645321    0.727237    0.537451    11.00000    0.04204    0.04584 =
         0.02168   -0.00355    0.00333   -0.00487
C7    1    0.579646    0.815916    0.631472    11.00000    0.02784    0.04285 =
         0.02533   -0.00148    0.00453   -0.00556
AFIX  43
H7    2    0.436812    0.718844    0.624423    11.00000   -1.20000
AFIX   0
C2    1    0.722608    0.847336    0.591574    11.00000    0.03387    0.03633 =
         0.02024   -0.00041    0.00280    0.00098
C3    1    0.936222    0.992013    0.602545    11.00000    0.03487    0.05136 =
         0.02185   -0.00241    0.00917   -0.00535
AFIX  43
H3    2    1.032069    1.014408    0.576030    11.00000   -1.20000
AFIX   0
C12   1    0.396970    0.433272    0.396700    11.00000    0.02866    0.04432 =
         0.02741   -0.00270    0.00170   -0.00594
AFIX  43
H12   2    0.538987    0.536543    0.401120    11.00000   -1.20000
AFIX   0
C4    1    1.007032    1.102714    0.652570    11.00000    0.02647    0.04412 =
         0.02864   -0.00352    0.00424   -0.00647
AFIX  43
H4    2    1.149948    1.198795    0.659963    11.00000   -1.20000
AFIX   0
C10   1   -0.005126    0.126973    0.380755    11.00000    0.03028    0.04659 =
         0.03644   -0.00335    0.00607   -0.00821
AFIX  43
H10   2   -0.144761    0.016045    0.376452    11.00000   -1.20000
AFIX   0
C11   1    0.086079    0.210239    0.430805    11.00000    0.04132    0.04844 =
         0.02852   -0.00013    0.01092   -0.00419
AFIX  43
H11   2    0.005353    0.158345    0.459237    11.00000   -1.20000
AFIX   0
HKLF 4
REM  paba-pyrazac_2_pl_a.res in Pc
REM R1 =  0.0491 for    2746 Fo > 4sig(Fo)  and  0.0530 for all    2981 data
REM    174 parameters refined using      2 restraints
END
WGHT      0.0973      0.0000
REM Highest difference peak  0.290,  deepest hole -0.282,  1-sigma level  0.074
Q1    1   0.5027  0.6643  0.2977  11.00000  0.05    0.29
Q2    1   0.2123  0.1592  0.3424  11.00000  0.05    0.28
Q3    1   0.7164  1.1041  0.6804  11.00000  0.05    0.26
Q4    1   0.1680  0.4076  0.3402  11.00000  0.05    0.26
Q5    1   0.5458  0.2728  0.3005  11.00000  0.05    0.25
Q6    1   0.8641  0.8039  0.5997  11.00000  0.05    0.24
Q7    1   0.5842  0.8421  0.4787  11.00000  0.05    0.23
Q8    1   0.5996  0.6167  0.4819  11.00000  0.05    0.23
Q9    1   0.5658  0.8665  0.2999  11.00000  0.05    0.23
Q10   1   0.7855  1.0139  0.5008  11.00000  0.05    0.22
Q11   1   0.4226  0.3424  0.4594  11.00000  0.05    0.22
Q12   1   0.7249  0.4765  0.4977  11.00000  0.05    0.22
Q13   1   0.6760  0.7943  0.5637  11.00000  0.05    0.22
Q14   1   0.4520  0.7136  0.4629  11.00000  0.05    0.21
Q15   1   0.3852  0.2420  0.3615  11.00000  0.05    0.21
Q16   1   0.2224  0.1414  0.4389  11.00000  0.05    0.21
Q17   1   0.1775 -0.0376  0.3411  11.00000  0.05    0.21
Q18   1   0.4173  0.6273  0.4586  11.00000  0.05    0.21
Q19   1   0.8201  1.0224  0.5980  11.00000  0.05    0.21
Q20   1   0.3313  0.4147  0.3606  11.00000  0.05    0.21
;
_shelx_res_checksum              33574
loop_
_space_group_symop_operation_xyz
'x, y, z'
'x, -y, z+1/2'
loop_
_atom_site_type_symbol
_atom_site_label
_atom_site_fract_x
_atom_site_fract_y
_atom_site_fract_z
_atom_site_U_iso_or_equiv
_atom_site_adp_type
_atom_site_calc_flag
_atom_site_occupancy
O O3 0.3114(4) 0.4159(6) 0.25493(8) 0.0428(6) Uani d 1
O O4 0.6195(4) 0.5580(8) 0.30677(9) 0.0505(6) Uani d 1
O O1 0.4431(4) 0.5870(8) 0.53404(9) 0.0547(7) Uani d 1
H H1 0.415003 0.501947 0.504859 0.082 Uiso calc 1
O O2 0.7585(5) 0.7517(8) 0.50073(10) 0.0588(7) Uani d 1
N N2 0.1020(4) 0.2017(6) 0.33869(9) 0.0328(5) Uani d 1
N N1 0.9323(4) 1.1834(6) 0.74503(8) 0.0282(5) Uani d 1
H H1A 1.042185 1.341470 0.744245 0.034 Uiso calc 1
H H1B 0.982136 0.999337 0.764065 0.034 Uiso calc 1
H H1C 0.815616 1.279554 0.759180 0.034 Uiso calc 1
N N3 0.2877(4) 0.3635(7) 0.43878(10) 0.0383(6) Uani d 1
C C8 0.4229(4) 0.4514(8) 0.29826(10) 0.0314(6) Uani d 1
C C5 0.8611(4) 1.0681(7) 0.69163(9) 0.0262(5) Uani d 1
C C9 0.3039(4) 0.3555(7) 0.34649(10) 0.0273(5) Uani d 1
C C6 0.6491(4) 0.9282(8) 0.68141(10) 0.0312(6) Uani d 1
H H6 0.552972 0.909327 0.707932 0.037 Uiso calc 1
C C1 0.6453(5) 0.7272(9) 0.53745(10) 0.0365(6) Uani d 1
C C7 0.5796(4) 0.8159(8) 0.63147(11) 0.0319(6) Uani d 1
H H7 0.436812 0.718844 0.624423 0.038 Uiso calc 1
C C2 0.7226(4) 0.8473(8) 0.59157(10) 0.0301(5) Uani d 1
C C3 0.9362(5) 0.9920(8) 0.60255(11) 0.0356(6) Uani d 1
H H3 1.032069 1.014408 0.576030 0.043 Uiso calc 1
C C12 0.3970(5) 0.4333(8) 0.39670(11) 0.0335(6) Uani d 1
H H12 0.538987 0.536543 0.401120 0.040 Uiso calc 1
C C4 1.0070(4) 1.1027(8) 0.65257(11) 0.0330(6) Uani d 1
H H4 1.149948 1.198795 0.659963 0.040 Uiso calc 1
C C10 -0.0051(5) 0.1270(8) 0.38076(13) 0.0376(6) Uani d 1
H H10 -0.144761 0.016045 0.376452 0.045 Uiso calc 1
C C11 0.0861(5) 0.2102(9) 0.43080(12) 0.0390(7) Uani d 1
H H11 0.005353 0.158345 0.459237 0.047 Uiso calc 1
loop_
_atom_site_aniso_label
_atom_site_aniso_U_11
_atom_site_aniso_U_22
_atom_site_aniso_U_33
_atom_site_aniso_U_12
_atom_site_aniso_U_13
_atom_site_aniso_U_23
O3 0.0390(12) 0.0655(15) 0.0241(10) 0.0140(10) 0.0039(8) -0.0003(9)
O4 0.0356(12) 0.0830(18) 0.0336(12) -0.0103(11) 0.0068(9) 0.0122(11)
O1 0.0491(13) 0.0908(18) 0.0241(10) -0.0236(13) 0.0034(9) -0.0131(11)
O2 0.0618(16) 0.0920(19) 0.0244(10) -0.0238(15) 0.0149(10) -0.0122(12)
N2 0.0273(10) 0.0424(12) 0.0285(11) -0.0009(9) 0.0011(8) -0.0052(9)
N1 0.0288(10) 0.0343(11) 0.0211(10) 0.0011(8) 0.0007(7) -0.0007(8)
N3 0.0429(14) 0.0498(14) 0.0221(11) -0.0049(10) 0.0027(9) -0.0028(10)
C8 0.0295(12) 0.0427(14) 0.0226(12) 0.0078(10) 0.0059(9) 0.0036(10)
C5 0.0292(12) 0.0305(13) 0.0190(11) 0.0026(9) 0.0022(9) 0.0009(9)
C9 0.0269(12) 0.0331(12) 0.0218(11) 0.0028(9) 0.0022(9) -0.0011(9)
C6 0.0288(12) 0.0441(15) 0.0215(12) -0.0042(10) 0.0067(9) 0.0011(10)
C1 0.0420(15) 0.0458(15) 0.0217(12) -0.0049(12) 0.0033(11) -0.0035(11)
C7 0.0278(12) 0.0429(14) 0.0253(12) -0.0056(11) 0.0045(10) -0.0015(10)
C2 0.0339(13) 0.0363(14) 0.0202(11) 0.0010(10) 0.0028(9) -0.0004(9)
C3 0.0349(14) 0.0514(16) 0.0218(12) -0.0053(11) 0.0092(10) -0.0024(11)
C12 0.0287(12) 0.0443(16) 0.0274(13) -0.0059(11) 0.0017(10) -0.0027(11)
C4 0.0265(12) 0.0441(15) 0.0286(13) -0.0065(10) 0.0042(9) -0.0035(11)
C10 0.0303(13) 0.0466(16) 0.0364(15) -0.0082(12) 0.0061(10) -0.0033(12)
C11 0.0413(16) 0.0484(16) 0.0285(14) -0.0042(12) 0.0109(11) -0.0001(11)
loop_
_atom_type_symbol
_atom_type_description
_atom_type_scat_dispersion_real
_atom_type_scat_dispersion_imag
_atom_type_scat_source
C C 0.0033 0.0016 'International Tables Vol C Tables 4.2.6.8 and 6.1.1.4'
H H 0.0000 0.0000 'International Tables Vol C Tables 4.2.6.8 and 6.1.1.4'
N N 0.0061 0.0033 'International Tables Vol C Tables 4.2.6.8 and 6.1.1.4'
O O 0.0106 0.0060 'International Tables Vol C Tables 4.2.6.8 and 6.1.1.4'
loop_
_geom_angle_atom_site_label_1
_geom_angle_atom_site_label_2
_geom_angle_atom_site_label_3
_geom_angle
C1 O1 H1 109.5
C10 N2 C9 117.4(2)
H1A N1 H1B 109.5
H1A N1 H1C 109.5
H1B N1 H1C 109.5
C5 N1 H1A 109.5
C5 N1 H1B 109.5
C5 N1 H1C 109.5
C11 N3 C12 117.3(3)
O3 C8 C9 116.7(2)
O4 C8 O3 127.6(3)
O4 C8 C9 115.7(2)
C6 C5 N1 118.7(2)
C6 C5 C4 121.4(2)
C4 C5 N1 120.0(2)
N2 C9 C8 117.3(2)
N2 C9 C12 120.8(2)
C12 C9 C8 121.8(2)
C5 C6 H6 120.2
C5 C6 C7 119.5(2)
C7 C6 H6 120.2
O1 C1 C2 113.0(2)
O2 C1 O1 123.3(3)
O2 C1 C2 123.6(3)
C6 C7 H7 119.8
C6 C7 C2 120.3(2)
C2 C7 H7 119.8
C7 C2 C1 119.9(2)
C3 C2 C1 120.6(2)
C3 C2 C7 119.4(2)
C2 C3 H3 119.8
C4 C3 C2 120.5(2)
C4 C3 H3 119.8
N3 C12 C9 121.7(3)
N3 C12 H12 119.1
C9 C12 H12 119.1
C5 C4 H4 120.5
C3 C4 C5 118.9(2)
C3 C4 H4 120.5
N2 C10 H10 119.1
N2 C10 C11 121.8(3)
C11 C10 H10 119.1
N3 C11 C10 121.0(3)
N3 C11 H11 119.5
C10 C11 H11 119.5
loop_
_geom_bond_atom_site_label_1
_geom_bond_atom_site_label_2
_geom_bond_distance
O3 C8 1.252(3)
O4 C8 1.240(4)
O1 H1 0.8200
O1 C1 1.313(4)
O2 C1 1.210(4)
N2 C9 1.336(4)
N2 C10 1.332(4)
N1 H1A 0.8900
N1 H1B 0.8900
N1 H1C 0.8900
N1 C5 1.467(3)
N3 C12 1.336(4)
N3 C11 1.334(4)
C8 C9 1.524(4)
C5 C6 1.374(3)
C5 C4 1.390(4)
C9 C12 1.390(4)
C6 H6 0.9300
C6 C7 1.380(4)
C1 C2 1.497(4)
C7 H7 0.9300
C7 C2 1.394(4)
C2 C3 1.391(4)
C3 H3 0.9300
C3 C4 1.382(4)
C12 H12 0.9300
C4 H4 0.9300
C10 H10 0.9300
C10 C11 1.388(4)
C11 H11 0.9300
loop_
_geom_hbond_atom_site_label_D
_geom_hbond_atom_site_label_H
_geom_hbond_atom_site_label_A
_geom_hbond_site_symmetry_A
_geom_hbond_distance_DH
_geom_hbond_distance_HA
_geom_hbond_distance_DA
_geom_hbond_angle_DHA
_geom_hbond_publ_flag
O1 H1 N3 . 0.82 1.87 2.677(3) 166.7 yes
N1 H1A O3 2_675 0.89 1.85 2.716(3) 164.4 yes
N1 H1B N2 2_665 0.89 2.13 2.920(3) 147.9 yes
N1 H1C O4 2_575 0.89 1.87 2.732(3) 163.3 yes
loop_
_geom_torsion_atom_site_label_1
_geom_torsion_atom_site_label_2
_geom_torsion_atom_site_label_3
_geom_torsion_atom_site_label_4
_geom_torsion
O3 C8 C9 N2 8.0(4)
O3 C8 C9 C12 -170.1(3)
O4 C8 C9 N2 -172.4(3)
O4 C8 C9 C12 9.5(4)
O1 C1 C2 C7 -2.3(4)
O1 C1 C2 C3 177.9(3)
O2 C1 C2 C7 178.7(3)
O2 C1 C2 C3 -1.0(5)
N2 C9 C12 N3 -1.1(5)
N2 C10 C11 N3 -1.2(5)
N1 C5 C6 C7 -179.6(3)
N1 C5 C4 C3 180.0(3)
C8 C9 C12 N3 176.9(3)
C5 C6 C7 C2 -0.7(4)
C9 N2 C10 C11 1.1(5)
C6 C5 C4 C3 -0.3(4)
C6 C7 C2 C1 -179.6(3)
C6 C7 C2 C3 0.2(4)
C1 C2 C3 C4 180.0(3)
C7 C2 C3 C4 0.2(4)
C2 C3 C4 C5 -0.2(4)
C12 N3 C11 C10 0.1(5)
C4 C5 C6 C7 0.7(4)
C10 N2 C9 C8 -178.1(2)
C10 N2 C9 C12 0.0(4)
C11 N3 C12 C9 1.1(5)

_cod_database_fobs_code 2242765
