#------------------------------------------------------------------------------
#$Date: 2018-07-10 05:18:20 +0300 (Tue, 10 Jul 2018) $
#$Revision: 208937 $
#$URL: file:///home/coder/svn-repositories/cod/cif/2/24/25/2242549.cif $
#------------------------------------------------------------------------------
#
# This file is available in the Crystallography Open Database (COD),
# http://www.crystallography.net/. The original data for this entry
# were provided by IUCr Journals, http://journals.iucr.org/.
#
# The file may be used within the scientific community so long as
# proper attribution is given to the journal article from which the
# data were obtained.
#
data_2242549
loop_
_publ_author_name
'Minyaev, Mikhail E.'
'Roitershtein, Dmitrii M.'
'Vinogradov, Alexey A.'
'Ananyev, Ivan V.'
'Nifant'ev, Ilya E.'
_publ_section_title
;
 (2<i>R</i>,3<i>R</i>)-1,4-Dioxaspiro[4.4]nonane-2,3-dicarboxylic and
 (2<i>R</i>,3<i>R</i>)-1,4-dioxaspiro[4.5]decane-2,3-dicarboxylic acids
;
_journal_coeditor_code           EB2009
_journal_issue                   8
_journal_name_full               'Acta Crystallographica Section E'
_journal_page_first              1058
_journal_page_last               1062
_journal_paper_doi               10.1107/S2056989018009593
_journal_volume                  74
_journal_year                    2018
_chemical_formula_iupac          'C10 H14 O6'
_chemical_formula_moiety         'C10 H14 O6'
_chemical_formula_sum            'C10 H14 O6'
_chemical_formula_weight         230.21
_chemical_melting_point          413.0(10)
_chemical_name_common
'(2R,3R)-1,4-dioxaspiro[4.5]decane-2,3-dicarboxylic acid'
_chemical_name_systematic
'(2<i>R</i>,3<i>R</i>)-1,4-Dioxaspiro[4.5]decane-2,3-dicarboxylic acid'
_space_group_crystal_system      monoclinic
_space_group_IT_number           4
_space_group_name_Hall           'P 2yb'
_space_group_name_H-M_alt        'P 1 21 1'
_symmetry_space_group_name_Hall  'P 2yb'
_symmetry_space_group_name_H-M   'P 1 21 1'
_atom_sites_solution_hydrogens   mixed
_atom_sites_solution_primary     direct
_atom_sites_solution_secondary   difmap
_audit_creation_method           SHELXL-2017/1
_cell_angle_alpha                90
_cell_angle_beta                 94.469(2)
_cell_angle_gamma                90
_cell_formula_units_Z            2
_cell_length_a                   6.4272(8)
_cell_length_b                   5.2976(6)
_cell_length_c                   15.5678(19)
_cell_measurement_reflns_used    361
_cell_measurement_temperature    100(2)
_cell_measurement_theta_max      29
_cell_measurement_theta_min      3
_cell_volume                     528.45(11)
_computing_cell_refinement
;
SAINT (Bruker, 2008)
;
_computing_data_collection
;
APEX2 (Bruker, 2008)
;
_computing_data_reduction
;
SAINT (Bruker, 2008)
;
_computing_molecular_graphics
;
SHELXTL (Sheldrick, 2008) and Mercury (Macrae <i>et al.</i>,
2008)
;
_computing_publication_material
;
SHELXL2017 (Sheldrick, 2015) and publCIF (Westrip, 2010)
;
_computing_structure_refinement
;
SHELXL2017 (Sheldrick, 2015)
;
_computing_structure_solution
;
SHELXS97 (Sheldrick, 2008)
;
_diffrn_ambient_temperature      100(2)
_diffrn_measured_fraction_theta_full 0.998
_diffrn_measured_fraction_theta_max 0.997
_diffrn_measurement_device_type  'Bruker SMART APEXII'
_diffrn_measurement_method       \w
_diffrn_radiation_monochromator  graphite
_diffrn_radiation_source         'fine-focus sealed tube'
_diffrn_radiation_type           MoK\a
_diffrn_radiation_wavelength     0.71073
_diffrn_reflns_av_R_equivalents  0.0152
_diffrn_reflns_limit_h_max       8
_diffrn_reflns_limit_h_min       -8
_diffrn_reflns_limit_k_max       5
_diffrn_reflns_limit_k_min       -7
_diffrn_reflns_limit_l_max       20
_diffrn_reflns_limit_l_min       -21
_diffrn_reflns_number            4329
_diffrn_reflns_theta_full        25.242
_diffrn_reflns_theta_max         28.996
_diffrn_reflns_theta_min         2.625
_exptl_absorpt_coefficient_mu    0.121
_exptl_absorpt_correction_T_max  0.9947
_exptl_absorpt_correction_T_min  0.9171
_exptl_absorpt_correction_type   multi-scan
_exptl_absorpt_process_details
;
(SADABS; Bruker, 2008)
;
_exptl_crystal_colour            colourless
_exptl_crystal_density_diffrn    1.447
_exptl_crystal_density_method    'not measured'
_exptl_crystal_description       needle
_exptl_crystal_F_000             244
_exptl_crystal_size_max          0.39
_exptl_crystal_size_mid          0.15
_exptl_crystal_size_min          0.05
_refine_diff_density_max         0.304
_refine_diff_density_min         -0.203
_refine_ls_extinction_method     none
_refine_ls_goodness_of_fit_ref   1.051
_refine_ls_hydrogen_treatment    mixed
_refine_ls_matrix_type           full
_refine_ls_number_parameters     153
_refine_ls_number_reflns         2612
_refine_ls_number_restraints     1
_refine_ls_restrained_S_all      1.051
_refine_ls_R_factor_all          0.0293
_refine_ls_R_factor_gt           0.0276
_refine_ls_shift/su_max          0.000
_refine_ls_shift/su_mean         0.000
_refine_ls_structure_factor_coef Fsqd
_refine_ls_weighting_details
'w=1/[\s^2^(Fo^2^)+(0.0411P)^2^+0.0783P] where P=(Fo^2^+2Fc^2^)/3'
_refine_ls_weighting_scheme      calc
_refine_ls_wR_factor_gt          0.0703
_refine_ls_wR_factor_ref         0.0717
_reflns_number_gt                2503
_reflns_number_total             2612
_reflns_threshold_expression     'I > 2\s(I)'
_cod_data_source_file            eb2009sup1.cif
_cod_data_source_block           II
_cod_database_code               2242549
_shelx_space_group_comment
;
The symmetry employed for this shelxl refinement is uniquely defined
by the following loop, which should always be used as a source of
symmetry information in preference to the above space-group names.
They are only intended as comments.
;
_shelx_estimated_absorpt_t_min   0.954
_shelx_estimated_absorpt_t_max   0.994
_shelx_hkl_file
;
  -1   0   0    0.43    0.07
   1   0   0    0.59    0.07
   2   0   0    6.02    0.22
  -2   0   0    6.13    0.23
  -3   0   0  197.26    2.88
   3   0   0  192.84    2.96
  -4   0   0    7.35    0.35
   4   0   0    7.90    0.32
  -5   0   0    0.64    0.19
   5   0   0    1.05    0.18
  -6   0   0   77.53    1.60
   6   0   0   79.56    1.45
   7   0   0    5.70    0.39
  -7   0   0    7.00    0.47
  -8   0   0   15.19    0.72
   8   0   0   13.89    0.62
  -9   0   0    3.67    0.47
   0  -1   0   -1.03    0.04
   0   1   0   -1.04    0.04
   1  -1   0  219.50    3.22
  -1  -1   0  220.70    3.20
  -1  -1   0  224.77    3.30
  -1   1   0  218.94    3.28
   2  -1   0   38.75    0.72
  -2  -1   0   38.90    0.70
  -2  -1   0   39.82    0.67
  -2   1   0   38.70    0.71
   3  -1   0   85.93    1.41
  -3  -1   0   85.70    1.40
  -3  -1   0   84.89    1.35
  -3   1   0   82.98    1.41
   4  -1   0   54.06    1.04
  -4  -1   0   54.00    1.07
  -4   1   0   54.46    1.08
   4   1   0   54.15    1.00
   5  -1   0   47.39    1.01
  -5  -1   0   47.78    1.06
  -5   1   0   46.98    1.07
   5   1   0   47.36    0.95
  -6  -1   0   21.92    0.73
   6  -1   0   23.08    0.70
  -6   1   0   23.31    0.76
   6   1   0   23.73    0.65
   7  -1   0    9.51    0.50
  -7  -1   0    9.26    0.53
  -7   1   0    9.22    0.55
   7   1   0    9.09    0.44
  -8  -1   0    7.34    0.54
   8  -1   0    6.97    0.49
  -8   1   0    6.35    0.50
  -9  -1   0    2.27    0.40
  -9   1   0    2.16    0.40
   0  -2   0  575.87    8.74
   0   2   0  590.13    8.08
   1  -2   0  173.19    2.64
  -1  -2   0  172.59    2.59
   1   2   0  174.86    2.40
  -1   2   0  172.90    2.42
   2  -2   0  134.64    2.17
  -2  -2   0  136.14    2.07
  -2   2   0  136.61    2.02
   2   2   0  138.03    2.00
  -3  -2   0   25.39    0.58
   3  -2   0   25.11    0.65
  -3  -2   0   25.33    0.56
  -3   2   0   25.83    0.61
   4  -2   0   32.56    0.82
  -4  -2   0   33.40    0.77
  -4  -2   0   33.43    0.72
  -4   2   0   32.20    0.78
  -5  -2   0    2.02    0.24
   5  -2   0    2.23    0.29
  -5  -2   0    2.03    0.26
  -5   2   0    1.75    0.25
  -6  -2   0   41.03    1.06
   6  -2   0   42.30    1.07
  -6   2   0   43.97    1.10
   6   2   0   42.32    0.96
   7  -2   0   12.50    0.60
  -7  -2   0   11.46    0.58
  -7   2   0   11.01    0.59
   7   2   0   11.93    0.51
  -8  -2   0   13.55    0.69
   8  -2   0   16.10    0.71
  -8   2   0   14.01    0.71
  -9   2   0    3.77    0.51
   9   2   0    3.96    0.49
   0  -3   0    0.18    0.13
   0   3   0   -0.03    0.06
   1  -3   0  173.63    2.80
  -1  -3   0  178.12    2.75
   1   3   0  176.13    2.45
  -1   3   0  175.40    2.48
  -2  -3   0   88.24    1.51
   2  -3   0   84.93    1.60
   2   3   0   87.65    1.34
  -2   3   0   84.95    1.37
  -3  -3   0    4.33    0.27
   3  -3   0    4.61    0.34
   3   3   0    4.89    0.26
  -3   3   0    4.57    0.27
   4  -3   0    6.59    0.41
  -4  -3   0    5.85    0.31
  -4   3   0    5.06    0.33
   4   3   0    6.03    0.32
  -5  -3   0    2.67    0.26
   5  -3   0    2.22    0.31
  -5   3   0    2.54    0.29
   5   3   0    2.72    0.28
   6  -3   0    8.46    0.53
  -6  -3   0    8.68    0.44
  -6   3   0    8.52    0.48
   6   3   0    9.42    0.48
   7  -3   0    3.37    0.42
  -7   3   0    3.62    0.40
   7   3   0    3.41    0.38
   8  -3   0   14.34    0.71
   8   3   0   12.83    0.66
  -8   3   0   14.34    0.72
   0  -4   0   72.26    1.47
   0   4   0   74.49    1.08
   1  -4   0   14.51    0.57
  -1  -4   0   13.88    0.53
  -1   4   0   13.86    0.34
   1   4   0   14.65    0.31
   2  -4   0   34.70    0.96
  -2  -4   0   34.68    0.86
  -2   4   0   35.49    0.70
   2   4   0   36.05    0.66
  -3  -4   0   22.15    0.64
  -3   4   0   22.56    0.58
   3   4   0   22.81    0.54
   4  -4   0    5.86    0.44
  -4  -4   0    6.00    0.35
   4   4   0    5.88    0.32
  -4   4   0    6.07    0.35
  -5  -4   0   17.38    0.59
   5  -4   0   17.33    0.73
   5   4   0   16.87    0.58
  -5   4   0   15.82    0.59
  -6  -4   0    9.60    0.48
   6  -4   0    9.21    0.60
   6   4   0    8.54    0.47
  -6   4   0    8.93    0.51
   7  -4   0    7.62    0.59
  -7   4   0    7.30    0.52
   7   4   0    6.94    0.48
   8  -4   0    6.66    0.58
  -8   4   0    6.91    0.53
   0  -5   0   -0.04    0.17
  -1  -5   0   32.54    0.92
   1  -5   0   29.80    0.94
   2  -5   0   30.89    0.98
  -2  -5   0   29.84    0.87
  -3  -5   0    1.18    0.23
   3  -5   0    1.14    0.30
   4  -5   0    2.92    0.41
  -4  -5   0    2.86    0.30
  -5  -5   0    1.76    0.27
   5  -5   0    1.69    0.36
   6  -5   0    6.32    0.55
   7  -5   0    2.71    0.45
   0  -6   0   23.69    0.87
   1  -6   0    1.03    0.29
  -1  -6   0    0.98    0.26
  -2  -6   0    8.39    0.50
   2  -6   0    8.28    0.60
  -3  -6   0    7.52    0.48
   3  -6   0    8.34    0.59
  -4  -6   0    5.14    0.41
   4  -6   0    4.01    0.50
  -5  -6   0    1.31    0.27
   5  -6   0    1.16    0.36
   0  -7   0    0.03    0.25
  -1  -7   0   14.24    0.73
   1  -7   0   14.35    0.77
   2  -7   0   11.14    0.70
  -2  -7   0   10.55    0.62
   3  -7   0    7.51    0.62
  -3  -7   0    8.23    0.53
   4  -7   0    8.27    0.69
  -4  -7   0    9.66    0.56
  -9   0   1   15.44    0.79
  -8   0   1    4.81    0.50
   7   0  -1    9.35    0.46
  -7   0   1    9.24    0.53
   6   0  -1   25.08    0.66
  -6   0   1   24.35    0.79
  -5   0   1   10.66    0.46
   5   0  -1   10.75    0.39
  -4   0   1    2.92    0.25
   4   0  -1    3.67    0.23
  -3   0   1    3.48    0.23
   3   0  -1    3.96    0.21
   2   0  -1    4.66    0.18
  -1   0   1  551.57    7.75
   1   0  -1  522.72    9.49
   0   0  -1   -0.08    0.01
   0   0   1   -0.09    0.01
   0   0  -1   -0.08    0.01
   0   0   1   -0.09    0.01
  -1   0  -1  744.85   10.49
  -2   0  -1   -0.11    0.10
   2   0   1   -0.17    0.10
  -3   0  -1  327.75    4.63
   3   0   1  327.09    5.19
  -4   0  -1  102.81    1.74
   4   0   1  100.65    1.66
   5   0   1  127.88    2.10
  -5   0  -1  131.12    2.22
  -6   0  -1    2.43    0.31
   6   0   1    2.38    0.27
  -7   0  -1   12.81    0.61
   7   0   1   11.74    0.52
  -8   0  -1    2.59    0.38
   8   0   1    2.34    0.35
  -9   0  -1    0.11    0.26
  -9  -1   1    4.88    0.54
  -9   1   1    5.60    0.56
   8  -1  -1    5.21    0.43
  -8  -1   1    4.94    0.49
  -8   1   1    4.60    0.49
  -7  -1   1    3.55    0.40
   7  -1  -1    3.98    0.36
  -7   1   1    3.62    0.40
   7   1  -1    3.57    0.31
   6  -1  -1    9.89    0.46
  -6  -1   1    9.94    0.50
   6   1  -1    9.08    0.41
  -6   1   1    9.85    0.50
   5  -1  -1  106.55    1.83
  -5  -1   1  109.42    1.92
  -5   1   1  109.72    1.92
   5   1  -1  106.24    1.75
   4  -1  -1   12.87    0.43
  -4  -1   1   13.69    0.47
   4   1  -1   13.66    0.41
  -4   1   1   14.27    0.48
  -3  -1   1  154.71    2.33
  -3  -1   1  163.51    2.41
   3  -1  -1  159.41    2.40
  -3   1   1  159.29    2.41
  -2  -1   1   22.60    0.42
  -2  -1   1   22.42    0.48
   2  -1  -1   22.78    0.49
  -2   1   1   22.39    0.48
   1  -1  -1    6.56    0.25
  -1  -1   1    5.87    0.19
  -1   1   1    6.30    0.19
   1   1  -1    5.99    0.19
   0  -1  -1  435.35    6.42
   0  -1   1  424.13    6.26
   0   1  -1  424.97    6.05
  -1  -1  -1  511.09    7.23
  -1  -1  -1  505.51    7.59
   1  -1   1  509.71    7.47
  -1   1  -1  514.09    7.49
  -2  -1  -1   38.24    0.69
  -2  -1  -1   39.70    0.70
   2  -1   1   38.63    0.73
  -2   1  -1   39.34    0.72
  -3  -1  -1  146.26    2.20
  -3  -1  -1  143.97    2.19
   3  -1   1  146.00    2.23
  -3   1  -1  141.99    2.21
  -4  -1  -1   49.76    1.00
   4  -1   1   48.92    0.98
   4   1   1   49.75    0.95
  -4   1  -1   49.35    1.02
   5  -1   1   57.24    1.16
  -5  -1  -1   59.19    1.21
  -5   1  -1   57.53    1.23
   5   1   1   58.00    1.13
   6  -1   1    6.94    0.41
  -6  -1  -1    7.74    0.44
  -6   1  -1    7.33    0.45
   6   1   1    7.42    0.41
   7  -1   1   11.51    0.55
  -7  -1  -1    9.99    0.56
   7   1   1   11.34    0.50
  -7   1  -1   11.25    0.60
  -8  -1  -1   11.00    0.63
   8  -1   1   11.54    0.60
   8   1   1    9.77    0.52
  -8   1  -1   11.34    0.65
  -9  -1  -1   10.07    0.65
  -9   1  -1   11.12    0.70
  -9   2   1    3.31    0.48
   9   2  -1    2.91    0.42
   8  -2  -1   10.78    0.60
   8   2  -1   11.21    0.62
  -8   2   1   10.38    0.63
   7  -2  -1   26.39    0.85
  -7  -2   1   27.99    0.90
  -7   2   1   26.35    0.89
  -6  -2   1   15.49    0.62
   6  -2  -1   14.80    0.60
  -6   2   1   16.15    0.64
   6   2  -1   14.90    0.51
  -5  -2   1   22.36    0.59
   5  -2  -1   24.35    0.72
  -5  -2   1   22.40    0.69
  -5   2   1   24.51    0.72
   4  -2  -1    4.28    0.33
  -4  -2   1    4.43    0.29
  -4  -2   1    4.60    0.25
  -4   2   1    4.23    0.31
   3  -2  -1   23.04    0.62
  -3  -2   1   23.23    0.51
  -3   2   1   23.06    0.56
   3   2  -1   22.74    0.55
   2  -2  -1   28.11    0.66
  -2  -2   1   27.34    0.57
   2   2  -1   28.15    0.56
  -2   2   1   28.92    0.57
  -1  -2   1  309.49    4.38
   1  -2  -1  306.01    4.44
   1   2  -1  308.06    4.55
  -1   2   1  302.11    4.39
   0  -2   1   12.00    0.37
   0  -2  -1   12.21    0.38
   0   2  -1   12.05    0.27
   1  -2   1   28.09    0.64
  -1  -2  -1   29.56    0.62
   1   2   1   29.24    0.48
  -1   2  -1   28.54    0.53
  -2  -2  -1   35.77    0.70
   2  -2   1   35.58    0.78
  -2  -2  -1   35.35    0.64
  -2   2  -1   34.91    0.69
  -3  -2  -1   15.10    0.42
   3  -2   1   15.72    0.52
  -3  -2  -1   15.48    0.43
  -3   2  -1   15.91    0.47
   4  -2   1   33.63    0.83
  -4  -2  -1   33.07    0.76
  -4  -2  -1   32.39    0.74
  -4   2  -1   32.67    0.79
  -5  -2  -1   42.69    0.98
  -5  -2  -1   44.62    0.95
   5  -2   1   42.06    1.03
  -5   2  -1   43.26    1.03
   6  -2   1   22.40    0.76
  -6  -2  -1   21.73    0.72
  -6   2  -1   20.96    0.75
   6   2   1   21.52    0.68
   7  -2   1    1.94    0.33
  -7  -2  -1    1.57    0.29
   7   2   1    2.00    0.29
  -7   2  -1    1.61    0.31
   8  -2   1    2.58    0.39
  -8  -2  -1    2.45    0.38
  -8   2  -1    3.22    0.42
  -9  -2  -1    2.98    0.43
  -9   2  -1    3.79    0.50
   8  -3  -1   12.61    0.68
  -8   3   1   12.45    0.69
   8   3  -1   11.67    0.64
   7  -3  -1   32.70    1.02
   7   3  -1   35.54    1.01
  -7   3   1   31.04    1.01
   6  -3  -1   11.46    0.58
  -6  -3   1   11.62    0.49
   6   3  -1   11.06    0.51
  -6   3   1   10.79    0.54
   5  -3  -1    8.30    0.49
  -5  -3   1    8.26    0.37
   5   3  -1    8.11    0.41
  -5   3   1    7.06    0.41
   4  -3  -1   22.04    0.71
  -4  -3   1   22.09    0.57
   4   3  -1   22.79    0.61
  -4   3   1   22.29    0.64
   3  -3  -1    8.14    0.42
  -3  -3   1    8.43    0.34
   3   3  -1    8.53    0.33
  -3   3   1    8.44    0.34
  -2  -3   1   26.39    0.64
   2  -3  -1   26.24    0.72
   2   3  -1   26.98    0.56
  -2   3   1   27.13    0.55
  -1  -3   1   72.71    1.30
   1  -3  -1   68.61    1.34
  -1   3   1   68.78    1.05
   1   3  -1   71.60    1.09
   0  -3  -1    5.07    0.30
   0  -3   1    4.77    0.31
   0   3  -1    4.45    0.19
   1  -3   1    9.07    0.40
  -1  -3  -1    9.09    0.37
  -1   3  -1    8.27    0.27
   1   3   1    8.69    0.20
   2  -3   1  160.01    2.67
  -2  -3  -1  163.71    2.57
  -2   3  -1  163.40    2.42
   2   3   1  167.39    2.35
  -3  -3  -1    0.80    0.15
   3  -3   1    1.36    0.24
  -3   3  -1    1.01    0.17
   3   3   1    1.31    0.16
  -4  -3  -1   57.38    1.13
  -4  -3  -1   58.49    1.11
   4  -3   1   56.40    1.28
  -4   3  -1   55.65    1.15
  -5  -3  -1   48.21    1.06
   5  -3   1   47.77    1.20
  -5  -3  -1   48.87    1.06
  -5   3  -1   46.61    1.10
  -6  -3  -1   12.31    0.55
  -6  -3  -1   12.49    0.53
   6  -3   1   12.16    0.61
  -6   3  -1   12.78    0.59
   7  -3   1   10.35    0.62
   7   3   1   10.23    0.53
  -7   3  -1   10.33    0.58
   8  -3   1    4.67    0.50
   8   3   1    5.04    0.49
  -8   3  -1    4.72    0.51
   8  -4  -1    3.87    0.50
   8   4  -1    4.74    0.48
  -8   4   1    4.23    0.48
   7  -4  -1   12.07    0.69
   7   4  -1   12.75    0.61
  -7   4   1   12.53    0.63
  -6  -4   1    1.76    0.27
   6  -4  -1    1.11    0.31
   6   4  -1    1.70    0.27
  -6   4   1    1.05    0.25
  -5  -4   1   14.47    0.52
   5  -4  -1   15.21    0.70
  -5   4   1   14.84    0.57
   5   4  -1   15.33    0.55
  -4  -4   1   20.20    0.60
   4  -4  -1   19.57    0.74
   4   4  -1   19.70    0.58
  -4   4   1   19.65    0.60
   3  -4  -1    1.92    0.30
  -3  -4   1    1.42    0.21
  -3   4   1    1.53    0.19
   3   4  -1    1.85    0.19
  -2  -4   1   26.19    0.73
   2  -4  -1   26.02    0.82
   2   4  -1   27.86    0.57
  -2   4   1   27.12    0.56
   1  -4  -1   27.83    0.82
  -1  -4   1   29.36    0.78
   1   4  -1   28.36    0.54
  -1   4   1   29.38    0.50
   0  -4  -1    0.52    0.18
   0  -4   1    0.98    0.22
   0   4  -1    0.65    0.11
  -1  -4  -1   22.25    0.68
   1  -4   1   20.26    0.69
  -1   4  -1   22.27    0.48
   2  -4   1   33.24    0.93
  -2  -4  -1   33.83    0.86
   2   4   1   33.87    0.60
  -2   4  -1   34.11    0.70
   3  -4   1   25.13    0.83
  -3  -4  -1   23.35    0.69
   3   4   1   25.96    0.57
  -3   4  -1   25.95    0.64
   4  -4   1   18.01    0.74
  -4  -4  -1   18.84    0.61
   4   4   1   18.83    0.53
  -4   4  -1   18.70    0.60
  -5  -4  -1   11.77    0.50
   5  -4   1   10.83    0.62
  -5   4  -1   11.34    0.52
   5   4   1   11.13    0.46
  -6  -4  -1   18.21    0.67
   6  -4   1   19.51    0.84
   6   4   1   19.74    0.68
  -6   4  -1   19.56    0.74
   7  -4   1    1.87    0.37
  -7   4  -1    2.13    0.35
  -8   4  -1   14.07    0.74
   7  -5  -1    1.24    0.36
   6  -5  -1    2.36    0.40
   5  -5  -1    9.65    0.62
  -5  -5   1   10.66    0.50
  -4  -5   1    2.17    0.27
   4  -5  -1    2.26    0.37
  -3  -5   1    1.53    0.24
   3  -5  -1    1.58    0.31
  -2  -5   1    1.25    0.24
   2  -5  -1    0.95    0.27
   1  -5  -1    7.83    0.48
  -1  -5   1    7.46    0.44
   0  -5  -1   14.29    0.63
   0  -5   1   14.97    0.63
  -1  -5  -1   30.44    0.90
   1  -5   1   31.07    0.96
  -2  -5  -1   19.90    0.69
   2  -5   1   18.73    0.75
   3  -5   1    4.69    0.47
  -3  -5  -1    3.43    0.33
   4  -5   1    0.74    0.28
  -4  -5  -1    0.58    0.21
  -5  -5  -1   12.32    0.55
   5  -5   1   11.73    0.68
   6  -5   1    1.27    0.35
  -6  -5  -1    1.76    0.30
   7  -5   1    2.93    0.48
   5  -6  -1    0.04    0.26
  -5  -6   1   -0.16    0.18
   4  -6  -1    0.71    0.30
  -4  -6   1    0.19    0.19
  -3  -6   1    1.88    0.29
   3  -6  -1    1.53    0.36
   2  -6  -1   20.10    0.85
  -2  -6   1   19.50    0.74
  -1  -6   1   19.79    0.78
   1  -6  -1   19.82    0.82
   0  -6  -1    7.89    0.52
   0  -6   1    8.44    0.55
   1  -6   1    0.75    0.26
  -1  -6  -1    0.50    0.25
   2  -6   1    0.70    0.27
  -2  -6  -1    0.19    0.20
  -3  -6  -1    7.25    0.46
   3  -6   1    7.04    0.56
  -4  -6  -1   18.85    0.72
  -5  -6  -1    3.45    0.38
   5  -6   1    3.64    0.51
   4  -7  -1    2.80    0.47
  -4  -7   1    2.54    0.35
  -3  -7   1    2.70    0.37
   3  -7  -1    2.74    0.46
   2  -7  -1    3.18    0.47
  -2  -7   1    3.18    0.41
  -1  -7   1    6.45    0.51
   1  -7  -1    6.74    0.55
   0  -7  -1   16.31    0.80
   0  -7   1   16.64    0.81
  -1  -7  -1    2.55    0.40
   1  -7   1    3.17    0.46
  -2  -7  -1    5.48    0.47
   2  -7   1    5.25    0.56
   3  -7   1    2.97    0.46
  -3  -7  -1    3.41    0.40
  -4  -7  -1    8.53    0.54
   4  -7   1    9.16    0.72
  -9   0   2   12.11    0.71
  -8   0   2    2.52    0.38
   7   0  -2   21.47    0.66
  -7   0   2   22.29    0.81
   6   0  -2   29.13    0.71
  -6   0   2   28.85    0.86
  -5   0   2    0.01    0.14
   5   0  -2    0.09    0.13
  -4   0   2    0.99    0.17
   4   0  -2    1.61    0.16
  -3   0   2  529.09    7.95
   3   0  -2  518.22    7.77
  -2   0   2  289.49    4.27
   2   0  -2  291.22    4.31
   1   0  -2   23.15    0.42
   1   0  -2   22.81    0.34
  -1   0   2   22.47    0.34
   0   0  -2   49.51    0.76
   0   0  -2   47.74    0.72
   1   0   2    2.72    0.17
  -1   0  -2    2.68    0.16
   2   0   2    2.69    0.20
  -2   0  -2    2.32    0.18
   3   0   2  125.23    1.98
  -3   0  -2  130.35    2.00
   4   0   2  175.55    2.71
  -4   0  -2  177.46    2.74
   5   0   2   29.77    0.73
  -5   0  -2   29.55    0.80
   6   0   2   30.91    0.79
  -6   0  -2   30.87    0.90
  -7   0  -2    2.10    0.33
   7   0   2    1.37    0.26
  -8   0  -2    4.03    0.46
   8   0   2    3.26    0.39
  -9   0  -2   15.56    0.81
  -9   1   2   12.26    0.73
   9   1  -2   12.23    0.72
  -8  -1   2   12.98    0.67
  -8   1   2   13.84    0.70
   7  -1  -2    5.58    0.39
  -7  -1   2    5.56    0.46
  -7   1   2    6.18    0.46
  -6  -1   2   66.35    1.43
   6  -1  -2   66.04    1.31
   6   1  -2   64.97    1.19
  -6   1   2   68.08    1.45
   5  -1  -2   66.50    1.25
  -5  -1   2   65.71    1.34
  -5   1   2   68.26    1.35
   5   1  -2   66.04    1.16
  -4  -1   2   33.34    0.80
   4  -1  -2   35.59    0.75
  -4   1   2   34.54    0.79
   4   1  -2   34.01    0.67
  -3  -1   2   39.14    0.68
  -3  -1   2   38.75    0.79
   3  -1  -2   39.98    0.76
  -3   1   2   38.73    0.79
   2  -1  -2  169.82    2.45
  -2  -1   2  164.21    2.34
   2   1  -2  165.43    2.42
  -2   1   2  166.08    2.40
   1  -1  -2  130.68    1.94
  -1  -1   2  132.84    1.88
   1   1  -2  132.34    1.88
  -1   1   2  129.59    1.84
   0  -1  -2  274.91    3.92
   0  -1  -2  270.26    3.73
   0  -1   2  271.48    4.13
   0   1   2  268.19    3.73
   0   1  -2  266.39    3.86
  -1  -1  -2  672.32    9.99
   1  -1   2  684.74   10.22
  -1  -1  -2  679.95    9.59
  -1   1  -2  690.57    9.86
   2  -1   2  306.77    4.80
  -2  -1  -2  302.65    4.38
  -2  -1  -2  296.56    4.28
  -2   1  -2  303.52    4.36
   3  -1   2   74.80    1.29
  -3  -1  -2   73.79    1.25
  -3  -1  -2   74.80    1.26
  -3   1  -2   73.55    1.29
   4  -1   2   23.96    0.64
  -4  -1  -2   23.49    0.63
  -4   1  -2   24.83    0.67
   4   1   2   24.26    0.62
   5  -1   2   23.12    0.67
  -5  -1  -2   22.79    0.68
   5   1   2   22.66    0.64
  -5   1  -2   22.79    0.70
  -6  -1  -2    6.07    0.42
   6  -1   2    5.65    0.38
  -6   1  -2    5.44    0.43
   6   1   2    5.65    0.36
   7  -1   2   10.63    0.54
  -7  -1  -2    9.69    0.54
   7   1   2    9.46    0.49
  -7   1  -2    9.74    0.55
  -8  -1  -2   18.63    0.80
   8  -1   2   20.21    0.78
   8   1   2   19.97    0.71
  -8   1  -2   19.44    0.83
  -9  -1  -2   -0.18    0.25
  -9   1  -2    0.76    0.31
   9   2  -2    1.45    0.34
  -9   2   2    1.69    0.38
   8   2  -2   18.32    0.80
  -8   2   2   17.84    0.80
   7  -2  -2    8.08    0.49
  -7   2   2    7.79    0.50
   7   2  -2    7.87    0.51
   6  -2  -2   14.28    0.58
   6   2  -2   14.24    0.48
  -6   2   2   12.95    0.58
   6   2  -2   13.18    0.56
   5  -2  -2   87.03    1.64
   5   2  -2   87.90    1.63
  -5   2   2   85.51    1.62
   4  -2  -2    6.55    0.37
  -4  -2   2    6.71    0.28
   4   2  -2    6.26    0.34
  -4   2   2    6.37    0.33
   3  -2  -2   36.04    0.81
  -3  -2   2   36.17    0.67
  -3   2   2   35.69    0.74
   3   2  -2   36.25    0.75
  -2  -2   2   41.25    0.76
   2  -2  -2   42.31    0.86
   2   2  -2   42.93    0.78
  -2   2   2   41.58    0.74
   1  -2  -2   55.61    1.03
  -1  -2   2   55.84    0.97
  -1   2   2   54.54    0.83
   1   2  -2   55.89    0.90
   0  -2   2  265.42    3.83
   0  -2  -2  265.30    3.86
   0   2  -2  263.00    3.65
  -1  -2  -2   17.95    0.46
  -1  -2  -2   18.34    0.33
   1  -2   2   18.30    0.49
  -1   2  -2   18.99    0.42
   2  -2   2    4.22    0.28
  -2  -2  -2    4.34    0.23
  -2  -2  -2    4.11    0.19
  -2   2  -2    4.44    0.23
   3  -2   2   -0.09    0.14
  -3  -2  -2    0.03    0.10
  -3  -2  -2    0.05    0.10
  -3   2  -2    0.02    0.12
  -4  -2  -2    9.80    0.40
   4  -2   2   10.04    0.45
  -4  -2  -2    9.90    0.40
  -4   2  -2   10.16    0.43
  -5  -2  -2   19.04    0.59
   5  -2   2   19.13    0.67
  -5  -2  -2   17.98    0.60
  -5   2  -2   19.30    0.66
   6  -2   2    3.81    0.38
  -6  -2  -2    2.98    0.33
  -6   2  -2    2.97    0.35
   6   2   2    3.26    0.33
  -7  -2  -2   16.10    0.69
   7  -2   2   16.17    0.70
   7   2   2   15.41    0.62
  -7   2  -2   15.86    0.71
   8  -2   2    0.31    0.26
  -8  -2  -2    0.41    0.25
  -8   2  -2    0.75    0.28
   8  -3  -2    1.90    0.35
  -8   3   2    2.40    0.40
   8   3  -2    2.03    0.35
   7  -3  -2   45.36    1.22
  -7   3   2   43.83    1.19
   7   3  -2   45.21    1.19
  -6  -3   2    6.91    0.39
   6  -3  -2    6.91    0.47
  -6   3   2    7.40    0.45
   6   3  -2    7.62    0.45
   5  -3  -2   10.99    0.54
  -5  -3   2   10.68    0.40
   5   3  -2   11.36    0.48
  -5   3   2   11.32    0.49
   4  -3  -2  139.22    2.44
  -4  -3   2  141.47    2.21
   4   3  -2  145.09    2.30
  -4   3   2  138.01    2.26
  -3  -3   2   19.06    0.50
   3  -3  -2   19.84    0.64
   3   3  -2   19.99    0.53
  -3   3   2   19.50    0.51
   2  -3  -2   16.33    0.55
  -2  -3   2   16.86    0.48
  -2   3   2   16.28    0.39
   2   3  -2   16.13    0.42
   1  -3  -2   63.14    1.25
  -1  -3   2   63.02    1.19
  -1   3   2   64.34    0.94
   1   3  -2   64.41    1.04
   0  -3   2  100.31    1.73
   0  -3  -2  100.23    1.75
   0   3  -2  100.76    1.52
  -1  -3  -2   48.33    0.99
   1  -3   2   45.09    1.00
  -1   3  -2   46.59    0.83
  -2  -3  -2   57.84    1.11
   2  -3   2   55.10    1.19
   2   3   2   58.71    0.92
  -2   3  -2   57.11    1.03
  -3  -3  -2   11.59    0.37
   3  -3   2   11.82    0.51
  -3  -3  -2   11.11    0.43
  -3   3  -2   11.98    0.43
   4  -3   2   21.01    0.71
  -4  -3  -2   19.64    0.56
  -4  -3  -2   20.19    0.60
  -4   3  -2   19.62    0.61
   5  -3   2   53.78    1.30
  -5  -3  -2   53.71    1.17
  -5  -3  -2   55.74    1.16
  -5   3  -2   54.83    1.23
   6  -3   2   20.71    0.79
  -6  -3  -2   20.46    0.69
  -6  -3  -2   21.66    0.71
  -6   3  -2   21.59    0.77
   7  -3   2    5.23    0.51
  -7  -3  -2    4.70    0.40
  -7   3  -2    5.35    0.46
   7   3   2    5.24    0.44
  -8  -3  -2    3.11    0.40
   8  -3   2    3.31    0.47
  -8   3  -2    2.90    0.42
   8  -4  -2   -0.25    0.25
   8   4  -2    0.02    0.22
  -8   4   2    0.15    0.24
   7  -4  -2    4.36    0.48
  -7   4   2    4.94    0.48
   7   4  -2    5.14    0.43
   6  -4  -2   12.85    0.67
   6   4  -2   12.99    0.57
  -6   4   2   14.19    0.60
   5  -4  -2    9.31    0.56
  -5  -4   2    9.95    0.43
  -5   4   2   10.35    0.48
   5   4  -2   10.45    0.47
   4  -4  -2   10.28    0.55
  -4  -4   2   10.80    0.43
   4   4  -2   10.72    0.43
  -4   4   2   11.06    0.44
   3  -4  -2   14.78    0.62
  -3  -4   2   14.67    0.50
  -3   4   2   14.54    0.43
   3   4  -2   15.12    0.46
   2  -4  -2    4.77    0.39
  -2  -4   2    4.27    0.32
  -2   4   2    4.31    0.21
   2   4  -2    4.42    0.24
   1  -4  -2   14.61    0.58
  -1  -4   2   14.88    0.54
   1   4  -2   15.28    0.39
   0  -4  -2    2.81    0.30
   0  -4   2    2.74    0.29
   0   4  -2    2.88    0.19
   1  -4   2   11.42    0.53
  -1  -4  -2   11.40    0.48
  -1   4  -2   11.16    0.35
  -2  -4  -2   16.93    0.58
   2  -4   2   17.32    0.65
  -2   4  -2   17.41    0.49
   3  -4   2   34.56    1.00
  -3  -4  -2   33.02    0.85
  -3   4  -2   35.39    0.81
   3   4   2   34.82    0.68
   4  -4   2   10.85    0.57
  -4  -4  -2    9.53    0.44
   4   4   2   10.18    0.39
  -4   4  -2    8.71    0.43
  -5  -4  -2    9.53    0.48
   5  -4   2    9.24    0.59
  -5   4  -2    8.50    0.47
   5   4   2    8.57    0.41
  -6  -4  -2    2.96    0.35
   6  -4   2    3.26    0.44
  -6   4  -2    3.53    0.39
   7  -4   2   14.66    0.78
  -7  -4  -2   15.53    0.69
  -7   4  -2   15.80    0.73
   7  -5  -2    3.26    0.48
   6  -5  -2   10.28    0.65
   5  -5  -2    8.70    0.59
  -5  -5   2   10.93    0.49
  -4  -5   2    1.95    0.25
   4  -5  -2    2.05    0.35
   3  -5  -2    8.91    0.55
  -3  -5   2    9.31    0.46
  -2  -5   2   43.53    1.08
   2  -5  -2   44.38    1.20
  -1  -5   2   40.92    1.06
   1  -5  -2   42.06    1.13
   0  -5  -2    3.80    0.38
   0  -5   2    4.17    0.40
   1  -5   2   13.90    0.63
  -1  -5  -2   13.26    0.59
  -2  -5  -2    0.90    0.22
   2  -5   2    0.68    0.24
  -3  -5  -2   27.95    0.82
   3  -5   2   27.87    0.98
  -4  -5  -2   27.90    0.84
   4  -5   2   28.84    1.03
  -4   5  -2   28.87    0.79
  -5  -5  -2    6.97    0.43
   5  -5   2    6.41    0.56
  -5   5  -2    7.13    0.44
  -6  -5  -2    2.11    0.34
   6  -5   2    1.89    0.39
  -6   5  -2    1.62    0.31
   7  -5   2    1.75    0.40
   5  -6  -2    2.99    0.46
  -4  -6   2    3.46    0.35
   4  -6  -2    3.19    0.46
   3  -6  -2    6.13    0.54
  -3  -6   2    7.35    0.46
  -2  -6   2   -0.02    0.18
   2  -6  -2   -0.07    0.21
   1  -6  -2   27.21    0.96
  -1  -6   2   26.94    0.91
   0  -6  -2    5.58    0.47
   0  -6   2    5.15    0.44
  -1  -6  -2    0.72    0.25
   1  -6   2    0.37    0.24
   2  -6   2    2.79    0.41
  -2  -6  -2    3.50    0.39
   3  -6   2    0.38    0.26
  -3  -6  -2    0.74    0.24
   4  -6   2    6.08    0.61
  -4  -6  -2    7.08    0.48
  -5  -6  -2    7.19    0.50
   5  -6   2    7.60    0.63
   4  -7  -2    4.71    0.56
   3  -7  -2    3.26    0.47
  -3  -7   2    2.84    0.37
   2  -7  -2    2.85    0.44
  -2  -7   2    3.45    0.41
   1  -7  -2   21.77    0.94
  -1  -7   2   23.92    0.93
   0  -7  -2    5.56    0.55
   0  -7   2    6.49    0.55
  -1  -7  -2   13.70    0.71
   1  -7   2   13.30    0.76
  -2  -7  -2    6.88    0.53
   2  -7   2    6.97    0.59
  -3  -7  -2   14.89    0.70
   3  -7   2   13.43    0.80
  -9   0   3   24.77    0.99
  -8   0   3    2.06    0.36
  -7   0   3   16.01    0.69
  -6   0   3    0.17    0.18
   6   0  -3   -0.01    0.15
   5   0  -3   35.09    0.73
  -5   0   3   35.77    0.89
  -4   0   3    0.00    0.13
   4   0  -3    0.08    0.10
  -3   0   3   28.66    0.65
   3   0  -3   30.00    0.53
   2   0  -3 1000.00   14.35
   2   0  -3  969.71   16.62
   1   0  -3   21.46    0.33
  -1   0   3   22.16    0.34
   1   0  -3   21.14    0.42
   0   0  -3  123.45    2.00
   0   0  -3  126.35    1.76
   1   0   3   20.43    0.43
  -1   0  -3   21.66    0.43
  -2   0  -3    0.75    0.12
   2   0   3    1.01    0.15
  -3   0  -3   26.20    0.62
   3   0   3   25.80    0.60
   4   0   3   34.57    0.78
  -4   0  -3   34.69    0.82
  -5   0  -3    1.28    0.23
   5   0   3    1.41    0.22
   6   0   3    0.65    0.21
  -6   0  -3    0.65    0.22
  -7   0  -3   -0.01    0.19
   7   0   3   -0.04    0.21
  -8   0  -3    1.65    0.34
   8   0   3    0.93    0.29
   9   0   3    9.18    0.61
  -9   0  -3   10.35    0.67
   9   1  -3    1.18    0.34
  -9   1   3    1.22    0.34
   8   1  -3   10.94    0.64
  -8   1   3   11.37    0.64
   7  -1  -3    2.62    0.30
  -7  -1   3    2.98    0.37
  -7   1   3    2.14    0.34
   6  -1  -3   39.11    0.91
  -6  -1   3   41.19    1.05
   6   1  -3   39.63    0.80
  -6   1   3   38.99    1.03
  -5  -1   3   14.20    0.55
   5  -1  -3   14.04    0.47
   5   1  -3   14.93    0.42
  -5   1   3   15.13    0.55
  -4  -1   3    3.40    0.27
   4  -1  -3    3.27    0.25
  -4   1   3    3.78    0.27
   4   1  -3    3.45    0.20
   3  -1  -3   19.14    0.47
   3   1  -3   19.47    0.52
  -3   1   3   18.78    0.50
   2  -1  -3   70.18    1.14
  -2  -1   3   69.31    1.02
  -2   1   3   71.56    1.14
   2   1  -3   71.58    1.17
  -1  -1   3  186.27    2.57
   1  -1  -3  185.23    2.65
   1  -1  -3  180.81    2.64
   1   1  -3  178.29    2.58
   0  -1   3   51.41    0.82
   0  -1  -3   50.98    0.84
   0  -1  -3   50.40    0.75
   0   1  -3   50.51    0.83
   1  -1   3  558.58    8.40
  -1  -1  -3  548.70    7.80
  -1  -1  -3  544.29    8.15
  -1   1  -3  547.12    8.12
  -2  -1  -3  311.75    4.43
  -2  -1  -3  311.23    4.42
   2  -1   3  313.12    4.85
  -2   1  -3  308.27    4.37
   3  -1   3   48.90    0.95
  -3  -1  -3   48.54    0.91
  -3  -1  -3   47.72    0.93
  -3   1  -3   49.18    0.96
  -4  -1  -3   14.51    0.48
   4  -1   3   13.99    0.48
   4   1   3   14.63    0.48
  -4   1  -3   14.88    0.51
   5  -1   3   22.38    0.67
  -5  -1  -3   22.99    0.70
  -5   1  -3   22.19    0.70
   5   1   3   23.66    0.68
  -6  -1  -3    0.00    0.17
   6  -1   3    0.06    0.20
   6   1   3   -0.07    0.19
  -6   1  -3    0.28    0.20
   7  -1   3    5.97    0.43
  -7  -1  -3    6.14    0.45
  -7   1  -3    6.27    0.48
   7   1   3    6.06    0.42
   8  -1   3    2.14    0.37
  -8  -1  -3    1.68    0.33
  -8   1  -3    1.95    0.37
   8   1   3    2.20    0.34
   9  -1   3    3.76    0.48
  -9  -1  -3    4.23    0.50
  -9   1  -3    4.42    0.52
   9   2  -3   31.16    1.11
  -9   2   3   31.63    1.14
  -8   2   3    4.53    0.48
   8   2  -3    3.33    0.42
   7  -2  -3    1.44    0.28
   7   2  -3    1.71    0.30
  -7   2   3    1.95    0.33
   6  -2  -3    7.80    0.44
   6   2  -3    7.98    0.45
  -6   2   3    8.78    0.49
   5  -2  -3    5.74    0.37
   5   2  -3    5.86    0.30
   5   2  -3    6.20    0.37
  -5   2   3    5.14    0.35
  -4  -2   3   21.54    0.48
   4  -2  -3   20.26    0.61
  -4   2   3   21.71    0.60
   4   2  -3   20.58    0.60
   3  -2  -3   53.49    1.06
  -3  -2   3   53.37    0.89
   3   2  -3   54.34    1.03
  -3   2   3   53.57    0.99
   2  -2  -3   29.21    0.67
  -2  -2   3   28.85    0.57
  -2   2   3   28.11    0.56
   2   2  -3   28.79    0.61
   1  -2  -3   89.25    1.28
   1  -2  -3   88.93    1.50
  -1  -2   3   90.86    1.43
   1   2  -3   88.28    1.38
   0  -2  -3  204.51    3.03
   0  -2   3  201.58    2.99
   0   2  -3  201.09    2.87
   1  -2   3  137.55    2.15
  -1  -2  -3  136.72    1.90
  -1  -2  -3  138.02    2.13
  -1   2  -3  136.47    2.04
  -2  -2  -3   15.53    0.43
   2  -2   3   16.22    0.49
  -2  -2  -3   16.07    0.37
  -2   2  -3   15.59    0.45
  -3  -2  -3   11.80    0.40
  -3  -2  -3   11.91    0.37
   3  -2   3   11.88    0.45
  -3   2  -3   11.58    0.42
   4  -2   3   34.06    0.86
  -4  -2  -3   32.55    0.76
  -4  -2  -3   32.12    0.78
  -4   2  -3   32.21    0.81
   5  -2   3    4.60    0.36
  -5  -2  -3    4.50    0.33
  -5  -2  -3    4.70    0.32
  -5   2  -3    5.71    0.38
   6  -2   3    3.91    0.38
  -6  -2  -3    3.67    0.36
   6   2   3    2.83    0.31
  -6   2  -3    3.76    0.38
   7  -2   3   29.98    0.97
  -7  -2  -3   30.98    0.94
   7   2   3   31.14    0.90
  -7   2  -3   29.98    0.99
  -8  -2  -3    1.30    0.31
   8  -2   3    2.27    0.39
  -8   2  -3    1.98    0.37
   8   2   3    2.48    0.37
   8   3  -3    3.81    0.43
  -8   3   3    5.18    0.52
   7  -3  -3   15.34    0.67
   7   3  -3   13.61    0.63
  -7   3   3   13.56    0.66
   6  -3  -3    9.56    0.52
  -6   3   3   10.21    0.52
   6   3  -3    9.39    0.50
   5  -3  -3    6.06    0.40
  -5  -3   3    5.93    0.30
   5   3  -3    5.64    0.38
  -5   3   3    6.61    0.39
  -4  -3   3   56.33    1.02
   4  -3  -3   55.61    1.23
  -4   3   3   54.58    1.10
   4   3  -3   54.84    1.13
  -3  -3   3   87.81    1.45
   3  -3  -3   84.35    1.63
  -3   3   3   85.41    1.43
   3   3  -3   87.28    1.48
   2  -3  -3   12.71    0.49
  -2  -3   3   13.56    0.43
  -2   3   3   13.30    0.34
   2   3  -3   14.20    0.41
   1  -3  -3   18.07    0.57
  -1  -3   3   18.88    0.53
   1  -3  -3   18.72    0.32
   1   3  -3   18.16    0.44
   0  -3   3  147.03    2.35
   0  -3  -3  142.91    2.36
   0   3  -3  144.04    2.14
  -1  -3  -3   55.97    1.12
   1  -3   3   57.66    1.16
  -1   3  -3   56.30    0.99
   2  -3   3    1.18    0.21
  -2  -3  -3    0.83    0.16
  -2  -3  -3    0.89    0.11
  -2   3  -3    1.01    0.16
   3  -3   3   41.72    1.03
  -3  -3  -3   42.17    0.81
  -3  -3  -3   44.05    0.93
  -3   3  -3   42.73    0.92
  -4  -3  -3    4.03    0.32
   4  -3   3    3.63    0.37
  -4  -3  -3    3.87    0.28
  -4   3  -3    3.78    0.31
   5  -3   3    0.19    0.21
  -5  -3  -3    0.02    0.14
  -5  -3  -3    0.17    0.17
  -5   3  -3    0.06    0.18
  -6  -3  -3    6.18    0.41
   6  -3   3    7.43    0.53
  -6  -3  -3    6.68    0.42
  -6   3  -3    6.91    0.48
  -7  -3  -3    1.15    0.28
   7  -3   3    0.36    0.28
   7   3   3    0.96    0.28
  -7   3  -3    1.33    0.32
  -8  -3  -3    7.98    0.56
   8  -3   3    8.07    0.62
  -8   3  -3    8.24    0.58
   8   4  -3    0.33    0.25
  -8   4   3    0.10    0.26
   7  -4  -3    6.86    0.54
  -7   4   3    6.14    0.49
   7   4  -3    7.15    0.49
   6  -4  -3    7.98    0.55
  -6   4   3    8.12    0.49
   6   4  -3    7.86    0.47
   5  -4  -3    5.74    0.45
  -5  -4   3    5.83    0.33
  -5   4   3    4.95    0.37
   5   4  -3    6.34    0.39
   4  -4  -3    1.17    0.27
  -4  -4   3    1.01    0.18
   4   4  -3    0.99    0.20
  -4   4   3    0.79    0.19
   3  -4  -3    4.88    0.41
  -3  -4   3    4.42    0.30
   3   4  -3    5.07    0.29
  -3   4   3    4.21    0.26
   2  -4  -3    7.13    0.43
  -2  -4   3    6.80    0.37
   2   4  -3    7.46    0.32
  -2   4   3    7.25    0.24
  -1  -4   3   47.49    1.06
   1  -4  -3   46.00    1.11
   1   4  -3   48.47    0.88
   0  -4   3    2.58    0.29
   0  -4  -3    2.41    0.29
   0   4  -3    2.56    0.21
   1  -4   3   56.98    1.27
  -1  -4  -3   55.02    1.21
  -1   4  -3   58.85    1.04
   2  -4   3   20.83    0.72
  -2  -4  -3   20.01    0.65
  -2   4  -3   20.81    0.56
   3  -4   3   26.19    0.85
  -3  -4  -3   25.97    0.74
  -3   4  -3   27.23    0.70
   4  -4   3   26.38    0.91
  -4  -4  -3   25.43    0.75
  -4   4  -3   25.81    0.75
  -5  -4  -3    2.49    0.31
   5  -4   3    2.91    0.40
  -5   4  -3    2.33    0.32
   6  -4   3    6.87    0.57
  -6  -4  -3    7.30    0.48
  -6   4  -3    7.32    0.48
   7  -4   3   23.58    0.97
  -7  -4  -3   23.25    0.86
  -7   4  -3   22.89    0.88
   7  -5  -3    3.56    0.47
   6  -5  -3    1.77    0.38
   5  -5  -3    1.27    0.32
  -4  -5   3    1.32    0.22
   4  -5  -3    0.92    0.29
   3  -5  -3    6.24    0.47
  -3  -5   3    5.27    0.37
  -2  -5   3    5.34    0.37
   2  -5  -3    5.28    0.43
   1  -5  -3   64.23    1.48
  -1  -5   3   62.53    1.39
   0  -5   3    7.32    0.47
   0  -5  -3    5.55    0.42
  -1  -5  -3    6.97    0.44
   1  -5   3    6.16    0.45
  -2  -5  -3   11.23    0.54
   2  -5   3   11.45    0.60
  -2   5  -3   10.70    0.41
   3  -5   3   24.33    0.90
  -3  -5  -3   22.49    0.74
  -3   5  -3   22.98    0.65
  -4  -5  -3    1.61    0.26
   4  -5   3    1.62    0.34
  -4   5  -3    2.12    0.28
   5  -5   3    0.53    0.28
  -5  -5  -3    1.04    0.27
  -5   5  -3    0.80    0.24
  -6  -5  -3    2.49    0.37
   6  -5   3    2.84    0.45
  -6   5  -3    2.25    0.35
   5  -6  -3    6.71    0.58
   4  -6  -3    1.21    0.35
  -4  -6   3    1.33    0.25
  -3  -6   3    3.22    0.35
   3  -6  -3    3.61    0.45
   2  -6  -3    4.32    0.48
  -2  -6   3    3.98    0.41
  -1  -6   3   10.96    0.59
   0  -6   3    4.00    0.42
   0  -6  -3    3.05    0.40
  -1  -6  -3    7.12    0.51
   1  -6   3    8.25    0.57
  -2  -6  -3   30.58    0.97
   2  -6   3   31.71    1.09
   3  -6   3    2.35    0.42
  -3  -6  -3    2.40    0.34
  -4  -6  -3    2.58    0.35
   4  -6   3    2.75    0.44
  -5  -6  -3    0.47    0.26
   5  -6   3    0.04    0.28
   3  -7  -3    0.86    0.34
  -3  -7   3    1.33    0.29
  -2  -7   3    3.21    0.40
   2  -7  -3    3.44    0.47
  -1  -7   3    4.31    0.47
   1  -7  -3    4.24    0.50
   0  -7   3    0.94    0.30
   0  -7  -3    1.24    0.32
   1  -7   3   14.83    0.77
  -1  -7  -3   12.20    0.67
   2  -7   3    7.50    0.63
  -2  -7  -3    8.77    0.57
   3  -7   3   24.89    1.09
  -3  -7  -3   25.39    0.92
   9   0  -4    5.03    0.54
  -7   0   4   11.80    0.60
  -6   0   4    1.69    0.29
   6   0  -4    2.29    0.22
  -5   0   4    6.30    0.39
   5   0  -4    6.90    0.30
   4   0  -4  194.82    2.81
  -4   0   4  194.02    3.00
   3   0  -4  111.33    1.80
   3   0  -4  113.16    1.64
   2   0  -4    2.65    0.11
   2   0  -4    2.62    0.21
   1   0  -4   22.06    0.35
   1   0  -4   22.07    0.45
   0   0  -4  193.06    2.65
   0   0  -4  185.40    3.04
  -1   0  -4  161.60    2.29
  -1   0  -4  157.14    2.60
   2   0   4  413.12    6.36
  -3   0  -4  150.65    2.33
   3   0   4  152.06    2.35
  -4   0  -4   20.46    0.62
   4   0   4   22.46    0.61
  -5   0  -4    2.33    0.28
   5   0   4    2.50    0.28
   6   0   4    2.71    0.30
  -6   0  -4    3.01    0.34
  -7   0  -4    1.76    0.32
   7   0   4    2.15    0.31
  -8   0  -4    0.56    0.27
   8   0   4    1.12    0.32
  -9   0  -4   -0.18    0.24
   9   0   4   -0.38    0.26
   9  -1  -4   21.21    0.91
   9   1  -4   19.07    0.87
   8   1  -4    8.16    0.57
  -8   1   4    8.56    0.57
   7   1  -4   26.07    0.88
  -7   1   4   26.55    0.89
   6  -1  -4   14.41    0.51
   6   1  -4   13.57    0.58
  -6   1   4   14.99    0.62
   5  -1  -4    2.36    0.23
   5   1  -4    2.78    0.29
  -5   1   4    2.56    0.28
   5   1  -4    2.18    0.18
   4  -1  -4    3.64    0.25
   4   1  -4    2.69    0.25
  -4   1   4    3.21    0.26
   4   1  -4    3.19    0.18
   3  -1  -4  132.90    2.00
   3   1  -4  129.76    2.05
  -3   1   4  131.54    2.04
   3   1  -4  127.29    1.85
   2  -1  -4  111.72    1.70
  -2  -1   4  108.59    1.56
   2  -1  -4  115.37    1.72
   2   1  -4  112.64    1.74
   1  -1  -4   17.29    0.39
  -1  -1   4   17.55    0.33
   1  -1  -4   17.09    0.36
   1   1  -4   17.56    0.41
   0  -1   4   10.24    0.28
   0  -1  -4   10.44    0.29
   0  -1  -4   10.27    0.25
   0   1  -4   10.07    0.30
  -1  -1  -4   46.01    0.81
   1  -1   4   47.25    0.82
  -1  -1  -4   46.03    0.76
  -1   1  -4   46.31    0.82
  -2  -1  -4   72.34    1.18
   2  -1   4   73.16    1.23
  -2  -1  -4   73.79    1.24
  -2   1  -4   72.03    1.24
  -3  -1  -4   60.05    1.11
   3  -1   4   59.00    1.11
  -3  -1  -4   60.39    1.09
  -3   1  -4   58.80    1.12
   4  -1   4   20.70    0.60
  -4  -1  -4   21.27    0.59
   4   1   4   20.35    0.60
  -4   1  -4   20.41    0.62
  -5  -1  -4   13.22    0.54
   5  -1   4   14.53    0.54
  -5   1  -4   14.11    0.56
   5   1   4   13.72    0.53
   6  -1   4    7.12    0.43
  -6  -1  -4    7.99    0.46
   6   1   4    8.44    0.45
  -6   1  -4    8.90    0.52
   7  -1   4    2.10    0.34
  -7  -1  -4    2.06    0.31
  -7   1  -4    1.49    0.30
   7   1   4    1.64    0.31
   8  -1   4   14.20    0.68
  -8  -1  -4   13.85    0.70
   8   1   4   13.90    0.64
  -8   1  -4   13.20    0.70
  -9  -1  -4    0.76    0.29
   9  -1   4    0.07    0.29
  -9   1  -4    0.14    0.26
  -9   2   4    6.05    0.60
   9   2  -4    5.90    0.57
  -8   2   4   37.80    1.17
   8   2  -4   38.50    1.16
   7  -2  -4    3.89    0.37
  -7   2   4    3.25    0.39
   7   2  -4    3.25    0.37
   6  -2  -4   19.41    0.65
  -6   2   4   21.24    0.72
   6   2  -4   19.37    0.70
   5  -2  -4   45.50    1.02
   5   2  -4   44.65    1.04
  -5   2   4   45.55    1.05
   5   2  -4   44.57    0.83
  -4  -2   4   89.38    1.40
   4  -2  -4   90.27    1.60
  -4   2   4   90.49    1.59
   4   2  -4   88.80    1.61
  -3  -2   4  143.28    2.11
   3  -2  -4  146.32    2.32
   3   2  -4  146.00    2.28
  -3   2   4  145.06    2.23
  -2  -2   4   23.37    0.48
   2  -2  -4   23.14    0.59
   2   2  -4   23.62    0.56
   1  -2  -4   38.24    0.78
  -1  -2   4   37.25    0.72
   1  -2  -4   38.20    0.62
   1   2  -4   37.52    0.72
   0  -2  -4   43.19    0.62
   0  -2   4   43.73    0.82
   0  -2  -4   41.88    0.84
   0   2  -4   41.95    0.78
  -1  -2  -4   20.45    0.37
  -1  -2  -4   19.49    0.50
   1  -2   4   19.97    0.53
  -1   2  -4   20.51    0.49
  -2  -2  -4   80.64    1.37
  -2  -2  -4   78.81    1.24
   2  -2   4   79.57    1.42
  -2   2  -4   80.62    1.37
  -3  -2  -4  110.98    1.84
   3  -2   4  110.56    1.91
  -3  -2  -4  112.66    1.76
  -3   2  -4  109.50    1.85
   4  -2   4   90.04    1.67
  -4  -2  -4   86.58    1.53
  -4  -2  -4   86.53    1.59
  -4   2  -4   87.35    1.62
   5  -2   4    2.20    0.29
  -5  -2  -4    1.90    0.25
  -5  -2  -4    1.74    0.27
  -5   2  -4    2.30    0.30
   6  -2   4    9.17    0.53
  -6  -2  -4    8.25    0.47
   6   2   4    8.69    0.50
  -6   2  -4    8.06    0.49
   7  -2   4    9.47    0.59
  -7  -2  -4    9.76    0.54
   7   2   4   10.64    0.54
  -7   2  -4    9.68    0.59
   8  -2   4   12.22    0.68
  -8  -2  -4   12.02    0.66
   8   2   4   12.93    0.65
  -8   2  -4   12.99    0.72
  -8   3   4    6.78    0.54
   8   3  -4    8.54    0.56
   7  -3  -4    3.86    0.41
  -7   3   4    3.50    0.41
   7   3  -4    3.56    0.40
   6  -3  -4    5.93    0.43
  -6   3   4    5.98    0.43
   6   3  -4    5.81    0.40
  -5  -3   4   12.03    0.40
   5  -3  -4   12.28    0.55
  -5   3   4   11.22    0.50
   5   3  -4   11.37    0.51
  -4  -3   4   65.48    1.15
   4  -3  -4   67.23    1.40
  -4   3   4   68.63    1.28
   4   3  -4   66.94    1.31
  -3  -3   4    6.07    0.27
   3  -3  -4    5.46    0.37
   3   3  -4    5.28    0.29
  -3   3   4    5.10    0.27
   2  -3  -4   54.79    0.91
   2  -3  -4   51.54    1.13
  -2  -3   4   55.35    1.02
   2   3  -4   53.73    1.01
   1  -3  -4   15.16    0.52
   1  -3  -4   15.32    0.27
  -1  -3   4   15.29    0.47
   1   3  -4   14.85    0.42
   0  -3   4    4.90    0.31
   0  -3  -4    4.44    0.30
   0   3  -4    4.75    0.25
   1  -3   4   38.05    0.89
  -1  -3  -4   37.52    0.85
  -1   3  -4   38.07    0.77
  -2  -3  -4   66.19    1.04
   2  -3   4   66.07    1.35
  -2  -3  -4   66.65    1.26
  -2   3  -4   66.74    1.22
   3  -3   4    9.63    0.48
  -3  -3  -4    8.61    0.32
  -3  -3  -4    9.07    0.41
  -3   3  -4    9.22    0.41
  -4  -3  -4    8.14    0.35
  -4  -3  -4    7.28    0.39
   4  -3   4    7.64    0.47
  -4   3  -4    7.24    0.40
  -5  -3  -4    6.05    0.39
  -5  -3  -4    5.50    0.35
   5  -3   4    5.33    0.46
  -5   3  -4    4.68    0.40
  -6  -3  -4    9.55    0.53
  -6  -3  -4    9.04    0.48
   6  -3   4    9.34    0.57
  -6   3  -4    9.60    0.53
  -7  -3  -4    8.40    0.52
   7  -3   4    9.58    0.63
  -7   3  -4    8.92    0.58
   7   3   4    9.54    0.57
   8  -3   4    6.67    0.62
  -8  -3  -4    6.91    0.52
   8   3   4    7.01    0.53
  -8   3  -4    7.60    0.60
   8   4  -4    5.80    0.53
  -8   4   4    5.71    0.53
   7  -4  -4    4.81    0.49
  -7   4   4    4.97    0.47
   7   4  -4    5.39    0.45
   6  -4  -4   14.55    0.69
   6   4  -4   13.71    0.61
  -6   4   4   15.63    0.63
   5  -4  -4   11.69    0.59
   5   4  -4   13.00    0.54
  -5   4   4   12.20    0.51
  -4  -4   4   77.49    1.38
   4  -4  -4   76.30    1.66
  -4   4   4   78.42    1.40
   4   4  -4   76.79    1.46
  -3  -4   4   38.34    0.86
   3  -4  -4   38.31    1.03
   3   4  -4   37.52    0.85
  -3   4   4   38.27    0.77
  -2  -4   4    1.05    0.19
   2  -4  -4    0.73    0.21
   2   4  -4    1.57    0.19
   1  -4  -4   78.07    1.58
  -1  -4   4   77.96    1.50
   1   4  -4   78.64    1.33
   0  -4   4    5.44    0.36
   0  -4  -4    5.75    0.38
   0   4  -4    5.47    0.29
   1  -4   4   14.34    0.58
  -1  -4  -4   14.95    0.56
  -1   4  -4   14.33    0.45
  -2  -4  -4   44.72    1.05
   2  -4   4   46.42    1.15
  -2   4  -4   45.98    0.95
   3  -4   4    1.44    0.27
  -3  -4  -4    1.22    0.23
  -3   4  -4    1.23    0.21
  -4  -4  -4   11.41    0.50
   4  -4   4   12.09    0.62
  -4   4  -4   12.10    0.52
  -5  -4  -4    9.18    0.49
   5  -4   4    7.61    0.55
  -5   4  -4    9.76    0.51
   6  -4   4   34.12    1.17
  -6  -4  -4   36.51    1.03
  -6   4  -4   33.82    1.04
  -7  -4  -4    0.21    0.31
   7  -4   4    0.82    0.35
  -7   4  -4    0.67    0.29
   7  -5  -4    4.06    0.50
   6  -5  -4    1.34    0.35
   5  -5  -4    6.57    0.51
  -4  -5   4   20.86    0.64
   4  -5  -4   19.67    0.81
  -3  -5   4    5.38    0.37
   3  -5  -4    4.17    0.44
   2  -5  -4    3.54    0.39
  -2  -5   4    3.55    0.34
   1  -5  -4    0.75    0.26
  -1  -5   4    0.90    0.23
   0  -5   4   21.94    0.78
   0  -5  -4   21.89    0.77
   0   5  -4   22.32    0.57
   1  -5   4   20.10    0.77
  -1  -5  -4   19.63    0.72
  -1   5  -4   20.63    0.56
  -2  -5  -4   24.63    0.80
  -2   5  -4   25.47    0.67
  -3  -5  -4   10.70    0.53
   3  -5   4   11.27    0.65
  -3   5  -4   10.37    0.45
   4  -5   4    5.90    0.51
  -4  -5  -4    7.34    0.46
  -4   5  -4    7.26    0.43
  -5  -5  -4    1.91    0.31
   5  -5   4    1.48    0.36
  -5   5  -4    1.61    0.28
   6  -5   4    8.38    0.64
  -6  -5  -4    9.72    0.59
  -6   5  -4   10.19    0.58
   5  -6  -4    6.55    0.58
   4  -6  -4    7.78    0.57
   3  -6  -4    0.25    0.24
  -3  -6   4    0.12    0.18
  -2  -6   4   12.96    0.61
   2  -6  -4   13.26    0.69
   1  -6  -4    9.15    0.57
  -1  -6   4    9.43    0.55
   0  -6  -4    3.41    0.42
   0  -6   4    3.88    0.42
   1  -6   4   13.49    0.70
  -1  -6  -4   13.05    0.64
   2  -6   4   30.96    1.07
  -2  -6  -4   26.62    0.91
   3  -6   4    1.02    0.31
  -3  -6  -4    0.94    0.26
   4  -6   4    8.48    0.64
  -4  -6  -4    8.86    0.52
  -5  -6  -4    1.91    0.33
   5  -6   4    2.14    0.44
  -3  -7   4   14.73    0.67
   3  -7  -4   13.99    0.79
  -2  -7   4    6.49    0.48
   2  -7  -4    5.79    0.58
  -1  -7   4    3.37    0.43
   1  -7  -4    4.55    0.51
   0  -7   4    7.92    0.60
   0  -7  -4    8.33    0.60
  -1  -7  -4   15.39    0.75
   1  -7   4   15.41    0.80
   2  -7   4    3.39    0.48
  -2  -7  -4    4.07    0.46
  -3  -7  -4    6.58    0.52
   3  -7   4    7.66    0.64
   9   0  -5    0.44    0.27
   8   0  -5    1.63    0.34
   7   0  -5    0.08    0.19
   6   0  -5   -0.01    0.16
   5   0  -5   11.65    0.35
   5   0  -5   11.19    0.48
   4   0  -5   63.32    1.00
   4   0  -5   61.41    1.21
   3   0  -5    4.64    0.16
   3   0  -5    4.62    0.27
   2   0  -5   31.18    0.46
   2   0  -5   30.56    0.64
   1   0  -5  171.49    2.44
   1   0  -5  164.66    2.49
   0   0  -5   14.39    0.35
   0   0  -5   14.25    0.33
  -1   0  -5    8.16    0.28
  -2   0  -5   83.17    1.37
   2   0   5   82.73    1.38
   3   0   5    0.26    0.15
  -3   0  -5    0.06    0.12
   4   0   5    2.58    0.27
  -4   0  -5    2.71    0.27
   5   0   5    2.09    0.29
  -6   0  -5   14.47    0.61
   6   0   5   13.81    0.58
   7   0   5    1.29    0.29
  -7   0  -5    1.03    0.28
   8   0   5    0.86    0.31
  -8   0  -5    0.54    0.28
  -9   0  -5    2.55    0.43
   9  -1  -5    2.32    0.40
   9   1  -5    1.56    0.35
   8  -1  -5   17.63    0.78
   8   1  -5   19.01    0.80
  -7   1   5    4.32    0.43
   7   1  -5    5.02    0.41
   6  -1  -5    3.48    0.28
  -6   1   5    3.37    0.36
   6   1  -5    4.11    0.35
   5  -1  -5    8.11    0.35
   5   1  -5    7.96    0.26
   5   1  -5    8.18    0.43
  -5   1   5    7.83    0.42
   4  -1  -5   22.54    0.53
   4   1  -5   20.92    0.39
  -4   1   5   20.74    0.61
   4   1  -5   20.80    0.61
   3  -1  -5   45.69    0.89
   3  -1  -5   45.30    0.82
   3   1  -5   44.04    0.91
   2  -1  -5   44.89    0.80
   2  -1  -5   46.33    0.84
   2   1  -5   46.33    0.87
   1  -1  -5   35.53    0.63
   1  -1  -5   36.88    0.65
  -1  -1   5   35.03    0.58
   1   1  -5   34.96    0.69
   0  -1   5  166.43    2.38
   0  -1  -5  161.74    2.40
   0  -1  -5  164.38    2.32
   0   1  -5  165.52    2.41
  -1  -1  -5  186.52    2.63
   1  -1   5  188.34    2.72
  -1  -1  -5  183.51    2.72
  -1   1  -5  183.41    2.71
  -2  -1  -5    4.73    0.24
  -2  -1  -5    4.85    0.26
   2  -1   5    4.81    0.27
  -2   1  -5    5.00    0.27
  -3  -1  -5   30.30    0.72
   3  -1   5   30.83    0.73
  -3  -1  -5   31.26    0.70
  -3   1  -5   31.72    0.75
   4  -1   5   11.43    0.45
  -4  -1  -5   10.63    0.43
  -4   1  -5   10.75    0.46
   5  -1   5   43.38    1.02
  -5  -1  -5   40.44    0.99
  -5   1  -5   42.05    1.04
   5   1   5   40.78    1.00
  -6  -1  -5    5.71    0.42
   6  -1   5    5.58    0.43
  -6   1  -5    5.52    0.42
   6   1   5    5.31    0.40
   7  -1   5    1.88    0.33
  -7  -1  -5    1.22    0.27
  -7   1  -5    1.52    0.31
   7   1   5    1.98    0.33
  -8  -1  -5   13.00    0.67
   8  -1   5   12.95    0.69
  -8   1  -5   11.28    0.67
   8   1   5   12.19    0.62
   9  -2  -5    2.63    0.42
   9   2  -5    3.53    0.46
   8   2  -5    2.30    0.37
  -7   2   5    4.94    0.42
   7   2  -5    4.37    0.43
   6  -2  -5   17.50    0.61
  -6   2   5   17.75    0.67
   6   2  -5   17.44    0.68
   5  -2  -5   87.34    1.61
  -5   2   5   89.81    1.67
   5   2  -5   86.46    1.68
  -4  -2   5   32.97    0.60
   4  -2  -5   34.83    0.80
   4   2  -5   32.15    0.81
  -4   2   5   32.97    0.80
   3  -2  -5   18.57    0.53
   3  -2  -5   16.62    0.47
  -3  -2   5   17.55    0.36
   3   2  -5   18.08    0.53
  -2  -2   5  246.43    3.50
   2  -2  -5  245.03    3.66
   2  -2  -5  249.28    3.48
   2   2  -5  244.19    3.58
   1  -2  -5   11.73    0.28
  -1  -2   5   11.93    0.34
   1  -2  -5   11.76    0.40
   1   2  -5   12.12    0.37
   0  -2   5   22.49    0.54
   0  -2  -5   21.89    0.55
   0  -2  -5   22.36    0.39
   0   2  -5   22.57    0.52
  -1  -2  -5    1.86    0.18
   1  -2   5    2.21    0.21
  -1  -2  -5    2.52    0.14
  -1   2  -5    2.55    0.21
  -2  -2  -5   63.80    1.18
  -2  -2  -5   65.17    1.06
   2  -2   5   64.05    1.23
  -2   2  -5   66.03    1.20
  -3  -2  -5   20.89    0.52
   3  -2   5   19.70    0.62
  -3  -2  -5   21.59    0.59
  -3   2  -5   21.72    0.62
  -4  -2  -5   10.59    0.47
  -4  -2  -5    9.86    0.41
   4  -2   5   11.62    0.50
  -4   2  -5   10.24    0.46
  -5  -2  -5    7.69    0.40
  -5  -2  -5    8.00    0.44
   5  -2   5    8.59    0.50
  -5   2  -5    8.35    0.46
  -6  -2  -5   14.20    0.60
   6  -2   5   14.31    0.64
  -6   2  -5   14.53    0.64
   6   2   5   15.33    0.64
  -7  -2  -5    0.45    0.23
   7  -2   5    0.62    0.27
   7   2   5    0.51    0.27
  -7   2  -5    1.08    0.29
   8  -2   5    0.82    0.33
  -8  -2  -5    0.60    0.27
   8   2   5    0.93    0.30
  -8   2  -5    0.93    0.30
   8   3  -5    4.91    0.49
   7  -3  -5    2.77    0.36
   7   3  -5    1.92    0.33
  -7   3   5    2.34    0.35
   6  -3  -5   11.14    0.54
   6   3  -5    9.44    0.51
  -6   3   5    9.96    0.52
   5  -3  -5   17.50    0.65
  -5   3   5   20.43    0.65
   5   3  -5   19.70    0.66
  -4  -3   5   52.86    0.94
   4  -3  -5   52.54    1.18
  -4   3   5   54.52    1.08
   4   3  -5   52.05    1.12
   3  -3  -5   72.61    1.24
   3  -3  -5   70.68    1.42
  -3  -3   5   73.33    1.23
   3   3  -5   71.47    1.33
   2  -3  -5    6.30    0.24
  -2  -3   5    6.53    0.29
   2  -3  -5    6.98    0.37
   2   3  -5    6.13    0.32
  -1  -3   5    8.30    0.35
   1  -3  -5    8.06    0.19
   1  -3  -5    7.61    0.38
   1   3  -5    8.44    0.33
   0  -3   5   24.74    0.65
   0  -3  -5   23.67    0.65
   0   3  -5   23.00    0.57
  -1  -3  -5   44.22    0.95
   1  -3   5   43.39    0.98
  -1   3  -5   44.17    0.89
  -2  -3  -5   24.69    0.67
  -2  -3  -5   24.44    0.48
   2  -3   5   25.28    0.73
  -2   3  -5   24.79    0.65
   3  -3   5    4.06    0.38
  -3  -3  -5    3.93    0.23
  -3  -3  -5    3.51    0.29
  -3   3  -5    3.89    0.32
  -4  -3  -5    0.95    0.17
  -4  -3  -5    1.16    0.22
   4  -3   5    1.53    0.29
  -4   3  -5    0.76    0.20
  -5  -3  -5   17.87    0.58
  -5  -3  -5   16.73    0.65
   5  -3   5   17.76    0.74
  -5   3  -5   17.27    0.67
  -6  -3  -5   17.30    0.64
  -6  -3  -5   16.80    0.68
   6  -3   5   17.58    0.78
  -6   3  -5   18.47    0.74
   7  -3   5    2.98    0.44
  -7  -3  -5    2.74    0.37
  -7   3  -5    2.90    0.41
   7   3   5    2.58    0.39
   8  -3   5   14.36    0.81
  -8  -3  -5   16.04    0.74
   8   3   5   15.36    0.73
  -8   3  -5   14.44    0.77
   7  -4  -5    1.70    0.34
   7   4  -5    1.75    0.31
   6  -4  -5    4.83    0.46
  -6   4   5    5.02    0.40
   6   4  -5    4.99    0.41
   5  -4  -5   15.52    0.68
   5   4  -5   14.94    0.59
  -5   4   5   14.34    0.55
   4  -4  -5    4.59    0.30
  -4  -4   5    4.56    0.28
   4  -4  -5    3.84    0.39
   4   4  -5    4.32    0.34
   3  -4  -5    0.25    0.12
  -3  -4   5    0.40    0.15
   3  -4  -5    0.23    0.18
   3   4  -5    0.16    0.15
  -2  -4   5    1.89    0.23
   2  -4  -5    1.74    0.27
   2   4  -5    1.73    0.21
   1  -4  -5   83.20    1.65
  -1  -4   5   81.55    1.56
   1   4  -5   82.69    1.43
   0  -4  -5   15.82    0.59
   0  -4   5   17.13    0.61
   0   4  -5   17.42    0.51
   1  -4   5  111.11    2.05
  -1  -4  -5  108.37    1.99
  -1   4  -5  109.86    1.82
  -2  -4  -5   31.71    0.85
   2  -4   5   32.85    0.95
  -2   4  -5   32.76    0.79
  -3  -4  -5   19.40    0.65
   3  -4   5   19.71    0.75
  -3   4  -5   19.86    0.63
   4  -4   5   20.19    0.81
  -4  -4  -5   20.27    0.70
  -4   4  -5   20.30    0.69
  -5  -4  -5   16.82    0.68
   5  -4   5   17.57    0.79
  -5   4  -5   16.50    0.68
  -6  -4  -5   18.53    0.75
   6  -4   5   17.18    0.83
  -6   4  -5   18.65    0.75
  -7  -4  -5   16.38    0.78
   7  -4   5   16.47    0.85
  -7   4  -5   17.61    0.80
   7  -5  -5   13.75    0.75
   6  -5  -5    0.36    0.28
   5  -5  -5    7.74    0.54
   4  -5  -5   80.69    1.84
  -4  -5   5   80.34    1.52
   4   5  -5   83.95    1.58
  -3  -5   5   25.20    0.73
   3  -5  -5   25.13    0.89
   3   5  -5   25.27    0.70
   2  -5  -5    4.13    0.41
  -2  -5   5    4.30    0.35
   2   5  -5    4.39    0.31
  -1  -5   5    0.99    0.23
   1  -5  -5    0.94    0.25
   1   5  -5    1.03    0.19
   0  -5  -5    7.79    0.49
   0  -5   5    6.10    0.43
   0   5  -5    6.94    0.35
  -1  -5  -5    9.85    0.53
   1  -5   5   11.57    0.58
  -1   5  -5   10.64    0.43
  -2  -5  -5   53.17    1.26
   2  -5   5   52.83    1.37
  -2   5  -5   52.35    1.11
  -3  -5  -5    3.99    0.38
   3  -5   5    4.33    0.47
  -3   5  -5    4.45    0.34
  -4  -5  -5    0.53    0.22
   4  -5   5    0.67    0.29
  -4   5  -5    0.79    0.23
   5  -5   5    0.39    0.30
  -5  -5  -5    0.22    0.23
  -5   5  -5    0.35    0.23
  -6  -5  -5   14.87    0.70
   6  -5   5   14.36    0.83
  -6   5  -5   13.55    0.67
   5  -6  -5    6.46    0.57
   4  -6  -5    9.05    0.63
   3  -6  -5    1.11    0.31
  -3  -6   5    1.80    0.28
   2  -6  -5   11.51    0.66
  -2  -6   5   10.06    0.54
  -1  -6   5    3.91    0.42
   1  -6  -5    3.35    0.41
   0  -6   5    1.45    0.31
   0  -6  -5    1.29    0.29
  -1  -6  -5    3.28    0.39
   1  -6   5    3.43    0.45
   2  -6   5    5.05    0.52
  -2  -6  -5    5.74    0.46
  -3  -6  -5    7.83    0.50
   3  -6   5    6.79    0.57
  -4  -6  -5    2.71    0.37
   4  -6   5    2.94    0.47
   5  -6   5    8.85    0.68
  -5  -6  -5    8.54    0.57
   3  -7  -5    7.85    0.61
  -2  -7   5    0.88    0.27
   2  -7  -5    1.07    0.32
   1  -7  -5    6.78    0.55
  -1  -7   5    7.28    0.54
   0  -7   5   21.66    0.91
   0  -7  -5   22.39    0.92
  -1  -7  -5   12.60    0.70
   1  -7   5   12.47    0.72
   2  -7   5   16.92    0.88
  -2  -7  -5   16.41    0.77
  -3  -7  -5   11.37    0.65
   3  -7   5   10.94    0.76
   9   0  -6    0.32    0.27
   8   0  -6    1.66    0.34
   7   0  -6    0.60    0.23
   6   0  -6    0.97    0.23
   5   0  -6   14.27    0.54
   5   0  -6   14.78    0.37
   4   0  -6    0.32    0.15
   4   0  -6    0.15    0.08
   3   0  -6   15.64    0.27
   3   0  -6   15.14    0.47
   2   0  -6    7.92    0.31
   2   0  -6    7.54    0.15
   1   0  -6    3.55    0.15
   1   0  -6    3.86    0.23
   0   0  -6    4.89    0.22
   0   0  -6    4.80    0.23
   1   0   6  114.16    1.77
  -1   0  -6  113.55    1.75
   2   0   6    1.79    0.21
  -2   0  -6    1.72    0.19
   3   0   6    4.29    0.30
  -3   0  -6    4.59    0.29
   4   0   6   -0.04    0.17
  -4   0  -6    0.08    0.14
  -5   0  -6    1.57    0.26
   5   0   6    1.76    0.28
  -6   0  -6    2.24    0.31
   6   0   6    2.46    0.32
   7   0   6    4.66    0.41
  -7   0  -6    4.23    0.43
   8   0   6    0.69    0.31
  -8   0  -6    0.91    0.30
   9  -1  -6    4.38    0.50
   9   1  -6    4.58    0.51
   8  -1  -6   15.64    0.73
   8   1  -6   14.23    0.71
   7  -1  -6    0.36    0.22
   7   1  -6    0.10    0.19
   6  -1  -6    3.43    0.35
   6   1  -6    3.33    0.34
   5  -1  -6   56.37    1.03
   5  -1  -6   52.73    1.18
   5   1  -6   55.69    1.21
   4  -1  -6   30.53    0.76
   4  -1  -6   32.15    0.66
   3  -1  -6   64.46    1.17
   3  -1  -6   66.29    1.09
   3   1  -6   62.60    1.20
   2  -1  -6   53.65    0.96
   2  -1  -6   54.19    0.91
   2   1  -6   53.01    1.00
  -1  -1   6   11.23    0.27
   1  -1  -6   11.19    0.31
   1  -1  -6   11.73    0.32
   1   1  -6   11.27    0.37
   0  -1  -6  181.96    2.64
   0  -1  -6  181.85    2.57
   0  -1   6  179.51    2.71
   0   1  -6  179.08    2.66
  -1  -1  -6  124.39    1.84
   1  -1   6  124.57    1.90
  -1  -1  -6  120.26    1.91
  -1   1  -6  124.41    1.92
  -2  -1  -6   25.41    0.62
   2  -1   6   26.67    0.62
  -2  -1  -6   26.24    0.58
  -2   1  -6   26.96    0.64
   3  -1   6   29.08    0.71
  -3  -1  -6   29.04    0.71
  -3  -1  -6   28.90    0.68
  -3   1  -6   28.90    0.73
  -4  -1  -6   19.85    0.60
   4  -1   6   19.97    0.62
   4   1   6   21.24    0.65
  -4   1  -6   20.85    0.65
   5  -1   6   15.10    0.58
  -5  -1  -6   15.60    0.57
  -5   1  -6   14.39    0.61
   5   1   6   15.81    0.61
   6  -1   6    0.39    0.22
  -6  -1  -6    0.15    0.18
   6   1   6    0.69    0.24
  -6   1  -6    0.49    0.22
   7  -1   6    5.74    0.50
  -7  -1  -6    5.72    0.46
  -7   1  -6    6.24    0.50
   7   1   6    5.29    0.47
  -8  -1  -6    3.93    0.46
   8  -1   6    3.39    0.44
  -8   1  -6    2.88    0.43
   8   1   6    2.90    0.40
   8  -2  -6    3.55    0.43
   8   2  -6    3.40    0.43
   7  -2  -6    2.75    0.35
   7   2  -6    2.98    0.38
   6  -2  -6    3.71    0.32
   6  -2  -6    3.74    0.36
   6   2  -6    2.79    0.33
   5  -2  -6    4.73    0.33
   5  -2  -6    4.12    0.33
   5   2  -6    4.85    0.37
   4  -2  -6    8.09    0.36
   4  -2  -6    8.20    0.38
   4   2  -6    6.97    0.38
   3  -2  -6   31.91    0.72
  -3  -2   6   30.39    0.52
   3  -2  -6   30.73    0.69
   3   2  -6   30.66    0.76
   2  -2  -6   92.25    1.44
   2  -2  -6   91.33    1.55
  -2  -2   6   92.01    1.40
   2   2  -6   88.53    1.54
   1  -2  -6   17.52    0.49
   1  -2  -6   17.54    0.38
  -1  -2   6   17.04    0.42
   1   2  -6   17.14    0.48
   0  -2   6  123.27    1.93
   0  -2  -6  120.44    1.95
   0  -2  -6  122.69    1.75
   0   2  -6  122.76    1.92
   1  -2   6  117.15    1.90
  -1  -2  -6  115.39    1.88
  -1  -2  -6  117.13    1.71
  -1   2  -6  116.85    1.87
   2  -2   6   52.63    1.06
  -2  -2  -6   53.22    0.91
  -2  -2  -6   52.59    1.03
  -2   2  -6   50.84    1.03
   3  -2   6    9.51    0.44
  -3  -2  -6    9.27    0.35
  -3  -2  -6    9.55    0.42
  -3   2  -6    9.04    0.41
  -4  -2  -6   12.85    0.46
  -4  -2  -6   13.15    0.53
   4  -2   6   12.91    0.55
  -4   2  -6   13.58    0.55
   5  -2   6   24.24    0.79
  -5  -2  -6   24.52    0.73
  -5  -2  -6   25.48    0.77
  -5   2  -6   24.78    0.80
   6  -2   6   21.30    0.79
  -6  -2  -6   20.73    0.72
   6   2   6   21.50    0.76
  -6   2  -6   21.12    0.79
   7  -2   6    4.14    0.45
  -7  -2  -6    3.93    0.40
   7   2   6    3.72    0.42
  -7   2  -6    2.87    0.39
   8  -2   6    0.88    0.34
  -8  -2  -6    1.24    0.31
   8   2   6    1.35    0.36
  -8   2  -6    1.17    0.33
   8  -3  -6    1.97    0.35
   8   3  -6    1.80    0.36
   7  -3  -6    3.39    0.39
   7   3  -6    3.67    0.41
   6  -3  -6    5.55    0.40
   6  -3  -6    5.59    0.42
   6   3  -6    4.90    0.40
   5  -3  -6   43.22    1.06
   5  -3  -6   44.40    1.02
   5   3  -6   42.89    1.07
  -4  -3   6   41.57    0.75
   4  -3  -6   39.82    0.89
   4  -3  -6   41.77    1.00
   4   3  -6   41.21    0.98
   3  -3  -6   39.37    0.94
   3  -3  -6   39.10    0.79
  -3  -3   6   39.76    0.75
   3   3  -6   37.96    0.89
   2  -3  -6   33.72    0.63
  -2  -3   6   31.97    0.70
   2  -3  -6   31.00    0.81
   2   3  -6   33.22    0.77
  -1  -3   6    5.28    0.30
   1  -3  -6    5.11    0.17
   1  -3  -6    4.98    0.31
   1   3  -6    4.37    0.29
   0  -3  -6  102.36    1.80
   0  -3   6  102.22    1.77
   0   3  -6  103.67    1.70
   1  -3   6   44.57    1.00
  -1  -3  -6   42.91    0.95
  -1  -3  -6   42.95    0.67
  -1   3  -6   43.20    0.91
  -2  -3  -6    7.47    0.37
  -2  -3  -6    7.20    0.25
   2  -3   6    7.80    0.43
  -2   3  -6    7.13    0.36
  -3  -3  -6   17.83    0.59
   3  -3   6   17.92    0.66
  -3  -3  -6   19.35    0.49
  -3   3  -6   19.08    0.62
  -4  -3  -6    7.16    0.43
  -4  -3  -6    6.68    0.34
   4  -3   6    6.21    0.44
  -4   3  -6    7.29    0.42
   5  -3   6    2.71    0.37
  -5  -3  -6    2.88    0.34
  -5  -3  -6    3.46    0.30
  -5   3  -6    4.07    0.40
  -6  -3  -6    3.56    0.39
   6  -3   6    4.11    0.46
  -6  -3  -6    3.86    0.36
  -6   3  -6    4.46    0.44
   7  -3   6   15.75    0.80
  -7  -3  -6   17.19    0.70
   7   3   6   14.29    0.69
  -7   3  -6   17.43    0.78
  -8  -3  -6    1.83    0.35
   8  -3   6    2.59    0.46
   8   3   6    2.63    0.41
  -8   3  -6    2.14    0.41
   7  -4  -6   13.60    0.62
   7   4  -6   11.88    0.63
   6  -4  -6   25.51    0.79
   6  -4  -6   26.16    0.90
   6   4  -6   25.67    0.85
   5  -4  -6    3.41    0.29
   5  -4  -6    3.16    0.37
   5   4  -6    2.48    0.31
   4  -4  -6   19.38    0.55
   4  -4  -6   17.22    0.69
   4   4  -6   18.41    0.63
  -3  -4   6   69.13    1.27
   3  -4  -6   66.44    1.46
   3   4  -6   67.65    1.34
  -2  -4   6    0.71    0.18
   2  -4  -6    0.46    0.20
   2   4  -6    0.61    0.17
   1  -4  -6   27.00    0.80
  -1  -4   6   25.54    0.72
   1   4  -6   25.31    0.66
   0  -4   6   60.88    1.30
   0  -4  -6   62.00    1.33
   0   4  -6   62.32    1.18
  -1  -4  -6   29.94    0.84
   1  -4   6   30.73    0.87
  -1   4  -6   29.13    0.74
   2  -4   6   64.53    1.45
  -2  -4  -6   65.24    1.36
  -2   4  -6   62.94    1.26
   3  -4   6   46.37    1.22
  -3  -4  -6   46.84    1.11
  -3   4  -6   45.51    1.07
   4  -4   6    5.37    0.47
  -4  -4  -6    6.03    0.41
  -4   4  -6    5.81    0.41
   5  -4   6    4.70    0.51
  -5  -4  -6    5.01    0.44
  -5   4  -6    4.91    0.41
  -6  -4  -6   12.33    0.64
   6  -4   6   11.27    0.71
  -6   4  -6   10.94    0.60
   7  -4   6    5.81    0.61
  -7   4  -6    4.52    0.50
   6  -5  -6    2.87    0.41
   5  -5  -6    7.90    0.56
   5   5  -6    9.03    0.49
   4  -5  -6   34.15    1.07
   4   5  -6   34.59    0.92
   3  -5  -6   18.51    0.76
  -3  -5   6   18.75    0.61
   3   5  -6   18.87    0.61
   2  -5  -6    6.28    0.48
  -2  -5   6    7.28    0.42
   2   5  -6    7.66    0.40
  -1  -5   6    9.47    0.50
   1  -5  -6    9.20    0.53
   1   5  -6    8.96    0.41
   0  -5   6   64.45    1.47
   0  -5  -6   64.31    1.48
   0   5  -6   65.53    1.25
  -1  -5  -6   46.75    1.18
   1  -5   6   44.84    1.21
  -1   5  -6   45.81    1.00
   2  -5   6    1.06    0.29
  -2  -5  -6    0.96    0.24
  -2   5  -6    1.24    0.23
   3  -5   6    9.11    0.60
  -3   5  -6    9.05    0.46
  -4  -5  -6    3.61    0.39
   4  -5   6    3.87    0.49
  -4   5  -6    3.33    0.36
   5  -5   6    4.94    0.55
  -5  -5  -6    4.19    0.44
  -5   5  -6    4.60    0.45
  -6  -5  -6    5.37    0.53
   6  -5   6    5.06    0.60
  -6   5  -6    5.18    0.49
   5  -6  -6    9.53    0.65
   4  -6  -6    1.26    0.33
   3  -6  -6   26.16    1.00
  -3  -6   6   26.01    0.81
   2  -6  -6    3.63    0.43
  -2  -6   6    3.18    0.36
  -1  -6   6    2.35    0.34
   1  -6  -6    1.84    0.33
   0  -6   6    1.57    0.33
   0  -6  -6    1.16    0.29
   1  -6   6    9.51    0.59
  -1  -6  -6    9.96    0.57
   2  -6   6   14.76    0.78
  -2  -6  -6   15.36    0.68
  -3  -6  -6    4.10    0.43
   3  -6   6    3.95    0.52
   4  -6   6    1.21    0.38
  -4  -6  -6    1.54    0.31
   5  -6   6    5.23    0.62
  -5  -6  -6    5.72    0.51
   3  -7  -6    2.45    0.42
   2  -7  -6    2.65    0.42
  -2  -7   6    3.38    0.41
  -1  -7   6   10.56    0.63
   1  -7  -6   10.13    0.64
   0  -7   6    2.18    0.38
   0  -7  -6    1.42    0.33
   1  -7   6   25.10    1.03
  -1  -7  -6   25.93    0.97
  -2  -7  -6    2.93    0.41
   2  -7   6    3.03    0.47
   3  -7   6   17.46    0.94
  -3  -7  -6   18.36    0.81
   9   0  -7    2.29    0.40
   8   0  -7    7.90    0.56
   7   0  -7   -0.10    0.19
   6   0  -7   -0.05    0.17
   5   0  -7    3.98    0.33
   4   0  -7   56.43    1.17
   3   0  -7    0.00    0.13
   2   0  -7    2.87    0.11
   2   0  -7    2.93    0.23
   1   0  -7    4.42    0.24
   1   0  -7    4.38    0.18
   0   0  -7  196.19    3.20
   0   0  -7  210.97    2.97
   1   0   7    2.43    0.21
  -1   0  -7    2.74    0.21
  -2   0  -7   15.39    0.47
   2   0   7   15.20    0.47
   3   0   7   23.27    0.64
  -3   0  -7   23.51    0.64
   4   0   7   54.05    1.14
  -4   0  -7   51.14    1.12
   5   0   7    2.28    0.30
  -5   0  -7    1.95    0.28
   6   0   7    4.14    0.40
  -6   0  -7    4.42    0.42
  -7   0  -7    0.27    0.22
   7   0   7   -0.10    0.23
   8   0   7    1.93    0.37
  -8   0  -7    2.00    0.37
   9  -1  -7    3.89    0.48
   9   1  -7    3.69    0.49
   8  -1  -7   12.38    0.66
   8   1  -7   12.77    0.68
   7  -1  -7    1.10    0.28
   7   1  -7    0.73    0.26
   6  -1  -7    2.48    0.30
   6   1  -7    2.59    0.32
   5  -1  -7   18.49    0.63
   5  -1  -7   19.92    0.50
   5   1  -7   19.71    0.67
   4  -1  -7   28.31    0.59
   4  -1  -7   27.05    0.72
   4   1  -7   27.95    0.76
   3  -1  -7   32.01    0.61
   3  -1  -7   31.94    0.73
   3   1  -7   29.12    0.74
   2  -1  -7  138.36    2.05
   2  -1  -7  138.63    2.11
   2   1  -7  135.87    2.17
   1  -1  -7  138.41    2.06
   1  -1  -7  138.44    2.05
  -1  -1   7  136.82    1.99
   1   1  -7  137.57    2.14
   0  -1  -7   87.77    1.40
   0  -1   7   87.14    1.37
   0  -1  -7   88.17    1.38
   0   1  -7   88.00    1.46
  -1  -1  -7    1.46    0.15
  -1  -1  -7    1.59    0.18
   1  -1   7    1.93    0.19
  -1   1  -7    1.67    0.19
  -2  -1  -7   44.44    0.91
  -2  -1  -7   45.01    0.86
  -2   1  -7   43.12    0.91
   3  -1   7    5.89    0.34
  -3  -1  -7    6.07    0.35
  -3  -1  -7    6.04    0.31
  -3   1  -7    6.10    0.35
   4  -1   7   16.08    0.57
  -4  -1  -7   17.25    0.57
   4   1   7   16.38    0.59
  -4   1  -7   17.42    0.62
   5  -1   7   53.62    1.21
  -5  -1  -7   54.61    1.21
  -5   1  -7   54.51    1.27
   5   1   7   52.97    1.22
  -6  -1  -7    2.14    0.31
   6  -1   7    2.37    0.34
  -6   1  -7    3.12    0.38
   6   1   7    3.02    0.37
   7  -1   7    7.46    0.51
  -7  -1  -7    7.65    0.50
   7   1   7    7.26    0.50
  -7   1  -7    6.37    0.50
  -8  -1  -7   14.62    0.74
   8  -1   7   15.39    0.77
   8   1   7   15.77    0.73
  -8   1  -7   14.61    0.76
   8  -2  -7    6.47    0.51
   8   2  -7    6.11    0.50
   7  -2  -7    5.54    0.43
   7   2  -7    5.88    0.46
   6  -2  -7    4.49    0.37
   6   2  -7    4.42    0.42
   5  -2  -7    7.74    0.41
   5  -2  -7    7.81    0.38
   5   2  -7    7.60    0.45
   4  -2  -7   20.71    0.60
   4  -2  -7   21.17    0.59
   4   2  -7   19.56    0.64
   3  -2  -7    5.96    0.30
   3  -2  -7    5.57    0.30
  -3  -2   7    6.07    0.16
   3   2  -7    5.73    0.33
   2  -2  -7   51.20    1.00
   2  -2  -7   52.32    0.94
  -2  -2   7   52.03    0.87
   2   2  -7   51.59    1.04
  -1  -2   7   75.35    1.26
   1  -2  -7   76.56    1.20
   1  -2  -7   77.54    1.34
   0  -2  -7   50.62    0.96
   0  -2   7   50.59    0.95
   0  -2  -7   50.05    0.83
   0   2  -7   49.44    0.98
  -1  -2  -7   72.73    1.16
   1  -2   7   73.16    1.31
  -1  -2  -7   71.43    1.29
  -1   2  -7   74.09    1.32
   2  -2   7   53.57    1.09
  -2  -2  -7   52.51    1.06
  -2  -2  -7   52.58    0.94
  -2   2  -7   51.91    1.07
  -3  -2  -7    6.85    0.39
  -3  -2  -7    6.60    0.32
   3  -2   7    6.87    0.40
  -3   2  -7    6.56    0.38
  -4  -2  -7   11.05    0.43
   4  -2   7   11.39    0.53
  -4  -2  -7   10.79    0.51
  -4   2  -7   11.71    0.52
  -5  -2  -7    2.35    0.32
   5  -2   7    2.00    0.31
  -5  -2  -7    2.88    0.30
  -5   2  -7    2.49    0.32
   6  -2   7    5.12    0.45
  -6  -2  -7    5.13    0.39
  -6   2  -7    5.20    0.44
   6   2   7    5.11    0.46
   7  -2   7    2.63    0.40
  -7  -2  -7    2.83    0.37
   7   2   7    3.04    0.41
  -7   2  -7    2.81    0.40
  -8  -2  -7    0.92    0.30
   8  -2   7    0.58    0.31
   8   2   7    0.62    0.32
  -8   2  -7    0.49    0.28
   8  -3  -7    0.66    0.27
   8   3  -7    1.05    0.30
   7  -3  -7    2.15    0.33
   7   3  -7    2.00    0.34
   6  -3  -7   23.23    0.75
   6  -3  -7   21.04    0.72
   6   3  -7   20.73    0.76
   5  -3  -7    5.37    0.38
   5  -3  -7    5.79    0.36
   5   3  -7    4.36    0.36
   4  -3  -7    5.39    0.33
   4  -3  -7    5.34    0.37
   4   3  -7    5.62    0.36
   3  -3  -7    1.84    0.20
   3  -3  -7    1.74    0.25
  -3  -3   7    1.92    0.17
   3   3  -7    2.03    0.25
   2  -3  -7    1.01    0.20
   2  -3  -7    1.11    0.14
  -2  -3   7    1.16    0.16
   2   3  -7    1.14    0.20
  -1  -3   7   13.39    0.44
   1  -3  -7   12.63    0.30
   1  -3  -7   12.77    0.49
   1   3  -7   12.40    0.46
   0  -3   7  117.20    2.02
   0  -3  -7  124.67    1.70
   0  -3  -7  120.63    2.06
   0   3  -7  121.17    1.99
   1  -3   7   45.22    1.03
  -1  -3  -7   45.80    0.99
  -1  -3  -7   44.72    0.73
  -1   3  -7   46.91    0.98
   2  -3   7    4.31    0.37
  -2  -3  -7    3.41    0.29
  -2  -3  -7    3.62    0.20
  -2   3  -7    3.51    0.31
  -3  -3  -7    0.38    0.17
  -3  -3  -7    0.24    0.12
   3  -3   7    0.28    0.21
  -3   3  -7    0.31    0.17
  -4  -3  -7    0.95    0.23
   4  -3   7    0.91    0.26
  -4  -3  -7    1.33    0.20
  -4   3  -7    1.19    0.24
  -5  -3  -7   11.93    0.57
  -5  -3  -7   14.20    0.53
   5  -3   7   13.29    0.66
  -5   3  -7   13.51    0.63
  -6  -3  -7   12.32    0.62
   6  -3   7   11.60    0.65
  -6  -3  -7   11.91    0.55
  -6   3  -7   11.99    0.63
  -7  -3  -7    2.92    0.37
   7  -3   7    2.45    0.43
  -7   3  -7    2.69    0.40
   7   3   7    2.67    0.41
   7  -4  -7    1.87    0.31
   7   4  -7    1.88    0.34
   6  -4  -7   14.48    0.59
   6  -4  -7   15.25    0.68
   6   4  -7   15.31    0.66
   5  -4  -7    1.32    0.28
   5  -4  -7    1.59    0.24
   5   4  -7    1.28    0.27
   4  -4  -7    2.83    0.34
   4   4  -7    3.29    0.34
  -3  -4   7   74.29    1.32
   3  -4  -7   68.82    1.52
   3   4  -7   73.23    1.43
  -2  -4   7    2.21    0.24
   2  -4  -7    1.89    0.27
   2   4  -7    2.87    0.28
  -1  -4   7   25.06    0.72
   1   4  -7   26.60    0.69
   0  -4   7   17.55    0.62
   0   4  -7   16.43    0.55
   1  -4   7   14.64    0.60
  -1  -4  -7   15.50    0.58
  -1   4  -7   15.06    0.52
  -2  -4  -7   22.18    0.70
   2  -4   7   21.29    0.76
  -2   4  -7   21.79    0.66
  -3  -4  -7   19.30    0.67
   3  -4   7   17.93    0.74
  -3   4  -7   18.25    0.65
  -4  -4  -7    9.24    0.50
   4  -4   7    8.32    0.55
  -4   4  -7    8.70    0.50
   5  -4   7   11.79    0.67
  -5  -4  -7   12.29    0.62
  -5   4  -7   10.83    0.59
   6  -4   7   14.49    0.80
  -6  -4  -7   13.71    0.68
  -6   4  -7   14.59    0.71
   7  -4   7   11.44    0.75
   7   4   7   10.79    0.67
  -7   4  -7   12.20    0.68
   6  -5  -7   11.56    0.65
   5  -5  -7   14.30    0.71
   5   5  -7   16.66    0.67
   4  -5  -7    5.55    0.48
   4   5  -7    5.27    0.41
  -3  -5   7   11.24    0.47
   3  -5  -7   10.28    0.59
   3   5  -7   12.24    0.51
   2  -5  -7    9.27    0.54
  -2  -5   7   10.66    0.50
   2   5  -7   11.13    0.49
   1  -5  -7    7.97    0.49
  -1  -5   7    7.88    0.46
   1   5  -7    6.87    0.39
   0  -5   7   60.26    1.40
   0  -5  -7   60.17    1.41
   0   5  -7   59.72    1.22
  -1  -5  -7    9.63    0.53
   1  -5   7    9.16    0.54
  -1   5  -7   10.37    0.47
  -2  -5  -7    7.34    0.46
   2  -5   7    7.66    0.54
  -2   5  -7    7.89    0.43
   3  -5   7    5.79    0.51
  -3  -5  -7    7.08    0.45
  -3   5  -7    7.41    0.44
   4  -5   7    0.94    0.32
  -4  -5  -7    0.99    0.27
  -4   5  -7    0.99    0.26
   5  -5   7    8.86    0.65
  -5  -5  -7    8.02    0.54
  -5   5  -7    7.01    0.51
  -6  -5  -7   15.85    0.76
   6  -5   7   17.03    0.92
  -6   5  -7   16.05    0.75
   5  -6  -7    5.61    0.57
   4  -6  -7   33.80    1.14
   3  -6  -7    4.53    0.49
   2  -6  -7    4.59    0.49
  -2  -6   7    4.51    0.39
  -1  -6   7    0.96    0.27
   1  -6  -7    1.04    0.29
   0  -6   7    2.78    0.37
   0  -6  -7    3.94    0.42
  -1  -6  -7    8.95    0.54
   1  -6   7    8.08    0.58
   2  -6   7   15.77    0.80
  -2  -6  -7   15.92    0.72
  -3  -6  -7    7.08    0.52
   3  -6   7    6.16    0.61
  -4  -6  -7    5.45    0.47
   4  -6   7    5.27    0.59
  -5  -6  -7    2.30    0.39
   3  -7  -7    0.29    0.30
   2  -7  -7    1.65    0.36
  -1  -7   7   12.89    0.69
   1  -7  -7   12.44    0.71
   0  -7   7    7.82    0.56
   0  -7  -7    8.07    0.59
  -1  -7  -7    1.38    0.32
   1  -7   7    1.67    0.39
  -2  -7  -7    2.96    0.40
   2  -7   7    2.29    0.44
   9   0  -8    1.58    0.37
   8   0  -8    0.61    0.27
   6   0  -8    1.44    0.27
   5   0  -8    0.24    0.18
   4   0  -8    4.25    0.32
   3   0  -8   16.17    0.52
   2   0  -8    9.11    0.22
   2   0  -8    9.79    0.37
   1   0  -8    7.60    0.32
   1   0  -8    7.52    0.24
   0   0  -8    1.18    0.16
   0   0  -8    1.50    0.16
   1   0   8   27.38    0.64
  -1   0  -8   27.93    0.64
  -2   0  -8   43.97    0.91
   2   0   8   44.46    0.92
  -3   0  -8   27.15    0.71
   3   0   8   25.71    0.70
   4   0   8    2.55    0.29
  -4   0  -8    2.12    0.27
   5   0   8  116.83    2.12
  -5   0  -8  111.84    2.10
  -6   0  -8   27.10    0.89
   6   0   8   28.98    0.89
  -7   0  -8    0.09    0.21
   7   0   8    0.20    0.26
  -8   0  -8   -0.07    0.25
   8   0   8   -0.22    0.26
   8  -1  -8    3.71    0.44
   8   1  -8    3.55    0.45
   7  -1  -8    3.75    0.41
   7   1  -8    4.47    0.44
   6  -1  -8    7.55    0.45
   5  -1  -8   47.54    1.11
   5   1  -8   46.81    1.13
   4  -1  -8   19.15    0.60
   4  -1  -8   19.15    0.45
   4   1  -8   17.88    0.61
   3  -1  -8    9.66    0.40
   3  -1  -8    9.76    0.29
   3   1  -8    9.77    0.42
   2  -1  -8   61.76    1.02
   2  -1  -8   62.97    1.12
   2   1  -8   60.60    1.17
  -1  -1   8  223.29    3.24
   1  -1  -8  224.06    3.24
   1  -1  -8  226.26    3.23
   1   1  -8  222.01    3.32
   0  -1  -8   24.46    0.54
   0  -1  -8   23.69    0.54
   0  -1   8   24.08    0.52
   0   1  -8   22.66    0.59
  -1  -1  -8  133.66    2.16
   1  -1   8  140.26    2.14
  -1  -1  -8  137.29    2.10
  -1   1  -8  139.30    2.19
  -2  -1  -8   37.39    0.78
  -2  -1  -8   36.64    0.82
   2  -1   8   36.57    0.81
  -2   1  -8   36.93    0.84
   3  -1   8   10.43    0.44
  -3  -1  -8    9.61    0.44
  -3  -1  -8    9.99    0.40
  -3   1  -8    9.45    0.44
  -4  -1  -8    6.12    0.36
   4  -1   8    5.85    0.39
  -4   1  -8    6.34    0.40
   4   1   8    6.28    0.42
  -5  -1  -8    1.46    0.25
   5  -1   8    1.32    0.26
  -5   1  -8    1.56    0.27
   5   1   8    1.55    0.29
   6  -1   8    3.78    0.41
  -6  -1  -8    3.59    0.38
   6   1   8    3.12    0.37
  -6   1  -8    2.97    0.37
   7  -1   8    0.97    0.31
  -7  -1  -8    1.37    0.31
   7   1   8    0.99    0.30
  -7   1  -8    1.25    0.30
  -8  -1  -8   11.90    0.67
   8  -1   8   11.79    0.70
  -8   1  -8   11.26    0.70
   8   1   8   11.74    0.67
   8  -2  -8    4.63    0.47
   8   2  -8    5.32    0.52
   7  -2  -8    5.12    0.42
   7   2  -8    4.82    0.46
   6  -2  -8    0.80    0.23
   6   2  -8    0.63    0.23
   5  -2  -8    6.10    0.34
   5  -2  -8    6.03    0.39
   5   2  -8    5.79    0.42
   4  -2  -8   41.68    0.95
   4  -2  -8   42.15    0.89
   3  -2  -8    4.52    0.28
   3  -2  -8    4.41    0.27
   3   2  -8    3.97    0.31
   2  -2  -8   13.80    0.41
   2  -2  -8   13.54    0.43
  -2  -2   8   13.09    0.33
   2   2  -8   13.46    0.48
   1  -2  -8    0.01    0.10
  -1  -2   8    0.39    0.12
   1  -2  -8    0.04    0.09
   1   2  -8    0.17    0.13
   0  -2   8   72.51    1.27
   0  -2  -8   72.27    1.17
   0  -2  -8   74.15    1.29
   0   2  -8   72.53    1.33
  -1  -2  -8   37.78    0.82
   1  -2   8   38.30    0.83
  -1  -2  -8   36.70    0.71
  -1   2  -8   37.92    0.86
  -2  -2  -8   16.27    0.45
  -2  -2  -8   17.99    0.55
   2  -2   8   16.30    0.55
  -2   2  -8   16.60    0.55
  -3  -2  -8   55.73    1.07
  -3  -2  -8   55.31    1.19
   3  -2   8   55.07    1.19
  -3   2  -8   56.57    1.20
  -4  -2  -8   18.84    0.60
   4  -2   8   20.75    0.70
  -4  -2  -8   20.62    0.70
  -4   2  -8   19.25    0.68
  -5  -2  -8   14.49    0.63
  -5  -2  -8   14.65    0.57
   5  -2   8   13.59    0.62
  -5   2  -8   15.10    0.64
   6  -2   8    1.89    0.34
  -6  -2  -8    2.25    0.31
   6   2   8    2.20    0.34
  -6   2  -8    1.90    0.33
  -7  -2  -8    0.24    0.22
   7  -2   8    0.12    0.27
  -7   2  -8    0.10    0.24
   7   2   8    0.21    0.27
   8  -2   8    3.77    0.50
  -8  -2  -8    4.82    0.49
   8   2   8    3.84    0.48
  -8   2  -8    3.86    0.49
   8  -3  -8    1.70    0.34
   8   3  -8    1.36    0.33
   7  -3  -8   24.69    0.86
   7   3  -8   25.03    0.90
   6  -3  -8   11.46    0.54
   6   3  -8   10.95    0.57
   5  -3  -8    9.12    0.47
   5  -3  -8    8.45    0.44
   5   3  -8    8.08    0.46
   4  -3  -8    2.67    0.29
   4  -3  -8    2.66    0.26
   4   3  -8    2.60    0.31
  -3  -3   8   16.97    0.41
   3  -3  -8   17.29    0.50
   3  -3  -8   15.75    0.57
   3   3  -8   16.96    0.58
   2  -3  -8    0.69    0.18
   2  -3  -8    0.31    0.11
  -2  -3   8    0.01    0.11
   2   3  -8    0.25    0.17
  -1  -3   8   30.39    0.72
   1  -3  -8   31.88    0.80
   1  -3  -8   31.73    0.58
   1   3  -8   31.26    0.78
   0  -3   8   24.05    0.67
   0  -3  -8   26.00    0.47
   0  -3  -8   26.31    0.70
   0   3  -8   25.17    0.69
  -1  -3  -8    4.87    0.34
  -1  -3  -8    5.39    0.21
   1  -3   8    5.62    0.36
  -1   3  -8    5.57    0.34
   2  -3   8   65.02    1.38
  -2  -3  -8   65.99    1.32
  -2  -3  -8   64.98    1.09
  -2   3  -8   63.50    1.30
  -3  -3  -8   18.94    0.50
   3  -3   8   17.80    0.68
  -3  -3  -8   18.31    0.63
  -3   3  -8   17.56    0.64
  -4  -3  -8    3.16    0.34
   4  -3   8    2.75    0.36
  -4  -3  -8    3.29    0.28
  -4   3  -8    2.80    0.33
  -5  -3  -8   28.93    0.79
   5  -3   8   27.62    0.95
  -5  -3  -8   28.92    0.92
  -5   3  -8   27.13    0.89
  -6  -3  -8    2.65    0.41
  -6  -3  -8    2.37    0.31
   6  -3   8    2.88    0.42
  -6   3  -8    2.65    0.37
  -7  -3  -8    4.26    0.43
   7  -3   8    4.18    0.52
   7   3   8    3.48    0.46
  -7   3  -8    3.30    0.44
   7   4  -8    3.47    0.42
   6  -4  -8    4.18    0.42
   6   4  -8    3.38    0.39
   5  -4  -8   11.71    0.57
   5   4  -8   11.21    0.55
   4  -4  -8    6.66    0.45
   4   4  -8    7.12    0.44
   3  -4  -8   56.20    1.29
  -3  -4   8   55.45    1.07
   3   4  -8   55.12    1.22
   2  -4  -8   50.61    1.20
  -2  -4   8   52.06    1.07
   2   4  -8   50.89    1.11
   1  -4  -8   33.58    0.91
  -1  -4   8   32.68    0.84
   1   4  -8   31.50    0.81
   0  -4   8   47.00    1.11
   0  -4  -8   47.25    1.13
   0   4  -8   48.25    1.06
  -1  -4  -8   63.84    1.35
   1  -4   8   60.64    1.37
  -1   4  -8   61.69    1.27
  -2  -4  -8   15.33    0.59
   2  -4   8   15.11    0.66
  -2   4  -8   14.61    0.56
   3  -4   8   15.20    0.69
  -3  -4  -8   15.71    0.63
  -3   4  -8   15.65    0.61
  -4  -4  -8    3.74    0.38
   4  -4   8    4.13    0.46
  -4   4  -8    3.77    0.39
  -5  -4  -8    2.55    0.36
   5  -4   8    3.34    0.46
  -5   4  -8    3.41    0.39
   6  -4   8    0.16    0.29
  -6  -4  -8    0.45    0.30
  -6   4  -8    0.58    0.29
   7  -4   8    3.77    0.54
   7   4   8    4.33    0.51
  -7   4  -8    4.12    0.49
   6  -5  -8    5.11    0.51
   6   5  -8    4.85    0.47
   5  -5  -8    0.64    0.27
   5   5  -8    0.92    0.27
   4  -5  -8    8.05    0.54
   4   5  -8    6.64    0.46
   3  -5  -8   10.43    0.59
   3   5  -8   11.64    0.52
  -2  -5   8    2.97    0.31
   2  -5  -8    1.80    0.31
   2   5  -8    2.36    0.29
  -1  -5   8    9.63    0.50
   1  -5  -8    9.03    0.54
   1   5  -8    9.77    0.48
   0  -5   8    9.43    0.53
   0  -5  -8    8.07    0.49
   0   5  -8    8.63    0.44
  -1  -5  -8    9.88    0.52
   1  -5   8    8.79    0.55
  -1   5  -8    9.98    0.47
   2  -5   8    7.62    0.52
  -2  -5  -8    7.69    0.47
  -2   5  -8    7.70    0.44
  -3  -5  -8    3.80    0.40
   3  -5   8    4.26    0.48
  -3   5  -8    3.14    0.35
  -4  -5  -8   33.59    1.04
   4  -5   8   35.07    1.19
  -4   5  -8   34.52    1.01
   5  -5   8   15.30    0.84
  -5  -5  -8   13.62    0.70
  -5   5  -8   15.54    0.72
  -6  -5  -8    3.37    0.45
   6  -5   8    4.33    0.56
  -6   5  -8    3.54    0.45
   5  -6  -8   13.20    0.73
   4  -6  -8    3.58    0.46
   3  -6  -8    4.02    0.47
  -2  -6   8    2.81    0.35
   2  -6  -8    2.89    0.40
  -1  -6   8    3.54    0.39
   1  -6  -8    3.47    0.41
   0  -6   8    9.42    0.58
   0  -6  -8    9.39    0.58
  -1  -6  -8   15.48    0.70
   1  -6   8   13.86    0.73
  -2  -6  -8    0.32    0.23
   2  -6   8    0.91    0.33
  -3  -6  -8   11.26    0.63
   3  -6   8   10.23    0.71
  -4  -6  -8   -0.24    0.23
   4  -6   8    0.00    0.31
   2  -7  -8    4.19    0.50
  -1  -7   8   10.74    0.63
   1  -7  -8   10.84    0.66
   0  -7  -8    2.52    0.40
   0  -7   8    2.85    0.43
   1  -7   8    3.13    0.46
  -1  -7  -8    3.49    0.44
   2  -7   8    2.98    0.49
  -2  -7  -8    3.50    0.43
   8   0  -9    2.60    0.40
   7   0  -9   14.00    0.67
   6   0  -9    1.89    0.29
   5   0  -9    0.22    0.18
   4   0  -9   13.09    0.52
   3   0  -9   82.86    1.52
   2   0  -9    7.03    0.34
   1   0  -9   62.44    1.03
   1   0  -9   62.96    1.16
   0   0   9   52.04    0.95
   0   0  -9   53.61    1.01
  -1   0  -9  122.52    2.00
   1   0   9  127.06    2.01
  -2   0  -9   40.23    0.89
   2   0   9   41.80    0.90
   3   0   9    2.07    0.27
  -3   0  -9    2.27    0.26
   4   0   9   66.49    1.38
  -4   0  -9   65.77    1.37
   5   0   9    6.48    0.45
  -5   0  -9    7.10    0.44
   6   0   9   52.23    1.30
  -6   0  -9   53.88    1.34
  -7   0  -9    0.07    0.22
   7   0   9   -0.19    0.24
   8   0   9   -0.10    0.27
  -8   0  -9   -0.03    0.24
   8  -1  -9    4.18    0.48
   8   1  -9    4.34    0.48
   7  -1  -9   14.77    0.68
   7   1  -9   15.76    0.72
   6  -1  -9   15.40    0.65
   6   1  -9   15.89    0.68
   5  -1  -9   29.91    0.84
   5   1  -9   28.62    0.86
   4  -1  -9    6.85    0.24
   4  -1  -9    7.10    0.38
   4   1  -9    6.48    0.39
   3  -1  -9   12.34    0.32
   3  -1  -9   11.75    0.45
   3   1  -9   11.59    0.47
   2  -1  -9    2.81    0.17
   2  -1  -9    2.64    0.23
  -2  -1   9    3.03    0.13
   2   1  -9    2.90    0.27
  -1  -1   9   21.66    0.46
   1  -1  -9   21.04    0.54
   1  -1  -9   22.28    0.50
   1   1  -9   21.21    0.59
   0  -1   9   89.31    1.44
   0  -1  -9   88.91    1.47
   0  -1  -9   90.45    1.48
   0   1  -9   89.29    1.55
   1  -1   9   10.79    0.38
  -1  -1  -9    9.97    0.38
  -1  -1  -9    9.87    0.37
  -2  -1  -9  118.88    2.03
   2  -1   9  120.51    2.00
  -2  -1  -9  122.34    1.97
  -2   1  -9  122.37    2.04
   3  -1   9    8.44    0.42
  -3  -1  -9    9.27    0.45
  -3  -1  -9    8.17    0.38
  -3   1  -9    9.35    0.44
   4  -1   9   12.35    0.54
  -4  -1  -9   11.85    0.49
  -4   1  -9   11.35    0.52
   4   1   9   11.48    0.53
  -5  -1  -9   24.57    0.78
   5  -1   9   23.66    0.78
   5   1   9   24.12    0.81
  -5   1  -9   24.94    0.82
  -6  -1  -9    2.27    0.33
   6  -1   9    1.96    0.32
   6   1   9    1.79    0.33
  -6   1  -9    2.45    0.37
  -7  -1  -9    1.32    0.30
   7  -1   9    1.24    0.34
   7   1   9    1.17    0.32
  -7   1  -9    1.18    0.32
   8  -1   9   20.26    0.89
  -8  -1  -9   18.51    0.85
  -8   1  -9   19.67    0.89
   8   1   9   18.41    0.81
   8  -2  -9   11.08    0.65
   7  -2  -9   -0.03    0.20
   7   2  -9    0.10    0.22
   6  -2  -9   22.32    0.77
   6   2  -9   22.87    0.81
   5  -2  -9    3.34    0.32
   5   2  -9    3.40    0.35
   4  -2  -9    9.36    0.38
   4  -2  -9    8.91    0.41
   4   2  -9   10.20    0.48
   3  -2  -9    2.69    0.23
   3  -2  -9    2.81    0.26
   3   2  -9    2.39    0.28
  -2  -2   9   27.97    0.55
   2  -2  -9   28.22    0.65
   2  -2  -9   27.28    0.65
   2   2  -9   29.06    0.76
   1  -2  -9   30.13    0.68
  -1  -2   9   31.07    0.65
   1  -2  -9   30.71    0.64
   1   2  -9   30.71    0.76
   0  -2   9   16.63    0.48
   0  -2  -9   15.22    0.47
   0  -2  -9   15.84    0.42
   0   2  -9   15.58    0.52
   1  -2   9   31.48    0.75
  -1  -2  -9   30.28    0.73
  -1  -2  -9   29.84    0.64
  -2  -2  -9   42.45    0.86
   2  -2   9   42.68    0.97
  -2   2  -9   42.99    0.99
  -3  -2  -9   21.92    0.60
  -3  -2  -9   20.87    0.69
   3  -2   9   21.83    0.69
  -3   2  -9   20.96    0.68
   4  -2   9   17.33    0.65
  -4  -2  -9   15.86    0.56
  -4  -2  -9   17.43    0.67
  -4   2  -9   16.80    0.65
  -5  -2  -9    7.47    0.43
   5  -2   9    7.15    0.51
   5   2   9    7.30    0.50
  -5   2  -9    7.02    0.48
   6  -2   9   -0.05    0.23
  -6  -2  -9   -0.14    0.18
  -6   2  -9    0.01    0.22
   6   2   9   -0.11    0.22
   7  -2   9   12.58    0.70
  -7  -2  -9   13.05    0.65
  -7   2  -9   12.81    0.71
   7   2   9   12.29    0.69
  -8  -2  -9    8.03    0.55
  -8   2  -9    6.30    0.60
   8  -3  -9   15.65    0.75
   8   3  -9   15.68    0.79
   7  -3  -9    3.27    0.40
   7   3  -9    3.89    0.45
   6  -3  -9    3.02    0.34
   6   3  -9    3.03    0.37
   5  -3  -9    3.66    0.32
   5  -3  -9    3.10    0.32
   5   3  -9    3.30    0.36
   4  -3  -9   22.07    0.68
   4  -3  -9   22.20    0.65
   4   3  -9   23.15    0.75
   3  -3  -9    5.72    0.36
   3  -3  -9    5.68    0.31
   3   3  -9    5.78    0.39
   2  -3  -9   73.19    1.22
  -2  -3   9   71.53    1.26
   2  -3  -9   70.05    1.39
   2   3  -9   72.96    1.42
   1  -3  -9   18.82    0.59
   1  -3  -9   18.44    0.43
  -1  -3   9   18.72    0.55
   1   3  -9   19.20    0.62
   0  -3  -9   12.64    0.33
   0  -3   9   13.15    0.49
   0  -3  -9   13.11    0.48
   0   3  -9   12.60    0.49
  -1  -3  -9    1.88    0.24
   1  -3   9    2.30    0.28
  -1  -3  -9    2.44    0.18
  -1   3  -9    2.28    0.27
  -2  -3  -9   31.22    0.83
   2  -3   9   30.67    0.88
  -2  -3  -9   30.62    0.64
  -2   3  -9   30.29    0.83
   3  -3   9    8.76    0.50
  -3  -3  -9    8.99    0.48
  -3  -3  -9    9.07    0.36
  -3   3  -9    9.16    0.47
  -4  -3  -9   17.20    0.67
  -4  -3  -9   17.31    0.56
   4  -3   9   17.34    0.73
  -4   3  -9   16.88    0.67
   5  -3   9   19.74    0.81
  -5  -3  -9   20.76    0.67
  -5  -3  -9   20.75    0.80
  -5   3  -9   19.65    0.78
  -6  -3  -9    4.94    0.41
   6  -3   9    5.11    0.53
  -6   3  -9    3.80    0.45
   7  -3   9    4.68    0.54
  -7  -3  -9    5.91    0.46
  -7   3  -9    5.39    0.55
   7   3   9    4.86    0.53
   7   4  -9    2.71    0.39
   6   4  -9    0.41    0.23
   5  -4  -9   18.23    0.69
   5   4  -9   17.24    0.70
   4  -4  -9    1.38    0.26
   4   4  -9    1.15    0.26
   3  -4  -9    3.44    0.34
   3   4  -9    3.69    0.35
   2  -4  -9   13.99    0.59
  -2  -4   9   14.15    0.50
   2   4  -9   14.31    0.56
  -1  -4   9    2.96    0.29
   1  -4  -9    2.92    0.32
   1   4  -9    2.85    0.31
   0  -4   9    6.81    0.42
   0  -4  -9    6.55    0.40
   0   4  -9    5.96    0.39
  -1  -4  -9   56.10    1.26
   1  -4   9   56.36    1.31
  -1   4  -9   56.60    1.23
  -2  -4  -9    6.06    0.40
   2  -4   9    5.91    0.44
  -2   4  -9    5.25    0.40
   3  -4   9   25.22    0.88
  -3  -4  -9   22.71    0.78
  -3   4  -9   24.15    0.80
  -4  -4  -9    6.18    0.48
   4  -4   9    6.67    0.52
  -4   4  -9    6.16    0.46
  -5  -4  -9    0.85    0.29
   5  -4   9    0.86    0.31
  -5   4  -9    0.86    0.27
  -6  -4  -9   13.18    0.73
   6  -4   9   13.32    0.79
  -6   4  -9   12.17    0.67
   6   5  -9   10.37    0.60
   5  -5  -9   14.16    0.69
   5   5  -9   15.15    0.67
   4  -5  -9   16.33    0.73
   4   5  -9   17.07    0.67
   3  -5  -9    4.12    0.43
   3   5  -9    4.83    0.42
  -2  -5   9   39.76    0.99
   2  -5  -9   41.40    1.14
   2   5  -9   40.96    1.03
  -1  -5   9    5.27    0.40
   1  -5  -9    5.04    0.41
   1   5  -9    5.47    0.39
   0  -5  -9    0.27    0.20
   0  -5   9    0.53    0.24
   0   5  -9    0.05    0.17
   1  -5   9    4.24    0.43
  -1  -5  -9    4.81    0.39
  -1   5  -9    4.44    0.37
  -2  -5  -9    1.67    0.29
   2  -5   9    1.86    0.34
  -2   5  -9    0.91    0.24
  -3  -5  -9   14.40    0.66
   3  -5   9   15.68    0.76
  -3   5  -9   14.82    0.64
  -4  -5  -9   26.42    0.93
   4  -5   9   28.21    1.09
  -4   5  -9   27.18    0.91
  -5  -5  -9    9.18    0.62
   5  -5   9    7.65    0.63
  -5   5  -9    8.22    0.56
   4  -6  -9    0.19    0.26
   3  -6  -9   22.87    0.92
   2  -6  -9    0.74    0.28
   1  -6  -9    0.69    0.27
  -1  -6   9    0.58    0.24
   0  -6  -9    7.30    0.51
   0  -6   9    8.06    0.55
  -1  -6  -9    1.55    0.31
   1  -6   9    1.74    0.36
  -2  -6  -9    2.12    0.35
   2  -6   9    2.09    0.41
  -3  -6  -9    3.37    0.41
   3  -6   9    3.81    0.50
  -4  -6  -9    6.43    0.53
   4  -6   9    5.04    0.59
   2  -7  -9    9.55    0.66
   1  -7  -9    1.62    0.35
  -1  -7   9    1.04    0.31
   0  -7  -9    1.44    0.33
   0  -7   9    2.08    0.38
   1  -7   9    0.69    0.33
  -1  -7  -9    0.39    0.27
   8   0 -10    5.92    0.55
   6   0 -10    2.19    0.32
   5   0 -10    7.10    0.43
   4   0 -10   19.65    0.65
   3   0 -10   12.13    0.48
   2   0 -10  153.86    2.44
  -2   0  10  149.26    2.18
  -1   0  10    2.18    0.19
   1   0 -10    1.75    0.21
   0   0 -10   39.33    0.85
   0   0  10   38.31    0.78
   1   0  10    2.62    0.25
  -1   0 -10    2.49    0.24
  -2   0 -10   41.64    0.93
   2   0  10   40.55    0.92
   3   0  10  101.44    1.84
  -3   0 -10  101.62    1.83
   4   0  10    3.66    0.35
  -4   0 -10    3.29    0.33
   5   0  10    0.11    0.22
  -5   0 -10    0.29    0.20
   6   0  10   18.06    0.74
  -6   0 -10   20.38    0.78
   7   0  10    3.21    0.43
  -7   0 -10    3.79    0.45
  -8   0 -10    1.62    0.37
   8   0  10    1.00    0.35
   8  -1 -10   37.53    1.18
   8   1 -10   36.80    1.19
   7  -1 -10    1.05    0.27
   7   1 -10    0.84    0.27
   6  -1 -10   11.85    0.57
   6   1 -10   12.00    0.60
   5  -1 -10    1.30    0.25
   5   1 -10    1.16    0.25
   4  -1 -10   77.56    1.52
   4   1 -10   79.10    1.57
   3  -1 -10   59.37    0.96
   3  -1 -10   58.51    1.18
   3   1 -10   57.54    1.23
  -2  -1  10   53.75    0.84
   2  -1 -10   55.96    1.09
   2  -1 -10   54.45    0.93
   2   1 -10   52.92    1.13
   1  -1 -10   62.42    1.09
  -1  -1  10   64.52    1.05
   1  -1 -10   64.39    1.17
   1   1 -10   63.67    1.24
   0  -1 -10    2.52    0.21
   0  -1  10    2.47    0.22
   0  -1 -10    1.88    0.20
   0   1 -10    2.18    0.24
  -1  -1 -10   11.65    0.43
  -1  -1 -10   10.98    0.41
   1  -1  10   11.53    0.42
  -1   1 -10   10.81    0.45
  -2  -1 -10    4.03    0.30
  -2  -1 -10    4.33    0.35
   2  -1  10    4.99    0.33
  -2   1 -10    5.26    0.35
   3  -1  10   59.64    1.26
  -3  -1 -10   63.10    1.25
  -3  -1 -10   63.93    1.33
  -3   1 -10   62.17    1.31
  -4  -1 -10    1.81    0.26
   4  -1  10    2.45    0.30
   4   1  10    2.14    0.30
  -4   1 -10    2.20    0.30
  -5  -1 -10    2.67    0.33
   5  -1  10    2.72    0.36
   5   1  10    2.65    0.36
  -5   1 -10    2.37    0.33
  -6  -1 -10   17.00    0.71
   6  -1  10   16.24    0.73
   6   1  10   17.35    0.74
   7  -1  10    9.06    0.60
  -7  -1 -10    9.94    0.59
  -7   1 -10    9.88    0.62
   7   1  10   10.45    0.65
   8  -1  10    1.53    0.38
  -8  -1 -10    1.46    0.35
  -8   1 -10    1.93    0.38
   8  -2 -10   12.40    0.67
   8   2 -10   13.34    0.73
   7  -2 -10   18.23    0.75
   7   2 -10   20.62    0.84
   6  -2 -10   10.31    0.53
   6   2 -10   12.02    0.62
   5  -2 -10   16.86    0.63
   5   2 -10   17.11    0.68
   4  -2 -10    9.09    0.44
   4  -2 -10    8.65    0.36
   4   2 -10    7.52    0.45
   3  -2 -10  121.78    1.96
   3  -2 -10  119.87    2.00
   3   2 -10  121.64    2.14
   2  -2 -10   13.07    0.42
   2  -2 -10   13.71    0.44
  -2  -2  10   13.28    0.34
   2   2 -10   13.38    0.52
   1  -2 -10   19.03    0.50
   1  -2 -10   19.72    0.53
  -1  -2  10   18.79    0.50
   1   2 -10   20.19    0.63
   0  -2  10   21.21    0.57
   0  -2 -10   21.08    0.53
   0  -2 -10   21.57    0.58
   0   2 -10   20.61    0.64
  -1  -2 -10   70.95    1.22
   1  -2  10   70.50    1.33
  -1  -2 -10   70.20    1.33
  -1   2 -10   68.12    1.38
   2  -2  10    3.27    0.31
  -2  -2 -10    3.29    0.25
  -2  -2 -10    2.91    0.29
  -2   2 -10    3.11    0.32
  -3  -2 -10   47.83    1.00
   3  -2  10   46.79    1.11
  -3  -2 -10   48.69    1.14
  -3   2 -10   48.61    1.14
  -4  -2 -10   11.85    0.49
  -4  -2 -10   10.94    0.55
   4  -2  10   12.57    0.57
  -4   2 -10   11.10    0.56
  -5  -2 -10    5.28    0.38
   5  -2  10    5.04    0.44
   5   2  10    4.66    0.44
  -5   2 -10    5.30    0.46
  -6  -2 -10    2.08    0.32
   6  -2  10    2.13    0.37
   6   2  10    2.47    0.40
  -6   2 -10    2.34    0.37
  -7  -2 -10    7.64    0.53
   7  -2  10    7.01    0.57
  -7   2 -10    8.14    0.58
   7   2  10    7.86    0.58
   7  -3 -10    6.81    0.49
   7   3 -10    6.48    0.50
   6  -3 -10    1.37    0.27
   6   3 -10    1.03    0.28
   5  -3 -10    1.04    0.23
   5  -3 -10    1.08    0.22
   5   3 -10    0.87    0.25
   4  -3 -10   17.89    0.58
   4  -3 -10   17.68    0.59
   4   3 -10   17.47    0.67
   3  -3 -10   15.79    0.50
   3  -3 -10   15.60    0.55
   3   3 -10   15.83    0.61
   2  -3 -10   14.18    0.43
   2  -3 -10   14.35    0.52
  -2  -3  10   15.02    0.44
   2   3 -10   14.10    0.56
  -1  -3  10   70.94    1.33
   1  -3 -10   73.87    1.40
   1  -3 -10   72.97    1.20
   1   3 -10   71.79    1.44
   0  -3  10    5.63    0.36
   0  -3 -10    6.34    0.37
   0  -3 -10    6.48    0.25
   0   3 -10    5.82    0.38
  -1  -3 -10   17.60    0.59
   1  -3  10   17.40    0.61
  -1  -3 -10   17.74    0.44
  -1   3 -10   17.88    0.62
  -2  -3 -10   36.43    0.95
  -2  -3 -10   37.36    0.77
   2  -3  10   38.98    1.01
  -2   3 -10   38.96    0.99
  -3  -3 -10   11.09    0.41
   3  -3  10   10.27    0.54
  -3  -3 -10   10.57    0.52
  -3   3 -10   11.16    0.53
  -4  -3 -10   14.12    0.51
   4  -3  10   14.76    0.69
  -4  -3 -10   13.68    0.63
  -4   3 -10   15.12    0.67
  -5  -3 -10    0.37    0.19
   5  -3  10    0.34    0.25
  -5  -3 -10    0.65    0.27
  -5   3 -10    0.50    0.24
   6  -3  10    4.42    0.51
  -6  -3 -10    4.67    0.39
   6   3  10    3.93    0.47
  -6   3 -10    3.54    0.44
   7  -3  10    2.94    0.47
   7   3  10    3.38    0.48
  -7   3 -10    3.67    0.47
   7   4 -10    5.46    0.53
   6   4 -10    8.18    0.55
   5  -4 -10   16.23    0.65
   5   4 -10   14.68    0.67
   4  -4 -10    6.74    0.44
   4   4 -10    6.23    0.45
   3  -4 -10   14.42    0.60
   3   4 -10   14.48    0.61
  -2  -4  10   32.05    0.78
   2  -4 -10   31.14    0.89
   2   4 -10   31.44    0.88
   1  -4 -10    3.24    0.34
  -1  -4  10    3.83    0.32
   1   4 -10    3.22    0.33
   0  -4  10    9.27    0.47
   0  -4 -10    9.48    0.47
   0   4 -10    8.32    0.47
  -1  -4 -10   30.56    0.88
   1  -4  10   29.15    0.90
  -1   4 -10   31.16    0.87
   2  -4  10    7.48    0.50
  -2  -4 -10    7.89    0.48
  -2   4 -10    8.73    0.47
   3  -4  10   10.19    0.58
  -3  -4 -10   10.48    0.56
  -3   4 -10    9.02    0.51
  -4  -4 -10   16.09    0.72
   4  -4  10   15.30    0.76
  -4   4 -10   15.03    0.68
   5  -4  10   10.32    0.68
  -5  -4 -10   10.60    0.64
  -5   4 -10   10.46    0.60
  -6  -4 -10    3.21    0.47
   6  -4  10    2.96    0.47
  -6   4 -10    3.37    0.46
   6   5 -10    8.30    0.56
   5  -5 -10   13.13    0.66
   5   5 -10   12.60    0.64
   4  -5 -10   13.88    0.67
   4   5 -10   13.61    0.63
   3  -5 -10    0.14    0.21
   3   5 -10   -0.16    0.19
   2  -5 -10    4.08    0.42
   2   5 -10    4.27    0.37
  -1  -5  10    0.58    0.22
   1  -5 -10    0.69    0.23
   1   5 -10    0.19    0.20
   0  -5  10    4.17    0.42
   0  -5 -10    4.40    0.38
   0   5 -10    3.37    0.35
  -1  -5 -10    1.13    0.26
   1  -5  10    1.51    0.31
  -1   5 -10    1.35    0.27
   2  -5  10    0.67    0.27
  -2  -5 -10    0.47    0.22
  -2   5 -10    0.62    0.24
  -3  -5 -10    6.72    0.50
   3  -5  10    6.42    0.59
  -3   5 -10    5.27    0.45
  -4  -5 -10   12.11    0.65
   4  -5  10   12.23    0.73
  -4   5 -10   12.52    0.65
  -5  -5 -10    0.71    0.30
   5  -5  10   -0.05    0.31
  -5   5 -10    0.37    0.27
   4  -6 -10    1.84    0.37
   3  -6 -10   11.18    0.65
   2  -6 -10   50.03    1.38
   1  -6 -10   10.94    0.63
  -1  -6  10   10.44    0.58
   0  -6  10    7.56    0.54
   0  -6 -10    7.46    0.51
  -1  -6 -10    6.62    0.49
   1  -6  10    6.22    0.54
   2  -6  10    1.20    0.33
  -2  -6 -10    1.51    0.31
   3  -6  10    0.19    0.30
  -3  -6 -10    0.68    0.27
  -4  -6 -10    0.75    0.29
   8   0 -11    1.64    0.37
   7   0 -11    1.84    0.33
   6   0 -11   19.11    0.74
   5   0 -11    0.10    0.17
   4   0 -11  184.70    3.03
   3   0 -11    3.98    0.34
  -2   0  11    4.07    0.21
   2   0 -11    4.19    0.31
  -1   0  11    0.25    0.12
   1   0 -11    0.08    0.13
   0   0  11   36.59    0.78
   0   0 -11   37.53    0.86
  -1   0 -11   76.04    1.41
   1   0  11   74.29    1.37
   2   0  11  146.80    2.44
  -2   0 -11  148.92    2.44
   3   0  11  144.51    2.44
  -3   0 -11  141.35    2.41
   4   0  11    9.95    0.51
  -4   0 -11    9.78    0.51
  -5   0 -11    0.90    0.26
   5   0  11    1.56    0.31
   6   0  11    6.33    0.51
  -6   0 -11    7.18    0.50
   7   0  11   12.11    0.69
  -7   0 -11   12.01    0.68
   8  -1 -11    2.96    0.42
   8   1 -11    3.24    0.45
   7  -1 -11   20.44    0.82
   7   1 -11   21.47    0.85
   6  -1 -11    5.90    0.43
   6   1 -11    5.67    0.45
   5  -1 -11    8.88    0.48
   5   1 -11   10.06    0.53
   4  -1 -11   15.32    0.59
   4   1 -11   14.93    0.60
   3  -1 -11   74.61    1.19
   3  -1 -11   75.84    1.46
  -2  -1  11   14.83    0.33
   2  -1 -11   16.08    0.40
   2  -1 -11   14.79    0.50
   2   1 -11   14.07    0.54
   1  -1 -11   75.48    1.29
   1  -1 -11   74.64    1.36
  -1  -1  11   78.02    1.24
   1   1 -11   73.96    1.43
   0  -1 -11   29.45    0.71
   0  -1 -11   29.15    0.69
   0  -1  11   29.63    0.65
   0   1 -11   28.72    0.76
  -1  -1 -11   42.91    0.92
   1  -1  11   41.93    0.89
  -1  -1 -11   41.05    0.89
  -1   1 -11   39.66    0.95
   2  -1  11   69.43    1.33
  -2  -1 -11   68.30    1.36
  -2  -1 -11   64.32    1.28
  -2   1 -11   67.36    1.37
   3  -1  11    4.03    0.34
  -3  -1 -11    4.18    0.32
   3   1  11    4.57    0.40
  -3   1 -11    3.68    0.35
  -4  -1 -11   27.71    0.80
   4  -1  11   28.80    0.85
   4   1  11   28.46    0.88
  -4   1 -11   28.16    0.87
   5  -1  11    2.30    0.34
  -5  -1 -11    2.03    0.30
  -5   1 -11    1.61    0.30
   5   1  11    1.92    0.32
   6  -1  11   47.74    1.30
  -6  -1 -11   49.07    1.27
   6   1  11   50.19    1.32
  -6   1 -11   50.01    1.35
   7  -1  11    6.72    0.56
  -7  -1 -11    6.12    0.49
   7   1  11    5.12    0.52
  -7   1 -11    7.12    0.55
   8  -2 -11   18.51    0.82
   8   2 -11   16.29    0.81
   7  -2 -11   13.51    0.65
   7   2 -11   12.14    0.66
   6  -2 -11    0.89    0.26
   6   2 -11    0.93    0.28
   5  -2 -11    2.00    0.29
   5   2 -11    2.61    0.35
   4  -2 -11   91.54    1.72
   4  -2 -11   94.08    1.56
   4   2 -11   92.21    1.84
   3  -2 -11   12.14    0.48
   3  -2 -11   12.17    0.40
   3   2 -11   11.36    0.52
   2  -2 -11   17.99    0.54
   2  -2 -11   18.07    0.50
  -2  -2  11   18.42    0.42
   2   2 -11   17.07    0.62
  -1  -2  11    8.16    0.33
   1  -2 -11    8.11    0.34
   1  -2 -11    8.14    0.35
   1   2 -11    7.43    0.42
   0  -2 -11   26.68    0.64
   0  -2 -11   28.04    0.70
   0  -2  11   28.60    0.69
   0   2 -11   27.58    0.77
  -1  -2 -11   58.18    1.09
   1  -2  11   59.31    1.19
  -1  -2 -11   58.32    1.20
  -2  -2 -11   27.12    0.68
   2  -2  11   27.20    0.76
  -2  -2 -11   27.50    0.78
  -2   2 -11   26.46    0.79
   3  -2  11    7.14    0.45
  -3  -2 -11    6.39    0.36
  -3  -2 -11    7.23    0.46
  -3   2 -11    6.32    0.44
   4  -2  11   27.08    0.87
  -4  -2 -11   28.17    0.79
  -4  -2 -11   30.30    0.91
  -4   2 -11   29.36    0.91
  -5  -2 -11    1.07    0.25
   5  -2  11    1.71    0.33
   5   2  11    1.73    0.35
  -5   2 -11    1.23    0.29
   6  -2  11    3.77    0.47
  -6  -2 -11    3.00    0.36
  -6   2 -11    2.71    0.40
   6   2  11    3.02    0.42
   7  -2  11    8.78    0.65
  -7  -2 -11    7.85    0.55
   7   2  11    7.58    0.59
  -7   2 -11    7.43    0.58
   7  -3 -11    1.14    0.29
   7   3 -11    0.80    0.29
   6  -3 -11    1.25    0.27
   6   3 -11    0.68    0.26
   5  -3 -11    3.24    0.34
   5   3 -11    2.70    0.37
   4  -3 -11   10.17    0.46
   4  -3 -11   11.02    0.46
   4   3 -11    9.73    0.54
   3  -3 -11    0.89    0.19
   3  -3 -11    0.81    0.19
   3   3 -11    0.66    0.22
   2  -3 -11    7.88    0.39
   2  -3 -11    8.08    0.34
   2   3 -11    8.94    0.48
   1  -3 -11    4.00    0.25
   1  -3 -11    4.26    0.30
  -1  -3  11    3.97    0.30
   1   3 -11    3.13    0.33
   0  -3  11   27.08    0.75
   0  -3 -11   28.20    0.60
   0  -3 -11   28.29    0.77
   0   3 -11   27.33    0.81
  -1  -3 -11    0.62    0.19
  -1  -3 -11    0.55    0.14
   1  -3  11    0.58    0.20
  -1   3 -11    0.38    0.20
  -2  -3 -11  127.05    1.99
   2  -3  11  125.30    2.29
  -2  -3 -11  124.20    2.26
  -2   3 -11  127.34    2.28
  -3  -3 -11   25.48    0.67
  -3  -3 -11   26.65    0.86
   3  -3  11   25.30    0.85
  -3   3 -11   27.28    0.85
  -4  -3 -11    6.07    0.47
   4  -3  11    6.34    0.51
  -4  -3 -11    6.93    0.39
  -4   3 -11    6.93    0.48
  -5  -3 -11   17.27    0.76
  -5  -3 -11   17.61    0.65
   5  -3  11   17.60    0.79
  -5   3 -11   16.87    0.75
   6  -3  11    6.36    0.61
  -6   3 -11    5.37    0.52
   6   3  11    5.66    0.55
   7  -3  11    1.31    0.40
   7   3  11    1.35    0.37
  -7   3 -11    1.10    0.35
   7   4 -11    6.16    0.53
   6   4 -11    1.80    0.35
   5   4 -11    1.99    0.32
   4  -4 -11    8.90    0.49
   4   4 -11    9.83    0.55
   3  -4 -11    3.67    0.36
   3   4 -11    3.70    0.38
   2  -4 -11    5.20    0.38
   2   4 -11    6.45    0.45
  -1  -4  11   21.34    0.68
   1  -4 -11   21.29    0.71
   1   4 -11   22.24    0.75
   0  -4 -11   11.00    0.52
   0  -4  11   10.24    0.50
   0   4 -11   10.82    0.52
  -1  -4 -11    4.50    0.39
   1  -4  11    4.84    0.41
  -1   4 -11    4.66    0.40
  -2  -4 -11    1.39    0.27
   2  -4  11    2.47    0.36
  -2   4 -11    1.39    0.27
  -3  -4 -11    6.42    0.45
   3  -4  11    5.49    0.47
  -3   4 -11    5.66    0.46
   4  -4  11    3.76    0.48
  -4  -4 -11    3.95    0.44
  -4   4 -11    4.16    0.44
  -5  -4 -11    3.94    0.46
   5  -4  11    5.89    0.59
  -5   4 -11    3.79    0.46
  -6  -4 -11    0.73    0.36
   6  -4  11    1.20    0.37
  -6   4 -11    1.21    0.35
   5  -5 -11    6.08    0.48
   5   5 -11    6.12    0.50
   4  -5 -11    5.30    0.45
   4   5 -11    5.16    0.47
   3  -5 -11    5.72    0.46
   3   5 -11    5.05    0.44
   2  -5 -11    6.55    0.46
   2   5 -11    7.80    0.49
   1  -5 -11    8.82    0.52
  -1  -5  11    8.55    0.48
   1   5 -11    9.75    0.53
   0  -5 -11    7.56    0.48
   0  -5  11    6.81    0.48
   0   5 -11    8.35    0.50
   1  -5  11    2.25    0.37
  -1  -5 -11    1.77    0.29
  -1   5 -11    1.84    0.30
   2  -5  11   -0.11    0.24
  -2  -5 -11    0.28    0.22
   3  -5  11    9.68    0.65
  -3  -5 -11    9.14    0.56
  -3   5 -11    9.73    0.56
   4  -5  11    7.77    0.61
  -4  -5 -11    6.43    0.52
  -4   5 -11    7.72    0.55
  -5  -5 -11    2.19    0.41
   5  -5  11    1.73    0.44
  -5   5 -11    1.34    0.34
   4  -6 -11    1.73    0.35
   3  -6 -11    1.13    0.30
   2  -6 -11   42.91    1.26
   1  -6 -11    4.24    0.44
   0  -6  11    0.88    0.28
   0  -6 -11    0.80    0.27
   1  -6  11    4.11    0.48
  -1  -6 -11    3.99    0.44
  -2  -6 -11    0.68    0.27
   2  -6  11    0.98    0.34
   3  -6  11   12.03    0.77
  -3  -6 -11   12.30    0.69
   8   0 -12   16.06    0.80
   7   0 -12   -0.20    0.19
   6   0 -12    0.57    0.26
   5   0 -12   28.63    0.89
   4   0 -12   21.03    0.73
   3   0 -12   83.65    1.63
   2   0 -12    8.07    0.43
  -2   0  12    8.80    0.29
  -1   0  12    1.18    0.17
   1   0 -12    1.45    0.23
   0   0 -12    3.04    0.28
   0   0  12    3.77    0.29
   1   0  12   22.62    0.64
  -1   0 -12   20.77    0.65
   2   0  12   24.07    0.71
  -2   0 -12   23.05    0.70
  -3   0 -12    5.35    0.37
   3   0  12    6.15    0.43
  -4   0 -12   31.94    0.93
   4   0  12   32.97    0.94
  -5   0 -12    2.12    0.34
   5   0  12    1.79    0.32
  -6   0 -12   11.29    0.62
   6   0  12   11.04    0.62
   7   0  12   61.52    1.58
  -7   0 -12   63.91    1.63
   8  -1 -12    9.41    0.63
   8   1 -12   10.75    0.68
   7  -1 -12   15.76    0.74
   7   1 -12   15.61    0.75
   6  -1 -12    8.93    0.52
   6   1 -12    8.80    0.54
   5  -1 -12   18.41    0.70
   5   1 -12   18.94    0.72
   4  -1 -12   23.40    0.75
   4   1 -12   22.88    0.78
   3  -1 -12   69.99    1.12
   3  -1 -12   68.08    1.39
   3   1 -12   67.39    1.44
  -2  -1  12   69.84    1.10
   2  -1 -12   70.23    1.20
   2  -1 -12   72.02    1.38
   2   1 -12   71.02    1.44
   1  -1 -12   38.53    0.81
   1  -1 -12   39.03    0.89
  -1  -1  12   39.48    0.76
   1   1 -12   38.94    0.95
   0  -1  12   11.05    0.39
   0  -1 -12   10.57    0.40
   0  -1 -12   11.38    0.45
   0   1 -12   11.71    0.49
   1  -1  12    1.09    0.21
  -1  -1 -12    1.12    0.20
  -1  -1 -12    1.47    0.22
  -1   1 -12    0.99    0.22
  -2  -1 -12   20.98    0.64
   2  -1  12   21.01    0.64
  -2  -1 -12   22.26    0.70
  -2   1 -12   20.96    0.70
   3  -1  12   22.86    0.71
  -3  -1 -12   22.46    0.69
  -3   1 -12   23.24    0.75
   3   1  12   20.98    0.73
  -4  -1 -12   10.66    0.50
   4  -1  12   10.03    0.52
  -4   1 -12   10.74    0.56
   4   1  12    9.93    0.57
   5  -1  12    3.36    0.39
  -5  -1 -12    3.01    0.36
   5   1  12    2.53    0.36
  -5   1 -12    3.44    0.39
  -6  -1 -12    9.90    0.57
   6  -1  12   10.19    0.62
  -6   1 -12   10.40    0.62
   6   1  12    8.95    0.59
   7  -1  12   11.44    0.69
  -7  -1 -12   12.31    0.66
   7   1  12   12.73    0.72
  -7   1 -12   11.40    0.71
   8  -2 -12   10.07    0.62
   8   2 -12   10.17    0.67
   7  -2 -12    4.66    0.46
   7   2 -12    4.99    0.50
   6  -2 -12    6.77    0.46
   6   2 -12    7.20    0.52
   5  -2 -12   11.27    0.55
   5   2 -12   11.39    0.59
   4  -2 -12    1.52    0.26
   4   2 -12    2.04    0.32
   3  -2 -12   62.84    1.28
   3  -2 -12   64.44    1.15
   3   2 -12   61.90    1.39
   2  -2 -12    9.24    0.36
   2  -2 -12   10.05    0.42
  -1  -2  12    2.37    0.22
   1  -2 -12    2.59    0.24
   1  -2 -12    2.23    0.24
   1   2 -12    2.23    0.30
   0  -2  12   23.99    0.64
   0  -2 -12   24.14    0.65
   0  -2 -12   24.44    0.62
   0   2 -12   22.44    0.72
  -1  -2 -12   43.99    0.93
   1  -2  12   45.45    1.00
  -1  -2 -12   43.48    1.01
  -1   2 -12   44.27    1.08
   2  -2  12   18.10    0.63
  -2  -2 -12   18.23    0.65
  -2  -2 -12   17.33    0.55
  -2   2 -12   17.02    0.65
  -3  -2 -12   16.98    0.57
   3  -2  12   17.19    0.66
  -3  -2 -12   16.42    0.65
  -3   2 -12   16.75    0.67
  -4  -2 -12    8.87    0.53
  -4  -2 -12    9.41    0.47
   4  -2  12    9.76    0.54
  -4   2 -12    9.38    0.54
   5  -2  12   24.46    0.89
  -5  -2 -12   25.00    0.81
   5   2  12   26.36    0.94
  -5   2 -12   24.43    0.89
   6  -2  12    5.75    0.56
  -6  -2 -12    5.76    0.46
  -6   2 -12    6.20    0.52
   6   2  12    6.55    0.57
   7  -2  12    4.79    0.56
  -7  -2 -12    4.88    0.48
  -7   2 -12    4.86    0.55
   7   2  12    4.38    0.53
   7  -3 -12    9.04    0.56
   7   3 -12    9.39    0.61
   6  -3 -12   11.41    0.58
   6   3 -12   11.66    0.65
   5  -3 -12    5.50    0.40
   5   3 -12    5.16    0.44
   4  -3 -12   16.36    0.59
   4  -3 -12   18.01    0.58
   4   3 -12   15.37    0.68
   3  -3 -12    3.12    0.28
   3  -3 -12    3.15    0.28
   3   3 -12    2.89    0.35
   2  -3 -12   14.44    0.52
   2  -3 -12   14.64    0.47
   2   3 -12   15.46    0.62
  -1  -3  12   12.28    0.46
   1  -3 -12   11.52    0.40
   1  -3 -12   12.38    0.48
   1   3 -12   12.21    0.57
   0  -3 -12    2.22    0.27
   0  -3  12    2.28    0.28
   0  -3 -12    2.18    0.21
   0   3 -12    2.65    0.34
   1  -3  12   14.81    0.59
  -1  -3 -12   13.94    0.43
  -1  -3 -12   13.94    0.55
  -1   3 -12   14.05    0.60
   2  -3  12   18.38    0.69
  -2  -3 -12   16.61    0.50
  -2  -3 -12   16.42    0.64
  -2   3 -12   15.44    0.64
  -3  -3 -12    5.14    0.42
   3  -3  12    4.87    0.43
  -3  -3 -12    5.60    0.33
  -3   3 -12    6.03    0.45
  -4  -3 -12   23.95    0.87
   4  -3  12   23.84    0.88
  -4   3 -12   23.30    0.86
   5  -3  12   27.19    1.02
  -5  -3 -12   28.51    0.99
  -5   3 -12   27.77    0.98
   6  -3  12    6.16    0.60
   6   3  12    5.73    0.57
  -6   3 -12    6.47    0.59
   6   4 -12    1.54    0.32
   5   4 -12    3.89    0.43
   4  -4 -12    0.19    0.18
   4   4 -12    0.26    0.23
   3  -4 -12    0.42    0.20
   3   4 -12    0.10    0.20
   2  -4 -12    4.79    0.37
   2   4 -12    4.84    0.44
  -1  -4  12    8.28    0.44
   1  -4 -12    8.59    0.45
   1   4 -12    8.47    0.49
   0  -4  12    0.06    0.19
   0  -4 -12    0.24    0.18
   0   4 -12    0.46    0.22
   1  -4  12    6.57    0.45
  -1  -4 -12    6.50    0.42
  -1   4 -12    5.39    0.42
  -2  -4 -12    0.03    0.18
   2  -4  12    0.24    0.24
  -2   4 -12    0.26    0.21
  -3  -4 -12    4.00    0.43
   3  -4  12    5.24    0.50
  -3   4 -12    4.42    0.44
   4  -4  12    3.09    0.45
  -4  -4 -12    2.86    0.41
  -4   4 -12    3.82    0.45
  -5  -4 -12    0.33    0.30
   5  -4  12    0.21    0.29
  -5   4 -12    0.33    0.27
   5   5 -12    3.86    0.45
   4  -5 -12    1.46    0.30
   4   5 -12    1.76    0.33
   3  -5 -12   21.33    0.80
   3   5 -12   21.24    0.81
   2  -5 -12    1.57    0.29
   2   5 -12    1.55    0.31
   1  -5 -12    5.85    0.43
   1   5 -12    5.68    0.45
   0  -5 -12    9.58    0.53
   0  -5  12    9.86    0.55
   0   5 -12    9.82    0.55
  -1  -5 -12    5.31    0.43
   1  -5  12    3.88    0.44
  -1   5 -12    5.11    0.44
  -2  -5 -12    0.89    0.26
   2  -5  12    0.36    0.28
  -2   5 -12    0.53    0.26
  -3  -5 -12    4.44    0.46
   3  -5  12    5.57    0.57
  -3   5 -12    5.45    0.51
   4  -5  12    4.37    0.54
  -4  -5 -12    4.58    0.50
  -4   5 -12    5.25    0.51
   3  -6 -12    7.08    0.52
   2  -6 -12    1.07    0.29
   1  -6 -12    0.61    0.25
   0  -6  12    4.10    0.46
   0  -6 -12    3.97    0.44
  -1  -6 -12    8.24    0.55
   1  -6  12    7.37    0.58
   2  -6  12    0.59    0.31
  -2  -6 -12    0.81    0.29
   8   0 -13   -0.38    0.23
   7   0 -13    0.41    0.25
   6   0 -13    3.50    0.40
   5   0 -13    1.70    0.31
   4   0 -13    2.07    0.31
   3   0 -13    4.26    0.37
   2   0 -13   55.59    1.23
  -2   0  13   55.68    0.94
   1   0 -13   46.71    1.08
  -1   0  13   46.96    0.90
   0   0 -13   18.12    0.62
   0   0  13   17.84    0.54
   1   0  13    6.85    0.38
  -1   0 -13    7.36    0.41
  -2   0 -13   54.76    1.22
   2   0  13   54.78    1.19
   3   0  13    4.86    0.39
  -3   0 -13    5.25    0.38
   4   0  13   27.43    0.88
  -4   0 -13   27.43    0.87
   5   0  13    2.86    0.38
  -5   0 -13    3.36    0.39
   6   0  13    8.76    0.58
  -6   0 -13    8.36    0.58
  -7   0 -13   29.34    1.07
   7   0  13   32.58    1.12
   8  -1 -13    6.17    0.58
   8   1 -13    5.96    0.57
   7  -1 -13    3.10    0.41
   7   1 -13    3.02    0.41
   6  -1 -13   36.59    1.08
   6   1 -13   37.25    1.12
   5  -1 -13   14.69    0.64
   5   1 -13   14.77    0.67
   4  -1 -13    3.85    0.37
   4   1 -13    4.11    0.41
   3  -1 -13  138.65    2.35
   3   1 -13  131.69    2.40
   2  -1 -13   13.58    0.52
   2  -1 -13   13.79    0.41
  -1  -1  13   16.81    0.46
   1  -1 -13   16.61    0.49
   1  -1 -13   16.94    0.58
   1   1 -13   16.84    0.62
   0  -1 -13    6.87    0.35
   0  -1 -13    6.88    0.37
   0  -1  13    6.81    0.35
   0   1 -13    6.99    0.41
  -1  -1 -13   16.34    0.57
  -1  -1 -13   16.35    0.57
   1  -1  13   16.49    0.55
  -1   1 -13   17.24    0.63
   2  -1  13   20.55    0.65
  -2  -1 -13   20.77    0.65
  -2  -1 -13   21.00    0.69
  -2   1 -13   20.46    0.71
  -3  -1 -13   14.45    0.58
   3  -1  13   15.50    0.61
   3   1  13   13.11    0.61
  -3   1 -13   14.57    0.62
   4  -1  13    9.42    0.54
  -4  -1 -13    9.42    0.49
   4   1  13    9.62    0.57
  -4   1 -13    8.74    0.52
  -5  -1 -13    4.64    0.44
   5  -1  13    5.07    0.46
   5   1  13    4.56    0.45
  -5   1 -13    4.01    0.44
   6  -1  13    0.98    0.32
  -6  -1 -13    0.66    0.27
   6   1  13    0.86    0.32
  -6   1 -13    1.24    0.32
   7  -1  13    3.58    0.48
  -7  -1 -13    3.10    0.42
  -7   1 -13    3.21    0.46
   7   1  13    2.62    0.44
   7  -2 -13   10.62    0.61
   7   2 -13   12.18    0.70
   6  -2 -13    0.24    0.22
   6   2 -13    0.04    0.22
   5  -2 -13   12.07    0.57
   5   2 -13   10.90    0.59
   4  -2 -13   27.29    0.81
   4   2 -13   27.11    0.90
   3  -2 -13   10.91    0.38
   3  -2 -13   10.32    0.47
   3   2 -13   10.34    0.56
   2  -2 -13    9.82    0.43
   2  -2 -13    9.40    0.37
   1  -2 -13   22.77    0.64
  -1  -2  13   21.93    0.58
   1  -2 -13   22.28    0.62
   1   2 -13   22.46    0.75
   0  -2 -13   26.95    0.70
   0  -2  13   27.21    0.71
   0  -2 -13   28.60    0.75
   0   2 -13   28.60    0.84
   1  -2  13   40.96    0.96
  -1  -2 -13   41.71    0.91
  -1  -2 -13   38.72    0.97
  -1   2 -13   41.20    1.06
  -2  -2 -13    3.05    0.28
  -2  -2 -13    3.36    0.35
   2  -2  13    2.73    0.32
  -2   2 -13    2.57    0.33
  -3  -2 -13   15.78    0.57
   3  -2  13   15.22    0.65
  -3  -2 -13   15.71    0.66
  -3   2 -13   15.50    0.66
   4  -2  13    7.82    0.51
  -4  -2 -13    7.26    0.43
  -4  -2 -13    6.33    0.49
  -4   2 -13    7.68    0.51
   5  -2  13   23.69    0.88
  -5  -2 -13   24.10    0.80
   5   2  13   22.88    0.90
  -5   2 -13   21.94    0.87
   6  -2  13    6.73    0.61
  -6  -2 -13    6.26    0.48
  -6   2 -13    5.98    0.57
   6   2  13    7.29    0.58
   7  -3 -13    0.03    0.23
   7   3 -13    0.22    0.25
   6  -3 -13    9.70    0.54
   6   3 -13    9.45    0.60
   5  -3 -13   10.91    0.54
   5   3 -13   10.18    0.61
   4  -3 -13   24.53    0.74
   4   3 -13   22.99    0.84
   3  -3 -13    0.56    0.17
   3  -3 -13    0.85    0.20
   3   3 -13    0.59    0.24
   2  -3 -13   18.52    0.59
   2  -3 -13   18.02    0.55
   2   3 -13   17.18    0.69
   1  -3 -13   50.48    0.99
  -1  -3  13   50.81    1.05
   1  -3 -13   48.13    1.09
   1   3 -13   49.72    1.22
   0  -3  13   14.34    0.56
   0  -3 -13   15.51    0.57
   0   3 -13   14.12    0.62
  -1  -3 -13   19.66    0.68
   1  -3  13   20.41    0.71
  -1   3 -13   21.18    0.76
  -2  -3 -13   26.66    0.85
   2  -3  13   27.58    0.87
  -2   3 -13   26.70    0.88
  -3  -3 -13    0.24    0.21
   3  -3  13    0.16    0.24
  -3   3 -13    0.17    0.23
   4  -3  13    3.60    0.45
  -4  -3 -13    3.41    0.43
  -4   3 -13    2.51    0.37
   5  -3  13    1.55    0.37
  -5  -3 -13    2.31    0.42
  -5   3 -13    2.18    0.38
   6  -3  13    7.64    0.62
   6   3  13    8.44    0.66
  -6   3 -13    7.52    0.58
   6   4 -13    2.01    0.37
   5   4 -13    2.46    0.38
   4  -4 -13    5.92    0.40
   4   4 -13    6.35    0.50
   3  -4 -13    4.77    0.37
   3   4 -13    5.07    0.46
   2  -4 -13   12.75    0.55
   2   4 -13   12.30    0.61
   1  -4 -13   10.38    0.50
   1   4 -13   10.85    0.56
   0  -4  13    1.93    0.29
   0  -4 -13    1.61    0.27
   0   4 -13    2.03    0.32
  -1  -4 -13    1.10    0.25
   1  -4  13    0.61    0.25
  -1   4 -13    1.06    0.28
   2  -4  13    0.03    0.23
  -2  -4 -13    0.35    0.22
  -2   4 -13   -0.16    0.21
  -3  -4 -13    6.45    0.50
   3  -4  13    7.25    0.56
  -3   4 -13    6.38    0.51
  -4  -4 -13    2.52    0.41
   4  -4  13    2.46    0.42
  -4   4 -13    3.50    0.45
   5  -4  13   15.14    0.84
  -5  -4 -13   15.12    0.79
  -5   4 -13   16.51    0.81
   5   5 -13    2.76    0.39
   4  -5 -13    2.25    0.33
   4   5 -13    2.11    0.36
   3  -5 -13   18.45    0.73
   3   5 -13   19.37    0.80
   2  -5 -13    2.84    0.36
   2   5 -13    2.93    0.39
   1  -5 -13   12.78    0.62
   1   5 -13   14.01    0.66
   0  -5  13   22.22    0.82
   0  -5 -13   22.66    0.82
   0   5 -13   23.01    0.84
  -1  -5 -13    8.25    0.52
   1  -5  13    7.82    0.55
  -1   5 -13    8.13    0.54
   2  -5  13    9.93    0.64
  -2  -5 -13    9.94    0.58
  -2   5 -13    9.00    0.58
   3  -5  13    1.63    0.38
  -3  -5 -13    1.50    0.33
  -3   5 -13    0.99    0.32
  -4  -5 -13    1.16    0.34
   4  -5  13    2.03    0.45
  -4   5 -13    1.42    0.35
   3  -6 -13    1.02    0.29
   2  -6 -13   11.84    0.65
   1  -6 -13    1.43    0.31
   0  -6 -13    3.35    0.42
   0   6 -13    5.04    0.49
  -1  -6 -13    4.45    0.47
   1  -6  13    5.17    0.55
  -1   6 -13    4.14    0.46
   2  -6  13    0.39    0.29
  -2  -6 -13    0.65    0.29
  -2   6 -13    0.36    0.26
   7   0 -14    1.17    0.31
   6   0 -14   58.96    1.48
   5   0 -14    2.72    0.36
   4   0 -14    2.82    0.35
   3   0 -14   14.96    0.61
   2   0 -14   14.07    0.57
   1   0 -14    0.40    0.19
  -1   0  14    0.46    0.16
   0   0  14  158.60    2.53
   0   0 -14  159.35    2.66
   1   0  14    3.85    0.34
  -1   0 -14    3.48    0.33
   2   0  14    4.61    0.36
  -2   0 -14    4.86    0.37
  -3   0 -14    1.68    0.28
   3   0  14    1.13    0.26
  -4   0 -14    3.14    0.37
   4   0  14    3.67    0.40
  -5   0 -14   15.56    0.72
   5   0  14   15.01    0.71
  -6   0 -14    0.74    0.29
   6   0  14    1.41    0.34
   7  -1 -14   13.29    0.70
   7   1 -14   11.46    0.67
   6  -1 -14    3.10    0.39
   6   1 -14    3.12    0.41
   5  -1 -14    4.74    0.44
   5   1 -14    4.19    0.44
   4  -1 -14   11.49    0.55
   4   1 -14   11.50    0.60
   3  -1 -14   28.97    0.85
   3   1 -14   29.19    0.90
   2  -1 -14    4.14    0.27
   2  -1 -14    4.10    0.33
   2   1 -14    4.33    0.39
   1  -1 -14   48.00    0.98
  -1  -1  14   47.31    0.91
   1  -1 -14   47.45    1.08
   0  -1  14    2.13    0.23
   0  -1 -14    2.66    0.27
   0  -1 -14    2.47    0.28
   0   1 -14    2.86    0.32
  -1  -1 -14    2.38    0.28
   1  -1  14    3.08    0.29
  -1  -1 -14    2.57    0.29
  -1   1 -14    3.01    0.35
  -2  -1 -14   17.65    0.62
   2  -1  14   16.28    0.59
   2   1  14   17.46    0.66
  -2   1 -14   16.79    0.66
   3  -1  14    8.32    0.49
  -3  -1 -14    7.49    0.45
  -3   1 -14    7.47    0.48
   3   1  14    7.80    0.49
   4  -1  14    4.81    0.45
  -4  -1 -14    5.48    0.43
   4   1  14    5.56    0.49
  -4   1 -14    4.16    0.43
   5  -1  14    2.44    0.37
  -5  -1 -14    2.46    0.35
   5   1  14    2.35    0.40
  -5   1 -14    2.11    0.36
  -6  -1 -14    4.03    0.46
   6  -1  14    4.73    0.51
   6   1  14    4.67    0.51
  -6   1 -14    4.22    0.48
   7  -2 -14    9.50    0.60
   7   2 -14    8.66    0.61
   6  -2 -14   24.09    0.86
   6   2 -14   22.71    0.91
   5  -2 -14    0.10    0.21
   5   2 -14    0.49    0.26
   4  -2 -14    8.85    0.48
   4   2 -14    7.81    0.52
   3  -2 -14    5.72    0.39
   3   2 -14    5.57    0.43
   2  -2 -14    1.38    0.19
   2  -2 -14    1.23    0.22
   2   2 -14    0.94    0.26
   1  -2 -14   43.67    0.95
  -1  -2  14   42.23    0.89
   1  -2 -14   43.88    0.98
   1   2 -14   42.02    1.11
   0  -2 -14   23.93    0.67
   0  -2 -14   24.45    0.71
   0  -2  14   23.53    0.66
   0   2 -14   24.24    0.81
  -1  -2 -14   12.43    0.55
   1  -2  14   13.25    0.54
  -1  -2 -14   13.19    0.50
  -1   2 -14   13.31    0.60
  -2  -2 -14   28.79    0.78
  -2  -2 -14   29.97    0.88
   2  -2  14   28.98    0.84
  -2   2 -14   30.99    0.94
  -3  -2 -14   28.74    0.92
   3  -2  14   28.81    0.89
  -3  -2 -14   30.12    0.83
  -3   2 -14   29.87    0.96
   4  -2  14    6.36    0.51
  -4  -2 -14    6.31    0.43
  -4   2 -14    4.67    0.47
   4   2  14    5.61    0.51
   5  -2  14    4.52    0.50
  -5  -2 -14    5.75    0.45
   5   2  14    5.06    0.52
  -5   2 -14    4.78    0.50
  -6  -2 -14    9.39    0.56
   6  -2  14    8.69    0.65
  -6   2 -14    9.71    0.65
   6   2  14    8.90    0.63
   6  -3 -14    0.33    0.23
   6   3 -14    0.86    0.29
   5  -3 -14    2.72    0.35
   5   3 -14    3.61    0.44
   4  -3 -14    5.66    0.41
   4   3 -14    5.66    0.47
   3  -3 -14    0.21    0.18
   3  -3 -14    0.47    0.16
   3   3 -14    0.46    0.24
   2  -3 -14    5.96    0.36
   2  -3 -14    6.05    0.36
   2   3 -14    6.46    0.47
   1  -3 -14    0.10    0.15
   1   3 -14    0.14    0.22
   0  -3 -14   33.85    0.91
   0  -3  14   33.86    0.88
   0   3 -14   34.11    1.01
   1  -3  14   17.63    0.67
  -1  -3 -14   18.17    0.67
  -1   3 -14   19.47    0.74
   2  -3  14    1.63    0.31
  -2  -3 -14    1.65    0.29
  -2   3 -14    1.69    0.32
  -3  -3 -14   12.67    0.63
   3  -3  14   13.11    0.66
  -3   3 -14   10.98    0.61
  -4  -3 -14    0.76    0.32
   4  -3  14    1.18    0.35
  -4   3 -14    0.76    0.28
   5  -3  14    3.78    0.49
  -5   3 -14    5.21    0.53
   5   3  14    5.09    0.53
   6  -3  14    0.26    0.32
   6   3  14    0.15    0.32
  -6   3 -14    0.10    0.26
   6   4 -14    5.59    0.56
   5   4 -14    4.21    0.49
   4   4 -14    0.47    0.26
   3  -4 -14    6.04    0.41
   3   4 -14    5.27    0.50
   2  -4 -14    3.99    0.35
   2   4 -14    3.50    0.42
   1  -4 -14    2.29    0.30
   1   4 -14    2.27    0.34
   0  -4  14    3.11    0.36
   0  -4 -14    2.88    0.34
   0   4 -14    2.69    0.37
  -1  -4 -14    1.85    0.31
   1  -4  14    2.49    0.35
  -1   4 -14    2.47    0.35
   2  -4  14    0.96    0.30
  -2  -4 -14    0.84    0.27
  -2   4 -14    0.77    0.29
   3  -4  14    5.64    0.54
  -3  -4 -14    6.06    0.52
  -3   4 -14    5.98    0.49
  -4  -4 -14    4.36    0.50
   4  -4  14    4.79    0.55
  -4   4 -14    4.31    0.50
   5  -4  14   21.19    0.98
  -5  -4 -14   23.58    1.00
  -5   4 -14   23.59    0.98
   4   5 -14    1.45    0.34
   3  -5 -14    8.23    0.49
   3   5 -14    7.68    0.56
   2  -5 -14    6.21    0.46
   2   5 -14    6.03    0.51
   1  -5 -14    6.72    0.48
   1   5 -14    6.83    0.50
   0  -5 -14    4.11    0.41
   0   5 -14    5.19    0.50
   1  -5  14   15.24    0.73
  -1  -5 -14   15.08    0.71
  -1   5 -14   15.09    0.72
  -2  -5 -14   10.31    0.61
   2  -5  14   10.21    0.63
  -2   5 -14    9.95    0.60
   3  -5  14    1.23    0.35
  -3  -5 -14    1.81    0.38
  -3   5 -14    1.69    0.37
   2  -6 -14   22.70    0.88
   1  -6 -14    4.96    0.48
   1   6 -14    5.24    0.51
   0  -6 -14    1.31    0.31
   0   6 -14    1.29    0.33
   1  -6  14   11.01    0.69
  -1  -6 -14   10.75    0.66
  -1   6 -14   12.03    0.67
   7   0 -15   -0.07    0.24
   6   0 -15   -0.21    0.21
   5   0 -15    2.80    0.38
   4   0 -15   22.60    0.82
   3   0 -15    3.11    0.36
   2   0 -15   33.78    0.94
   1   0 -15   65.33    1.41
  -1   0  15   64.08    1.18
   0   0  15   12.98    0.48
   0   0 -15   13.43    0.58
  -1   0 -15    5.18    0.40
   1   0  15    5.17    0.38
  -2   0 -15    2.28    0.31
   2   0  15    1.91    0.30
   3   0  15    6.91    0.47
  -3   0 -15    7.12    0.46
  -4   0 -15    0.39    0.24
   4   0  15    0.47    0.28
   5   0  15   29.45    1.01
  -5   0 -15   27.70    0.98
  -6   0 -15    0.13    0.24
   6   0  15    0.03    0.29
   7  -1 -15    2.36    0.38
   7   1 -15    3.05    0.44
   6  -1 -15   20.86    0.84
   6   1 -15   20.26    0.87
   5  -1 -15   18.68    0.75
   5   1 -15   16.49    0.74
   4  -1 -15    1.79    0.29
   4   1 -15    2.22    0.35
   3  -1 -15   17.10    0.66
   3   1 -15   17.40    0.72
   2  -1 -15   59.53    1.31
   2   1 -15   60.59    1.40
  -1  -1  15    7.63    0.35
   1  -1 -15    7.26    0.42
   1  -1 -15    7.71    0.39
   1   1 -15    7.64    0.49
   0  -1 -15    9.30    0.45
   0  -1  15    8.68    0.41
   0  -1 -15    8.50    0.44
   0   1 -15    8.79    0.50
  -1  -1 -15   17.02    0.62
   1  -1  15   16.91    0.58
  -1   1 -15   17.32    0.68
  -2  -1 -15    7.28    0.43
   2  -1  15    6.48    0.43
   2   1  15    7.31    0.46
  -2   1 -15    7.39    0.49
   3  -1  15    0.20    0.21
  -3  -1 -15    0.42    0.21
  -3   1 -15    0.24    0.21
   3   1  15    0.64    0.26
   4  -1  15   17.81    0.74
  -4  -1 -15   17.02    0.70
  -4   1 -15   18.49    0.77
   4   1  15   18.19    0.76
  -5  -1 -15    1.35    0.29
   5  -1  15    0.90    0.30
   5   1  15    1.45    0.37
  -5   1 -15    1.26    0.31
  -6  -1 -15   17.22    0.78
   6  -1  15   13.54    0.76
   6   1  15   14.24    0.79
  -6   1 -15   14.47    0.75
   7  -2 -15   27.93    1.00
   7   2 -15   26.78    1.05
   6  -2 -15    2.61    0.38
   6   2 -15    2.95    0.43
   5  -2 -15    1.97    0.32
   5   2 -15    2.16    0.36
   4  -2 -15    1.06    0.25
   4   2 -15    0.60    0.27
   3  -2 -15    1.17    0.24
   3   2 -15    0.83    0.27
   2  -2 -15   34.73    0.82
   2  -2 -15   35.41    0.91
   2   2 -15   37.07    1.06
   1  -2 -15   38.27    0.92
   1  -2 -15   39.61    0.94
   1   2 -15   37.02    1.06
   0  -2  15    8.49    0.42
   0  -2 -15    9.47    0.46
   0  -2 -15    9.56    0.47
   0   2 -15    8.85    0.52
  -1  -2 -15    2.70    0.29
   1  -2  15    2.33    0.30
  -1  -2 -15    1.64    0.27
  -1   2 -15    2.58    0.35
   2  -2  15    8.91    0.51
  -2  -2 -15    9.77    0.47
  -2  -2 -15   10.27    0.54
  -2   2 -15    9.22    0.54
  -3  -2 -15    1.52    0.32
   3  -2  15    1.48    0.32
  -3  -2 -15    1.50    0.26
  -3   2 -15    0.68    0.27
   4  -2  15   30.24    0.99
  -4  -2 -15   31.74    0.92
  -4   2 -15   29.18    1.01
   4   2  15   31.70    1.04
  -5  -2 -15    3.60    0.41
   5  -2  15    3.81    0.47
  -5   2 -15    4.19    0.49
   5   2  15    3.01    0.44
   6  -2  15    1.15    0.38
  -6  -2 -15    1.18    0.30
   6   2  15    0.42    0.34
  -6   2 -15    1.42    0.37
   6   3 -15    3.95    0.48
   5   3 -15    0.45    0.27
   4   3 -15    0.99    0.29
   3   3 -15    5.00    0.48
   2  -3 -15   32.58    0.85
   2   3 -15   32.01    1.03
   1  -3 -15   15.21    0.57
   1   3 -15   13.79    0.66
   0  -3 -15   16.27    0.61
   0  -3  15   16.57    0.62
   0   3 -15   15.05    0.68
   1  -3  15    1.13    0.28
  -1  -3 -15    1.60    0.29
  -1   3 -15    1.51    0.31
   2  -3  15    2.79    0.38
  -2  -3 -15    2.92    0.38
  -2   3 -15    2.96    0.38
   3  -3  15    4.47    0.48
  -3  -3 -15    4.34    0.45
  -3   3 -15    4.46    0.47
   4  -3  15   28.83    1.04
  -4  -3 -15   29.34    1.05
  -4   3 -15   29.15    1.03
   5  -3  15    7.79    0.63
  -5   3 -15    6.50    0.55
   5   3  15    7.68    0.63
   5   4 -15   13.22    0.73
   4   4 -15   10.24    0.63
   3  -4 -15    1.66    0.27
   3   4 -15    1.37    0.34
   2  -4 -15   15.59    0.62
   2   4 -15   14.29    0.69
   1  -4 -15   13.69    0.59
   1   4 -15   13.44    0.67
   0  -4  15    6.94    0.46
   0  -4 -15    7.51    0.48
   0   4 -15    6.98    0.53
   1  -4  15    0.14    0.25
  -1  -4 -15    0.42    0.22
  -1   4 -15    0.54    0.27
   2  -4  15   12.52    0.66
  -2  -4 -15   13.04    0.66
  -2   4 -15   12.07    0.67
   3  -4  15    3.05    0.44
  -3  -4 -15    3.34    0.44
  -3   4 -15    4.34    0.48
   4  -4  15    3.13    0.48
  -4  -4 -15    3.21    0.47
  -4   4 -15    2.49    0.42
   4   5 -15    9.49    0.64
   3  -5 -15   11.16    0.57
   3   5 -15   10.87    0.66
   2  -5 -15    3.89    0.40
   2   5 -15    3.77    0.46
   1  -5 -15    3.19    0.38
   1   5 -15    3.03    0.42
   0  -5 -15    8.91    0.56
   0   5 -15    9.34    0.60
   1  -5  15    2.67    0.40
  -1  -5 -15    2.39    0.36
  -1   5 -15    2.79    0.41
  -2  -5 -15   18.18    0.81
   2  -5  15   16.42    0.81
  -2   5 -15   17.35    0.80
  -3  -5 -15    3.88    0.48
   3  -5  15    3.04    0.46
  -3   5 -15    3.85    0.48
   7   0 -16    6.20    0.59
   6   0 -16    1.50    0.33
   5   0 -16    3.44    0.42
   4   0 -16   10.58    0.57
   3   0 -16   11.03    0.57
   2   0 -16   22.31    0.77
   1   0 -16    0.85    0.25
  -1   0  16    0.84    0.19
   0   0  16   12.80    0.50
   0   0 -16   13.21    0.58
   1   0  16    0.90    0.24
  -1   0 -16    0.86    0.24
  -2   0 -16    5.00    0.40
   2   0  16    5.11    0.42
   3   0  16    2.68    0.35
  -3   0 -16    2.51    0.35
   4   0  16    6.81    0.54
  -4   0 -16    7.03    0.50
   5   0  16    0.77    0.31
  -5   0 -16    1.12    0.30
   6   0  16    1.48    0.39
  -6   0 -16    1.29    0.35
   7  -1 -16   13.03    0.71
   7   1 -16   14.48    0.79
   6  -1 -16   12.01    0.65
   6   1 -16   11.18    0.66
   5  -1 -16   14.29    0.67
   5   1 -16   15.02    0.72
   4  -1 -16    0.82    0.26
   4   1 -16    0.61    0.26
   3  -1 -16    9.56    0.51
   3   1 -16    9.17    0.55
   2  -1 -16    2.97    0.34
   2   1 -16    3.04    0.38
   1  -1 -16    5.90    0.40
   1  -1 -16    5.40    0.38
   1   1 -16    6.75    0.46
   0  -1 -16    8.97    0.49
   0  -1  16    9.45    0.42
   0   1 -16    8.59    0.51
   1  -1  16   56.94    1.21
  -1  -1 -16   56.73    1.28
  -1   1 -16   55.75    1.36
   1   1  16   57.48    1.28
   2  -1  16    0.65    0.24
  -2  -1 -16    0.91    0.25
   2   1  16    1.28    0.28
  -2   1 -16    1.06    0.28
   3  -1  16    4.42    0.42
  -3  -1 -16    3.73    0.38
  -3   1 -16    3.61    0.42
   3   1  16    4.15    0.43
   4  -1  16   14.02    0.66
  -4  -1 -16   12.90    0.64
   4   1  16   13.47    0.67
  -4   1 -16   14.63    0.71
  -5  -1 -16    2.91    0.39
   5  -1  16    2.17    0.38
   5   1  16    2.35    0.42
  -5   1 -16    2.25    0.40
  -6  -1 -16   10.68    0.66
   6  -1  16   11.04    0.71
   6   1  16    9.16    0.66
  -6   1 -16   11.89    0.72
   6  -2 -16   20.36    0.83
   6   2 -16   19.64    0.88
   5  -2 -16    2.36    0.36
   5   2 -16    2.46    0.40
   4  -2 -16    2.11    0.32
   4   2 -16    2.18    0.37
   3  -2 -16    7.79    0.46
   3   2 -16    7.00    0.50
   2  -2 -16   10.88    0.52
   2  -2 -16   10.51    0.45
   2   2 -16   10.01    0.58
   1  -2 -16   20.11    0.68
   1  -2 -16   19.13    0.63
   1   2 -16   18.92    0.77
   0  -2  16    6.00    0.40
   0  -2 -16    6.70    0.43
   0  -2 -16    6.49    0.40
   0   2 -16    7.48    0.49
  -1  -2 -16    3.10    0.36
   1  -2  16    2.83    0.33
  -1  -2 -16    2.88    0.31
  -1   2 -16    2.61    0.36
  -2  -2 -16    2.29    0.35
  -2  -2 -16    2.51    0.31
   2  -2  16    2.57    0.35
  -2   2 -16    2.09    0.37
  -3  -2 -16    6.15    0.44
   3  -2  16    6.15    0.49
  -3   2 -16    5.56    0.48
   3   2  16    6.60    0.51
  -4  -2 -16    7.51    0.49
   4  -2  16    7.83    0.55
  -4   2 -16    9.15    0.62
   4   2  16    7.74    0.57
   5  -2  16    3.86    0.48
  -5  -2 -16    4.97    0.47
  -5   2 -16    3.78    0.47
   5   2  16    3.75    0.47
   6   3 -16   18.02    0.87
   5   3 -16    1.82    0.37
   4   3 -16    0.29    0.26
   3   3 -16    0.41    0.25
   2  -3 -16   15.17    0.57
   2   3 -16   14.55    0.72
   1  -3 -16    7.88    0.44
   1   3 -16    8.67    0.57
   0  -3  16    5.63    0.42
   0  -3 -16    6.33    0.44
   0   3 -16    6.63    0.50
   1  -3  16    6.15    0.46
  -1  -3 -16    6.30    0.47
  -1   3 -16    5.24    0.50
  -2  -3 -16    5.67    0.49
   2  -3  16    4.56    0.45
  -2   3 -16    4.35    0.46
  -3  -3 -16    0.05    0.25
   3  -3  16    0.03    0.25
  -3   3 -16    0.39    0.26
   4  -3  16   14.28    0.75
  -4  -3 -16   15.30    0.80
  -4   3 -16   15.66    0.79
   5  -3  16   -0.34    0.26
   5   3  16   -0.13    0.29
  -5   3 -16    0.31    0.30
   5   4 -16    0.70    0.31
   4   4 -16    7.98    0.58
   3   4 -16    6.54    0.56
   2  -4 -16    5.29    0.40
   2   4 -16    5.89    0.55
   1  -4 -16    8.07    0.48
   1   4 -16    7.16    0.53
   0  -4 -16    0.11    0.21
   0   4 -16   -0.07    0.23
   1  -4  16   -0.20    0.23
  -1  -4 -16    0.18    0.23
  -1   4 -16    0.28    0.26
  -2  -4 -16   19.57    0.83
   2  -4  16   19.98    0.82
  -2   4 -16   18.91    0.83
  -3  -4 -16   40.99    1.27
   3  -4  16   41.39    1.28
  -3   4 -16   41.87    1.29
   4  -4  16    1.78    0.40
  -4  -4 -16    2.61    0.44
  -4   4 -16    4.04    0.52
   3   5 -16    1.06    0.32
   2  -5 -16   31.11    0.97
   2   5 -16   30.18    1.08
   1  -5 -16   12.41    0.63
   1   5 -16   12.42    0.68
   0  -5 -16    4.74    0.47
   0   5 -16    4.88    0.52
  -1  -5 -16    1.33    0.34
  -1   5 -16    1.65    0.36
  -2  -5 -16    2.82    0.42
   2  -5  16    2.62    0.44
  -2   5 -16    2.21    0.40
   6   0 -17    2.32    0.39
   5   0 -17    0.20    0.25
   4   0 -17    7.19    0.51
   3   0 -17    6.58    0.49
   2   0 -17    1.51    0.30
   1   0 -17    2.74    0.35
   0   0  17    9.56    0.46
   0   0 -17   11.18    0.57
   1   0  17    1.04    0.26
  -1   0 -17    1.21    0.28
  -2   0 -17    6.16    0.47
   2   0  17    6.99    0.48
  -3   0 -17    2.71    0.36
   3   0  17    3.35    0.40
   4   0  17    0.04    0.27
  -4   0 -17   -0.06    0.22
   5   0  17    3.88    0.47
  -5   0 -17    4.62    0.50
   6  -1 -17    5.32    0.53
   6   1 -17    5.03    0.53
   5  -1 -17    5.40    0.51
   5   1 -17    5.46    0.53
   4  -1 -17    6.92    0.50
   4   1 -17    6.59    0.51
   3  -1 -17    8.62    0.51
   3   1 -17    8.73    0.54
   2  -1 -17    2.40    0.33
   2   1 -17    2.47    0.37
   1  -1 -17    7.86    0.48
   1   1 -17    7.59    0.51
  -1   1  17    8.26    0.43
   0  -1 -17    5.36    0.40
   0  -1  17    4.85    0.37
   0   1  17    6.05    0.41
   0   1 -17    5.05    0.43
   1  -1  17   15.09    0.58
  -1  -1 -17   13.72    0.60
  -1   1 -17   14.07    0.66
   1   1  17   13.95    0.61
  -2  -1 -17    4.94    0.40
   2  -1  17    4.70    0.41
   2   1  17    5.24    0.46
  -2   1 -17    5.17    0.45
  -3  -1 -17    5.16    0.42
   3  -1  17    5.12    0.43
  -3   1 -17    4.71    0.47
   3   1  17    4.69    0.46
   4  -1  17    2.15    0.37
  -4  -1 -17    2.34    0.35
  -4   1 -17    2.53    0.40
   4   1  17    1.91    0.38
   5  -1  17    6.46    0.57
  -5  -1 -17    6.94    0.53
  -5   1 -17    6.48    0.54
   5   1  17    5.59    0.57
   6  -2 -17    4.20    0.47
   6   2 -17    4.04    0.50
   5  -2 -17    7.35    0.53
   5   2 -17    7.40    0.57
   4  -2 -17    8.74    0.53
   4   2 -17    7.75    0.56
   3  -2 -17    6.78    0.46
   3   2 -17    6.01    0.50
   2  -2 -17    8.02    0.48
   2   2 -17    7.91    0.56
   1  -2 -17   10.02    0.51
   1  -2 -17    9.27    0.47
   1   2 -17    9.75    0.60
   0  -2  17    2.99    0.33
   0  -2 -17    3.09    0.34
   0  -2 -17    3.49    0.36
   0   2 -17    3.79    0.44
  -1  -2 -17   21.71    0.78
   1  -2  17   21.91    0.75
  -1  -2 -17   22.38    0.73
  -1   2 -17   21.98    0.85
   2  -2  17   19.09    0.73
  -2  -2 -17   19.50    0.79
  -2  -2 -17   17.46    0.66
  -2   2 -17   17.59    0.79
   3  -2  17    0.18    0.26
  -3  -2 -17    0.73    0.25
   3   2  17    0.53    0.29
  -3   2 -17    0.43    0.26
   4  -2  17    0.22    0.28
  -4  -2 -17    0.53    0.25
  -4   2 -17    0.29    0.30
   4   2  17    0.33    0.29
   5  -2  17    4.79    0.53
  -5  -2 -17    4.71    0.47
  -5   2 -17    4.28    0.51
   5   2  17    3.81    0.50
   5   3 -17    2.67    0.43
   4   3 -17    4.49    0.49
   3   3 -17   16.02    0.79
   2   3 -17   10.11    0.63
   1  -3 -17   14.96    0.61
   0  -3 -17    1.90    0.31
   0   3 -17    2.06    0.36
  -1  -3 -17    4.82    0.46
   1  -3  17    5.49    0.48
  -1   3 -17    5.61    0.52
  -2  -3 -17    0.87    0.30
   2  -3  17    0.48    0.29
  -2   3 -17    1.01    0.32
  -3  -3 -17   31.92    1.07
   3  -3  17   28.57    1.02
  -3   3 -17   28.99    1.06
   4  -3  17    0.72    0.32
   4   3  17    0.80    0.33
  -4   3 -17    0.66    0.33
   4   4 -17    3.53    0.48
   3   4 -17    6.19    0.58
   2  -4 -17   14.45    0.63
   2   4 -17   16.83    0.81
   1  -4 -17   25.69    0.85
   1   4 -17   25.97    0.97
   0  -4 -17    2.07    0.32
   0   4 -17    2.21    0.40
   1  -4  17    2.66    0.40
  -1  -4 -17    3.25    0.42
  -1   4 -17    3.22    0.45
  -2  -4 -17   11.25    0.65
   2  -4  17   10.92    0.66
  -2   4 -17   10.35    0.67
   3  -4  17   14.96    0.80
  -3  -4 -17   16.67    0.84
  -3   4 -17   16.43    0.83
   2  -5 -17    1.26    0.28
   2   5 -17    0.45    0.31
   1  -5 -17   24.02    0.88
   1   5 -17   23.50    0.96
   0  -5 -17    7.66    0.55
   0   5 -17    7.42    0.60
  -1  -5 -17    1.23    0.32
  -1   5 -17    0.18    0.28
   6   0 -18    2.23    0.40
   5   0 -18    0.29    0.25
   4   0 -18    3.12    0.42
   3   0 -18    0.32    0.24
   2   0 -18   -0.08    0.22
   1   0 -18   11.46    0.59
   0   0  18    6.80    0.41
   0   0 -18    7.32    0.49
   1   0  18    2.45    0.32
  -1   0 -18    2.44    0.36
  -2   0 -18    0.68    0.26
   2   0  18    1.05    0.29
   3   0  18    0.08    0.24
  -3   0 -18    0.00    0.23
  -4   0 -18    2.89    0.41
   4   0  18    1.71    0.38
   5   0  18    0.13    0.28
  -5   0 -18    0.09    0.26
   6  -1 -18    0.68    0.31
   6   1 -18    0.16    0.29
   5  -1 -18    5.20    0.51
   5   1 -18    5.01    0.52
   4  -1 -18    0.07    0.21
   4   1 -18    0.28    0.26
   3  -1 -18   11.02    0.58
   3   1 -18   11.82    0.66
   2  -1 -18    4.21    0.42
   2   1 -18    3.95    0.44
   1  -1 -18    5.53    0.42
   1   1 -18    5.37    0.46
   0  -1 -18    3.82    0.40
   0  -1  18    2.68    0.31
   0   1  18    3.36    0.34
   0   1 -18    3.21    0.40
   1  -1  18   10.69    0.52
  -1  -1 -18    9.97    0.53
  -1   1 -18    9.98    0.59
   1   1  18   11.18    0.56
  -2  -1 -18   11.17    0.57
   2  -1  18    9.80    0.54
  -2   1 -18   10.47    0.62
   2   1  18   11.04    0.60
  -3  -1 -18    0.60    0.26
   3  -1  18    0.69    0.27
   3   1  18    0.09    0.25
  -3   1 -18    0.55    0.26
  -4  -1 -18    2.20    0.35
   4  -1  18    2.68    0.41
  -4   1 -18    2.44    0.40
   4   1  18    2.22    0.40
   5  -1  18    0.65    0.33
  -5  -1 -18    1.10    0.33
   5   1  18    1.28    0.36
  -5   1 -18    1.19    0.34
   5  -2 -18    6.92    0.51
   5   2 -18    6.83    0.57
   4  -2 -18    2.72    0.37
   4   2 -18    1.90    0.37
   3  -2 -18   21.02    0.78
   3   2 -18   19.66    0.85
   2  -2 -18   22.44    0.78
   2   2 -18   21.83    0.88
   1  -2 -18    2.76    0.34
   1  -2 -18    2.83    0.33
   1   2 -18    2.35    0.38
   0  -2 -18    9.98    0.53
   0  -2 -18   10.40    0.54
   0   2 -18   10.77    0.62
  -1  -2 -18    0.54    0.27
  -1  -2 -18    0.90    0.24
   1  -2  18    0.52    0.25
  -1   2 -18    0.67    0.30
   2  -2  18   11.88    0.60
  -2  -2 -18   11.62    0.56
   2   2  18   11.60    0.62
  -2   2 -18   11.22    0.67
  -3  -2 -18    0.16    0.21
   3  -2  18   -0.03    0.26
  -3   2 -18    0.01    0.25
   3   2  18    0.17    0.28
   4  -2  18    1.37    0.37
  -4  -2 -18    1.55    0.32
  -4   2 -18    1.55    0.37
   4   2  18    1.88    0.38
   5   3 -18    6.00    0.60
   4   3 -18   22.06    0.95
   3   3 -18    4.46    0.51
   2   3 -18   11.74    0.70
   1  -3 -18    3.39    0.37
   1   3 -18    5.16    0.54
   0  -3 -18    2.18    0.34
   0   3 -18    2.21    0.39
   1  -3  18    1.33    0.31
  -1  -3 -18    1.49    0.33
  -1   3 -18    1.23    0.33
  -2  -3 -18    8.08    0.59
   2  -3  18    8.58    0.58
  -2   3 -18   10.07    0.65
  -3  -3 -18    0.01    0.29
   3  -3  18    0.05    0.29
  -3   3 -18    0.37    0.28
   3   4 -18    0.67    0.31
   2   4 -18    2.70    0.43
   1  -4 -18    3.14    0.38
   1   4 -18    3.18    0.45
   0  -4 -18    5.64    0.46
   0   4 -18    5.50    0.55
  -1  -4 -18    5.74    0.49
  -1   4 -18    5.66    0.56
   2  -4  18    1.00    0.36
  -2  -4 -18    2.15    0.41
  -2   4 -18    1.40    0.38
   5   0 -19   11.60    0.68
   4   0 -19    8.50    0.57
   3   0 -19    1.13    0.32
   2   0 -19   -0.06    0.23
   1   0 -19    7.37    0.53
   0   0 -19    0.40    0.26
  -1   0 -19    4.39    0.45
   1   0  19    5.07    0.44
  -2   0 -19    5.76    0.47
   2   0  19    5.60    0.46
  -3   0 -19   -0.24    0.23
   3   0  19   -0.05    0.27
  -4   0 -19    3.22    0.45
   4   0  19    2.95    0.44
   5  -1 -19    4.37    0.48
   5   1 -19    4.56    0.52
   4  -1 -19    1.00    0.30
   4   1 -19    0.66    0.30
   3  -1 -19    5.66    0.49
   3   1 -19    6.79    0.56
   2  -1 -19    3.01    0.39
   2   1 -19    1.89    0.35
   1  -1 -19    8.51    0.55
   1   1 -19    9.70    0.59
   0  -1 -19    5.65    0.47
   0   1 -19    5.67    0.48
   0   1  19    4.73    0.41
   1  -1  19    5.32    0.43
  -1  -1 -19    4.73    0.46
  -1   1 -19    4.98    0.50
   1   1  19    5.10    0.45
  -2  -1 -19   28.58    0.95
   2  -1  19   29.36    0.92
  -2   1 -19   27.71    1.00
   2   1  19   28.21    0.94
  -3  -1 -19    9.29    0.56
   3  -1  19    9.61    0.58
  -3   1 -19    8.75    0.61
   3   1  19    9.76    0.62
  -4  -1 -19    0.72    0.29
   4  -1  19   -0.16    0.26
   4   1  19    0.33    0.29
  -4   1 -19   -0.09    0.24
   5  -2 -19   11.69    0.66
   5   2 -19   10.35    0.70
   4  -2 -19    3.57    0.42
   4   2 -19    2.19    0.40
   3  -2 -19    5.89    0.48
   3   2 -19    7.14    0.59
   2  -2 -19   12.34    0.61
   2   2 -19   11.24    0.68
   1  -2 -19    0.90    0.26
   1   2 -19    0.29    0.27
   0  -2 -19    3.91    0.40
   0  -2 -19    4.21    0.43
   0   2 -19    4.02    0.47
   1  -2  19    9.23    0.54
  -1  -2 -19   10.68    0.55
  -1   2 -19    9.36    0.61
   1   2  19    9.64    0.58
   2  -2  19    7.20    0.53
  -2  -2 -19    8.25    0.51
  -2   2 -19    8.07    0.58
   2   2  19    7.39    0.56
   3  -2  19    4.97    0.52
  -3   2 -19    5.52    0.55
   3   2  19    6.00    0.53
  -4   2 -19    5.09    0.55
   4   3 -19    8.85    0.66
   3   3 -19   21.45    0.95
   2   3 -19    1.86    0.38
   1   3 -19    2.48    0.42
   0  -3 -19   16.98    0.71
   0   3 -19   13.31    0.74
  -1  -3 -19   11.21    0.63
   2  -3  19    1.45    0.36
  -2  -3 -19    2.19    0.41
  -2   3 -19    2.22    0.40
   3  -3  19    2.88    0.45
  -3   3 -19    3.15    0.47
   3   3  19    3.12    0.45
   2   4 -19    1.87    0.42
   1  -4 -19    4.41    0.45
   1   4 -19    4.85    0.57
   0  -4 -19    0.35    0.25
   0   4 -19   -0.13    0.27
  -1  -4 -19   18.46    0.83
  -1   4 -19   16.71    0.85
   5   0 -20    2.57    0.43
   4   0 -20    0.60    0.28
   3   0 -20    0.43    0.27
   2   0 -20   13.90    0.70
   1   0 -20    2.23    0.37
   0   0 -20    3.69    0.44
   1   0  20    5.10    0.44
  -1   0 -20    5.39    0.51
  -2   0 -20   11.59    0.66
   2   0  20   10.48    0.58
   3   0  20   -0.19    0.24
  -3   0 -20    0.27    0.27
   5  -1 -20    8.43    0.59
   5   1 -20    8.57    0.63
   4  -1 -20    0.55    0.29
   4   1 -20    0.68    0.31
   3  -1 -20    6.48    0.53
   3   1 -20    5.39    0.56
   2  -1 -20    8.76    0.58
   2   1 -20    8.07    0.60
   1  -1 -20    2.37    0.36
   1   1 -20    2.07    0.39
   0  -1 -20    0.94    0.28
   0   1 -20    1.26    0.33
   1  -1  20   10.71    0.56
  -1  -1 -20   11.21    0.62
   1   1  20   11.64    0.59
  -1   1 -20   11.39    0.67
  -2  -1 -20    1.20    0.31
   2  -1  20    0.55    0.29
  -2   1 -20    1.05    0.31
   2   1  20    0.79    0.30
   3  -1  20    5.27    0.51
  -3  -1 -20    5.84    0.54
  -3   1 -20    6.89    0.57
   3   1  20    5.49    0.53
   4  -2 -20    5.58    0.52
   4   2 -20    4.28    0.52
   3  -2 -20   12.28    0.65
   3   2 -20   12.10    0.74
   2  -2 -20    0.86    0.28
   2   2 -20    0.33    0.27
   1  -2 -20    2.21    0.35
   1   2 -20    1.92    0.38
   0  -2 -20    6.53    0.49
   0   2  20    7.44    0.50
   0   2 -20    5.59    0.57
   1   2  20    2.38    0.38
  -1   2 -20    2.95    0.43
   2  -2  20   13.09    0.68
   2   2  20   15.77    0.76
  -2   2 -20   14.93    0.78
   3  -2  20    0.89    0.33
  -3   2 -20    1.08    0.34
   3   2  20    0.50    0.33
   3   3 -20   11.62    0.72
   2   3 -20    1.92    0.40
   1   3 -20    7.13    0.61
   0  -3 -20   14.50    0.70
   0   3 -20   14.24    0.79
  -1  -3 -20    0.78    0.32
  -1   3 -20    0.66    0.33
  -2  -3 -20    2.98    0.50
  -2   3 -20    3.66    0.50
   4   0 -21   15.24    0.80
   3   0 -21   -0.08    0.26
   2   0 -21    2.50    0.41
   1   0 -21    0.41    0.27
   0   0 -21    2.95    0.41
  -1   0 -21    7.67    0.58
   2   0  21    4.02    0.44
  -2   0 -21    4.53    0.50
  -3   0 -21    0.96    0.33
   4  -1 -21    0.86    0.33
   4   1 -21    0.54    0.32
   3  -1 -21    9.71    0.64
   3   1 -21    9.48    0.68
   2  -1 -21    8.39    0.59
   2   1 -21    8.42    0.61
   1  -1 -21   48.55    1.33
   1   1 -21   49.34    1.43
   0  -1 -21   14.74    0.72
   0   1 -21   14.98    0.77
  -1  -1 -21    1.20    0.31
  -1   1 -21    1.77    0.37
   1   1  21    1.55    0.33
  -2  -1 -21   12.03    0.65
   2  -1  21   11.78    0.65
  -2   1 -21   13.14    0.73
   2   1  21   12.34    0.67
   3   2 -21    2.28    0.43
   2   2 -21   28.63    1.10
   1   2 -21    7.78    0.60
   0   2 -21   14.88    0.79
   1   2  21    2.86    0.41
  -1   2 -21    1.74    0.39
   2   2  21    1.01    0.35
  -2   2 -21    1.15    0.37
   1   3 -21   12.02    0.74
   0   3 -21   22.17    1.00
   3   0 -22    2.93    0.45
   2   0 -22    0.68    0.32
   1   0 -22   14.40    0.77
   0   0 -22    1.06    0.33
  -1   0 -22    2.28    0.41
   2  -1 -22   21.66    0.89
   2   1 -22   22.19    0.98
   1  -1 -22    4.78    0.52
   1   1 -22    5.99    0.60
   0  -1 -22    1.50    0.36
   0   1 -22    2.28    0.43
  -1  -1 -22   13.74    0.72
  -1   1 -22   13.73    0.77
   1   2 -22   18.94    0.91
   0   0   0    0.00    0.00
;
_shelx_hkl_checksum              43106
_shelx_res_file
;
TITL mol2 in P2(1)
    c.res
    created by SHELXL-2017/1 at 10:44:43 on 08-Jun-2018
CELL 0.71073   6.4272   5.2976  15.5678  90.000  94.469  90.000
ZERR    2.00   0.0008   0.0006   0.0019   0.000   0.002   0.000
LATT -1
SYMM -X, 0.5+Y, -Z
SFAC C H O
UNIT 20 28 12
SIZE 0.39 0.15 0.05
omit -4 58
omit  0  0  1
TEMP -173.000
acta
conf
htab
L.S. 8
BOND $h
FMAP 2
PLAN 10
EQIV $1 -x+1, y+1/2, -z+1
EQIV $2 x+1, y-1, z
EQIV $3 -x+2, y+1/2, -z+1
EQIV $4 x, y-1, z
HTAB O1 O3_$1
HTAB O4 O2_$2
HTAB C2 O3_$3
HTAB C3 O2_$4
HTAB C6 O4
WGHT    0.041100    0.078300
FVAR       0.46982
O1    3    0.384841    0.583973    0.454759    11.00000    0.01352    0.01390 =
         0.01596    0.00255    0.00650    0.00249
H1    2    0.275057    0.637960    0.474463    11.00000    0.04582
O2    3    0.371798    0.930825    0.371238    11.00000    0.01386    0.01418 =
         0.01716    0.00271    0.00288    0.00441
O3    3    0.929502    0.213530    0.456842    11.00000    0.01270    0.01252 =
         0.01217    0.00044    0.00145    0.00089
O4    3    1.059613    0.263005    0.328782    11.00000    0.01153    0.01328 =
         0.01571    0.00172    0.00357    0.00318
H4    2    1.157702    0.171268    0.351916    11.00000    0.02740
O5    3    0.765502    0.836634    0.321655    11.00000    0.01562    0.00916 =
         0.01108   -0.00125    0.00364   -0.00262
O6    3    0.701764    0.454678    0.254749    11.00000    0.01560    0.00867 =
         0.01043    0.00023    0.00051   -0.00105
C1    1    0.460668    0.745120    0.400405    11.00000    0.01142    0.01017 =
         0.00970   -0.00307    0.00102   -0.00058
C2    1    0.684555    0.675814    0.383128    11.00000    0.01008    0.00871 =
         0.01104    0.00058    0.00202    0.00070
AFIX  13
H2    2    0.774689    0.688258    0.438295    11.00000   -1.20000
AFIX   0
C3    1    0.709962    0.410847    0.344515    11.00000    0.00972    0.00896 =
         0.01111   -0.00071    0.00115    0.00149
AFIX  13
H3    2    0.588324    0.303877    0.357764    11.00000   -1.20000
AFIX   0
C4    1    0.911718    0.285205    0.381962    11.00000    0.00993    0.00657 =
         0.01450   -0.00105    0.00075   -0.00025
C5    1    0.750456    0.715189    0.238667    11.00000    0.01254    0.00949 =
         0.01076   -0.00072    0.00199    0.00025
C6    1    0.960312    0.741334    0.200878    11.00000    0.01408    0.01581 =
         0.01421   -0.00156    0.00477   -0.00180
AFIX  23
H6A   2    1.069512    0.658928    0.239569    11.00000   -1.20000
H6B   2    0.996255    0.922393    0.196647    11.00000   -1.20000
AFIX   0
C7    1    0.955293    0.620351    0.111263    11.00000    0.02033    0.02648 =
         0.01646   -0.00530    0.00788   -0.00282
AFIX  23
H7A   2    1.090749    0.648573    0.086579    11.00000   -1.20000
H7B   2    0.934204    0.435992    0.116324    11.00000   -1.20000
AFIX   0
C8    1    0.780002    0.732400    0.051269    11.00000    0.02881    0.02906 =
         0.01265   -0.00032    0.00535   -0.00679
AFIX  23
H8A   2    0.775479    0.646187   -0.005267    11.00000   -1.20000
H8B   2    0.807902    0.913725    0.041928    11.00000   -1.20000
AFIX   0
C9    1    0.569072    0.702465    0.089684    11.00000    0.02077    0.02389 =
         0.01223    0.00279   -0.00080   -0.00162
AFIX  23
H9A   2    0.535628    0.520808    0.094378    11.00000   -1.20000
H9B   2    0.458492    0.782178    0.050960    11.00000   -1.20000
AFIX   0
C10   1    0.573422    0.825353    0.179292    11.00000    0.01489    0.01585 =
         0.01447    0.00295    0.00002    0.00154
AFIX  23
H10A  2    0.593000    1.009889    0.173941    11.00000   -1.20000
H10B  2    0.438602    0.795642    0.204323    11.00000   -1.20000
AFIX   0
HKLF 4
REM  mol2 in P2(1)
REM R1 =  0.0276 for    2503 Fo > 4sig(Fo)  and  0.0293 for all    2612 data
REM    153 parameters refined using      1 restraints
END
WGHT      0.0411      0.0783
REM Instructions for potential hydrogen bonds
HTAB O1 O3_$1
HTAB O4 O2_$2
HTAB C2 O3_$3
HTAB C3 O2_$4
HTAB C6 O4
REM Highest difference peak  0.304,  deepest hole -0.203,  1-sigma level  0.040
Q1    1   0.8084  0.3466  0.3591  11.00000  0.05    0.30
Q2    1   0.6524  0.7698  0.2100  11.00000  0.05    0.26
Q3    1   0.5770  0.7144  0.3859  11.00000  0.05    0.25
Q4    1   0.5873  0.7729  0.1313  11.00000  0.05    0.20
Q5    1   0.6970  0.5363  0.3692  11.00000  0.05    0.20
Q6    1   0.7256  0.7534  0.3525  11.00000  0.05    0.19
Q7    1   0.6751  0.7243  0.0732  11.00000  0.05    0.18
Q8    1   0.8631  0.7141  0.2225  11.00000  0.05    0.18
Q9    1   0.6490  0.3167  0.3568  11.00000  0.05    0.17
Q10   1   0.8446  0.6548  0.0879  11.00000  0.05    0.16
;
_shelx_res_checksum              9877
loop_
_space_group_symop_operation_xyz
'x, y, z'
'-x, y+1/2, -z'
loop_
_atom_site_type_symbol
_atom_site_label
_atom_site_fract_x
_atom_site_fract_y
_atom_site_fract_z
_atom_site_U_iso_or_equiv
_atom_site_adp_type
_atom_site_calc_flag
_atom_site_occupancy
O O1 0.38484(18) 0.5840(2) 0.45476(7) 0.0142(2) Uani d 1
H H1 0.275(4) 0.638(6) 0.4745(17) 0.046(8) Uiso d 1
O O2 0.37180(17) 0.9308(2) 0.37124(7) 0.0150(2) Uani d 1
O O3 0.92950(17) 0.2135(2) 0.45684(7) 0.0124(2) Uani d 1
O O4 1.05961(17) 0.2630(2) 0.32878(7) 0.0134(2) Uani d 1
H H4 1.158(4) 0.171(5) 0.3519(15) 0.027(6) Uiso d 1
O O5 0.76550(18) 0.8366(2) 0.32166(7) 0.0118(2) Uani d 1
O O6 0.70176(17) 0.4547(2) 0.25475(7) 0.0116(2) Uani d 1
C C1 0.4607(2) 0.7451(3) 0.40041(9) 0.0104(3) Uani d 1
C C2 0.6846(2) 0.6758(3) 0.38313(9) 0.0099(3) Uani d 1
H H2 0.774689 0.688258 0.438295 0.012 Uiso calc 1
C C3 0.7100(2) 0.4108(3) 0.34451(9) 0.0099(3) Uani d 1
H H3 0.588324 0.303877 0.357764 0.012 Uiso calc 1
C C4 0.9117(2) 0.2852(3) 0.38196(10) 0.0103(3) Uani d 1
C C5 0.7505(2) 0.7152(3) 0.23867(9) 0.0109(3) Uani d 1
C C6 0.9603(2) 0.7413(3) 0.20088(9) 0.0145(3) Uani d 1
H H6A 1.069512 0.658928 0.239569 0.017 Uiso calc 1
H H6B 0.996255 0.922393 0.196647 0.017 Uiso calc 1
C C7 0.9553(3) 0.6204(4) 0.11126(11) 0.0208(4) Uani d 1
H H7A 1.090749 0.648573 0.086579 0.025 Uiso calc 1
H H7B 0.934204 0.435992 0.116324 0.025 Uiso calc 1
C C8 0.7800(3) 0.7324(4) 0.05127(10) 0.0233(4) Uani d 1
H H8A 0.775479 0.646187 -0.005267 0.028 Uiso calc 1
H H8B 0.807902 0.913725 0.041928 0.028 Uiso calc 1
C C9 0.5691(3) 0.7025(4) 0.08968(10) 0.0191(3) Uani d 1
H H9A 0.535628 0.520808 0.094378 0.023 Uiso calc 1
H H9B 0.458492 0.782178 0.050960 0.023 Uiso calc 1
C C10 0.5734(2) 0.8254(3) 0.17929(10) 0.0151(3) Uani d 1
H H10A 0.593000 1.009889 0.173941 0.018 Uiso calc 1
H H10B 0.438602 0.795642 0.204323 0.018 Uiso calc 1
loop_
_atom_site_aniso_label
_atom_site_aniso_U_11
_atom_site_aniso_U_22
_atom_site_aniso_U_33
_atom_site_aniso_U_12
_atom_site_aniso_U_13
_atom_site_aniso_U_23
O1 0.0135(5) 0.0139(6) 0.0160(5) 0.0025(5) 0.0065(4) 0.0026(5)
O2 0.0139(5) 0.0142(6) 0.0172(5) 0.0044(4) 0.0029(4) 0.0027(5)
O3 0.0127(5) 0.0125(6) 0.0122(5) 0.0009(4) 0.0014(4) 0.0004(4)
O4 0.0115(5) 0.0133(6) 0.0157(5) 0.0032(4) 0.0036(4) 0.0017(5)
O5 0.0156(5) 0.0092(5) 0.0111(5) -0.0026(4) 0.0036(4) -0.0012(4)
O6 0.0156(5) 0.0087(5) 0.0104(5) -0.0011(4) 0.0005(4) 0.0002(4)
C1 0.0114(6) 0.0102(7) 0.0097(6) -0.0006(5) 0.0010(5) -0.0031(6)
C2 0.0101(6) 0.0087(7) 0.0110(6) 0.0007(5) 0.0020(5) 0.0006(5)
C3 0.0097(6) 0.0090(7) 0.0111(6) 0.0015(5) 0.0011(5) -0.0007(5)
C4 0.0099(6) 0.0066(7) 0.0145(7) -0.0003(5) 0.0008(5) -0.0011(5)
C5 0.0125(6) 0.0095(7) 0.0108(6) 0.0003(5) 0.0020(5) -0.0007(6)
C6 0.0141(7) 0.0158(8) 0.0142(6) -0.0018(6) 0.0048(5) -0.0016(6)
C7 0.0203(8) 0.0265(10) 0.0165(7) -0.0028(7) 0.0079(6) -0.0053(7)
C8 0.0288(9) 0.0291(10) 0.0126(7) -0.0068(8) 0.0054(6) -0.0003(7)
C9 0.0208(8) 0.0239(10) 0.0122(7) -0.0016(7) -0.0008(6) 0.0028(7)
C10 0.0149(7) 0.0158(8) 0.0145(7) 0.0015(6) 0.0000(5) 0.0029(6)
loop_
_atom_type_symbol
_atom_type_description
_atom_type_scat_dispersion_real
_atom_type_scat_dispersion_imag
_atom_type_scat_source
C C 0.0033 0.0016 'International Tables Vol C Tables 4.2.6.8 and 6.1.1.4'
H H 0.0000 0.0000 'International Tables Vol C Tables 4.2.6.8 and 6.1.1.4'
O O 0.0106 0.0060 'International Tables Vol C Tables 4.2.6.8 and 6.1.1.4'
loop_
_geom_angle_atom_site_label_1
_geom_angle_atom_site_label_2
_geom_angle_atom_site_label_3
_geom_angle
C1 O1 H1 112(2)
C4 O4 H4 109.4(15)
C2 O5 C5 109.65(12)
C3 O6 C5 109.70(12)
O2 C1 O1 125.41(14)
O2 C1 C2 123.59(14)
O1 C1 C2 110.89(13)
O5 C2 C1 112.10(12)
O5 C2 C3 103.28(11)
C1 C2 C3 114.66(12)
O5 C2 H2 108.9
C1 C2 H2 108.9
C3 C2 H2 108.9
O6 C3 C4 114.38(12)
O6 C3 C2 103.84(12)
C4 C3 C2 111.08(12)
O6 C3 H3 109.1
C4 C3 H3 109.1
C2 C3 H3 109.1
O3 C4 O4 123.68(14)
O3 C4 C3 120.74(14)
O4 C4 C3 115.58(13)
O5 C5 O6 105.80(12)
O5 C5 C6 107.89(12)
O6 C5 C6 111.46(13)
O5 C5 C10 111.57(13)
O6 C5 C10 108.05(13)
C6 C5 C10 111.92(13)
C5 C6 C7 110.97(13)
C5 C6 H6A 109.4
C7 C6 H6A 109.4
C5 C6 H6B 109.4
C7 C6 H6B 109.4
H6A C6 H6B 108.0
C8 C7 C6 110.88(15)
C8 C7 H7A 109.5
C6 C7 H7A 109.5
C8 C7 H7B 109.5
C6 C7 H7B 109.5
H7A C7 H7B 108.1
C7 C8 C9 110.75(14)
C7 C8 H8A 109.5
C9 C8 H8A 109.5
C7 C8 H8B 109.5
C9 C8 H8B 109.5
H8A C8 H8B 108.1
C8 C9 C10 110.87(14)
C8 C9 H9A 109.5
C10 C9 H9A 109.5
C8 C9 H9B 109.5
C10 C9 H9B 109.5
H9A C9 H9B 108.1
C5 C10 C9 110.35(14)
C5 C10 H10A 109.6
C9 C10 H10A 109.6
C5 C10 H10B 109.6
C9 C10 H10B 109.6
H10A C10 H10B 108.1
loop_
_geom_bond_atom_site_label_1
_geom_bond_atom_site_label_2
_geom_bond_distance
_geom_bond_publ_flag
O1 C1 1.322(2) y
O1 H1 0.84(3) ?
O2 C1 1.208(2) y
O3 C4 1.2229(19) y
O4 C4 1.3135(18) y
O4 H4 0.85(3) ?
O5 C2 1.4107(18) y
O5 C5 1.4398(18) y
O6 C3 1.4135(17) y
O6 C5 1.441(2) y
C1 C2 1.529(2) y
C2 C3 1.541(2) y
C2 H2 1.0000 ?
C3 C4 1.532(2) y
C3 H3 1.0000 ?
C5 C6 1.519(2) y
C5 C10 1.525(2) y
C6 C7 1.533(2) y
C6 H6A 0.9900 ?
C6 H6B 0.9900 ?
C7 C8 1.526(3) y
C7 H7A 0.9900 ?
C7 H7B 0.9900 ?
C8 C9 1.532(2) y
C8 H8A 0.9900 ?
C8 H8B 0.9900 ?
C9 C10 1.538(2) y
C9 H9A 0.9900 ?
C9 H9B 0.9900 ?
C10 H10A 0.9900 ?
C10 H10B 0.9900 ?
loop_
_geom_hbond_atom_site_label_D
_geom_hbond_atom_site_label_H
_geom_hbond_atom_site_label_A
_geom_hbond_site_symmetry_A
_geom_hbond_distance_DH
_geom_hbond_distance_HA
_geom_hbond_distance_DA
_geom_hbond_angle_DHA
_geom_hbond_publ_flag
O1 H1 O3 2_656 0.84(3) 1.80(3) 2.6230(16) 164(3) yes
O4 H4 O2 1_645 0.85(3) 1.88(3) 2.7116(16) 164(2) yes
C2 H2 O3 2_756 1.00 2.41 3.3818(19) 163.5 .
C3 H3 O2 1_545 1.00 2.44 3.392(2) 159.8 .
C6 H6A O4 . 0.99 2.52 3.255(2) 131.0 .
loop_
_geom_torsion_atom_site_label_1
_geom_torsion_atom_site_label_2
_geom_torsion_atom_site_label_3
_geom_torsion_atom_site_label_4
_geom_torsion
C5 O5 C2 C1 -99.25(14)
C5 O5 C2 C3 24.70(14)
O2 C1 C2 O5 -6.9(2)
O1 C1 C2 O5 176.76(12)
O2 C1 C2 C3 -124.22(16)
O1 C1 C2 C3 59.43(16)
C5 O6 C3 C4 -100.36(14)
C5 O6 C3 C2 20.87(14)
O5 C2 C3 O6 -27.60(14)
C1 C2 C3 O6 94.65(14)
O5 C2 C3 C4 95.81(13)
C1 C2 C3 C4 -141.94(13)
O6 C3 C4 O3 -172.39(14)
C2 C3 C4 O3 70.47(18)
O6 C3 C4 O4 7.99(19)
C2 C3 C4 O4 -109.15(15)
C2 O5 C5 O6 -12.62(15)
C2 O5 C5 C6 -132.02(13)
C2 O5 C5 C10 104.65(14)
C3 O6 C5 O5 -6.39(15)
C3 O6 C5 C6 110.62(13)
C3 O6 C5 C10 -126.00(13)
O5 C5 C6 C7 -178.91(14)
O6 C5 C6 C7 65.34(17)
C10 C5 C6 C7 -55.80(19)
C5 C6 C7 C8 55.80(19)
C6 C7 C8 C9 -56.5(2)
C7 C8 C9 C10 56.9(2)
O5 C5 C10 C9 176.83(13)
O6 C5 C10 C9 -67.27(16)
C6 C5 C10 C9 55.82(18)
C8 C9 C10 C5 -56.08(19)

_cod_database_fobs_code 2242549
