#------------------------------------------------------------------------------
#$Date: 2018-10-20 05:44:19 +0300 (Sat, 20 Oct 2018) $
#$Revision: 211564 $
#$URL: file:///home/coder/svn-repositories/cod/cif/2/24/26/2242681.cif $
#------------------------------------------------------------------------------
#
# This file is available in the Crystallography Open Database (COD),
# http://www.crystallography.net/. The original data for this entry
# were provided by IUCr Journals, http://journals.iucr.org/.
#
# The file may be used within the scientific community so long as
# proper attribution is given to the journal article from which the
# data were obtained.
#
data_2242681
loop_
_publ_author_name
'de Moraes, Lygia S.'
'Kennedy, Alan R.'
'Logan, Charlie R.'
_publ_section_title
;
 Crystal structures of three halide salts of <small>L</small>-asparagine:
 an isostructural series
;
_journal_issue                   11
_journal_name_full               'Acta Crystallographica Section E'
_journal_page_first              1619
_journal_page_last               1623
_journal_paper_doi               10.1107/S2056989018014603
_journal_volume                  74
_journal_year                    2018
_chemical_absolute_configuration ad
_chemical_formula_iupac          'C4 H9 N2 O3 -, Br +, H2 O'
_chemical_formula_moiety         'C4 H9 N2 O3 -, Br +, H2 O'
_chemical_formula_sum            'C4 H11 Br N2 O4'
_chemical_formula_weight         231.06
_chemical_name_systematic
;
<i>L</i>-Asparaginium bromide monohydrate
;
_space_group_crystal_system      monoclinic
_space_group_IT_number           4
_space_group_name_Hall           'P 2yb'
_space_group_name_H-M_alt        'P 1 21 1'
_symmetry_space_group_name_Hall  'P 2yb'
_symmetry_space_group_name_H-M   'P 1 21 1'
_atom_sites_solution_hydrogens   mixed
_atom_sites_solution_primary     direct
_audit_creation_method           SHELXL-2014/7
_cell_angle_alpha                90
_cell_angle_beta                 103.606(5)
_cell_angle_gamma                90
_cell_formula_units_Z            2
_cell_length_a                   5.2167(2)
_cell_length_b                   10.2784(5)
_cell_length_c                   8.3063(4)
_cell_measurement_reflns_used    3145
_cell_measurement_temperature    123(2)
_cell_measurement_theta_max      29.7542
_cell_measurement_theta_min      3.2022
_cell_volume                     432.88(4)
_computing_cell_refinement
;
Crysalis PRO (Agilent, 2014)
;
_computing_data_collection
;
Crysalis PRO (Agilent, 2014)
;
_computing_data_reduction
;
Crysalis PRO (Agilent, 2014)
;
_computing_molecular_graphics
;
Mercury (Macrae <i>et al.</i>,  2008)
;
_computing_publication_material
;
SHELXL2014 (Sheldrick, 2015)
;
_computing_structure_refinement
;
SHELXL2014 (Sheldrick, 2015)
;
_computing_structure_solution
;
SIR92 (Altomare <i>et al.</i>,  1994)
;
_diffrn_ambient_temperature      123(2)
_diffrn_measured_fraction_theta_full 0.999
_diffrn_measured_fraction_theta_max 0.928
_diffrn_measurement_device_type  'Oxford Diffraction Xcalibur E'
_diffrn_measurement_method       'omega scans'
_diffrn_radiation_monochromator  graphite
_diffrn_radiation_source         'fine-focus sealed tube'
_diffrn_radiation_type           MoK\a
_diffrn_radiation_wavelength     0.71073
_diffrn_reflns_av_R_equivalents  0.0315
_diffrn_reflns_av_unetI/netI     0.0471
_diffrn_reflns_limit_h_max       6
_diffrn_reflns_limit_h_min       -7
_diffrn_reflns_limit_k_max       14
_diffrn_reflns_limit_k_min       -14
_diffrn_reflns_limit_l_max       11
_diffrn_reflns_limit_l_min       -11
_diffrn_reflns_number            4320
_diffrn_reflns_theta_full        27.000
_diffrn_reflns_theta_max         29.820
_diffrn_reflns_theta_min         3.209
_diffrn_standards_decay_%        0
_diffrn_standards_interval_count 0
_diffrn_standards_number         0
_exptl_absorpt_coefficient_mu    4.723
_exptl_absorpt_correction_T_max  0.487
_exptl_absorpt_correction_T_min  0.205
_exptl_absorpt_correction_type   analytical
_exptl_absorpt_process_details
;
[CrysAlis PRO (Agilent, 2014), based on expressions derived
by
Clark & Reid (1995)]
;
_exptl_crystal_colour            colourless
_exptl_crystal_density_diffrn    1.773
_exptl_crystal_description       tablet
_exptl_crystal_F_000             232
_exptl_crystal_size_max          0.5
_exptl_crystal_size_mid          0.3
_exptl_crystal_size_min          0.12
_refine_diff_density_max         0.597
_refine_diff_density_min         -0.384
_refine_ls_abs_structure_details
;
Flack <i>x</i> determined using 908 quotients
[(<i>I</i>^+^)-(<i>I</i>^-^)]/[(<i>I</i>^+^)+(<i>I</i>^-^)]
(Parsons et al., 2013)
;
_refine_ls_abs_structure_Flack   -0.022(11)
_refine_ls_extinction_coef       0.019(3)
_refine_ls_extinction_expression Fc^*^=kFc[1+0.001xFc^2^\l^3^/sin(2\q)]^-1/4^
_refine_ls_extinction_method
;
SHELXL2014 (Sheldrick, 2015)
;
_refine_ls_goodness_of_fit_ref   1.031
_refine_ls_hydrogen_treatment    mixed
_refine_ls_matrix_type           full
_refine_ls_number_parameters     128
_refine_ls_number_reflns         2232
_refine_ls_number_restraints     9
_refine_ls_restrained_S_all      1.029
_refine_ls_R_factor_all          0.0305
_refine_ls_R_factor_gt           0.0276
_refine_ls_shift/su_max          0.001
_refine_ls_shift/su_mean         0.000
_refine_ls_structure_factor_coef Fsqd
_refine_ls_weighting_details
'w=1/[\s^2^(Fo^2^)+(0.0274P)^2^] where P=(Fo^2^+2Fc^2^)/3'
_refine_ls_weighting_scheme      calc
_refine_ls_wR_factor_gt          0.0602
_refine_ls_wR_factor_ref         0.0623
_reflns_number_gt                2118
_reflns_number_total             2232
_reflns_threshold_expression     'I > 2\s(I)'
_cod_data_source_file            hb7779sup1.cif
_cod_data_source_block           II
_cod_database_code               2242681
_shelx_space_group_comment
;
The symmetry employed for this shelxl refinement is uniquely defined
by the following loop, which should always be used as a source of
symmetry information in preference to the above space-group names.
They are only intended as comments.
;
_shelx_hkl_file
;
   0 -14  -1 8990.22 2005.88   4
   0 -14  -2 17799.8 2564.23   4
   0 -13   0 1176.16 1196.53   4
   0 -13   1 12849.5 2113.83   4
   0 -13  -1 12265.5 2127.93   4
   0 -13   2 8048.68 1793.11   4
   0 -13  -2 10075.2 1870.61   4
   0 -13  -3 25430.2 2854.38   4
   0 -12   0 11900.1 1957.13   4
   0 -12  -1 42076.1 3633.93   4
   0 -12   1 43891.3 3795.23   4
   0 -12  -2 41345.7 3627.35   4
   0 -12   2 38416.6 3542.41   4
   0 -12   3 2296.68 1055.44   4
   0 -12  -3 3778.28 1247.36   4
   0 -12   4 2741.62 1080.34   4
   0 -11   0 1989.68 1020.05   4
   0 -11   1 33008.3 3060.68   4
   0 -11  -1 31090.4 2943.12   4
   0 -11  -2 42494.5 3462.44   4
   0 -11   2 36295.5 3257.82   4
   0 -11  -3 53608.2 3837.56   4
   0 -11   3 49018.5 3840.46   4
   0 -11   4 51977.8 4063.70   4
   0 -11   5 12502.7 1992.15   4
   0 -11   6 1177.65 610.202   4
   0 -10   0 154516. 6758.03   4
   0 -10   1 80543.1 4654.95   4
   0 -10  -1 79573.3 4540.63   4
   0 -10  -2 19503.2 2202.78   4
   0 -10   2 20769.9 2275.40   4
   0 -10   3 3790.59 1191.58   4
   0 -10   4 12236.5 1790.07   4
   0 -10   5 30097.2 2959.32   4
   0 -10   6 40541.4 3492.88   4
   0 -10   7 20595.7 2552.41   4
   0  -9   0-154.344 432.804   4
   0  -9  -1 2628.12 742.639   4
   0  -9   1 3912.90 1044.39   4
   0  -9   2 92387.2 4856.34   4
   0  -9   3 134380. 6080.86   4
   0  -9   4 45353.1 3397.98   4
   0  -9   5 29901.8 2775.65   4
   0  -9   6 13803.3 1960.91   4
   0  -9   7 4061.81 1170.53   4
   0  -9   8 10472.0 1773.48   4
   0  -8   0 125290. 5322.37   4
   0  -8   1 82897.9 4179.36   4
   0  -8   2 18396.8 1979.04   4
   0  -8   3 30658.1 2470.46   4
   0  -8   4 10834.6 1569.52   4
   0  -8   5 71065.8 4201.50   4
   0  -8   6 46700.4 3454.07   4
   0  -8   7 109151. 5802.15   4
   0  -8   8 25868.1 2776.93   4
   0  -8   9 4260.09 1158.72   4
   0  -7   0 218.325 547.763   4
   0  -7   1 6527.44 1083.02   4
   0  -7   1 7142.58 555.465   5
   0  -7   2 123801. 3232.37   5
   0  -7   2 129607. 5310.88   4
   0  -7   3 81100.0 4052.40   4
   0  -7   3 78592.5 2397.90   5
   0  -7   4 154966. 6259.80   4
   0  -7   5 68833.8 3938.49   4
   0  -7   6 8406.08 1420.29   4
   0  -7   7 8550.03 1483.57   4
   0  -7   8 28348.4 2760.35   4
   0  -7   9 23008.7 2573.67   4
   0  -6   0 139615. 4135.05   5
   0  -6   1 339698. 7973.13   5
   0  -6   1 335493. 9825.10   4
   0  -6   2 20701.2 1799.95   4
   0  -6   2 21467.1 898.226   5
   0  -6   3 4789.85 461.671   2
   0  -6   3 5307.85 934.191   4
   0  -6   3 5460.26 495.483   5
   0  -6   4 48117.2 1584.51   2
   0  -6   4 47051.7 3003.77   4
   0  -6   5 72014.5 3888.30   4
   0  -6  -6 68595.3 3974.08   6
   0  -6   6 69035.2 3922.65   4
   0  -6   7 65370.9 4001.21   4
   0  -6  -7 64455.6 4035.62   6
   0  -6   8 25835.9 2495.32   4
   0  -6  -8 24552.9 2595.63   6
   0  -6   9 12875.1 1944.42   4
   0  -6  -9 11834.0 1866.85   6
   0  -6 -10 2472.66 1055.34   6
   0  -5   0 217.384 156.347   5
   0  -5   1 254840. 7465.64   4
   0  -5   1 246473. 5870.16   5
   0  -5   2 219157. 5557.06   5
   0  -5   2 233507. 5925.18   2
   0  -5   3 275493. 8135.70   4
   0  -5   3 258169. 6310.40   2
   0  -5   4 104417. 2789.12   2
   0  -5  -4 104243. 4757.99   6
   0  -5   4 110487. 4547.97   4
   0  -5   5 33955.3 2383.91   4
   0  -5  -5 33047.3 2576.66   6
   0  -5   6 5821.44 1082.21   4
   0  -5  -6 5504.24 1164.98   6
   0  -5   7 4255.51 1011.25   4
   0  -5  -7 5159.61 1211.65   6
   0  -5  -8 37073.9 3041.89   6
   0  -5   8 34650.6 3123.00   5
   0  -5   8 36629.4 2878.96   4
   0  -5   9 24703.6 2495.82   4
   0  -5  -9 22871.7 2519.94   6
   0  -5 -10 19600.5 2453.24   6
   0  -4   0 72529.3 2253.15   5
   0  -4   1 441373. 11470.5   4
   0  -4   1 457178. 10796.2   2
   0  -4   1 445287. 10134.5   5
   0  -4   2 155819. 4028.60   2
   0  -4   2 174840. 5438.13   4
   0  -4   3 9206.35 494.782   2
   0  -4  -3 9334.62 1154.61   6
   0  -4   3 7654.16 928.483   4
   0  -4  -4 64432.2 3438.95   6
   0  -4   4 72607.5 3344.22   1
   0  -4   4 64723.6 3160.94   4
   0  -4   5 43118.8 2604.04   4
   0  -4   5 36398.0 2521.11   1
   0  -4  -5 42394.1 2775.50   6
   0  -4  -6 167408. 6587.71   6
   0  -4   6 177676. 6401.75   4
   0  -4   6 154139. 6318.29   1
   0  -4  -7 40363.7 3035.03   6
   0  -4   7 46283.2 3234.40   1
   0  -4   7 48695.5 3064.70   4
   0  -4   8 50514.7 4041.42   5
   0  -4   8 50556.7 3371.29   4
   0  -4  -8 46896.2 3460.25   6
   0  -4  -9 24319.4 2511.59   6
   0  -4   9 20438.2 2587.83   5
   0  -4   9 21029.2 2256.77   4
   0  -4  10 576.457 647.854   5
   0  -4 -10 1266.81 828.992   6
   0  -3   0 211.639 105.423   5
   0  -3   0 68.1152 119.033   3
   0  -3  -1 117722. 3686.16   3
   0  -3   1 115131. 2898.08   5
   0  -3   1 119921. 3112.70   2
   0  -3   1 118510. 3773.85   4
   0  -3   2 39010.3 1898.18   4
   0  -3  -2 33999.1 1895.41   6
   0  -3   3 107711. 3896.78   1
   0  -3  -3 107267. 4192.45   6
   0  -3   3 104253. 3831.45   4
   0  -3   4 378013. 10296.5   4
   0  -3  -4 373559. 10727.2   6
   0  -3   4 378097. 10452.9   1
   0  -3  -4 380593. 10015.6   4
   0  -3  -5 174292. 6340.65   6
   0  -3   5 164763. 5872.60   4
   0  -3   5 175772. 6098.46   1
   0  -3   6 10197.0 1241.82   4
   0  -3  -6 9517.30 1364.12   6
   0  -3   6 9256.35 1340.73   1
   0  -3  -7 6056.50 1179.38   6
   0  -3   7 5430.17 998.114   4
   0  -3   7 5214.99 1086.54   1
   0  -3   8 73940.2 4088.67   4
   0  -3  -8 77484.5 4507.99   6
   0  -3   8 78386.0 4501.36   1
   0  -3   8 75876.0 4981.40   5
   0  -3  -9 53544.2 3915.44   6
   0  -3   9 65143.1 4292.90   1
   0  -3   9 59943.6 3740.01   4
   0  -3 -10 42181.2 3501.41   6
   0  -3  10 41984.3 3909.62   5
   0  -3  11 19789.5 2831.32   5
   0  -2   0 184393. 4512.09   3
   0  -2   0 177025. 4214.52   5
   0  -2  -1 167968. 4680.54   6
   0  -2   1 175361. 4016.38   2
   0  -2   1 181172. 4718.26   4
   0  -2  -2 376626. 9912.97   3
   0  -2   2 356747. 9092.77   1
   0  -2  -2 364977. 9479.06   6
   0  -2   2 358386. 9136.87   4
   0  -2   3 19849.1 1273.83   4
   0  -2  -3 19188.7 1476.35   6
   0  -2   3 19033.5 1283.06   1
   0  -2  -3 18451.5 1219.92   4
   0  -2  -4 26301.0 1904.02   6
   0  -2   4 25211.7 1642.85   4
   0  -2   4 29261.0 1801.38   1
   0  -2  -4 27586.2 1633.98   4
   0  -2   5 97239.9 4094.91   1
   0  -2   5 108363. 4107.21   4
   0  -2  -5 98363.9 4378.38   6
   0  -2  -6 151882. 6060.18   6
   0  -2   6 143679. 5621.34   1
   0  -2   6 153423. 5558.86   4
   0  -2   7 173368. 6663.84   1
   0  -2   7 171586. 6343.76   4
   0  -2  -7 170681. 6836.24   6
   0  -2   8 66882.4 3956.25   1
   0  -2   8 67130.2 3681.25   4
   0  -2  -8 65400.2 4045.22   6
   0  -2   9 599.679 720.978   5
   0  -2   9 1401.70 599.976   4
   0  -2   9 864.808 501.844   1
   0  -2  -9 698.695 506.488   6
   0  -2 -10 1677.26 789.174   6
   0  -2  10 810.516 811.270   5
   0  -2 -11 11393.7 1905.65   6
   0  -1   1 127319. 3264.55   4
   0  -1  -1 115236. 3390.17   6
   0  -1  -2 463163. 10674.3   4
   0  -1   2 424425. 10655.4   1
   0  -1  -2 440915. 10514.3   1
   0  -1  -2 459586. 11001.2   6
   0  -1   2 476788. 10691.8   4
   0  -1  -3 611475. 14391.3   4
   0  -1  -3 602787. 14279.5   1
   0  -1   3 608426. 14515.3   1
   0  -1  -3 578825. 14738.1   6
   0  -1   3 596838. 14423.7   4
   0  -1   4 98465.6 3756.51   1
   0  -1  -4 102574. 3994.42   6
   0  -1   4 105582. 3738.91   4
   0  -1  -4 107416. 3707.98   4
   0  -1  -4 110290. 3649.76   1
   0  -1  -5 91430.8 3999.85   6
   0  -1   5 88536.6 3734.20   1
   0  -1   5 90498.4 3627.45   4
   0  -1  -6 15121.3 1629.37   6
   0  -1   6 13831.0 1385.57   4
   0  -1   6 15207.6 1482.82   1
   0  -1   7 19092.4 1716.18   4
   0  -1  -7 19284.1 1953.01   6
   0  -1   7 22473.7 2001.86   1
   0  -1  -8 7666.47 1383.27   6
   0  -1   8 5434.15 1375.38   5
   0  -1   8 9413.73 1465.19   1
   0  -1   8 8275.28 1235.70   4
   0  -1   9 68692.6 5385.73   5
   0  -1  -9 83258.3 4850.54   6
   0  -1   9 76302.7 4273.00   1
   0  -1 -10 43234.2 3582.60   6
   0  -1  10 30337.0 3950.22   5
   0  -1 -11 34493.0 3291.20   6
   0   0   2 95099.4 2722.83   1
   0   0  -2 82199.0 2742.39   6
   0   0   2 85036.9 2642.12   4
   0   0  -2 88844.8 2696.41   4
   0   0  -2 92529.4 2708.96   1
   0   0  -3 40721.8 1935.92   6
   0   0   3 44638.0 1851.71   4
   0   0  -3 43335.4 1814.15   1
   0   0  -3 44130.4 1865.78   4
   0   0  -4 10498.4 948.540   4
   0   0   4 12271.9 1031.06   1
   0   0  -4 11157.5 1068.68   6
   0   0   4 10374.6 948.271   4
   0   0   5 203423. 6287.24   4
   0   0  -5 203093. 6710.66   6
   0   0   5 214422. 6536.34   1
   0   0  -6 92830.5 4263.04   6
   0   0   6 88674.4 3811.57   4
   0   0   7 60392.1 3360.01   1
   0   0  -7 57130.8 3392.07   6
   0   0   7 57252.2 3086.94   4
   0   0  -8 56616.6 3611.22   6
   0   0   8 49694.1 4319.57   5
   0   0   8 58688.5 3423.13   1
   0   0   9 5718.75 1476.32   5
   0   0   9 4811.64 1075.54   1
   0   0  -9 6359.27 1295.70   6
   0   0  10 726.317 986.882   5
   0   0 -10-69.8961 534.014   6
   0   0 -11 83.1652 680.366   6
   0   1  -2 534674. 12363.1   4
   0   1   2 531824. 12635.7   6
   0   1   2 523278. 12121.7   1
   0   1  -2 489079. 12215.6   1
   0   1   3 581234. 14466.2   6
   0   1  -3 597148. 14265.5   4
   0   1  -3 597626. 14158.2   1
   0   1   3 570217. 14022.1   1
   0   1  -4 107417. 4005.39   6
   0   1   4 119090. 3951.62   1
   0   1   5 88458.7 3460.13   1
   0   1  -5 72643.9 3416.11   6
   0   1   6 17859.5 1582.21   1
   0   1  -6 16826.1 1594.19   6
   0   1   7 13375.2 2116.18   5
   0   1  -7 17284.7 1789.84   6
   0   1   7 19834.7 1774.98   1
   0   1  -8 10696.7 1493.54   6
   0   1   8 8225.13 1174.09   1
   0   1   8 7844.82 1585.99   5
   0   1  -9 76970.7 4513.64   6
   0   1   9 56910.0 5328.27   5
   0   1  10 43110.7 4183.19   5
   0   1 -10 47599.2 3763.51   6
   0   1 -11 34402.0 3341.74   6
   0   2   0 188497. 4371.80   5
   0   2   0 190385. 4730.82   2
   0   2   0 184545. 4675.34   3
   0   2   1 203049. 5589.53   5
   0   2   1 198577. 5719.82   3
   0   2  -1 209651. 5386.61   1
   0   2  -1 202498. 5437.56   4
   0   2   1 210016. 5478.82   6
   0   2   2 330736. 9091.98   3
   0   2   2 338957. 8954.13   6
   0   2  -2 334648. 8558.32   1
   0   2   2 320591. 9443.43   5
   0   2  -2 357995. 8760.07   4
   0   2   3 16517.2 1083.87   1
   0   2   4 15580.8 1155.98   1
   0   2   5 110230. 4017.46   1
   0   2  -5 110317. 4215.65   6
   0   2  -6 159522. 5715.09   6
   0   2   6 153623. 5309.05   1
   0   2   7 173062. 5996.48   1
   0   2  -7 175964. 6614.98   6
   0   2   8 58510.1 3198.82   1
   0   2   8 66376.7 4686.44   5
   0   2  -8 60015.2 3711.16   6
   0   2  -9 2547.60 832.174   6
   0   2   9 1619.40 879.696   5
   0   2  10 2255.15 1177.46   5
   0   2 -10 1426.19 825.922   6
   0   2 -11 18048.0 2378.17   6
   0   3   0 42.9108 123.840   3
   0   3   0 218.336 99.4372   5
   0   3   1 117698. 3569.68   5
   0   3   1 113537. 4052.87   2
   0   3  -1 117024. 3001.37   2
   0   3   1 118558. 3696.11   6
   0   3   2 45124.2 2419.74   5
   0   3   2 41038.8 2148.63   3
   0   3   3 91690.4 3902.52   3
   0   3   3 87657.2 4105.53   5
   0   3   4 351778. 11414.6   5
   0   3   4 391265. 9953.61   1
   0   3   5 156985. 5121.81   1
   0   3   5 160421. 6816.25   5
   0   3   6 5428.46 1412.66   5
   0   3   6 11776.4 1158.75   1
   0   3   7 5615.09 881.298   1
   0   3   7 6124.59 1379.73   5
   0   3  -7 6325.90 1072.76   6
   0   3  -8 66813.8 4110.87   6
   0   3   8 76921.3 5127.22   5
   0   3  -9 61160.6 4036.11   6
   0   3   9 67289.5 5050.32   5
   0   3  10 50983.2 4493.89   5
   0   3 -10 41634.8 3522.96   6
   0   4   0 65750.8 1946.21   5
   0   4   0 67997.2 2451.04   2
   0   4   0 65170.6 2447.13   3
   0   4   1 425010. 10438.9   5
   0   4  -1 427186. 10548.5   3
   0   4  -1 433457. 10058.9   2
   0   4   1 430097. 11601.8   3
   0   4   2 199481. 6366.61   3
   0   4   2 182908. 6060.00   5
   0   4   3 8424.39 1179.95   5
   0   4   3 7887.02 1080.20   3
   0   4   4 69347.8 3833.67   5
   0   4   4 63003.4 2708.08   1
   0   4   4 71197.3 3645.93   3
   0   4   5 45039.9 2289.24   1
   0   4   5 45706.2 3299.34   5
   0   4   6 177899. 5646.61   1
   0   4   6 131714. 7350.92   5
   0   4  -7 58158.4 3429.18   6
   0   4   7 52550.8 2776.28   1
   0   4  -8 38964.3 3074.56   6
   0   4   8 55202.2 4227.34   5
   0   4   9 25675.1 3120.44   5
   0   4  -9 23754.4 2505.64   6
   0   4  10 1631.41 1268.29   5
   0   4 -10 827.079 618.125   6
   0   5   0 60.5374 237.193   3
   0   5   0 99.7291 110.224   5
   0   5   1 241216. 7832.01   3
   0   5  -1 245022. 6857.18   3
   0   5   1 252854. 6676.12   5
   0   5  -1 263394. 6472.62   2
   0   5   2 236887. 7188.17   5
   0   5   2 269277. 8233.26   3
   0   5   3 213330. 7734.69   5
   0   5   3 227060. 7498.37   3
   0   5   4 133668. 5620.95   3
   0   5   4 124560. 5629.98   5
   0   5   5 27781.5 2527.93   5
   0   5   5 24079.4 1695.14   1
   0   5   6 8415.58 1585.49   5
   0   5   6 7706.20 977.979   1
   0   5   7 5512.64 1583.22   5
   0   5  -8 39094.8 3051.35   6
   0   5   8 39449.4 3658.62   5
   0   5  -9 25413.8 2620.98   6
   0   5   9 24929.6 3193.09   5
   0   5 -10 18977.6 2395.35   6
   0   6   0 140849. 4787.70   3
   0   6   0 135067. 3734.35   5
   0   6  -1 319965. 8809.06   3
   0   6   1 331890. 10149.1   3
   0   6   1 325865. 8324.41   5
   0   6   2 27689.9 1720.81   5
   0   6   2 25999.7 2305.16   3
   0   6  -2 26103.7 1675.50   3
   0   6   3 5684.13 895.314   5
   0   6   3 4267.75 1141.79   3
   0   6   4 52526.2 3365.19   3
   0   6   4 40153.1 3068.76   5
   0   6   5 84966.7 3663.24   1
   0   6   5 86127.0 4726.56   5
   0   6   5 85536.3 4637.30   3
   0   6   6 51447.3 2646.94   1
   0   6   6 47361.4 3862.44   5
   0   6   7 77621.7 4982.61   5
   0   6   8 22704.6 2927.75   5
   0   6   9 21006.7 2837.69   5
   0   6  -9 22701.2 2532.53   6
   0   6 -10 3194.77 1085.55   6
   0   7   0 1079.31 246.875   5
   0   7   0 226.673 354.517   3
   0   7   1 11309.9 905.436   5
   0   7   1 11099.4 1580.22   3
   0   7  -1 12142.0 1171.34   3
   0   7   2 135623. 5892.16   3
   0   7  -2 132651. 4651.06   3
   0   7   2 133676. 4631.59   5
   0   7   3 72000.4 3551.75   5
   0   7   3 67499.4 3915.66   3
   0   7   4 150853. 6224.74   5
   0   7   4 157058. 6690.13   3
   0   7   5 73191.8 4431.04   3
   0   7   5 83534.8 4505.37   5
   0   7   6 10417.9 1703.47   5
   0   7   7 11232.9 1897.82   5
   0   7   8 28483.8 3040.07   5
   0   7  -9 24238.0 2695.36   6
   0   7   9 25612.4 3030.80   5
   0   8   0 129993. 3824.44   5
   0   8   0 139654. 5465.98   3
   0   8  -1 81567.1 3757.75   3
   0   8   1 87007.3 3114.76   5
   0   8   1 83516.5 4881.02   3
   0   8   2 25236.1 1695.45   5
   0   8  -2 25081.1 1851.22   3
   0   8   2 23794.6 2511.55   3
   0   8  -3 32572.9 2177.00   3
   0   8   3 36354.3 2393.52   5
   0   8   3 33003.7 2713.74   3
   0   8   4 20721.1 2083.89   5
   0   8   4 16458.6 2028.04   3
   0   8   5 62744.6 4230.15   3
   0   8   5 62834.1 3887.12   5
   0   8   6 52911.7 3675.03   5
   0   8   7 93871.8 5429.46   5
   0   8   8 27799.6 2969.85   5
   0   9   0 372.782 648.006   3
   0   9   1 3965.49 1466.28   3
   0   9   1 6391.55 736.583   5
   0   9  -1 5697.66 1019.11   3
   0   9   2 83737.6 4851.89   3
   0   9  -2 84407.6 3907.74   3
   0   9   2 81824.2 3421.10   5
   0   9  -3 168145. 6005.45   3
   0   9   3 155673. 5829.55   5
   0   9   3 147761. 6825.30   3
   0   9  -4 38067.7 2646.67   3
   0   9   4 43751.1 3008.19   5
   0   9   4 42620.4 3420.17   3
   0   9   5 38844.1 3108.49   5
   0   9   5 37353.3 3360.56   3
   0   9   6 9888.31 1657.97   5
   0   9   7 1277.58 708.056   5
   0   9   8 8904.46 1868.01   5
   0  10   0 158400. 7255.69   3
   0  10  -1 101946. 4941.42   3
   0  10   1 86998.3 5734.74   3
   0  10   2 19234.7 2419.09   3
   0  10  -2 14255.7 1604.72   3
   0  10   3 3184.22 714.125   5
   0  10   3 708.084 660.999   3
   0  10  -3 2684.83 739.200   3
   0  10  -4 15448.5 1675.21   3
   0  10   4 15785.8 2145.70   3
   0  10   4 15085.9 1739.00   5
   0  10   5 25807.5 2882.51   3
   0  10  -5 26540.2 2303.45   3
   0  10   5 27551.0 2553.61   5
   0  10   6 52272.0 4223.54   3
   0  10   6 51063.9 3778.77   5
   0  10   7 14848.1 2113.11   5
   0  10   8 17955.6 2415.25   5
   0  11   0 99.2814 1080.06   3
   0  11   1 35658.7 3564.43   3
   0  11  -1 40054.2 3272.01   3
   0  11  -2 40300.9 3080.49   3
   0  11   2 40092.0 3549.74   3
   0  11   3 55440.7 4261.23   3
   0  11  -3 62868.4 3733.24   3
   0  11   4 48438.3 4108.07   3
   0  11  -4 58344.7 3597.50   3
   0  11   5 11043.7 1995.94   3
   0  11   6-498.877 786.338   3
   0  12   0 11682.6 2131.38   3
   0  12  -1 42884.1 3866.67   3
   0  12   1 46279.3 4077.72   3
   0  12  -2 48165.5 3747.79   3
   0  12   2 46528.7 3955.47   3
   0  12   3 205.374 750.742   3
   0  12  -3 1286.98 573.743   3
   0  12   4 159.811 967.316   3
   0  13   0-2916.82 1650.65   3
   0  13  -1 12664.2 2354.21   3
   0  13   1 14363.3 2382.74   3
   0  13   2 6930.59 1540.52   3
   0  13  -2 7331.03 1734.09   3
   0  13   3 29265.4 3216.78   3
   0  14   0 58273.6 5072.06   3
   0  14   1 10535.7 2235.00   3
   0  14  -1 5995.63 2014.20   3
   1 -14  -1 11185.5 2048.81   4
   1 -14   0 14194.1 2431.74   4
  -1 -13   2 1426.19 1024.44   4
   1 -13  -2 2078.03 939.673   4
   1 -13  -1 5156.77 1393.08   4
  -1 -13   1 4679.64 1283.20   4
   1 -13   0 44060.6 3942.16   4
  -1 -13   0 43594.3 3994.63   4
   1 -13   1 36319.9 3632.14   4
  -1 -13  -1 44552.9 3984.73   4
  -1 -13  -2 34029.6 3428.18   4
   1 -13   2 29776.9 3285.28   4
  -1 -12   4 9388.29 1782.07   4
   1 -12  -3 28719.3 2962.34   4
  -1 -12   3 26681.8 3031.49   4
   1 -12  -2 37469.7 3467.09   4
  -1 -12   2 37532.9 3460.87   4
  -1 -12   1 79901.8 5175.34   4
   1 -12  -1 73673.2 4989.64   4
   1 -12   0 12935.4 2021.95   4
  -1 -12   0 12926.6 2060.13   4
   1 -12   1 6403.73 1427.64   4
  -1 -12  -1 9448.93 1816.68   4
   1 -12   2 14517.7 2245.31   4
   1 -12   3 10363.7 1937.59   4
   1 -12   4 42476.2 3954.26   4
  -1 -11   6 31197.1 3132.65   4
  -1 -11   5 52248.7 4032.61   4
  -1 -11   4 33830.5 3181.64   4
  -1 -11   3 19335.1 2295.45   4
   1 -11  -3 22507.7 2531.11   4
  -1 -11   2 1673.29 908.497   4
   1 -11  -2 1964.59 907.637   4
   1 -11  -1 5860.82 1410.89   4
  -1 -11   1 6183.41 1339.66   4
  -1 -11   0 28818.4 2862.49   4
   1 -11   0 27191.1 2782.77   4
   1 -11   1 30037.4 2920.14   4
   1 -11   2 84733.3 5291.81   4
   1 -11   3 14218.5 2092.28   4
   1 -11   4 17884.8 2471.47   4
   1 -11   5 8163.22 1791.28   4
  -1 -10   7 27299.6 2837.98   4
  -1 -10   6 4344.04 1109.39   4
  -1 -10   5 871.035 661.628   4
  -1 -10   4 19598.0 2286.86   4
   1 -10  -4 23392.8 2278.74   4
   1 -10  -3 71351.6 4314.15   4
  -1 -10   3 68638.2 4332.32   4
   1 -10  -2 56443.3 3840.57   4
  -1 -10   2 56709.4 3841.08   4
   1 -10  -1 40026.3 3238.28   4
  -1 -10   1 35772.0 2985.62   4
   1 -10   0 36225.6 3064.23   4
   1 -10   1 9730.35 1599.31   4
   1 -10   2 1044.45 724.696   4
   1 -10   3 8550.93 1571.12   4
   1 -10   4 64648.9 4516.51   4
   1 -10   5 60711.0 4431.83   4
   1 -10   6 56041.9 4433.16   4
  -1  -9   8 3393.19 1143.30   4
  -1  -9   7 3922.03 1106.73   4
  -1  -9   6 64690.0 4212.61   4
  -1  -9   5 82563.1 4621.32   4
   1  -9  -4 51535.7 3348.64   4
  -1  -9   4 52800.2 3651.97   4
  -1  -9   3 22614.8 2268.40   4
  -1  -9   3 21799.0 1719.77   2
   1  -9  -3 21221.3 2134.09   4
  -1  -9   2 887.368 435.893   2
   1  -9  -2 2051.66 772.196   4
  -1  -9   2 1869.92 846.627   4
   1  -9  -1 12720.0 1699.70   4
   1  -9   0 44195.1 3198.45   4
   1  -9   1 108207. 5356.82   4
   1  -9   2 73614.0 4417.53   4
   1  -9   3 66654.8 4279.26   4
   1  -9   4 1497.64 876.583   4
   1  -9   5 3431.65 1175.87   4
   1  -9   6 13776.4 2161.68   4
   1  -9   7 35060.3 3391.54   4
  -1  -8   9 16937.5 2187.86   4
  -1  -8   8 42291.1 3343.06   4
  -1  -8   7 19279.3 2153.62   4
  -1  -8   6 20642.5 2150.10   4
  -1  -8   5 893.763 491.166   4
   1  -8  -5 909.151 474.472   4
   1  -8  -4 1449.68 558.237   4
  -1  -8   4 898.042 418.635   2
  -1  -8   4 1843.57 853.460   4
  -1  -8   3 67711.5 2919.65   2
   1  -8  -3 59290.7 3421.28   4
  -1  -8   3 62792.0 3674.95   4
   1  -8  -2 184091. 6780.00   4
  -1  -8   2 180321. 6837.43   4
  -1  -8   2 178271. 5987.46   2
  -1  -8   1 173565. 6141.26   2
   1  -8  -1 177461. 6901.93   4
   1  -8   0 89529.1 4461.30   4
   1  -8   1 2893.34 795.502   4
   1  -8   2 2662.74 951.811   4
   1  -8   3 94171.0 4950.89   4
   1  -8   4 55337.1 3786.69   4
   1  -8   5 99921.8 5462.76   4
   1  -8   6 10573.8 1785.13   4
   1  -8   7 12714.5 1972.99   4
   1  -8   8 1089.69 927.125   4
  -1  -7   9 7655.92 1414.42   4
   1  -7  -9 9947.86 1794.03   6
   1  -7  -8 9023.32 1688.75   6
  -1  -7   8 8551.05 1428.53   4
   1  -7  -7 13487.8 1902.95   6
  -1  -7   7 10211.3 1505.55   4
  -1  -7   6 54896.1 3454.15   4
   1  -7  -6 53489.3 3760.52   6
  -1  -7   5 48898.4 3147.13   4
  -1  -7   5 54893.5 2273.74   2
  -1  -7   4 218026. 6072.59   2
   1  -7  -4 198387. 6838.21   4
  -1  -7   4 216501. 7605.23   4
  -1  -7   3 36734.6 1893.11   2
   1  -7  -3 32662.6 2248.66   4
  -1  -7   3 37399.6 2568.33   4
  -1  -7   2 22717.1 1510.51   2
   1  -7  -2 18959.3 1704.35   4
  -1  -7   2 21140.8 1893.16   4
  -1  -7   1 47336.6 2510.17   2
   1  -7  -1 52812.4 3001.53   4
  -1  -7   0 88586.0 3903.86   2
   1  -7   0 89097.1 4201.53   4
   1  -7   1 276411. 9067.79   4
   1  -7   2 144291. 6028.52   4
   1  -7   3 57342.5 3582.42   4
   1  -7   4 781.773 602.171   4
   1  -7   5 634.515 602.385   4
   1  -7   6 28110.6 2766.71   4
   1  -7   7 26417.5 2709.06   4
   1  -7   8 56854.6 4319.68   4
   1  -7   9 13613.6 2163.75   4
   1  -6 -10 23531.5 2799.47   6
  -1  -6   9 33441.7 2817.01   4
   1  -6  -9 39285.0 3524.06   6
  -1  -6   9 42176.5 3667.75   1
  -1  -6   8 65370.7 4448.31   1
  -1  -6   8 73914.5 4201.13   4
   1  -6  -8 77824.9 4812.79   6
  -1  -6   7 43375.8 3325.61   1
  -1  -6   7 44886.5 3044.68   4
   1  -6  -7 41290.8 3382.31   6
  -1  -6   6 45297.1 2970.69   4
   1  -6  -6 45981.2 3322.12   6
  -1  -6   6 42651.6 3119.32   1
   1  -6  -5 40089.5 3035.39   6
  -1  -6   5 40988.8 2834.08   1
  -1  -6   5 37739.7 2543.48   4
  -1  -6   4 37843.9 1783.80   2
   1  -6  -4 39905.5 2980.85   6
  -1  -6   4 34788.2 2473.41   1
  -1  -6   4 37921.8 2528.69   4
   1  -6  -3 154554. 5362.23   4
  -1  -6   3 164881. 5911.64   4
  -1  -6   3 166734. 4846.28   2
   1  -6  -2 164952. 5659.82   4
  -1  -6   2 167835. 5056.16   2
  -1  -6   1 105053. 3830.38   2
   1  -6  -1 111839. 4414.33   4
   1  -6   0 132167. 5028.97   4
  -1  -6   0 124475. 4565.04   2
  -1  -6  -1 5724.85 862.947   2
   1  -6   1 6463.12 1063.73   4
   1  -6   2 5675.29 954.372   4
   1  -6   3 125710. 3322.10   5
   1  -6   3 123132. 5285.81   4
   1  -6   4 59506.7 2393.00   5
   1  -6   4 62489.7 3660.88   4
   1  -6   5 170075. 6877.40   4
   1  -6   5 161490. 5600.91   5
   1  -6   6 60149.4 3900.22   4
   1  -6   7 25037.1 2591.97   4
   1  -6   8 3693.64 1161.81   4
   1  -6   9 12218.2 1962.75   4
   1  -5 -10 17909.0 2374.44   6
  -1  -5  10 16202.2 2353.46   1
   1  -5  -9 21830.4 2667.12   6
  -1  -5   9 28140.9 2928.61   1
  -1  -5   9 23153.6 2254.65   4
  -1  -5   8 2339.17 953.633   1
   1  -5  -8 1205.14 674.863   6
  -1  -5   8 1579.04 668.791   4
  -1  -5   7 52476.0 3116.03   4
  -1  -5   7 48948.8 3463.86   1
   1  -5  -7 52342.5 3685.04   6
  -1  -5   6 186378. 6535.04   4
   1  -5  -6 175047. 7154.17   6
  -1  -5   6 169871. 6847.22   1
  -1  -5   5 149345. 5916.99   1
   1  -5  -5 157572. 6415.97   6
  -1  -5   5 152693. 5622.64   4
  -1  -5   4 72844.5 3473.24   4
   1  -5  -4 66543.5 3802.67   6
  -1  -5   4 65431.3 3370.51   1
   1  -5  -3 61777.0 3246.05   6
  -1  -5   3 59574.0 2911.75   4
  -1  -5   3 56824.3 2211.02   2
  -1  -5   3 53880.9 2805.07   1
  -1  -5   2 3869.87 670.512   1
   1  -5  -2 4461.14 675.432   4
  -1  -5   2 4836.32 564.777   2
  -1  -5   1 28557.3 1553.13   2
  -1  -5   1 27573.7 1368.59   5
   1  -5  -1 32435.0 1966.90   4
  -1  -5   0 122226. 4206.76   2
   1  -5   0 123332. 4524.13   4
  -1  -5  -1 114728. 4409.46   2
   1  -5   1 120336. 4631.43   4
   1  -5   2 42867.6 1234.09   5
   1  -5   2 58880.7 3002.34   4
   1  -5   3 288600. 7306.84   5
   1  -5   3 291350. 9071.02   4
   1  -5   4 71965.5 3079.26   5
   1  -5   4 68362.9 3702.62   4
   1  -5   5 2483.88 756.582   4
   1  -5   5 3644.03 781.895   5
   1  -5   6 72473.7 4191.94   5
  -1  -5  -6 76040.1 3982.99   6
   1  -5   6 77416.2 4335.00   4
  -1  -5  -7 57012.9 3561.25   6
   1  -5   7 58295.9 4087.06   5
   1  -5   7 54654.6 3822.19   4
   1  -5   8 65833.4 4402.63   4
  -1  -5  -8 64806.6 3954.75   6
   1  -5   9 57077.7 4208.11   4
   1  -5  10 3554.83 1074.15   4
  -1  -4  11 690.914 744.416   5
  -1  -4  11 539.625 808.414   1
  -1  -4  10 21567.3 2582.62   1
   1  -4 -10 19597.0 2559.31   6
  -1  -4   9 60306.2 4172.16   1
   1  -4  -9 48409.5 3875.58   6
  -1  -4   9 49698.0 3275.16   4
   1  -4  -8 86599.2 5065.67   6
  -1  -4   8 94492.4 5037.37   1
  -1  -4   8 79966.4 4072.19   4
  -1  -4   7 41987.5 2630.93   4
   1  -4  -7 43963.1 3320.55   6
  -1  -4   7 40129.6 3001.60   1
   1  -4  -6 55325.0 3565.25   6
  -1  -4   6 60109.6 3036.76   4
  -1  -4   6 58594.0 3466.18   1
   1  -4  -5 6146.28 604.801   4
   1  -4  -5 5683.96 1027.12   6
  -1  -4   5 7037.58 1091.10   1
  -1  -4   5 4977.42 832.511   4
  -1  -4   4 71373.8 3417.86   1
   1  -4  -4 73634.5 3789.39   6
  -1  -4   4 70095.0 3198.97   4
  -1  -4   3 222592. 6832.58   4
  -1  -4   3 243061. 7094.56   1
   1  -4  -3 227314. 7640.79   6
   1  -4  -2 189978. 5467.40   4
   1  -4  -2 180890. 6089.15   6
  -1  -4   2 196462. 5259.58   5
  -1  -4   2 190309. 5740.49   1
  -1  -4   2 187000. 5164.89   2
  -1  -4   1 121441. 3741.71   2
   1  -4  -1 125479. 4101.99   4
  -1  -4   1 124291. 3491.23   3
  -1  -4   1 119476. 3595.08   5
  -1  -4   1 119617. 3876.33   1
  -1  -4   0 203778. 5560.20   5
  -1  -4   0 214520. 5775.25   3
   1  -4   0 200072. 6086.22   4
  -1  -4   0 201637. 5839.26   2
  -1  -4  -1 64784.8 2814.60   2
   1  -4   1 64020.9 2918.59   4
   1  -4   2 27536.6 1910.85   4
   1  -4   2 30359.4 1147.17   5
   1  -4   3 154421. 4767.91   5
   1  -4   3 163636. 5805.45   4
   1  -4   4 121850. 5057.02   4
  -1  -4  -4 118736. 4787.57   6
   1  -4   4 128728. 4843.36   5
   1  -4   5 90018.7 4382.42   4
  -1  -4  -5 89913.4 4120.68   6
   1  -4   5 86397.5 4377.02   5
   1  -4   6 132747. 6224.12   5
  -1  -4  -6 123879. 5317.47   6
   1  -4   6 123987. 5665.20   4
  -1  -4  -7 29641.2 2450.72   6
   1  -4   7 29237.7 2650.36   4
   1  -4   7 24733.3 2848.45   5
   1  -4   8 7185.18 1400.44   4
   1  -4   8 4992.30 1277.40   5
  -1  -4  -8 6130.36 1186.25   6
   1  -4   9 20940.8 2425.05   4
   1  -4   9 21666.1 2657.84   5
   1  -4  10 13771.0 2037.27   4
   1  -3 -11 13111.8 2151.56   6
  -1  -3  11 11426.0 2052.94   5
  -1  -3  11 12813.2 1975.58   1
   1  -3 -10 26354.0 2914.58   6
  -1  -3  10 27348.9 2815.93   1
  -1  -3   9 2299.13 952.859   1
   1  -3  -9 3471.25 1052.81   6
  -1  -3   8 1340.57 484.889   4
  -1  -3   8 1353.38 672.975   1
   1  -3  -8-224.959 663.948   6
  -1  -3   7 54874.8 2911.76   4
   1  -3  -7 50618.4 3525.81   6
  -1  -3   7 52359.9 3402.15   1
   1  -3  -6 76712.9 4175.03   6
  -1  -3   6 85259.3 4167.81   1
  -1  -3   6 77294.3 3406.94   4
   1  -3  -6 82026.8 2796.18   4
  -1  -3   5 139921. 4735.00   4
   1  -3  -5 130510. 5492.91   6
   1  -3  -5 135144. 3854.87   4
  -1  -3   5 133247. 5264.20   1
   1  -3  -4 209499. 5449.79   4
  -1  -3   4 232673. 6498.97   4
  -1  -3   4 215866. 6880.19   1
   1  -3  -4 214141. 7315.16   6
   1  -3  -3 267982. 8186.46   6
  -1  -3   3 253840. 7219.44   4
  -1  -3   3 271141. 7657.95   1
   1  -3  -2 252674. 7392.94   6
  -1  -3   2 260748. 6996.64   1
  -1  -3   2 233064. 6373.10   5
   1  -3  -2 253023. 6288.24   4
  -1  -3   1 373611. 9107.72   2
  -1  -3   1 379891. 9086.78   5
  -1  -3   1 369402. 9295.70   1
   1  -3  -1 376638. 9280.74   4
  -1  -3   1 370453. 8710.45   3
  -1  -3   0 481954. 11256.7   5
  -1  -3   0 456298. 11907.8   3
  -1  -3   0 474795. 11050.0   1
   1  -3   0 465314. 11670.4   4
  -1  -3   0 461178. 11355.8   2
   1  -3   1 423843. 9740.77   5
  -1  -3  -1 459119. 11432.7   3
  -1  -3  -1 437839. 10936.8   2
   1  -3   1 438746. 11150.5   4
   1  -3   2 437874. 10497.5   5
   1  -3   2 440562. 11727.2   4
  -1  -3  -2 448705. 11796.9   2
   1  -3   3 34485.5 2218.18   4
   1  -3   3 39977.1 2085.75   5
  -1  -3  -3 36026.1 1974.77   6
   1  -3   4 16912.8 1609.42   4
   1  -3   4 17860.3 1728.96   5
  -1  -3  -4 17565.2 1532.98   6
   1  -3   4 17746.0 783.185   2
   1  -3   5 13973.7 1555.09   4
   1  -3   5 14434.7 880.097   2
   1  -3   5 17743.9 1965.45   5
  -1  -3  -5 15777.8 1483.26   6
   1  -3   6 28064.7 2943.44   5
   1  -3   6 30645.7 2487.07   4
  -1  -3  -6 31043.8 2317.35   6
  -1  -3  -7 50538.7 3176.19   6
   1  -3   7 52567.2 3447.36   4
   1  -3   8 41672.5 3652.41   5
   1  -3   8 45873.7 3384.56   4
  -1  -3  -8 44848.6 3190.05   6
   1  -3   9 35721.8 3413.28   5
   1  -3   9 37295.4 3174.85   4
   1  -3  10 34998.3 3545.05   5
  -1  -2  11 6049.54 1363.42   1
  -1  -2  11 3413.17 1376.67   5
   1  -2 -11 4274.45 1201.28   6
  -1  -2  10 34902.1 3121.47   1
   1  -2 -10 32349.5 3158.52   6
  -1  -2   9 47700.9 3617.54   1
   1  -2  -9 57400.7 4066.72   6
  -1  -2   8 49599.3 3437.96   1
  -1  -2   8 40775.7 2550.30   4
   1  -2  -8 41548.4 3288.53   6
  -1  -2   7 104496. 4969.90   1
  -1  -2   7 104758. 4172.33   4
   1  -2  -7 104913. 5268.01   6
  -1  -2   6 13102.9 1200.64   4
  -1  -2   6 10287.4 1351.27   1
   1  -2  -6 14503.0 1012.66   4
   1  -2  -6 13299.7 1628.61   6
   1  -2  -5 31481.8 2360.97   6
  -1  -2   5 33483.1 2258.66   1
   1  -2  -5 33142.4 1404.61   4
  -1  -2   5 34551.9 1838.34   4
   1  -2  -4 59399.8 1786.69   4
   1  -2  -4 62392.4 3205.43   6
  -1  -2   4 61965.9 2475.42   4
  -1  -2   4 68388.4 3051.28   1
  -1  -2   3 132520. 3949.23   4
  -1  -2   3 124893. 4363.38   1
   1  -2  -3 123630. 4665.99   6
   1  -2  -2 478281. 11475.0   3
   1  -2  -2 483918. 12329.8   6
   1  -2  -2 462645. 10745.0   4
  -1  -2   2 501705. 11837.5   1
  -1  -2   1 958646. 21446.9   5
   1  -2  -1 923982. 21858.1   6
  -1  -2   1 947076. 20859.1   3
   1  -2  -1 937826. 21307.9   4
  -1  -2   1 949544. 21606.9   1
  -1  -2   0 249123. 6102.72   5
  -1  -2   0 243759. 6238.63   3
  -1  -2   0 242775. 5809.16   1
   1  -2   0 243516. 5623.00   5
   1  -2   0 226792. 6302.09   4
  -1  -2   0 222260. 6042.61   2
   1  -2   1 64304.1 1852.11   5
  -1  -2  -1 63010.7 2345.03   2
  -1  -2  -1 63100.5 2509.95   3
  -1  -2  -1 55468.5 2219.19   5
   1  -2   1 62925.3 2518.48   4
   1  -2   2 175359. 4888.07   5
  -1  -2  -2 173672. 5430.47   2
   1  -2   2 177072. 5501.14   4
  -1  -2  -2 172517. 4842.42   6
  -1  -2  -3 68800.9 2884.91   6
   1  -2   3 65912.9 3285.65   5
   1  -2   3 73487.4 2125.01   2
   1  -2   3 71421.4 3205.05   4
   1  -2   4 280027. 8592.20   4
  -1  -2  -4 276518. 8067.38   6
   1  -2   4 285633. 9798.97   5
   1  -2   4 278839. 7142.90   2
   1  -2   5 121022. 5966.20   5
  -1  -2  -5 112907. 4471.61   6
   1  -2   5 112497. 4792.29   4
   1  -2   5 103762. 3710.92   2
   1  -2   6 44865.5 3547.94   5
   1  -2   6 49435.9 3131.00   4
  -1  -2  -6 44533.9 2778.68   6
  -1  -2  -7 43434.2 2981.23   6
   1  -2   7 51703.1 3349.64   4
   1  -2   7 52506.8 4119.02   5
  -1  -2  -8 1390.91 514.831   6
   1  -2   8 3099.76 873.965   4
   1  -2   8 3865.50 1209.89   5
   1  -2   9 5524.69 1154.31   4
   1  -2   9 3674.65 1251.78   5
   1  -2  10 26125.0 3133.27   5
   1  -1 -11 36918.8 3646.34   6
  -1  -1  11 40815.2 4060.56   5
   1  -1 -10 36098.3 3435.89   6
  -1  -1  10 31655.2 2868.13   1
  -1  -1   9 4390.88 1051.62   1
   1  -1  -9 3447.68 1154.89   6
   1  -1  -8 4474.36 1099.52   6
  -1  -1   8 6448.97 1266.05   1
  -1  -1   8 6658.94 921.096   4
  -1  -1   7 42419.8 2974.04   1
  -1  -1   7 40805.2 2297.73   4
   1  -1  -7 40859.0 3030.28   6
   1  -1  -6 152482. 4622.67   4
  -1  -1   6 138653. 4687.88   4
  -1  -1   6 135603. 5558.25   1
   1  -1  -6 137215. 5682.26   6
  -1  -1   5 295949. 7946.50   4
  -1  -1   5 312716. 9137.69   1
   1  -1  -5 288599. 9153.72   6
   1  -1  -5 302874. 7658.72   4
   1  -1  -4 173931. 4483.14   4
  -1  -1   4 161708. 5654.51   1
  -1  -1   4 178620. 4884.36   4
   1  -1  -4 179206. 5939.32   6
  -1  -1   3 48361.0 1751.41   4
   1  -1  -3 43560.2 2289.58   3
  -1  -1   3 44822.7 2197.33   1
   1  -1  -2 29830.9 1580.21   6
   1  -1  -2 25033.0 1169.27   3
  -1  -1   2 29839.5 1538.72   1
   1  -1  -1 174664. 4282.21   4
  -1  -1   1 163582. 4430.77   5
  -1  -1   1 165196. 4600.71   1
   1  -1  -1 179425. 4860.13   6
  -1  -1   0 152755. 3839.56   1
   1  -1   0 155078. 3826.33   5
   1  -1   0 158011. 4247.05   4
  -1  -1  -1 301896. 7894.57   5
   1  -1   1 316918. 8241.17   4
   1  -1   1 333840. 7644.68   5
  -1  -1  -1 312062. 7809.26   2
   1  -1   2 449209. 10578.3   5
  -1  -1  -2 426158. 10232.5   6
  -1  -1  -2 445548. 11250.5   4
  -1  -1  -2 406045. 10579.5   2
   1  -1   2 408721. 10880.6   4
   1  -1   2 416619. 9776.31   2
  -1  -1  -2 416408. 9473.96   1
  -1  -1  -3 158841. 4110.60   1
   1  -1   3 151134. 5438.25   5
   1  -1   3 161777. 4511.88   2
  -1  -1  -3 159084. 4776.53   6
   1  -1   3 153006. 5270.00   4
   1  -1   4 64463.7 3601.72   5
  -1  -1  -4 59139.0 2135.03   1
   1  -1   4 59230.9 2544.37   2
   1  -1   4 54918.1 2933.00   4
  -1  -1  -4 58499.9 2720.45   6
  -1  -1  -5 15766.9 1424.50   6
   1  -1   5 14692.9 1985.36   5
  -1  -1  -5 16027.8 1141.35   1
   1  -1   5 15354.6 1516.47   4
   1  -1   6 18275.5 2495.36   5
   1  -1   6 17936.4 1779.05   4
  -1  -1  -6 20273.7 1761.15   6
   1  -1   7 122380. 5475.63   4
  -1  -1  -7 130067. 5443.54   6
   1  -1   8 94029.2 5793.59   5
   1  -1   8 89951.2 4807.31   4
  -1  -1  -8 92230.0 4769.11   6
  -1  -1  -9 46679.6 3353.58   6
   1  -1   9 50575.8 4277.48   5
   1  -1  10 14321.9 2430.14   5
   1   0 -11 852.341 807.568   6
  -1   0  10 5502.34 1181.68   1
   1   0 -10 5694.69 1366.48   6
  -1   0   9 95722.6 4914.32   1
   1   0  -9 91948.1 5243.65   6
   1   0  -8 143872. 6535.92   6
  -1   0   8 163823. 6515.37   1
  -1   0   7 140653. 4677.55   4
   1   0  -7 129758. 5765.40   6
  -1   0   7 138425. 5730.87   1
  -1   0   6 907.857 567.546   1
  -1   0   6 1050.65 369.138   4
   1   0  -6-494.032 676.775   6
   1   0  -5 1009.36 303.095   4
  -1   0   5 977.568 291.617   4
  -1   0   5 489.390 399.616   1
   1   0  -5-20.2854 366.052   6
   1   0  -4 154233. 4403.67   4
   1   0  -4 151623. 4992.69   3
   1   0  -4 155847. 5331.69   6
  -1   0   4 160793. 4285.63   4
   1   0  -3 199720. 6115.59   3
   1   0  -3 226237. 6381.75   6
  -1   0   3 238351. 6547.23   1
  -1   0   3 214509. 5244.01   4
   1   0  -2 321237. 8564.94   1
  -1   0   2 323688. 7928.30   3
  -1   0   2 332140. 8627.86   1
  -1   0   2 337496. 8432.03   6
   1   0  -2 336556. 7848.10   3
   1   0  -2 340226. 8461.87   6
  -1   0   1 43243.5 1571.34   5
  -1   0   1 44417.0 1593.46   6
   1   0  -1 46812.4 1634.12   6
   1   0   0 85046.5 2465.61   5
  -1   0   0 90362.9 2515.51   5
  -1   0   0 83040.6 2746.09   4
   1   0   1 90859.9 2512.86   2
   1   0   1 84110.2 3021.13   4
  -1   0  -1 88866.6 2732.81   5
  -1   0  -1 90559.1 3084.12   4
   1   0   1 97221.0 2766.76   5
  -1   0  -1 77011.3 2452.82   2
   1   0   2 403.140 238.611   4
   1   0   2 571.331 198.184   2
  -1   0  -2 883.772 172.104   1
   1   0   2 437.682 199.159   5
  -1   0  -2 919.590 296.527   5
  -1   0  -2 391.410 248.286   4
  -1   0  -2 485.987 143.620   6
  -1   0  -2 538.628 171.873   2
   1   0   3 1382.70 377.223   4
   1   0   3 1459.83 386.761   2
  -1   0  -3 1348.82 269.624   6
  -1   0  -3 1871.11 290.773   1
   1   0   3 1766.20 638.641   5
  -1   0  -4 324012. 8777.59   6
   1   0   4 302847. 10583.5   5
  -1   0  -4 338810. 8421.03   1
   1   0   4 317520. 9392.73   4
   1   0   5 212795. 6541.49   1
  -1   0  -5 226182. 6829.16   6
   1   0   5 224971. 7387.72   4
   1   0   5 207704. 8709.28   5
   1   0   6 211672. 6712.58   1
   1   0   6 198406. 7170.70   4
  -1   0  -6 215796. 6901.52   6
   1   0   7 8602.96 1938.30   5
  -1   0  -7 11559.5 1431.10   6
  -1   0  -8 2110.93 683.993   6
   1   0   8 3720.82 1376.22   5
  -1   0  -9 12853.6 1731.16   6
   1   0   9 10136.7 2005.84   5
   1   0  10 46164.1 4259.89   5
   1   1 -11 40761.7 3789.76   6
  -1   1  10 32482.4 2737.70   1
   1   1 -10 31209.7 3108.25   6
   1   1  -9 4824.47 1070.91   6
  -1   1   9 3596.48 894.140   1
   1   1  -8 3665.99 960.939   6
  -1   1   8 6068.11 1131.70   1
   1   1  -7 38365.8 2819.89   6
  -1   1   7 43161.6 2838.12   1
  -1   1   6 122984. 5098.26   1
   1   1  -6 126413. 5157.82   6
   1   1  -5 336616. 9868.13   6
  -1   1   5 339171. 9876.87   1
   1   1  -4 178244. 5518.72   3
  -1   1   4 189616. 6105.02   1
   1   1  -4 193296. 5995.33   6
   1   1  -3 29164.0 1395.60   3
  -1   1   3 33320.3 1889.81   1
  -1   1   2 22083.0 1287.62   3
   1   1  -2 19831.0 1288.18   1
  -1   1   2 24530.1 1471.70   6
  -1   1   2 24485.0 1454.78   1
   1   1  -1 146326. 4104.49   1
  -1   1   1 128593. 3689.32   3
   1   1  -1 142265. 3887.48   5
  -1   1   1 150085. 3625.81   4
  -1   1   1 162649. 4376.22   6
  -1   1   0 196210. 5251.88   4
  -1   1   0 195761. 4877.30   5
  -1   1   0 196337. 4955.17   6
   1   1   0 202550. 5122.81   5
   1   1   0 211648. 5044.97   1
   1   1   1 295448. 6866.99   6
  -1   1  -1 289914. 6791.72   2
   1   1   1 291972. 7268.09   2
  -1   1  -1 291788. 7642.34   4
   1   1   1 272414. 7355.00   5
  -1   1  -1 306134. 7163.52   5
  -1   1  -2 435756. 10751.2   1
   1   1   2 444336. 11212.8   2
  -1   1  -2 471383. 11509.9   5
  -1   1  -2 440841. 10678.6   2
   1   1   2 451371. 10770.1   6
   1   1   3 153931. 5529.87   5
   1   1   3 150338. 4437.41   6
  -1   1  -3 148905. 4354.68   1
   1   1   4 64784.8 2380.30   1
   1   1   4 65124.5 3834.31   5
  -1   1  -4 68191.6 2711.00   6
   1   1   5 19014.0 1302.41   1
  -1   1  -5 18814.6 1458.58   6
   1   1   5 17243.3 2075.88   5
   1   1   6 16356.3 1368.96   1
   1   1   6 20488.0 2392.79   5
  -1   1  -6 16977.7 1531.81   6
  -1   1  -7 119329. 4961.23   6
   1   1   7 124357. 4696.33   1
   1   1   8 104788. 6287.45   5
  -1   1  -8 106044. 5041.67   6
   1   1   9 48192.0 4122.18   5
  -1   1  -9 42375.7 3211.15   6
   1   1  10 12651.1 2281.44   5
   1   2 -11 3024.36 1127.30   6
  -1   2  10 30296.7 3449.37   5
   1   2 -10 31335.2 3082.19   6
   1   2  -9 65018.4 4240.14   6
  -1   2   9 62931.6 3727.47   1
   1   2  -8 34563.6 2857.07   6
  -1   2   8 37926.0 2725.98   1
   1   2  -7 111004. 5125.73   6
  -1   2   7 105302. 4761.63   1
  -1   2   6 17567.9 1650.16   1
   1   2  -6 13288.4 1535.78   6
   1   2  -5 32892.6 2186.99   6
  -1   2   5 33205.1 2186.42   1
  -1   2   4 49703.7 2635.43   3
  -1   2   4 44864.2 2423.99   1
  -1   2   3 105860. 3942.74   1
  -1   2   3 98918.4 3738.48   3
   1   2  -2 561529. 13625.0   1
  -1   2   2 573258. 13485.6   3
   1   2  -1 994460. 21913.8   5
  -1   2   1 940059. 22439.7   6
   1   2  -1 990671. 21570.5   3
  -1   2   1 906081. 21692.7   4
  -1   2   1 999999. 21939.0   3
   1   2  -1 960071. 22217.4   1
  -1   2   0 200949. 4712.84   5
  -1   2   0 196181. 5332.14   4
   1   2   0 201535. 5220.03   5
  -1   2   0 199356. 5176.09   6
   1   2   0 188280. 5004.35   1
   1   2   1 74985.0 2352.38   6
  -1   2  -1 81385.4 2327.40   5
   1   2   1 73830.0 2626.17   5
  -1   2  -1 73613.6 2794.41   4
   1   2   1 74909.1 2672.01   2
   1   2   2 206924. 5914.78   5
   1   2   2 176112. 5222.60   6
   1   2   3 78614.0 3663.23   5
   1   2   3 75408.3 2105.78   1
   1   2   3 82142.7 3036.12   6
   1   2   4 297760. 9670.99   5
   1   2   4 276145. 6989.93   1
   1   2   5 112055. 3638.99   1
  -1   2  -5 105795. 4164.60   6
   1   2   6 53447.5 4284.36   5
  -1   2  -6 61997.7 3247.17   6
  -1   2  -7 34584.4 2478.74   6
   1   2   7 33319.8 3200.26   5
  -1   2  -8 4500.25 923.745   6
   1   2   8 3787.98 1170.14   5
  -1   2  -9 5145.08 1128.22   6
   1   2   9 4307.15 1287.85   5
   1   2  10 19127.7 2761.46   5
   1   3 -11 18357.9 2537.72   6
  -1   3  10 28183.0 3193.81   5
   1   3 -10 25202.5 2753.99   6
  -1   3   9 4427.13 1290.63   5
   1   3  -9 4518.40 1134.61   6
  -1   3   9 5611.46 1080.15   1
  -1   3   8 460.695 455.844   1
   1   3  -8 2094.67 857.679   6
  -1   3   7 61248.6 3356.17   1
   1   3  -7 56837.3 3494.81   6
  -1   3   6 56813.7 3094.59   1
  -1   3   5 153858. 5845.75   3
  -1   3   5 146496. 5433.08   1
  -1   3   4 222023. 6989.20   3
  -1   3   4 211015. 6780.24   1
  -1   3   3 266826. 8252.58   3
  -1   3   2 246775. 6840.38   3
   1   3  -2 239211. 5789.00   3
   1   3  -1 331785. 8542.73   3
  -1   3   1 314837. 8458.32   3
   1   3  -1 332068. 8284.03   5
  -1   3   1 347687. 8251.44   4
   1   3  -1 349226. 8712.70   1
   1   3   0 499632. 12069.0   2
   1   3   0 481184. 12331.0   3
   1   3   0 499915. 11969.8   5
  -1   3   0 498291. 11183.9   5
  -1   3   0 533166. 12346.6   4
   1   3   0 495239. 11879.7   1
   1   3   1 458455. 10630.9   1
  -1   3  -1 463542. 10640.8   5
   1   3   1 462518. 11921.2   3
   1   3   1 438753. 11273.9   5
   1   3   2 459469. 11185.3   6
   1   3   2 442574. 10083.5   1
   1   3   2 421611. 11546.2   5
   1   3   3 25206.6 955.303   1
   1   3   3 25320.1 1885.43   5
   1   3   4 18164.1 1955.74   5
   1   3   4 14339.5 805.475   1
   1   3   5 13422.7 1838.56   5
   1   3   5 14389.9 970.559   1
  -1   3  -6 28580.1 2102.12   6
   1   3   6 30521.5 1622.67   1
   1   3   7 46708.2 3796.31   5
  -1   3  -7 52081.4 3115.15   6
   1   3   8 48416.1 4347.51   5
  -1   3  -8 57166.0 3524.60   6
   1   3   9 35303.7 3542.44   5
  -1   3  -9 38334.5 3020.66   6
  -1   4  10 13686.2 2630.01   5
   1   4 -10 23195.1 2670.04   6
   1   4  -9 58943.5 4074.26   6
  -1   4   9 52699.5 4485.96   5
  -1   4   8 79904.7 4146.63   1
   1   4  -8 89137.3 4811.46   6
  -1   4   8 82195.7 5362.18   5
  -1   4   7 38378.3 2628.23   1
  -1   4   6 58309.7 3154.90   1
  -1   4   5 6768.85 1033.38   1
  -1   4   5 6429.36 1047.86   3
  -1   4   4 66960.9 3458.27   3
  -1   4   3 192021. 6944.11   3
   1   4  -2 220139. 5750.22   3
  -1   4   2 241740. 6819.65   3
   1   4  -1 124378. 4255.73   3
   1   4  -1 126080. 3820.43   5
   1   4   0 210854. 6209.65   3
   1   4   0 208866. 5753.56   5
   1   4   0 211346. 5904.29   1
   1   4   1 66244.8 2311.33   1
   1   4   1 61779.1 2526.00   5
   1   4   1 63743.3 3061.89   3
   1   4   2 24089.7 1888.29   3
   1   4   2 24956.3 1701.02   5
   1   4   3 146794. 3912.41   1
   1   4   3 142729. 5525.32   5
   1   4   4 119480. 3346.91   1
   1   4   4 106391. 5180.48   5
   1   4   5 73008.6 4503.24   5
   1   4   5 84598.4 2753.27   1
   1   4   6 116389. 5988.79   5
  -1   4  -7 25245.5 2152.68   6
   1   4   7 21595.8 2571.66   5
   1   4   8 5516.15 1395.63   5
  -1   4  -8 6994.90 1264.42   6
   1   4   9 26293.6 3099.54   5
  -1   5  10 20562.5 2869.78   5
   1   5 -10 16758.4 2287.89   6
   1   5  -9 24420.4 2619.58   6
  -1   5   9 22023.3 2927.66   5
  -1   5   8 1622.93 642.037   1
   1   5  -8 2784.75 1066.03   6
  -1   5   8 1144.16 743.079   5
  -1   5   7 48357.6 2987.28   1
  -1   5   7 47716.9 3809.02   5
  -1   5   6 178787. 7186.46   3
  -1   5   6 184162. 6561.94   1
  -1   5   5 152635. 6249.15   3
  -1   5   5 151018. 5776.36   1
  -1   5   4 48137.2 3002.82   3
   1   5  -3 79081.0 2677.26   3
  -1   5   3 67561.9 3910.21   3
   1   5  -2 6190.16 634.440   3
  -1   5   2 6947.52 945.889   3
  -1   5   1 36646.2 1713.46   5
  -1   5   1 30932.5 1842.41   3
   1   5  -1 32635.3 1574.20   5
   1   5  -1 32309.7 1975.02   3
   1   5   0 140814. 4369.17   5
   1   5   0 152729. 5161.97   3
  -1   5   0 142694. 4716.96   3
   1   5   1 89035.6 3851.83   3
   1   5   1 93685.6 3401.38   5
   1   5   1 94242.1 3348.23   1
  -1   5  -1 95756.4 2849.60   2
   1   5   2 74566.0 3783.20   3
   1   5   2 78863.5 2776.29   1
   1   5   2 76303.9 3325.02   5
   1   5   3 286802. 9035.25   5
   1   5   4 58912.2 3648.28   5
   1   5   4 60649.9 2151.58   1
   1   5   5 2073.32 346.197   1
   1   5   5 1115.57 559.800   5
   1   5   6 75632.3 4630.30   5
   1   5   7 55734.7 4105.55   5
   1   5   8 57884.2 4538.48   5
  -1   5  -8 62152.6 3849.64   6
   1   5   9 55623.1 4474.91   5
   1   6 -10 22918.3 2750.90   6
  -1   6   9 36459.5 3664.35   5
   1   6  -9 33243.4 3181.68   6
  -1   6   8 79813.7 5311.84   5
  -1   6   7 42071.6 3817.63   5
  -1   6   7 49828.6 3026.64   1
  -1   6   6 49655.3 3556.20   5
  -1   6   6 46339.4 3399.04   3
  -1   6   6 41944.9 2843.62   1
  -1   6   5 41263.3 2970.54   3
  -1   6   5 41604.1 3065.91   5
  -1   6   4 45795.4 3075.83   3
  -1   6   4 42417.5 2880.42   5
  -1   6   3 192230. 6698.64   5
   1   6  -3 212833. 5801.00   3
   1   6  -2 149802. 4742.61   3
  -1   6   2 140633. 5519.86   3
  -1   6   2 151842. 5158.52   5
  -1   6   1 95946.6 2974.99   5
   1   6  -1 92118.3 3186.18   5
  -1   6   1 89967.8 3731.38   3
   1   6  -1 94017.0 4066.55   3
   1   6   0 150956. 4669.60   5
  -1   6   0 145083. 5032.55   3
   1   6   0 155058. 5650.78   3
   1   6   1 6736.63 820.620   5
   1   6   1 6500.29 1045.01   3
  -1   6  -1 7952.92 652.992   2
   1   6   2 9503.18 1334.22   3
   1   6   2 9128.81 1104.91   5
   1   6   3 123537. 5114.41   5
   1   6   3 127294. 5614.92   3
   1   6   4 51676.7 3452.30   5
   1   6   4 55978.0 2238.33   1
   1   6   5 166361. 7415.54   5
   1   6   6 56826.3 3968.92   5
   1   6   7 29215.6 3020.55   5
   1   6   8 4776.04 1351.10   5
  -1   7   9 6701.05 1784.02   5
   1   7  -9 10253.2 1817.69   6
  -1   7   8 8802.61 1751.33   5
  -1   7   7 8509.56 1646.04   3
  -1   7   7 8320.60 1719.52   5
  -1   7   7 9218.78 1394.46   1
  -1   7   6 76707.7 4593.50   3
  -1   7   6 67585.1 3811.86   1
  -1   7   6 73063.5 4554.42   5
  -1   7   5 45485.6 3351.39   5
  -1   7   5 42939.9 3166.72   3
  -1   7   4 207655. 7565.86   5
  -1   7   4 225379. 8250.19   3
   1   7  -4 203138. 6251.44   3
  -1   7   3 37343.3 3440.98   3
  -1   7   3 41795.5 2599.85   5
   1   7  -3 38679.3 2059.95   3
  -1   7   2 24312.8 1607.25   5
   1   7  -2 24540.1 1702.56   3
  -1   7   2 25187.6 2177.78   3
  -1   7   1 61949.5 2078.43   5
  -1   7   1 54274.1 2984.27   3
   1   7  -1 61271.0 3566.73   3
   1   7  -1 59033.2 2420.66   5
   1   7   0 86128.5 3233.68   5
  -1   7   0 82769.4 3630.54   3
   1   7   0 86765.8 4260.90   3
   1   7   1 259209. 7550.13   5
   1   7   1 264828. 8608.53   3
  -1   7  -1 259326. 7948.48   3
  -1   7  -1 256310. 6779.30   2
   1   7   2 149842. 5361.34   5
   1   7   2 149009. 6318.86   3
   1   7   3 63468.3 3908.46   3
   1   7   3 67907.4 3570.66   5
   1   7   4 459.092 640.698   5
   1   7   5-402.356 589.855   5
   1   7   6 38829.2 3350.59   5
   1   7   7 29710.3 3219.75   5
   1   7   8 46549.4 4278.76   5
  -1   8   9 13414.9 2276.49   5
  -1   8   8 40308.4 3786.51   5
  -1   8   7 21038.1 2537.46   5
  -1   8   7 23123.1 2599.29   3
  -1   8   6 23090.5 2127.28   1
  -1   8   6 21008.1 2477.45   5
  -1   8   6 24511.8 2621.66   3
  -1   8   5 945.468 701.435   5
  -1   8   5 506.998 486.677   3
   1   8  -5 848.878 362.312   3
  -1   8   4 2721.48 898.235   5
   1   8  -4 2277.15 543.011   3
  -1   8   4 4157.69 1360.16   3
  -1   8   3 67858.3 3388.60   5
   1   8  -3 70075.4 3163.74   3
  -1   8   2 197506. 6069.28   5
   1   8  -2 224291. 7186.90   3
  -1   8   2 214426. 8121.99   3
  -1   8   1 173549. 6509.30   3
   1   8  -1 173149. 5406.65   5
   1   8  -1 174561. 7414.15   3
  -1   8   1 186435. 4737.90   5
   1   8   0 94500.2 4692.25   3
  -1   8   0 86089.3 4029.83   3
   1   8   0 97069.6 3617.49   5
   1   8   1 2566.52 587.435   5
   1   8   1 1517.65 516.812   3
  -1   8  -1 2053.77 693.543   3
   1   8   2 3311.13 712.385   5
   1   8   2 5771.06 1116.97   3
  -1   8  -2 4060.50 882.838   3
   1   8   3 85512.7 4827.50   3
   1   8   3 83815.9 4120.12   5
   1   8   4 58588.1 3706.11   5
   1   8   5 96771.7 5392.04   5
   1   8   6 9763.80 1732.04   5
   1   8   7 11787.1 2021.90   5
   1   8   8 796.202 846.355   5
  -1   9   8 4303.27 1239.05   5
  -1   9   7 7151.23 1743.22   3
  -1   9   7 10479.8 1769.27   5
  -1   9   6 64369.3 4641.41   3
  -1   9   6 62792.4 4151.93   5
  -1   9   5 90984.2 5220.55   3
  -1   9   5 88236.8 4606.44   5
  -1   9   4 61997.1 3501.00   5
  -1   9   4 70161.1 4437.28   3
   1   9  -4 66236.2 3245.08   3
  -1   9   3 19628.9 1606.91   5
   1   9  -3 19126.2 1718.23   3
  -1   9   3 17898.5 2552.67   3
  -1   9   2 525.951 713.544   3
   1   9  -2 1952.85 669.835   3
   1   9  -1 9710.80 1799.06   3
  -1   9   1 12795.2 1583.97   3
   1   9  -1 11463.7 1026.49   5
  -1   9   0 46733.4 3014.49   3
   1   9   0 49332.4 2496.54   5
   1   9   1 131806. 6013.68   3
  -1   9  -1 133331. 5373.30   3
   1   9   1 130688. 4863.17   5
   1   9   2 75332.8 3653.71   5
   1   9   2 80901.9 4630.35   3
  -1   9  -2 71529.1 3781.81   3
   1   9   3 72079.0 4525.80   3
   1   9   3 66436.2 3717.12   5
  -1   9  -3 71918.6 3909.50   3
   1   9   4 1076.46 692.038   3
   1   9   4 2339.97 831.204   5
   1   9   5 1965.47 841.564   5
   1   9   6 10635.8 1817.50   5
   1   9   7 34308.1 3317.65   5
  -1  10   8 50694.0 3924.60   5
  -1  10   7 30938.8 2858.29   5
  -1  10   7 30978.3 3275.80   3
  -1  10   6 3653.43 1281.25   3
  -1  10   6 3411.35 947.201   5
  -1  10   5 500.776 706.130   3
  -1  10   4 23655.6 2714.93   3
  -1  10   3 71671.7 5368.57   3
   1  10  -3 86161.2 4404.05   3
  -1  10   2 59989.7 4648.06   3
   1  10  -2 62495.2 4296.24   3
  -1  10   1 53768.1 3720.32   3
   1  10  -1 45444.9 3836.86   3
   1  10   0 34378.3 3004.16   3
  -1  10   0 31465.2 2566.99   3
  -1  10  -1 14918.5 1769.71   3
   1  10   1 17837.0 1553.82   5
   1  10   1 15506.7 1967.84   3
   1  10   2 3994.60 836.770   5
   1  10   2 4522.84 1040.22   3
  -1  10  -2 3405.78 892.577   3
   1  10   3 14904.6 2144.40   3
   1  10   3 16749.6 1800.81   5
  -1  10  -3 16861.5 1884.02   3
   1  10   4 59388.1 3836.31   5
   1  10   4 56757.6 4243.11   3
   1  10   5 64548.2 4368.16   5
   1  10   6 54139.6 4061.01   5
   1  10   7 6761.45 1574.46   5
  -1  11   6 29932.5 3366.41   3
  -1  11   5 53598.3 4248.33   3
  -1  11   4 44107.7 3843.43   3
  -1  11   3 18010.4 2668.15   3
   1  11  -2 88.2693 1201.21   3
  -1  11   2 806.840 1249.68   3
   1  11  -1 5552.66 1597.72   3
  -1  11   1 5228.63 1271.54   3
  -1  11   0 32070.4 2937.68   3
   1  11   0 33005.3 3085.89   3
   1  11   1 42305.2 3454.19   3
  -1  11  -1 40568.8 3103.15   3
   1  11   2 89859.2 5441.35   3
  -1  11  -2 86486.1 4645.66   3
   1  11   3 20267.6 2543.71   3
  -1  11  -3 18441.2 2106.18   3
  -1  11  -4 19811.7 2117.58   3
   1  11   4 21208.3 2562.60   3
   1  11   5 8221.57 1513.98   5
  -1  11  -5 7057.50 1489.68   3
   1  11   6 6686.95 1473.37   5
  -1  12   4 13101.4 2187.06   3
  -1  12   3 34538.6 3728.30   3
  -1  12   2 38626.0 4354.39   3
   1  12  -1 99353.5 5825.51   3
  -1  12   1 77459.2 5675.02   3
  -1  12   0 13352.5 2183.34   3
   1  12   0 16246.1 2245.13   3
   1  12   1 5276.70 1277.74   3
  -1  12  -1 5898.43 1355.50   3
  -1  12  -2 15255.8 2022.69   3
   1  12   2 14137.0 2217.39   3
   1  12   3 12034.7 2036.76   3
  -1  12  -3 12567.0 1790.18   3
  -1  12  -4 48546.3 3693.76   3
   1  12   4 52141.8 4416.90   3
  -1  12  -5 20494.7 2392.88   3
  -1  13   3 35217.7 3721.20   3
  -1  13   2 1299.80 1420.61   3
  -1  13   1 6081.59 1460.31   3
   1  13   0 40781.0 3645.88   3
  -1  13   0 42771.3 4024.76   3
  -1  13  -1 52458.1 4170.79   3
   1  13   1 45651.5 4020.70   3
   1  13   2 34383.1 3605.49   3
  -1  13  -2 34803.9 3222.79   3
   1  13   3 12002.5 2163.11   3
  -1  13  -3 11755.9 1929.04   3
  -1  13  -4 5336.82 1322.48   3
   1  14   1 7348.61 1628.70   3
   2 -13  -1 8882.62 1825.86   4
   2 -13   0 24651.2 3106.99   4
   2 -13   1 17412.9 2594.81   4
  -2 -12   4 28712.1 3028.91   4
  -2 -12   3 23035.2 2768.16   4
  -2 -12   2 13743.1 2197.44   4
   2 -12  -2 12883.1 2103.90   4
   2 -12  -1 7105.55 1654.93   4
   2 -12   0 698.631 806.050   4
   2 -12   1 4568.83 1359.65   4
   2 -12   2 32280.1 3540.60   4
   2 -12   3 40658.0 4030.52   4
  -2 -11   6 18380.0 2369.34   4
  -2 -11   5 20711.8 2587.45   4
  -2 -11   4 12607.4 1863.10   4
  -2 -11   3 1150.03 722.070   4
  -2 -11   2 29127.8 2947.17   4
   2 -11  -2 24281.6 2713.70   4
  -2 -11   2 28666.2 2513.95   2
   2 -11  -1 48331.0 3921.67   4
   2 -11   0 93890.8 5746.07   4
   2 -11   1 23449.9 2810.76   4
   2 -11   2 12716.4 2140.96   4
   2 -11   3 4857.39 1360.09   4
   2 -11   4 16149.1 2481.03   4
  -2 -10   7 2709.03 929.851   4
  -2 -10   6 3290.67 1146.77   4
  -2 -10   5 18507.4 2264.05   4
  -2 -10   4 44274.0 3427.34   4
  -2 -10   3 94563.3 5219.78   4
  -2 -10   3 92580.1 4328.60   2
   2 -10  -3 84787.6 5013.73   4
   2 -10  -2 81033.2 4870.48   4
  -2 -10   2 77368.0 4124.54   2
   2 -10  -1 5358.22 1275.87   4
  -2 -10   1 5115.15 1007.13   2
   2 -10   0 1813.56 941.447   4
   2 -10   1 38654.6 3426.28   4
   2 -10   2 66495.0 4698.42   4
   2 -10   3 68789.8 4921.42   4
   2 -10   4 35408.0 3551.67   4
   2 -10   5 2316.46 1112.35   4
  -2  -9   8 24652.7 2612.55   4
  -2  -9   7 26983.4 2674.75   4
  -2  -9   6 70520.7 4290.75   4
  -2  -9   5 36698.7 3100.35   4
  -2  -9   4 74.5611 598.778   4
  -2  -9   4-56.3779 435.640   2
   2  -9  -3 6956.15 1232.75   4
  -2  -9   3 6191.05 982.375   2
  -2  -9   3 5729.44 1235.41   4
   2  -9  -2 35901.8 2935.66   4
  -2  -9   2 29114.6 2258.22   2
   2  -9  -1 101916. 5399.71   4
  -2  -9   1 102162. 4701.25   2
   2  -9   0 92835.5 5208.59   4
  -2  -9   0 90589.4 4613.14   2
   2  -9   1 91379.4 5229.51   4
   2  -9   2 10129.6 1731.26   4
   2  -9   3 5251.37 1435.95   4
   2  -9   4 9549.21 1726.45   4
   2  -9   5 24551.8 2904.21   4
   2  -9   6 66261.1 4968.61   4
  -2  -8   9 32139.1 2871.17   4
  -2  -8   8 32979.5 3320.90   1
  -2  -8   8 30464.8 2754.56   4
   2  -8  -8 30002.2 3111.55   6
  -2  -8   7 3354.74 986.645   1
  -2  -8   7 1982.48 740.564   4
  -2  -8   6 27722.4 2474.93   4
  -2  -8   6 21040.9 2329.89   1
  -2  -8   5 22484.5 2304.13   1
  -2  -8   5 26266.2 1814.05   2
  -2  -8   5 28070.8 2414.73   4
  -2  -8   4 155270. 6412.75   4
   2  -8  -4 159757. 6153.42   4
  -2  -8   4 153687. 5456.88   2
  -2  -8   3 81196.4 3572.54   2
   2  -8  -3 73560.9 4024.61   4
  -2  -8   2 17859.7 1600.29   2
   2  -8  -2 10598.2 1525.66   4
  -2  -8   1 5093.71 906.920   2
   2  -8  -1 3983.52 908.178   4
   2  -8   0 9343.93 1445.45   4
  -2  -8   0 9131.39 1218.81   2
  -2  -8  -1 34570.3 2633.03   2
   2  -8   1 32414.9 2779.39   4
   2  -8   2 56887.8 3937.87   4
   2  -8   3 80449.7 4867.51   4
   2  -8   4 142225. 6923.94   4
   2  -8   5 19861.2 2502.71   4
   2  -8   6-56.2737 664.850   4
   2  -8   7 6584.85 1584.34   4
  -2  -7   9 15748.5 2359.67   1
   2  -7  -9 15969.8 2346.60   6
   2  -7  -8 22198.0 2707.46   6
  -2  -7   8 26528.2 2817.88   1
  -2  -7   8 25102.4 2409.32   4
  -2  -7   7 91991.1 5196.57   1
  -2  -7   7 89083.3 4573.15   4
   2  -7  -7 90360.0 5315.16   6
   2  -7  -6 103809. 5567.90   6
  -2  -7   6 110340. 5472.56   1
  -2  -7   6 111446. 5113.11   4
   2  -7  -5 11697.8 2007.08   6
  -2  -7   5 9983.92 1420.50   4
  -2  -7   5 11342.3 1540.58   1
  -2  -7   5 12135.0 1164.52   2
  -2  -7   4 1418.71 631.580   4
  -2  -7   4 1189.19 586.908   1
  -2  -7   4 1417.47 508.014   2
   2  -7  -4 1727.95 546.521   4
  -2  -7   3 12381.0 1430.04   1
   2  -7  -3 11196.1 1286.42   4
  -2  -7   3 11518.8 1163.27   2
   2  -7  -2 29210.3 2225.34   4
  -2  -7   2 29228.7 1946.26   2
   2  -7  -1 160550. 6364.21   4
  -2  -7   1 169770. 5844.48   2
   2  -7   0 52302.9 3295.81   4
  -2  -7   0 52222.1 2929.68   2
   2  -7   1 77075.1 4265.00   4
  -2  -7  -1 81311.4 4046.40   2
  -2  -7  -2 68651.8 3909.57   2
   2  -7   2 70497.9 4178.13   4
   2  -7   3 1658.55 811.781   4
   2  -7   4 12199.1 1793.41   4
   2  -7   5 59070.6 4154.73   4
   2  -7   6 65764.5 4717.50   4
   2  -7   7 65870.3 4800.36   4
  -2  -6   9 33694.4 3310.94   1
   2  -6  -9 29723.2 3122.29   6
  -2  -6   8 13299.1 1981.50   1
   2  -6  -8 12010.2 1927.54   6
  -2  -6   8 11829.2 1518.61   4
   2  -6  -7 8507.46 1570.51   6
  -2  -6   7 5486.54 1242.55   1
  -2  -6   7 6240.56 1091.90   4
   2  -6  -6 20960.2 2342.69   6
  -2  -6   6 18366.7 2073.86   1
  -2  -6   6 24024.3 2028.93   4
  -2  -6   5 25202.0 2203.03   1
   2  -6  -5 28234.2 2555.99   6
  -2  -6   5 23200.5 1937.22   4
  -2  -6   4 194186. 7017.85   1
  -2  -6   4 212069. 6969.89   4
   2  -6  -4 191994. 6014.62   4
   2  -6  -4 194432. 7715.53   6
  -2  -6   3 86161.4 3810.58   1
   2  -6  -3 75685.9 3400.56   4
  -2  -6   3 78939.9 3234.21   2
  -2  -6   2 175196. 5589.61   2
  -2  -6   2 175396. 5831.00   1
   2  -6  -2 167877. 5950.50   4
  -2  -6   1 24927.7 1730.20   2
   2  -6  -1 23967.8 1910.57   4
  -2  -6   0 8108.97 1051.27   2
   2  -6   0 7400.18 1143.31   4
   2  -6   1 94651.9 4568.81   4
  -2  -6  -1 88060.8 4004.34   2
  -2  -6  -2 153724. 6034.62   2
   2  -6   2 146750. 6204.48   4
   2  -6   3 101406. 2950.81   5
   2  -6   3 100987. 5105.06   4
   2  -6   4 75231.7 4433.59   4
   2  -6   5 13917.8 1928.19   4
   2  -6   6 3255.47 1052.66   4
   2  -6   7 8337.45 1757.53   4
   2  -6   8 19092.0 2548.27   4
   2  -5 -10 3791.98 1198.52   6
  -2  -5  10 3822.46 1191.32   1
  -2  -5   9 9070.37 1685.69   1
   2  -5  -9 8588.30 1641.80   6
  -2  -5   8 47640.6 3654.31   1
   2  -5  -8 46132.5 3757.31   6
  -2  -5   8 48742.8 2997.23   4
  -2  -5   7 58208.6 3873.67   1
   2  -5  -7 52546.5 3780.77   6
  -2  -5   7 55602.9 3123.87   4
  -2  -5   6 28753.5 2489.16   1
  -2  -5   6 31834.7 2183.43   4
   2  -5  -6 26943.5 2554.77   6
   2  -5  -5 143072. 6112.78   6
  -2  -5   5 137158. 5743.79   1
  -2  -5   5 135635. 5138.50   4
   2  -5  -4 55577.9 3483.20   6
  -2  -5   4 50697.8 3026.65   1
  -2  -5   4 54284.7 2818.09   4
   2  -5  -4 55570.6 2215.70   4
   2  -5  -3 17236.4 1737.12   6
  -2  -5   3 17801.0 1595.09   1
   2  -5  -3 15070.2 1159.75   4
  -2  -5   2 162180. 5093.03   2
  -2  -5   2 162226. 5311.70   1
   2  -5  -2 147253. 5159.97   4
  -2  -5   1 163175. 4793.78   3
  -2  -5   1 172320. 5241.58   1
   2  -5  -1 168228. 5783.29   4
  -2  -5   1 173098. 5406.98   2
  -2  -5   0 376904. 10103.2   2
   2  -5   0 354154. 10637.6   4
   2  -5   1 175421. 6442.16   4
  -2  -5  -1 176384. 5976.68   2
   2  -5   2 11016.9 1426.46   4
  -2  -5  -2 14037.0 1468.15   2
   2  -5   2 14191.7 778.740   5
   2  -5   3 11757.3 869.420   5
   2  -5   3 11934.0 1583.19   4
   2  -5   4 34490.8 2850.18   4
   2  -5   4 35789.4 1861.55   5
   2  -5   5 107487. 4175.48   5
   2  -5   5 99397.2 5406.73   4
   2  -5   6 19759.4 1785.42   5
   2  -5   6 19291.4 2326.92   4
   2  -5   7 52628.3 4042.15   4
   2  -5   8 14188.7 2254.72   4
   2  -5   9 22966.0 2800.44   4
   2  -4 -10 35011.7 3513.92   6
  -2  -4  10 36604.5 3442.72   1
   2  -4  -9 40636.4 3632.18   6
  -2  -4   9 34717.1 3361.53   1
   2  -4  -8 7482.16 1546.54   6
  -2  -4   8 12602.4 1869.68   1
  -2  -4   8 10733.0 1261.55   4
  -2  -4   7 22660.0 2353.24   1
   2  -4  -7 22364.4 2448.56   6
  -2  -4   7 25733.4 1923.93   4
   2  -4  -6 42827.3 3153.67   6
  -2  -4   6 36912.7 2783.02   1
  -2  -4   6 39690.6 2328.71   4
   2  -4  -5 126030. 5540.83   6
  -2  -4   5 109105. 4309.55   4
  -2  -4   5 118970. 5059.12   1
   2  -4  -4 128169. 5619.56   6
  -2  -4   4 141417. 5382.92   1
   2  -4  -4 142493. 3665.33   4
   2  -4  -3 77927.4 3801.36   6
  -2  -4   3 75770.5 3379.54   1
   2  -4  -3 70505.2 2583.21   4
   2  -4  -2 403353. 11419.3   6
  -2  -4   2 426016. 11050.7   1
   2  -4  -2 421312. 10814.1   4
  -2  -4   1 12383.1 932.478   3
  -2  -4   1 10823.7 955.309   1
  -2  -4   1 10246.1 968.912   2
   2  -4  -1 10627.5 1074.30   4
   2  -4   0 7798.35 1010.34   4
  -2  -4   0 8471.43 934.973   2
  -2  -4   0 8710.84 709.548   1
   2  -4   1 86064.0 2614.08   5
   2  -4   1 83867.4 3889.27   4
  -2  -4  -1 93406.3 3661.07   2
   2  -4   2 166457. 4662.60   5
  -2  -4  -2 178707. 5961.38   2
   2  -4   2 173912. 6407.44   4
   2  -4   3 174260. 5145.74   5
  -2  -4  -3 179039. 6576.89   2
   2  -4   3 180659. 6845.78   4
   2  -4   4 72844.1 3069.85   5
   2  -4   4 63788.5 3900.86   4
   2  -4   5 46326.9 2684.47   5
   2  -4   5 42428.2 3247.67   4
   2  -4   6 15225.6 1984.11   4
   2  -4   6 13333.7 1616.04   5
   2  -4   7 29567.4 2919.99   4
   2  -4   7 29966.8 2698.44   5
   2  -4   8 24749.6 2731.87   4
   2  -4   8 25854.7 2670.04   5
   2  -4   9 25220.4 2904.84   4
  -2  -3  11 6567.32 1447.17   1
  -2  -3  10 585.166 878.489   1
   2  -3 -10 1735.18 973.548   6
   2  -3  -9 9835.84 1764.07   6
  -2  -3   9 15028.1 2204.01   1
   2  -3  -8 85733.2 5099.07   6
  -2  -3   8 97939.1 5236.55   1
  -2  -3   8 84610.2 3774.02   4
   2  -3  -7 174966. 7507.40   6
  -2  -3   7 188204. 7422.73   1
  -2  -3   7 175991. 5845.89   4
   2  -3  -6 76259.9 4266.91   6
  -2  -3   6 71889.6 3089.27   4
  -2  -3   6 79734.0 4168.80   1
   2  -3  -5 50077.7 3258.94   6
  -2  -3   5 48573.0 3053.05   1
   2  -3  -4 18733.7 1796.86   6
  -2  -3   4 20674.8 1756.15   1
   2  -3  -3 82045.9 3805.46   6
   2  -3  -3 81267.7 2540.27   4
   2  -3  -2 166735. 5556.72   6
   2  -3  -2 162413. 4822.65   4
  -2  -3   2 162190. 5234.90   1
  -2  -3   1 84248.7 2760.43   3
  -2  -3   1 77306.3 2870.47   1
   2  -3  -1 72607.7 3059.09   4
   2  -3  -1 79749.1 3039.61   6
  -2  -3   0 170576. 5237.21   2
   2  -3   0 165505. 4629.33   5
  -2  -3   0 171651. 4732.81   1
   2  -3   0 170910. 5693.46   4
   2  -3   1 100832. 3151.82   5
  -2  -3  -1 108154. 2805.36   1
  -2  -3  -1 106580. 3820.77   2
   2  -3   1 98314.0 4223.35   4
   2  -3   2 211167. 5740.92   5
  -2  -3  -2 201953. 6459.43   2
   2  -3   2 209543. 7177.26   4
  -2  -3  -3 28342.1 2108.82   2
   2  -3   3 24669.8 2172.86   4
   2  -3   3 29647.5 1654.66   5
   2  -3   4 22209.0 1678.89   5
   2  -3   4 25221.9 2286.97   4
   2  -3   5 164185. 6884.44   4
   2  -3   5 164572. 6266.37   5
  -2  -3  -6 77436.7 3625.21   6
   2  -3   6 76832.9 4284.81   5
   2  -3   6 81097.6 4624.63   4
   2  -3   7 80621.6 4857.02   4
   2  -3   7 78409.9 4754.34   5
   2  -3   8 43474.2 4041.17   5
   2  -3   8 49516.6 3877.74   4
   2  -3   9 208.546 674.913   4
   2  -3   9 1323.23 927.483   5
  -2  -2  11 17581.3 2387.07   1
  -2  -2  10 60824.2 4371.02   1
   2  -2 -10 62795.1 4691.73   6
  -2  -2   9 68283.7 4481.18   1
   2  -2  -9 74031.3 4880.25   6
  -2  -2   8 23165.3 2427.60   1
   2  -2  -8 22260.2 2443.28   6
  -2  -2   7 933.114 359.169   4
   2  -2  -7 754.519 531.120   6
  -2  -2   7 1464.91 712.689   1
  -2  -2   6 21775.1 1433.62   4
   2  -2  -6 24620.6 2297.61   6
  -2  -2   6 25321.8 2269.78   1
  -2  -2   5 184084. 6879.05   1
  -2  -2   5 205324. 5811.16   4
   2  -2  -5 189642. 7158.06   6
  -2  -2   4 195003. 6559.99   1
   2  -2  -4 187297. 6785.78   6
  -2  -2   3 237085. 7120.86   1
   2  -2  -3 214674. 7179.33   6
   2  -2  -2 3799.95 530.726   4
   2  -2  -2 3093.96 574.594   6
  -2  -2   2 3592.46 656.640   1
  -2  -2   1 92238.3 3246.43   1
   2  -2  -1 92989.2 3258.96   6
   2  -2  -1 92473.2 3399.94   4
  -2  -2   0 13041.0 856.871   1
   2  -2   0 14317.2 897.489   5
   2  -2   0 13244.3 1183.11   4
  -2  -2   0 13627.4 1032.00   2
  -2  -2  -1 77272.8 2250.44   1
   2  -2   1 80840.4 2683.38   5
  -2  -2  -1 74318.9 2938.08   2
   2  -2   1 79429.7 3512.77   4
   2  -2   2 134170. 4201.17   5
  -2  -2  -2 131434. 4574.37   2
   2  -2   2 143096. 5353.10   4
   2  -2   3 224124. 6520.51   5
  -2  -2  -3 207207. 6813.99   2
   2  -2   3 202564. 7327.82   4
  -2  -2  -4 146388. 4775.16   6
   2  -2   4 150216. 5449.46   5
   2  -2   4 137949. 5887.62   4
   2  -2   5 141147. 6034.67   5
  -2  -2  -5 136297. 4857.45   6
   2  -2   5 138743. 6076.64   4
   2  -2   6-582.353 750.839   5
   2  -2   6 751.922 704.299   4
  -2  -2  -6 70.5924 289.113   6
   2  -2   7 16227.5 2001.02   4
   2  -2   7 15942.8 2149.10   5
   2  -2   8 46849.7 4146.69   5
   2  -2   8 48643.4 3771.18   4
   2  -2   9 36985.8 3854.34   5
   2  -2  10 23927.3 3045.65   5
   2  -1 -11 3280.08 1020.71   6
  -2  -1  11 3631.90 1123.62   1
   2  -1 -10 2702.21 1109.76   6
  -2  -1  10 2047.32 920.238   1
   2  -1  -9 22675.6 2589.88   6
  -2  -1   9 24067.6 2550.72   1
   2  -1  -8 59896.1 3972.55   6
  -2  -1   8 54724.3 3754.27   1
  -2  -1   7 67318.5 2715.62   4
  -2  -1   7 74173.3 4249.57   1
   2  -1  -7 65404.6 4060.49   6
  -2  -1   6 225067. 6130.81   4
  -2  -1   6 226515. 8171.52   1
   2  -1  -6 224476. 8139.83   6
  -2  -1   5 47713.3 3039.73   1
   2  -1  -5 44383.4 2822.87   6
  -2  -1   5 46880.8 1858.90   4
   2  -1  -4 4723.37 888.329   6
  -2  -1   4 4611.02 506.854   4
  -2  -1   4 6263.43 1006.65   1
   2  -1  -3 2222.82 556.112   6
  -2  -1   3 2032.70 282.349   3
  -2  -1   3 2441.62 587.450   1
  -2  -1   2 137724. 4624.95   1
   2  -1  -2 130792. 4508.29   6
   2  -1  -1 492521. 11737.5   6
   2  -1  -1 475541. 11421.9   5
   2  -1   0 386484. 8680.31   6
   2  -1   0 362286. 9165.70   5
   2  -1   0 366533. 9929.12   4
  -2  -1  -1 251312. 6701.91   2
  -2  -1  -1 247801. 6319.16   1
   2  -1   1 255223. 6715.56   5
   2  -1   2 42548.9 2027.10   5
  -2  -1  -2 43561.9 2052.33   2
  -2  -1  -3 7674.99 618.839   6
  -2  -1  -3 7824.57 946.168   2
   2  -1   3 8734.31 1026.52   5
   2  -1   3 6417.57 1027.14   4
  -2  -1  -3 7362.77 484.544   1
  -2  -1  -4 93441.9 2748.84   1
   2  -1   4 85034.6 4327.28   4
  -2  -1  -4 87170.0 3211.23   6
  -2  -1  -5 17158.3 1353.95   6
   2  -1   5 14828.2 1743.89   4
   2  -1   5 15833.1 1846.97   5
  -2  -1  -6 199282. 6519.94   6
   2  -1   6 183004. 8127.53   5
   2  -1   6 194615. 7760.37   4
   2  -1   7 40209.6 3714.64   5
   2  -1   7 39317.9 3181.13   4
   2  -1   8 28037.9 3209.29   5
   2  -1   9 536.284 667.452   5
  -2   0  11 47885.9 3761.14   1
   2   0 -11 52323.5 4410.60   6
   2   0 -10 29153.4 3049.68   6
  -2   0  10 30754.4 2884.30   1
  -2   0   9 21297.5 2393.64   1
   2   0  -9 21549.5 2525.42   6
  -2   0   8 61561.6 3935.55   1
   2   0  -8 60462.5 4040.56   6
   2   0  -7 20673.9 2153.41   6
  -2   0   7 15372.7 1875.34   1
  -2   0   6 3557.12 412.908   4
   2   0  -6 2744.35 722.068   6
  -2   0   6 2708.01 877.862   1
  -2   0   5 74375.8 3795.51   1
  -2   0   5 66460.4 2082.06   4
   2   0  -5 73295.8 3632.07   6
  -2   0   4 75311.0 3058.36   3
  -2   0   4 96065.7 4166.83   1
   2   0  -4 96059.2 2872.32   3
   2   0  -4 81424.4 3711.82   6
  -2   0   4 82752.3 2451.26   4
  -2   0   3 854551. 20479.7   3
   2   0  -3 878601. 21183.0   6
  -2   0   3 920239. 21835.4   1
  -2   0   2 95056.5 2658.62   3
  -2   0   2 102996. 3894.37   1
  -2   0   1 114622. 4152.40   1
   2   0  -1 121083. 3725.67   5
   2   0  -1 114130. 3553.46   6
  -2   0   1 118407. 3952.01   4
   2   0   0 29791.2 1539.51   5
   2   0   0 33027.1 1232.15   6
  -2   0  -1 243926. 6483.10   2
   2   0   1 249790. 6803.83   5
   2   0   2 188685. 5965.50   5
  -2   0  -2 212323. 5752.52   2
   2   0   3 278657. 8601.92   5
  -2   0  -3 290920. 7285.09   1
  -2   0  -3 289568. 7265.32   6
   2   0   4 107814. 4874.94   5
  -2   0  -4 117017. 3539.00   1
  -2   0  -4 113920. 3759.35   6
  -2   0  -5 1920.29 508.073   6
   2   0   5 1450.75 623.442   5
  -2   0  -6 1276.52 406.474   6
   2   0   6-611.964 846.553   5
   2   0   7 4221.77 997.211   5
   2   0   8 16766.6 2642.48   5
   2   0   9 63265.0 5032.09   5
  -2   1  11 4276.41 1150.69   1
   2   1 -11 3423.50 1286.26   6
   2   1 -10 1902.62 926.238   6
  -2   1  10 895.946 595.834   1
  -2   1   9 30416.3 2761.25   1
   2   1  -9 25555.1 2706.43   6
  -2   1   8 46658.8 3371.24   1
   2   1  -8 47157.2 3494.42   6
  -2   1   7 68239.7 4002.02   1
   2   1  -7 69234.2 4042.17   6
  -2   1   6 203327. 7528.42   1
   2   1  -6 214670. 7570.65   6
   2   1  -5 48951.6 2830.19   6
  -2   1   5 47917.8 2519.07   3
   2   1  -5 50536.9 2215.02   3
  -2   1   5 44816.3 2925.91   1
   2   1  -4 5642.67 456.273   3
  -2   1   4 4655.51 947.634   1
  -2   1   4 4951.58 700.517   3
   2   1  -4 4062.91 803.391   6
   2   1  -3 5659.26 792.142   6
  -2   1   3 6429.49 989.087   1
  -2   1   3 6417.53 709.984   3
  -2   1   3 5347.75 415.601   4
  -2   1   2 99449.8 3074.13   3
   2   1  -2 109307. 3546.37   6
  -2   1   2 102392. 3182.82   4
   2   1  -1 480341. 11576.9   5
  -2   1   1 455405. 11504.9   4
  -2   1   1 460675. 11404.9   6
  -2   1   0 381824. 9377.29   5
   2   1   0 373905. 9606.64   5
  -2   1   0 373386. 9046.97   6
  -2   1  -1 244570. 6001.02   6
   2   1   1 263134. 7078.25   5
  -2   1  -2 26506.4 1360.43   2
   2   1   2 31220.7 1860.37   5
  -2   1  -3 7473.52 591.163   6
  -2   1  -3 8077.50 799.694   2
   2   1   3 9695.48 1154.56   5
  -2   1  -4 81711.7 2918.04   6
   2   1   4 87759.3 4284.44   5
   2   1   5 16493.2 2092.01   5
  -2   1  -5 20012.1 1418.51   6
   2   1   6 191441. 8562.37   5
  -2   1  -6 215652. 6762.22   6
   2   1   7 40239.9 3723.94   5
   2   1   8 30270.1 3383.58   5
   2   1   9 1520.33 1027.05   5
  -2   2  10 62937.9 4192.44   1
   2   2 -10 66418.4 4705.51   6
   2   2  -9 82091.8 4993.01   6
  -2   2   9 81593.8 4670.45   1
  -2   2   8 24974.0 2445.70   1
   2   2  -8 18645.8 2166.02   6
   2   2  -7 590.508 427.440   6
  -2   2   7 1488.87 713.760   1
   2   2  -6 24135.9 2116.67   6
  -2   2   6 23954.6 2175.50   1
  -2   2   6 21150.4 1891.39   3
  -2   2   5 197882. 6236.17   3
   2   2  -5 184492. 5505.02   3
   2   2  -5 177320. 6366.04   6
  -2   2   4 180182. 5306.85   3
  -2   2   4 180748. 5916.31   1
  -2   2   3 242206. 7705.11   1
  -2   2   3 226468. 5395.01   4
  -2   2   3 243350. 6581.78   3
  -2   2   2 14450.5 984.937   3
  -2   2   2 12683.9 803.362   4
   2   2  -1 88707.0 3236.87   5
  -2   2   1 85913.3 2900.73   5
   2   2  -1 90812.0 3398.93   1
  -2   2   1 89899.8 3115.33   4
  -2   2   1 97210.4 3563.65   6
  -2   2   0 16474.0 1106.68   6
   2   2   0 17513.6 1114.70   1
  -2   2   0 19478.1 1061.52   5
   2   2   0 17419.5 1240.24   5
  -2   2  -1 55245.2 2126.96   5
  -2   2  -1 52815.6 1901.97   6
   2   2   1 50954.8 2414.96   5
   2   2   2 141116. 5091.76   5
  -2   2  -2 146620. 4160.51   2
   2   2   3 238069. 6360.11   6
  -2   2  -3 228691. 6367.30   2
  -2   2  -4 148299. 4572.17   6
   2   2   4 152965. 6221.64   5
   2   2   4 150587. 4663.58   6
   2   2   5 128649. 6298.14   5
  -2   2  -5 137014. 4612.45   6
  -2   2  -6-27.7086 308.394   6
   2   2   6 263.285 638.776   5
   2   2   7 15557.6 2376.98   5
   2   2   8 54300.0 4495.26   5
   2   2   9 37511.4 4138.84   5
  -2   3  10 433.706 515.794   1
   2   3 -10-1075.17 912.631   6
   2   3  -9 8703.23 1618.73   6
  -2   3   9 10281.6 1669.86   1
  -2   3   8 82489.9 4544.04   1
   2   3  -8 82273.7 4795.19   6
  -2   3   7 210800. 7841.95   1
   2   3  -7 207058. 7870.22   6
  -2   3   6 69126.7 3845.49   1
   2   3  -6 78162.9 4053.36   6
  -2   3   5 60176.3 3136.38   3
   2   3  -5 59434.1 2240.28   3
  -2   3   5 61094.8 3461.18   1
  -2   3   4 14020.2 1547.34   1
  -2   3   4 14139.5 1513.90   3
  -2   3   3 85024.7 3312.90   3
  -2   3   2 170826. 5061.84   3
  -2   3   2 163574. 4560.54   4
   2   3  -1 96109.5 3585.62   5
  -2   3   1 105577. 3197.26   5
  -2   3   0 169900. 5057.65   6
  -2   3   0 161094. 4420.15   5
   2   3   0 167515. 4877.80   1
  -2   3  -1 135339. 3988.45   5
   2   3   1 139000. 4710.93   5
   2   3   2 192152. 5522.64   6
   2   3   2 184228. 6329.16   5
   2   3   3 30942.2 2241.78   5
   2   3   3 26481.6 1548.30   6
   2   3   4 23365.6 2224.33   5
   2   3   5 159984. 7145.75   5
   2   3   6 80995.3 5347.25   5
  -2   3  -6 84856.5 3727.64   6
   2   3   7 75386.1 5220.53   5
   2   3   8 41969.9 3991.76   5
   2   3   9 904.731 959.609   5
   2   4 -10 37925.4 3501.21   6
  -2   4  10 39609.9 3199.96   1
  -2   4   9 34298.3 2980.82   1
   2   4  -9 36717.4 3309.09   6
   2   4  -8 13725.8 1946.44   6
  -2   4   8 14496.7 1832.97   1
  -2   4   7 20688.6 2161.77   3
  -2   4   7 20011.5 2076.73   1
   2   4  -7 22036.6 2253.02   6
  -2   4   6 35341.5 2690.74   3
  -2   4   6 37684.0 2754.45   1
   2   4  -5 116739. 3524.38   3
  -2   4   5 126339. 5192.97   3
  -2   4   5 123678. 5409.23   1
  -2   4   4 140071. 6028.14   3
  -2   4   3 86380.8 3575.40   3
   2   4  -2 411326. 11114.2   5
  -2   4   2 435050. 10561.1   4
  -2   4   2 437276. 11181.0   3
  -2   4   1 7976.82 634.652   5
   2   4  -1 7772.51 867.704   5
  -2   4   1 6472.24 806.071   3
   2   4   0 7442.47 828.015   1
  -2   4   0 8493.06 600.380   5
   2   4   0 8347.26 915.283   5
  -2   4  -1 85284.8 2687.33   5
   2   4   1 84713.8 3512.01   5
   2   4   1 85067.4 2780.79   1
  -2   4  -2 209576. 5928.77   5
   2   4   2 196279. 6486.14   5
  -2   4  -2 190187. 4746.05   2
   2   4   3 173060. 6404.65   5
   2   4   4 89351.8 4674.74   5
   2   4   5 40543.9 3329.54   5
   2   4   6 13335.0 2121.81   5
   2   4   7 32086.9 3312.23   5
   2   4   8 18482.8 2608.36   5
   2   5 -10 3854.19 1187.76   6
  -2   5  10 2552.08 1101.76   5
   2   5  -9 15403.5 2138.65   6
  -2   5   9 13627.3 1860.57   1
  -2   5   8 53731.1 3573.25   1
   2   5  -8 52709.5 3765.22   6
  -2   5   7 52889.0 3663.49   3
  -2   5   7 54203.8 3550.28   1
  -2   5   6 23232.3 2190.89   3
  -2   5   6 25045.8 2285.53   1
  -2   5   5 141412. 6113.44   1
   2   5  -5 146376. 3895.53   3
  -2   5   4 55164.6 3709.80   3
   2   5  -4 55851.6 2087.49   3
   2   5  -3 22312.4 1188.66   3
  -2   5   3 25044.6 1876.68   3
  -2   5   2 160488. 5419.16   3
   2   5  -2 155854. 5230.49   5
   2   5  -2 166699. 5103.52   3
  -2   5   1 179530. 4790.44   5
  -2   5   1 162288. 5663.98   3
  -2   5   0 330379. 7944.06   5
   2   5   0 353629. 9400.12   5
   2   5   1 202342. 5821.01   1
  -2   5  -1 200124. 5313.59   5
   2   5   1 213241. 6658.96   5
   2   5   2 6481.44 479.588   1
   2   5   2 6376.71 946.025   5
  -2   5  -2 5284.33 326.831   2
   2   5   3 11750.7 1532.68   5
   2   5   4 46486.3 3304.11   5
   2   5   5 94829.1 5359.35   5
   2   5   6 19110.5 2531.90   5
   2   5   7 48085.4 4200.30   5
   2   5   8 14461.2 2392.08   5
  -2   6   9 24417.1 3020.32   5
  -2   6   9 28681.2 2670.43   1
   2   6  -9 28833.8 3032.61   6
  -2   6   8 16120.1 1978.81   1
  -2   6   7 5268.29 1182.68   1
  -2   6   7 4664.50 1175.53   3
  -2   6   6 27262.2 2460.82   3
  -2   6   6 23593.8 2341.31   1
  -2   6   5 31198.8 2774.82   3
  -2   6   4 184389. 8061.58   3
   2   6  -4 203896. 6013.74   3
   2   6  -3 98279.0 3481.30   3
  -2   6   3 90613.1 4245.11   3
   2   6  -2 175547. 5707.26   3
  -2   6   2 183483. 6149.91   3
   2   6  -2 170260. 5689.99   5
   2   6  -1 34277.6 2184.32   3
  -2   6   1 28915.1 1240.29   5
   2   6  -1 31569.8 1956.37   5
  -2   6   1 31660.0 2056.02   3
  -2   6   0 8681.80 442.950   5
   2   6   0 10117.8 1115.46   5
   2   6   1 94063.0 3999.81   5
   2   6   1 90838.6 3505.41   1
   2   6   2 149820. 5719.59   5
   2   6   3 92073.7 4536.43   5
   2   6   4 76895.4 4388.33   5
   2   6   5 16042.8 2108.24   5
   2   6   6 3117.01 1068.48   5
   2   6   7 6106.65 1571.22   5
   2   6   8 20566.5 2789.29   5
  -2   7   9 14268.0 2429.19   5
   2   7  -9 19837.3 2650.88   6
  -2   7   8 29611.4 2974.54   3
  -2   7   8 27940.4 3054.34   5
  -2   7   8 29346.3 2747.93   1
  -2   7   7 95107.7 5360.15   3
  -2   7   7 76795.1 4607.95   1
  -2   7   6 109910. 5423.82   1
  -2   7   6 100242. 5317.90   3
  -2   7   5 15256.3 2024.11   3
   2   7  -4 4033.43 891.125   3
  -2   7   4 1225.27 1092.93   3
   2   7  -3 12348.4 1219.70   3
  -2   7   3 11570.8 1569.25   3
   2   7  -2 40537.1 2413.52   3
  -2   7   2 37104.6 2496.22   3
   2   7  -1 180586. 6547.65   3
  -2   7   1 179287. 4971.89   5
  -2   7   1 170079. 4441.09   5
   2   7  -1 171993. 5822.75   5
  -2   7   1 177131. 6190.44   3
   2   7   0 53216.7 3169.05   3
   2   7   0 50083.3 2724.08   5
  -2   7   0 51801.4 2940.60   3
   2   7   1 82054.7 3775.53   5
   2   7   2 73309.2 3788.35   5
   2   7   3 397.890 455.858   5
   2   7   4 18468.1 2104.99   5
   2   7   5 54536.3 4011.77   5
   2   7   6 70879.1 5042.05   5
   2   7   7 65030.7 4910.77   5
  -2   8   9 30143.2 3559.45   5
  -2   8   8 31664.5 3366.96   3
  -2   8   8 23898.1 3116.66   5
  -2   8   8 29944.2 2707.83   1
  -2   8   7 2706.88 889.481   1
  -2   8   7 2582.42 817.730   5
  -2   8   7 3216.24 1064.07   3
  -2   8   6 24243.5 2534.97   5
  -2   8   6 26555.3 2670.41   3
  -2   8   5 29971.5 2590.46   5
  -2   8   5 31075.1 3010.19   3
  -2   8   4 153489. 7839.08   3
  -2   8   4 156709. 6221.28   5
  -2   8   3 77736.2 3649.98   5
   2   8  -3 88996.5 3975.78   3
  -2   8   3 77587.6 4555.45   3
  -2   8   2 20890.2 1468.17   5
   2   8  -2 20603.4 1829.46   3
  -2   8   2 18703.0 1859.27   3
   2   8  -1 5255.13 976.589   3
   2   8  -1 5221.89 846.626   5
  -2   8   1 5613.96 1016.79   3
   2   8   0 7516.90 1300.98   3
   2   8   0 9645.47 1146.22   5
  -2   8   0 8579.16 1262.79   3
   2   8   1 44581.9 3268.36   3
   2   8   1 48007.1 2868.60   5
  -2   8  -1 44743.4 2908.77   3
   2   8   2 52799.6 3221.22   5
   2   8   3 77695.4 4321.79   5
   2   8   4 142362. 6538.42   5
   2   8   5 21527.2 2636.25   5
   2   8   6-686.952 886.583   5
   2   8   7 4829.03 1286.95   5
  -2   9   9 7706.20 1810.01   5
  -2   9   8 27013.5 3115.79   3
  -2   9   8 27935.1 2994.22   5
  -2   9   7 26979.4 3098.63   3
  -2   9   7 29033.1 2911.32   5
  -2   9   7 26442.2 2653.53   1
  -2   9   6 74341.2 4586.57   5
  -2   9   6 74313.5 4812.24   3
  -2   9   5 41515.6 3056.38   5
  -2   9   5 37032.3 3527.29   3
  -2   9   4-409.824 950.055   3
  -2   9   3 4376.09 1009.08   3
   2   9  -2 47875.9 3131.33   3
  -2   9   2 46450.6 3244.71   3
   2   9  -1 99890.0 5024.89   3
  -2   9   1 84787.1 4455.90   3
   2   9  -1 97306.0 4119.26   5
   2   9   0 108613. 5346.24   3
   2   9   0 98359.0 4386.85   5
  -2   9   0 92595.2 4589.39   3
   2   9   1 86520.1 4887.34   3
   2   9   1 85380.8 4088.28   5
  -2   9  -1 81355.8 4242.50   3
   2   9   2 16200.2 1739.51   5
  -2   9  -2 18472.9 1980.33   3
   2   9   3 5767.85 1207.67   5
   2   9   4 7880.11 1425.72   5
   2   9   5 29120.3 2996.53   5
   2   9   6 55751.2 4511.10   5
  -2  10   7 1712.52 918.515   3
  -2  10   6 3735.52 1262.37   3
  -2  10   5 20678.0 2739.81   3
  -2  10   4 44890.8 4299.34   3
  -2  10   3 82539.0 5569.44   3
  -2  10   2 89357.6 5051.92   3
   2  10  -1 5420.06 1164.90   3
   2  10  -1 2960.34 730.745   5
  -2  10   1 4613.72 1097.14   3
   2  10   0 2137.25 919.352   3
   2  10   0 1696.76 516.883   5
  -2  10   0 1546.70 737.413   3
   2  10   1 40861.4 2779.70   5
  -2  10  -1 36000.0 2859.54   3
   2  10   1 41546.2 3387.07   3
   2  10   2 62105.4 3742.98   5
  -2  10  -2 62887.8 3879.81   3
   2  10   3 86098.8 4768.24   5
  -2  10  -3 88225.6 4931.16   3
   2  10   4 29966.8 2881.49   5
   2  10   5 1876.40 978.238   5
   2  10   6 1172.18 945.866   5
  -2  11   5 16981.9 2709.62   3
  -2  11   4 9594.50 2198.11   3
  -2  11   3 283.025 908.499   3
  -2  11   2 30600.3 3150.59   3
  -2  11   1 49611.4 3685.18   3
   2  11   0 127203. 6505.01   3
  -2  11   0 113931. 5775.80   3
  -2  11  -1 20568.7 2267.08   3
   2  11   1 20877.9 2505.01   3
   2  11   2 9373.18 1429.74   5
  -2  11  -2 11552.5 1819.65   3
   2  11   3 3310.12 1032.42   5
  -2  11  -3 6308.76 1395.96   3
   2  11   4 9521.27 1688.79   5
  -2  11  -4 13096.2 1971.20   3
   2  11   5 31272.3 3258.10   5
  -2  12   4 26695.8 3448.53   3
  -2  12   3 22378.4 3191.49   3
  -2  12   2 16483.1 2449.41   3
  -2  12   1 11778.2 2084.80   3
  -2  12   0 2070.92 861.932   3
   2  12   1 5526.77 1373.48   3
  -2  12  -1 4025.58 1067.69   3
  -2  12  -2 33818.1 3119.92   3
  -2  12  -3 40970.3 3540.32   3
  -2  12  -4 13055.9 2150.91   3
  -2  13   1 22092.2 2962.88   3
  -2  13   0 34257.8 3495.22   3
  -2  13  -1 24322.5 2772.56   3
   3 -13   0 7587.27 1862.80   4
  -3 -12   2 333.223 682.291   2
   3 -12  -1 24072.7 3131.72   4
   3 -12   0 24972.6 3167.62   4
   3 -12   1 39924.9 4149.00   4
  -3 -11   5 9995.89 1778.64   4
  -3 -11   4 14235.2 2126.77   4
  -3 -11   3 35520.6 2869.97   2
  -3 -11   2 27536.4 2616.12   2
  -3 -11   1 37726.2 3229.52   2
   3 -11  -1 34558.5 3603.38   4
   3 -11   0 11214.9 2217.30   4
  -3 -11   0 11307.7 1732.64   2
   3 -11   1 2316.02 1209.86   4
   3 -11   2 209.909 726.748   4
   3 -11   3 23544.0 3208.13   4
  -3 -10   7 32487.8 3076.96   4
  -3 -10   6 50076.4 3883.35   4
  -3 -10   5 44018.6 3572.74   4
  -3 -10   4 28811.2 2808.27   4
  -3 -10   4 26551.6 2320.56   2
  -3 -10   3 2278.30 899.739   2
   3 -10  -2 5608.06 1397.34   4
  -3 -10   2 3383.38 989.254   2
  -3 -10   1 3947.12 1083.31   2
   3 -10  -1 6292.14 1527.36   4
  -3 -10   0 16259.1 2017.22   2
   3 -10   0 16077.6 2417.42   4
  -3 -10  -1 59596.2 4210.13   2
   3 -10   1 63647.8 4849.20   4
   3 -10   2 41217.3 3983.75   4
   3 -10   3 33846.6 3696.15   4
   3 -10   4 11612.8 2183.63   4
  -3  -9   8 37889.0 3264.48   4
  -3  -9   7 21524.3 2689.03   1
  -3  -9   7 20096.8 2303.54   4
  -3  -9   6 3188.32 1091.96   1
  -3  -9   6 3951.09 1042.75   4
  -3  -9   5 6391.23 1071.48   2
  -3  -9   5 7461.86 1500.00   1
  -3  -9   5 4460.69 1047.24   4
  -3  -9   4 18061.8 1768.66   2
  -3  -9   3 43492.4 2863.77   2
   3  -9  -2 91460.9 5281.46   4
  -3  -9   2 105570. 4858.47   2
   3  -9  -1 48748.0 3826.07   4
  -3  -9   1 48266.8 3243.65   2
   3  -9   0 11177.5 1892.53   4
  -3  -9   0 11186.9 1570.61   2
   3  -9   1 2572.23 899.353   4
  -3  -9  -1 1194.02 588.334   2
   3  -9   2 4013.61 1232.64   4
   3  -9   3 33502.4 3516.39   4
   3  -9   4 57651.3 4767.86   4
   3  -9   5 33473.4 3669.88   4
  -3  -8   8 2762.55 1196.07   1
  -3  -8   8 2650.65 914.521   4
   3  -8  -8 4465.06 1330.64   6
   3  -8  -7 13278.1 2115.52   6
  -3  -8   7 8782.49 1623.80   1
  -3  -8   7 10324.7 1552.16   4
  -3  -8   6 33794.2 2980.35   1
  -3  -8   6 37171.8 2515.09   2
  -3  -8   6 33732.7 2810.89   4
  -3  -8   5 78868.9 3859.05   2
  -3  -8   5 84548.7 4623.96   1
  -3  -8   5 80395.7 4451.68   4
  -3  -8   4 57942.0 3210.46   2
  -3  -8   4 60468.5 3647.49   1
  -3  -8   3 59252.3 3416.50   1
   3  -8  -3 58560.3 3608.83   4
  -3  -8   3 58692.5 3289.21   2
   3  -8  -2 8231.56 1455.16   4
  -3  -8   2 7664.13 1161.75   2
   3  -8  -1 8316.84 1461.13   4
  -3  -8   1 12787.6 1570.48   2
   3  -8   0 116429. 6070.13   4
  -3  -8   0 129257. 5518.21   2
  -3  -8  -1 77903.4 4289.77   2
   3  -8   1 74439.8 4757.20   4
  -3  -8  -2 117345. 5768.68   2
   3  -8   2 108808. 6117.77   4
   3  -8   3 4490.99 1292.89   4
   3  -8   4 381.073 847.410   4
   3  -8   5 6941.56 1780.57   4
   3  -7  -8 22374.3 2775.67   6
  -3  -7   8 21926.8 2598.88   1
  -3  -7   8 23105.3 2243.11   4
   3  -7  -7 43114.1 3595.45   6
  -3  -7   7 35219.2 3208.45   1
  -3  -7   7 34039.3 2760.81   4
   3  -7  -6 19494.0 2364.19   6
  -3  -7   6 16703.5 2025.50   1
  -3  -7   6 20326.6 1988.49   4
   3  -7  -5 1153.97 895.922   6
  -3  -7   5 684.961 398.273   2
  -3  -7   5 636.298 722.282   1
  -3  -7   5 144.686 526.185   4
  -3  -7   4 25351.0 1978.44   2
  -3  -7   4 25953.1 2253.34   1
  -3  -7   3 89966.6 4062.52   2
  -3  -7   3 85589.1 4111.41   1
   3  -7  -3 88874.2 4318.35   4
  -3  -7   2 123291. 4832.45   1
   3  -7  -2 114370. 5421.16   4
  -3  -7   2 131544. 5122.22   2
   3  -7  -1 120878. 5766.59   4
  -3  -7   1 137448. 5352.01   2
   3  -7   0 58887.1 3873.05   4
  -3  -7   0 64801.9 3567.39   2
   3  -7   1 17118.6 2143.63   4
  -3  -7  -1 19967.6 1960.42   2
   3  -7   2 7057.33 1454.28   4
  -3  -7  -2 7314.79 1213.49   2
  -3  -7  -3 56533.2 3888.53   2
   3  -7   3 51207.0 4006.33   4
   3  -7   4 59224.6 4438.56   4
   3  -7   5 57159.9 4580.57   4
   3  -7   6 23507.7 2994.57   4
   3  -6  -9 7752.12 1723.68   6
  -3  -6   9 13713.6 2228.77   1
   3  -6  -8 13646.4 2159.51   6
  -3  -6   8 14665.7 2233.43   1
  -3  -6   8 17403.3 1827.29   4
   3  -6  -7 37205.5 3325.22   6
  -3  -6   7 34521.2 3109.92   1
  -3  -6   7 35461.5 2604.13   4
   3  -6  -6 83591.2 4919.30   6
  -3  -6   6 82482.0 4615.51   1
  -3  -6   6 77113.1 4056.38   4
  -3  -6   5 91658.1 4754.34   1
   3  -6  -5 98472.5 5284.78   6
   3  -6  -4 34832.7 2946.41   6
  -3  -6   4 40372.9 2798.04   1
   3  -6  -4 41516.6 2194.51   4
  -3  -6   3 53405.6 2878.83   2
  -3  -6   3 59835.1 3186.06   1
   3  -6  -3 52605.8 3034.00   4
  -3  -6   2 16929.1 1567.40   2
  -3  -6   2 15645.2 1474.51   1
   3  -6  -2 16726.9 1720.67   4
  -3  -6   1 23150.3 1603.68   1
   3  -6  -1 23753.7 2151.50   4
  -3  -6   1 20528.7 1793.51   2
  -3  -6   0 140546. 5399.05   2
   3  -6   0 129521. 5958.65   4
   3  -6   1 44176.2 3306.60   4
  -3  -6  -1 44597.1 2873.66   2
  -3  -6  -2 162081. 6339.03   2
   3  -6   2 148913. 6912.07   4
  -3  -6  -3 47472.6 3374.96   2
   3  -6   3 47592.2 3708.53   4
   3  -6   4 17202.6 2265.78   4
   3  -6   5 9007.35 1806.47   4
   3  -6   6 34610.2 3539.66   4
   3  -6   7 52249.9 4493.36   4
   3  -5  -9 45950.6 3911.42   6
  -3  -5   9 48001.8 4035.17   1
   3  -5  -8 85642.9 5303.40   6
  -3  -5   8 86075.8 5287.58   1
   3  -5  -7 42764.4 3564.51   6
  -3  -5   7 48040.7 3599.61   1
  -3  -5   7 49567.2 2891.15   4
   3  -5  -6 9100.39 1564.55   6
  -3  -5   6 9158.79 1479.14   1
  -3  -5   6 12027.9 1341.88   4
   3  -5  -5 10200.5 1574.47   6
  -3  -5   5 11755.6 1525.90   1
   3  -5  -4 90758.0 4692.88   6
   3  -5  -4 82636.2 2980.22   4
   3  -5  -3 97848.3 4552.95   6
  -3  -5   3 93991.8 4171.00   1
   3  -5  -3 102573. 4184.20   4
  -3  -5   2 100802. 4131.86   2
  -3  -5   2 104629. 3047.68   3
  -3  -5   2 105173. 4154.17   1
   3  -5  -2 106274. 4507.01   4
  -3  -5   1 19835.7 1630.13   2
  -3  -5   1 21632.4 1506.74   1
   3  -5  -1 22461.3 2032.18   4
  -3  -5   0 85885.7 3065.92   1
   3  -5   0 83563.4 4317.79   4
  -3  -5   0 83861.8 3771.76   2
   3  -5   1 29908.4 1508.01   5
   3  -5   1 27030.8 2482.48   4
  -3  -5  -1 29118.0 2193.79   2
   3  -5   2 10321.3 1593.52   4
  -3  -5  -2 9847.35 1325.04   2
   3  -5   2 9759.21 873.739   5
   3  -5   3 81900.3 3128.05   5
  -3  -5  -3 83508.2 4402.09   2
   3  -5   3 77137.0 4769.86   4
   3  -5   4 106606. 3998.76   5
   3  -5   4 96279.7 5574.60   4
   3  -5   5 86779.7 5389.89   4
   3  -5   6 60201.1 4508.84   4
   3  -5   7 9056.87 1866.82   4
   3  -4 -10 14718.1 2332.15   6
  -3  -4  10 14559.0 2378.80   1
   3  -4  -9 5060.25 1307.19   6
  -3  -4   9 8145.36 1717.02   1
   3  -4  -8 5936.68 1335.20   6
  -3  -4   8 7652.99 1526.64   1
   3  -4  -7 47345.1 3613.23   6
  -3  -4   7 43620.8 2550.11   4
  -3  -4   7 54191.1 3768.34   1
  -3  -4   6 100516. 4168.37   4
  -3  -4   6 100340. 5072.39   1
   3  -4  -6 99391.3 5284.53   6
  -3  -4   5 131377. 5616.45   1
   3  -4  -5 116460. 5620.53   6
   3  -4  -4 63301.1 3687.34   6
  -3  -4   4 58011.2 3327.09   1
   3  -4  -3 20470.3 1885.36   6
   3  -4  -3 21896.1 1533.84   4
  -3  -4   3 21231.3 1749.78   1
   3  -4  -2 5269.47 893.430   4
   3  -4  -2 6117.38 986.415   6
  -3  -4   2 7131.46 621.418   3
  -3  -4   2 5066.22 767.676   1
  -3  -4   1 57624.7 2814.66   2
  -3  -4   1 54234.6 2521.23   1
   3  -4  -1 57139.9 3169.87   4
  -3  -4   0 142310. 4994.50   2
  -3  -4   0 133168. 4173.45   1
   3  -4   0 132733. 5585.89   4
   3  -4   1 128170. 4163.16   5
  -3  -4  -1 134411. 3678.57   1
   3  -4   1 121257. 5618.69   4
   3  -4   2 72991.7 2871.41   5
  -3  -4  -2 71876.8 3588.22   2
   3  -4   2 69026.0 4167.49   4
   3  -4   3 101234. 3764.36   5
  -3  -4  -3 94777.0 4565.81   2
   3  -4   3 96560.5 5244.09   4
   3  -4   4 23417.2 1757.39   5
   3  -4   4 21822.6 2420.59   4
   3  -4   5 12722.7 1895.55   4
   3  -4   5 10323.2 1235.55   5
   3  -4   6 47608.3 3074.96   5
   3  -4   6 42878.7 3735.22   4
   3  -4   7 41929.5 3797.02   4
   3  -4   8 35318.2 3597.16   4
   3  -3 -10 32354.4 3325.84   6
  -3  -3  10 31273.8 3322.68   1
   3  -3  -9 45982.0 3932.11   6
  -3  -3   9 46693.4 3938.95   1
   3  -3  -8 36265.7 3276.69   6
  -3  -3   8 40596.0 3447.37   1
   3  -3  -7 44584.5 3463.76   6
  -3  -3   7 48385.2 2452.17   4
  -3  -3   7 46509.3 3584.56   1
   3  -3  -6 36530.8 3015.93   6
  -3  -3   6 39029.8 2154.80   4
  -3  -3   6 36070.8 2911.59   1
   3  -3  -5 2504.89 932.317   6
  -3  -3   5 3990.58 949.456   1
   3  -3  -4 60535.8 3549.63   6
  -3  -3   4 61365.1 3386.03   1
   3  -3  -3 183777. 6614.81   6
  -3  -3   3 162665. 6027.23   1
   3  -3  -2 241187. 7349.72   6
  -3  -3   2 227660. 6074.54   3
   3  -3  -2 241397. 7416.43   4
  -3  -3   2 232844. 7245.17   1
   3  -3  -1 211705. 6998.21   4
  -3  -3   1 207035. 6000.58   3
  -3  -3   1 201050. 6229.59   1
  -3  -3   0 82985.9 3497.49   2
  -3  -3   0 82830.3 3005.59   1
   3  -3   0 84367.5 3090.03   5
   3  -3   0 83231.4 4062.44   4
   3  -3   1 19518.6 1325.64   5
  -3  -3  -1 19977.6 1028.37   1
   3  -3   1 15826.9 1784.00   4
  -3  -3  -1 17417.2 1500.04   2
   3  -3   2 56767.2 2561.65   5
  -3  -3  -2 60014.4 3102.07   2
   3  -3   2 54733.4 3585.03   4
   3  -3   3 112759. 4310.61   5
  -3  -3  -3 123005. 5019.37   2
   3  -3   3 120783. 5753.33   4
   3  -3   4 58438.1 3047.02   5
  -3  -3  -4 60093.8 3591.23   2
   3  -3   4 56728.7 3915.90   4
   3  -3   5 74763.4 3837.01   5
   3  -3   5 74671.9 4700.01   4
   3  -3   6 44422.7 3142.38   5
   3  -3   6 36383.0 3383.47   4
   3  -3   7 7624.52 1590.27   4
   3  -3   7 8770.42 1599.50   5
   3  -3   8-939.317 1024.97   4
   3  -2 -10 12761.4 2185.91   6
  -3  -2  10 10832.8 1988.61   1
   3  -2  -9 1253.04 661.195   6
  -3  -2   9 3637.63 1207.69   1
   3  -2  -8 5872.11 1370.77   6
  -3  -2   8 5899.85 1398.95   1
  -3  -2   7 73792.1 4496.82   1
   3  -2  -7 64328.8 4343.74   6
  -3  -2   6 89477.6 3356.07   4
  -3  -2   6 84287.4 4697.01   1
   3  -2  -6 88615.4 4846.35   6
  -3  -2   5 97800.7 4874.42   1
   3  -2  -5 111461. 5211.14   6
  -3  -2   4 219581. 7613.61   1
   3  -2  -4 209817. 7583.20   6
   3  -2  -3 85408.2 3967.32   6
  -3  -2   3 79666.2 3820.09   1
   3  -2  -2 7806.50 986.208   6
  -3  -2   2 6131.94 902.267   1
   3  -2  -1 101653. 3575.52   6
  -3  -2   1 99534.9 3789.59   1
  -3  -2   0 153973. 5256.00   2
  -3  -2   0 163232. 5018.58   1
   3  -2   0 174064. 5184.03   5
   3  -2   0 164003. 6150.38   4
  -3  -2  -1 266926. 7166.11   1
   3  -2   1 277582. 7783.77   5
   3  -2   1 277175. 9173.82   4
  -3  -2  -1 298469. 8129.99   2
  -3  -2  -2 122943. 3432.50   1
  -3  -2  -2 125638. 4733.07   2
   3  -2   2 125456. 5667.05   4
   3  -2   3 44801.5 2501.23   5
  -3  -2  -3 41634.9 2555.20   2
   3  -2   3 38823.2 3040.93   4
   3  -2   4 35453.9 2382.58   5
   3  -2   4 34354.1 2999.04   4
  -3  -2  -4 40783.2 2752.64   2
   3  -2   5 27846.5 2338.28   5
   3  -2   5 24674.2 2631.83   4
   3  -2   6 19150.8 2421.61   4
   3  -2   6 22731.9 2321.98   5
   3  -2   7 34961.4 3181.28   5
   3  -2   8 47633.9 4044.96   5
   3  -2   9 27763.5 3296.95   5
  -3  -1  11 2739.80 1005.50   1
  -3  -1  10 26644.5 2965.44   1
   3  -1 -10 30064.9 3307.82   6
  -3  -1   9 63422.7 4465.55   1
   3  -1  -9 62230.9 4623.92   6
  -3  -1   8 112854. 5978.64   1
   3  -1  -8 108053. 5947.89   6
   3  -1  -7 55384.2 3847.13   6
  -3  -1   7 52617.2 3882.21   1
   3  -1  -6 5088.07 1205.08   6
  -3  -1   6 5539.66 1208.91   1
  -3  -1   6 6118.12 607.383   4
   3  -1  -5 5821.87 1084.33   6
  -3  -1   5 6283.62 1117.08   1
  -3  -1   4 88135.8 2698.05   3
  -3  -1   4 93066.5 4502.75   1
   3  -1  -4 92399.7 4265.28   6
  -3  -1   3 145722. 5766.40   1
  -3  -1   3 159187. 4070.40   3
   3  -1  -3 156549. 5700.19   6
  -3  -1   2 197816. 6697.49   1
   3  -1  -2 214576. 6675.72   6
   3  -1  -1 220454. 6343.61   6
   3  -1  -1 230584. 6589.05   5
  -3  -1   1 214700. 6810.18   1
   3  -1   0 16763.6 1300.82   5
  -3  -1   0 14991.5 1228.45   1
  -3  -1  -1 19290.0 1438.71   2
   3  -1   1 22465.4 1523.15   5
  -3  -1  -1 20380.7 1339.32   1
   3  -1   2 31175.5 1991.54   5
  -3  -1  -2 29375.2 1856.96   2
   3  -1   3 47484.0 2663.99   5
  -3  -1  -3 40236.2 1497.77   1
  -3  -1  -3 46307.3 2538.92   2
   3  -1   4 233042. 7543.24   5
  -3  -1  -4 179765. 6844.64   2
   3  -1   5 114179. 5428.00   5
   3  -1   6 58138.9 4017.38   5
   3  -1   7 12010.7 2015.67   5
   3  -1   8 6065.75 1571.99   5
   3  -1   9 3249.73 1404.67   5
  -3   0  11 41180.7 3754.79   1
  -3   0  10 50573.4 4012.87   1
   3   0 -10 55060.0 4387.25   6
   3   0  -9 2137.86 789.163   6
  -3   0   9 3860.23 1163.38   1
  -3   0   8-963.578 681.085   1
   3   0  -8-1.96182 478.957   6
  -3   0   7 79932.9 4763.87   1
   3   0  -7 80001.6 4638.07   6
  -3   0   6 106976. 2984.74   4
   3   0  -6 109693. 5225.19   6
  -3   0   5 232369. 6717.53   3
  -3   0   5 232958. 5875.29   4
   3   0  -5 218335. 7947.84   6
  -3   0   4 64503.4 2907.82   3
   3   0  -4 70357.8 3526.76   6
  -3   0   3 4512.94 894.891   1
  -3   0   3 2983.70 400.329   3
   3   0  -3 3971.29 710.972   6
   3   0  -2 1150.47 407.862   6
  -3   0   2 660.819 375.934   1
   3   0  -1 42163.6 2158.85   5
  -3   0   1 39936.3 2487.89   1
   3   0  -1 41809.7 2001.16   6
   3   0   0 9143.68 593.482   6
   3   0   0 10971.8 1068.96   5
  -3   0  -1 304196. 8412.02   2
   3   0   1 316865. 8853.70   5
   3   0   2 142012. 5272.74   5
  -3   0  -2 153546. 4945.74   2
   3   0   3 102789. 4372.56   5
  -3   0  -3 91799.0 3771.14   2
   3   0   4 46124.0 3015.33   5
  -3   0  -4 41262.7 2560.78   2
   3   0   5 15355.7 1997.11   5
   3   0   6 41032.5 3484.55   5
   3   0   7 96511.0 6087.99   5
   3   0   8 42702.4 4286.91   5
  -3   1  11 3097.66 1136.07   1
  -3   1  10 26567.1 2875.66   1
   3   1 -10 23598.4 2865.32   6
   3   1  -9 54685.0 4152.81   6
  -3   1   9 51430.7 3970.87   1
  -3   1   8 117073. 6102.85   1
   3   1  -8 125855. 6215.99   6
  -3   1   7 56904.5 3885.67   1
   3   1  -7 54338.2 3702.39   6
   3   1  -6 3307.60 862.740   6
  -3   1   6 2634.46 534.843   3
  -3   1   6 4805.68 1107.68   1
   3   1  -5 6562.19 1112.19   6
  -3   1   5 7765.70 1372.68   1
  -3   1   5 8560.11 1014.50   3
  -3   1   5 6911.26 404.571   4
  -3   1   4 72590.8 3070.93   3
   3   1  -4 78475.9 3696.97   6
  -3   1   4 79637.2 4240.58   1
  -3   1   4 74361.1 2537.53   4
  -3   1   3 185277. 5135.94   3
  -3   1   3 181125. 6868.89   1
  -3   1   3 172750. 5300.90   4
   3   1  -3 181269. 5994.31   6
  -3   1   2 230342. 7608.66   1
   3   1  -2 192933. 6108.56   6
   3   1  -1 219678. 6675.86   5
  -3   1   1 218976. 6014.94   6
   3   1  -1 212654. 6038.54   6
  -3   1   0 20105.4 978.656   6
   3   1   0 17584.5 1451.38   5
   3   1   0 18117.7 954.049   6
   3   1   1 19706.5 1573.83   5
   3   1   2 26527.5 1963.12   5
  -3   1  -2 21534.4 1438.27   2
   3   1   3 51103.5 3062.23   5
  -3   1  -3 55436.4 2595.15   2
   3   1   4 195730. 7601.35   5
  -3   1  -4 213680. 6828.97   2
   3   1   5 126524. 6097.35   5
   3   1   6 50946.8 4019.71   5
   3   1   7 11518.7 2145.25   5
   3   1   8 7236.42 1872.63   5
  -3   2  11 13290.9 2097.18   1
   3   2 -10 11660.0 2031.82   6
  -3   2  10 11189.2 1893.62   1
   3   2  -9-163.805 771.766   6
  -3   2   9 1006.28 790.969   1
   3   2  -8 7579.88 1474.85   6
  -3   2   8 6867.19 1390.24   1
  -3   2   7 45467.2 3516.53   1
   3   2  -7 50086.1 3439.98   6
  -3   2   6 101095. 4394.40   3
  -3   2   6 101635. 5141.90   1
   3   2  -6 107199. 5061.44   6
  -3   2   5 124511. 4858.80   3
  -3   2   5 128147. 5869.27   1
   3   2  -5 121695. 5201.91   6
  -3   2   4 229469. 6802.13   3
  -3   2   4 219498. 5419.07   4
  -3   2   4 204756. 7896.67   1
   3   2  -4 215632. 7207.84   6
  -3   2   3 71236.1 4039.54   1
  -3   2   3 81903.3 2974.98   3
  -3   2   3 75039.2 2711.33   4
   3   2  -3 76707.0 3379.52   6
   3   2  -2 8590.87 1039.09   5
   3   2  -1 107547. 4186.05   5
   3   2   0 166377. 5586.91   5
  -3   2   0 156839. 4762.45   6
   3   2   1 272409. 6621.19   6
   3   2   1 292045. 8535.16   5
  -3   2  -1 285739. 7143.31   6
  -3   2  -2 139061. 3765.33   6
   3   2   2 146672. 5444.77   5
   3   2   3 54804.2 3202.12   5
  -3   2  -3 49019.1 2314.08   2
  -3   2  -3 49428.3 1647.04   6
   3   2   4 30612.7 2648.51   5
   3   2   5 20052.9 2411.17   5
   3   2   6 27400.9 2988.95   5
   3   2   7 32571.6 3572.12   5
   3   2   8 44859.7 4475.76   5
  -3   3  11 6234.52 1544.21   1
  -3   3  10 39887.9 3561.67   1
   3   3 -10 40600.9 3781.75   6
  -3   3   9 41118.8 3444.55   1
   3   3  -9 40925.1 3529.86   6
  -3   3   8 51482.0 3838.66   1
   3   3  -8 51917.8 3857.36   6
  -3   3   7 35399.6 2765.44   3
  -3   3   7 39064.1 3150.54   1
   3   3  -7 39008.8 3128.14   6
  -3   3   6 39612.8 2606.48   3
  -3   3   6 37592.3 2975.11   1
   3   3  -6 39763.2 2906.64   6
  -3   3   5 2688.88 788.643   1
  -3   3   5 2381.52 731.859   3
  -3   3   4 51104.2 2635.47   3
  -3   3   4 41240.0 1356.97   4
  -3   3   4 47213.0 3291.43   1
  -3   3   3 177021. 5839.80   3
  -3   3   3 205403. 5417.88   4
   3   3  -2 233848. 7169.95   5
  -3   3   2 216959. 6668.96   3
   3   3  -1 231042. 7224.70   5
   3   3   0 87110.9 3796.01   5
  -3   3  -1 15108.5 1185.85   6
   3   3   1 13621.1 1407.19   5
  -3   3  -2 59226.0 2272.29   2
  -3   3  -2 54933.2 2302.86   6
   3   3   2 56497.4 3208.06   5
   3   3   2 53884.3 2019.53   6
   3   3   3 128427. 5436.50   5
  -3   3  -3 117305. 3878.49   2
   3   3   4 56064.4 3680.58   5
   3   3   5 96204.0 5464.40   5
   3   3   6 30479.3 3211.46   5
   3   3   7 9016.93 1945.10   5
   3   3   8 253.545 1051.69   5
   3   4 -10 9918.37 1901.57   6
  -3   4  10 12720.3 2015.05   1
   3   4  -9 7371.73 1500.84   6
  -3   4   9 6894.78 1457.18   1
   3   4  -8 8557.99 1580.41   6
  -3   4   8 6531.33 1382.80   3
  -3   4   8 10795.7 1821.81   1
  -3   4   7 57028.2 3616.86   3
  -3   4   7 47096.6 3558.46   1
   3   4  -7 50816.3 3603.00   6
  -3   4   6 99215.5 4682.42   3
  -3   4   6 91876.4 5073.90   1
   3   4  -6 92358.4 4726.18   6
  -3   4   5 105734. 5310.61   3
  -3   4   5 105988. 5515.11   1
  -3   4   4 68474.8 3389.84   3
  -3   4   3 21226.2 1623.01   3
   3   4  -2 5856.68 898.812   5
  -3   4   2 4429.16 754.316   3
   3   4  -1 60096.2 3076.72   5
   3   4   0 123428. 4856.86   5
   3   4   1 141471. 5447.25   5
  -3   4  -2 80333.1 2690.07   2
   3   4   2 76383.0 3965.45   5
   3   4   3 109541. 5167.08   5
  -3   4  -3 112665. 3488.61   2
   3   4   4 20346.7 2202.36   5
   3   4   5 10318.6 1842.99   5
   3   4   6 40117.3 3819.44   5
   3   4   7 41145.3 4202.48   5
  -3   5  10 31270.8 3149.07   1
  -3   5   9 46407.1 3804.41   1
   3   5  -9 53031.4 4202.30   6
  -3   5   8 83854.3 4961.07   1
   3   5  -8 82591.9 5023.15   6
  -3   5   7 41583.4 3230.92   3
  -3   5   7 42842.3 3501.14   1
   3   5  -7 43508.9 3375.50   6
  -3   5   6 15488.0 2206.35   1
  -3   5   6 20719.7 2207.91   3
  -3   5   5 10788.8 1555.43   3
  -3   5   5 11897.0 1816.06   1
  -3   5   4 84594.8 4096.84   3
  -3   5   3 108128. 4391.29   3
   3   5  -2 98757.5 4267.15   5
  -3   5   2 105265. 4227.66   3
   3   5  -1 27405.6 2043.46   5
   3   5   0 80754.8 3828.16   5
   3   5   1 29485.3 2235.63   5
  -3   5  -2 7855.18 635.249   2
   3   5   2 7108.01 1249.56   5
   3   5   3 94482.9 4873.65   5
   3   5   4 89834.3 5078.06   5
   3   5   5 88046.2 5402.80   5
   3   5   6 60670.1 4806.67   5
   3   5   7 9430.21 2233.54   5
  -3   6  10 12203.5 1944.09   1
   3   6  -9 8383.31 1763.41   6
  -3   6   9 8754.05 1787.87   1
   3   6  -8 12814.9 2016.77   6
  -3   6   8 16104.5 2132.46   1
  -3   6   8 11140.4 1935.94   3
  -3   6   7 35546.9 3005.62   3
  -3   6   7 36458.1 3238.83   1
  -3   6   6 86302.1 4881.68   3
  -3   6   6 84811.2 5058.26   1
  -3   6   5 83853.1 5246.30   3
  -3   6   4 54631.6 3420.63   3
  -3   6   3 56455.7 3147.94   3
  -3   6   2 21214.2 1804.86   3
   3   6  -2 18445.5 1682.45   5
   3   6  -1 17646.4 1676.01   5
  -3   6   1 15181.8 1577.21   3
   3   6   0 163219. 6122.90   5
   3   6   1 47888.9 3028.10   5
   3   6   2 151220. 6248.40   5
   3   6   3 52153.5 3527.42   5
   3   6   4 20833.7 2374.38   5
   3   6   5 7326.59 1668.02   5
   3   6   6 41481.6 4070.90   5
   3   6   7 38730.2 4056.60   5
  -3   7   9 45667.3 3769.81   1
  -3   7   8 13360.9 2004.75   3
  -3   7   8 13594.8 2096.38   1
  -3   7   7 40683.8 3303.35   3
  -3   7   7 34853.7 3424.81   1
  -3   7   6 25463.2 2719.26   3
  -3   7   6 16328.4 2316.39   1
  -3   7   5-899.389 1272.30   3
  -3   7   4 43110.7 3293.61   3
  -3   7   3 100682. 4717.70   3
  -3   7   2 134232. 5415.28   3
   3   7  -2 129650. 5312.14   5
   3   7  -1 137643. 5449.19   5
  -3   7   1 122332. 5248.45   3
   3   7   0 61672.9 3498.21   5
   3   7   1 17574.4 1803.73   5
   3   7   2 10990.5 1540.12   5
   3   7   3 68143.8 4257.33   5
   3   7   4 50445.5 3862.82   5
   3   7   5 46818.4 4005.71   5
   3   7   6 24935.0 3186.33   5
  -3   8   9 953.381 783.056   1
  -3   8   9-219.255 702.782   5
  -3   8   8 3472.34 1316.85   3
  -3   8   8 2185.79 871.665   1
  -3   8   7 13713.7 2121.35   1
  -3   8   7 14050.6 2084.88   3
  -3   8   6 42088.8 3642.04   3
  -3   8   5 64477.0 5348.15   3
  -3   8   4 59990.5 4211.97   3
  -3   8   3 64392.9 3862.21   3
   3   8  -2 8622.71 1223.06   5
  -3   8   2 9627.78 1450.85   3
   3   8  -1 14693.3 1610.51   5
  -3   8   1 15289.4 1744.03   3
   3   8   0 120983. 5381.39   5
  -3   8   0 127242. 5564.62   3
   3   8   1 76522.4 4196.61   5
   3   8   2 126814. 5917.31   5
   3   8   3 3313.65 1110.20   5
   3   8   4 1924.98 923.848   5
   3   8   5 5729.81 1548.79   5
   3   8   6 4656.09 1452.14   5
  -3   9   8 40283.6 3703.18   1
  -3   9   7 21967.6 2680.09   3
  -3   9   7 18596.2 2551.13   1
  -3   9   6 3863.13 1453.11   3
  -3   9   5 4453.48 1913.37   3
  -3   9   4 25485.0 2910.60   3
  -3   9   3 42901.2 3339.20   3
  -3   9   2 111542. 5400.42   3
   3   9  -2 107933. 4969.30   5
  -3   9   1 55459.0 3568.43   3
   3   9  -1 57130.5 3425.95   5
   3   9   0 16503.5 1884.54   5
  -3   9   0 13803.2 1736.85   3
   3   9   1 2065.05 740.012   5
  -3   9  -1 2839.62 948.833   3
   3   9   2 7419.92 1372.09   5
   3   9   3 27494.8 2750.20   5
   3   9   4 69283.6 4836.24   5
   3   9   5 30897.1 3361.33   5
  -3  10   7 23187.2 2811.00   1
  -3  10   6 70916.8 5081.84   3
  -3  10   5 41741.4 4412.70   3
  -3  10   4 16756.7 2567.01   3
  -3  10   3 802.475 873.276   3
  -3  10   2 2351.96 1018.84   3
   3  10  -1 6613.62 1175.53   5
  -3  10   1 7159.35 1404.82   3
   3  10   0 20823.0 2167.06   5
  -3  10   0 18551.7 2145.60   3
   3  10   1 62485.5 3974.01   5
  -3  10  -1 61249.5 4043.94   3
   3  10   2 43128.5 3435.64   5
  -3  10  -2 50091.6 3782.11   3
   3  10   3 31006.0 3064.34   5
   3  10   4 11219.8 1946.52   5
   3  10   5 590.118 699.755   5
  -3  11   5 8959.68 2055.69   3
  -3  11   4 13118.6 2324.09   3
  -3  11   3 44588.8 4053.61   3
  -3  11   2 38092.6 3447.35   3
  -3  11   1 31941.1 2965.03   3
   3  11   0 9816.08 1505.49   5
  -3  11   0 13011.1 1915.22   3
   3  11   1 1251.90 690.899   5
  -3  11  -1 1187.55 738.168   3
   3  11   2 1066.14 670.368   5
  -3  11  -2 2034.97 896.295   3
   3  11   3 21744.2 2608.31   5
  -3  11  -3 27264.3 2929.26   3
   3  11   4 26551.2 3043.18   5
  -3  12   1 26665.5 2909.62   3
  -3  12   0 26767.5 2808.35   3
  -4 -11   4 37994.6 3159.15   2
  -4 -11   3 58292.7 4036.67   2
  -4 -11   2 6708.70 1417.71   2
  -4 -11   1 4587.26 1233.93   2
   4 -11   0 984.243 900.330   4
  -4 -11   0-366.634 907.350   2
   4 -11   1 32931.2 3928.10   4
  -4 -10   6 21309.9 2541.53   4
  -4 -10   5 25095.7 2793.48   4
  -4 -10   5 23376.0 2330.47   2
  -4 -10   4 1861.46 761.294   2
  -4 -10   3 3531.67 997.720   2
  -4 -10   2 35897.8 3080.71   2
  -4 -10   1 69690.3 4422.35   2
   4 -10  -1 66510.2 5138.96   4
  -4 -10   0 48170.6 3773.32   2
   4 -10   0 48824.4 4457.04   4
   4 -10   1 23815.4 3178.02   4
  -4 -10  -1 29486.1 3068.04   2
   4 -10   2 12.8369 701.296   4
  -4  -9   7 846.683 609.779   4
  -4  -9   6 11344.7 1756.52   4
  -4  -9   6 10013.5 1701.13   1
  -4  -9   6 13815.7 1764.48   2
  -4  -9   5 31081.8 2907.07   1
  -4  -9   5 31907.2 2630.42   2
  -4  -9   4 64809.7 4027.11   1
  -4  -9   4 67585.4 4017.15   2
  -4  -9   3 34713.5 2803.50   2
  -4  -9   2 53866.2 3622.33   2
   4  -9  -1 360.820 682.370   4
  -4  -9   1 3375.74 1166.42   2
   4  -9   0 12173.7 2138.49   4
  -4  -9   0 14125.2 1880.28   2
   4  -9   1 10954.2 2040.02   4
  -4  -9  -1 13118.6 1929.43   2
  -4  -9  -2 45587.9 3821.73   2
   4  -9   2 44852.0 4324.04   4
   4  -9   3 59531.2 5080.68   4
  -4  -8   7 84029.1 5247.04   1
  -4  -8   7 86455.0 4843.05   4
  -4  -8   6 19919.6 2072.85   2
  -4  -8   6 19941.7 2373.46   1
  -4  -8   6 18269.9 2172.52   4
  -4  -8   5 9693.16 1633.61   1
  -4  -8   5 11450.4 1566.24   2
  -4  -8   4 1178.15 757.310   1
  -4  -8   4 1485.82 696.468   2
  -4  -8   3 10303.0 1431.13   1
  -4  -8   3 11010.3 1556.12   2
  -4  -8   2 31304.2 2270.08   1
   4  -8  -2 31488.0 2971.84   4
  -4  -8   2 24994.5 2329.84   2
   4  -8  -1 24950.7 2792.22   4
  -4  -8   1 22344.5 2221.46   2
   4  -8   0 73842.1 5182.86   4
  -4  -8   0 76985.7 4443.76   2
  -4  -8  -1 47487.0 3525.51   2
   4  -8   1 47637.8 4153.34   4
   4  -8   2 3903.52 1438.79   4
  -4  -8  -2 4591.10 1337.51   2
   4  -8   3 1591.10 1182.95   4
  -4  -8  -3 865.490 800.203   2
   4  -8   4 8765.38 1975.10   4
   4  -7  -8 2686.74 1102.66   6
  -4  -7   8 4283.89 1427.52   1
   4  -7  -7 1332.69 810.735   6
  -4  -7   7 822.570 721.901   1
  -4  -7   7 1620.27 691.516   4
   4  -7  -6 14294.9 2282.44   6
  -4  -7   6 15820.7 2063.70   1
  -4  -7   6 14626.9 1808.73   4
  -4  -7   5 45528.3 3084.67   2
  -4  -7   5 46136.0 3404.04   1
  -4  -7   4 67673.2 3747.02   2
  -4  -7   4 66823.7 3939.14   1
  -4  -7   3 50391.0 3180.15   2
  -4  -7   3 47232.1 3012.98   1
  -4  -7   2 25149.6 1968.79   1
   4  -7  -2 22317.7 2471.20   4
  -4  -7   2 25694.9 2284.00   2
   4  -7  -1 4239.74 1173.76   4
  -4  -7   1 4707.81 768.095   1
  -4  -7   1 3426.34 888.562   2
   4  -7   0 525.448 698.961   4
  -4  -7   0 1255.33 775.041   2
   4  -7   1 9787.27 1930.67   4
  -4  -7  -1 11968.7 1660.72   2
  -4  -7  -2 64613.6 4162.03   2
   4  -7   2 66753.9 4965.49   4
  -4  -7  -3 77810.1 4923.89   2
   4  -7   3 80098.7 5547.63   4
   4  -7   4 33951.4 3649.70   4
   4  -7   5 9773.15 2088.91   4
   4  -6  -8 18068.5 2526.01   6
  -4  -6   8 16351.9 2303.91   1
   4  -6  -7 67711.2 4651.80   6
  -4  -6   7 59887.6 4282.55   1
  -4  -6   7 56698.9 3451.35   4
   4  -6  -6 37369.3 3293.27   6
  -4  -6   6 31962.5 2505.55   4
  -4  -6   6 34120.2 3004.39   1
   4  -6  -5 43669.0 3481.04   6
  -4  -6   5 38693.0 3058.01   1
   4  -6  -4 4337.41 1276.90   6
  -4  -6   4 6552.83 1201.79   1
   4  -6  -3 10493.2 1407.20   4
  -4  -6   3 10510.2 1367.69   2
  -4  -6   3 9304.96 1316.27   1
  -4  -6   2 70987.9 3749.06   2
  -4  -6   2 69066.6 3461.39   1
   4  -6  -2 73383.0 4344.28   4
  -4  -6   1 123120. 4536.62   1
   4  -6  -1 112809. 5894.04   4
  -4  -6   1 129577. 5375.07   2
  -4  -6   0 80585.1 4165.82   2
   4  -6   0 76401.4 4835.28   4
  -4  -6  -1 48573.1 3294.48   2
   4  -6   1 48415.0 3918.73   4
   4  -6   2 4683.13 1268.18   4
  -4  -6  -2 4003.85 1061.55   2
   4  -6   3 4158.29 1368.34   4
  -4  -6  -3 3336.43 1027.28   2
   4  -6   4 27296.1 3166.09   4
   4  -6   5 33531.4 3655.54   4
   4  -5  -9 4360.21 1409.21   6
  -4  -5   9 1435.95 944.679   1
   4  -5  -8 25570.4 2986.49   6
  -4  -5   8 32864.1 3266.62   1
   4  -5  -7 3341.08 1163.45   6
  -4  -5   7 1989.78 889.927   1
   4  -5  -6 13992.7 1951.69   6
  -4  -5   6 16551.5 2005.61   1
   4  -5  -5 49669.4 3657.53   6
  -4  -5   5 44633.0 3265.78   1
   4  -5  -4 102233. 5164.25   6
  -4  -5   4 98811.7 4829.50   1
   4  -5  -3 118884. 5384.66   6
   4  -5  -3 134238. 5324.12   4
  -4  -5   3 132116. 5371.53   1
  -4  -5   2 76790.4 3795.02   2
  -4  -5   2 71400.4 3486.89   1
   4  -5  -2 72989.0 4237.78   4
  -4  -5   1 21876.7 1958.56   2
  -4  -5   1 21572.9 1601.25   1
   4  -5  -1 20735.4 2320.03   4
  -4  -5   0 47111.1 2167.37   1
   4  -5   0 43490.5 3383.74   4
  -4  -5   0 38477.5 2677.62   2
   4  -5   1 82706.4 3363.65   5
   4  -5   1 74628.4 4820.30   4
  -4  -5  -1 87391.9 4286.56   2
  -4  -5  -2 138795. 5967.84   2
   4  -5   2 133052. 6874.03   4
   4  -5   3 10010.0 1887.83   4
  -4  -5  -3 11624.4 1668.84   2
  -4  -5  -4 64869.7 4391.47   2
   4  -5   4 69796.4 5029.93   4
   4  -5   5 3678.71 1195.03   4
   4  -5   6-1759.85 1146.66   4
   4  -4  -9 36977.2 3694.28   6
  -4  -4   9 41512.8 3869.80   1
   4  -4  -8 46076.8 3920.77   6
  -4  -4   8 41328.9 3672.27   1
   4  -4  -7 49220.6 3880.53   6
  -4  -4   7 44841.7 3654.92   1
   4  -4  -6 45524.0 3595.25   6
  -4  -4   6 46885.4 3527.03   1
   4  -4  -5 58631.9 3884.74   6
  -4  -4   5 58242.8 3761.62   1
   4  -4  -4 3359.93 900.441   6
  -4  -4   4 2173.35 746.310   1
   4  -4  -3 19619.3 1910.35   6
  -4  -4   3 19300.5 1829.08   1
  -4  -4   2 78145.2 3753.67   1
   4  -4  -2 89020.1 4457.58   4
  -4  -4   1 201258. 6967.20   2
  -4  -4   1 200889. 6477.67   1
   4  -4  -1 210287. 7987.05   4
  -4  -4   0 54459.0 3097.77   2
  -4  -4   0 55927.3 2468.27   1
   4  -4   0 48634.4 3579.17   4
   4  -4   1 77382.0 3338.20   5
   4  -4   1 75163.8 4685.90   4
  -4  -4  -1 85451.4 4088.83   2
   4  -4   2 22842.1 1730.34   5
  -4  -4  -2 21556.5 2053.25   2
   4  -4   2 21617.4 2521.24   4
   4  -4   3 2212.77 919.558   4
  -4  -4  -3 3980.92 997.211   2
   4  -4   3 4170.12 767.193   5
   4  -4   4 52000.8 2960.67   5
  -4  -4  -4 46713.6 3500.16   2
   4  -4   4 43290.9 3844.37   4
   4  -4   5 26854.1 3109.77   4
   4  -4   6 51321.6 4482.64   4
   4  -3  -9 32959.8 3425.45   6
  -4  -3   9 33956.9 3603.68   1
   4  -3  -8 27791.5 3051.86   6
  -4  -3   8 26851.9 2998.46   1
   4  -3  -7 4368.90 1171.88   6
  -4  -3   7 5029.21 1374.38   1
   4  -3  -6 33941.8 3001.33   6
  -4  -3   6 35852.7 3059.14   1
   4  -3  -5 99468.0 5210.31   6
  -4  -3   5 92956.3 4942.13   1
   4  -3  -4 99426.9 4918.19   6
  -4  -3   4 92329.5 4669.41   1
  -4  -3   3 107759. 4893.33   1
   4  -3  -3 114951. 4971.27   6
   4  -3  -2 9086.27 1152.05   6
  -4  -3   2 8718.08 1171.57   1
  -4  -3   1 39868.9 2359.52   1
  -4  -3   1 42975.4 2556.12   2
  -4  -3   0 9785.26 998.819   1
   4  -3   0 9269.32 1505.69   4
  -4  -3   0 7739.20 1133.23   2
   4  -3   0 8616.01 1057.54   5
   4  -3   1 61150.0 3017.37   5
  -4  -3  -1 64140.2 2458.18   1
   4  -3   1 60447.9 4066.55   4
  -4  -3  -1 61995.0 3337.58   2
   4  -3   2 91906.9 3967.06   5
  -4  -3  -2 94414.4 4371.80   2
   4  -3   2 89953.6 5280.64   4
   4  -3   3 91635.5 4130.22   5
   4  -3   3 81330.7 5232.11   4
   4  -3   4 79252.5 3989.13   5
  -4  -3  -4 80968.5 4568.58   2
   4  -3   4 69984.9 4985.79   4
   4  -3   5 36871.9 2814.83   5
   4  -3   5 34737.0 3505.71   4
   4  -3   6 231.946 625.985   5
   4  -2  -9 12318.8 2122.63   6
  -4  -2   9 12565.6 2134.29   1
  -4  -2   8 83675.5 5451.94   1
   4  -2  -8 68773.0 4893.29   6
  -4  -2   7 74381.4 4847.95   1
   4  -2  -7 67337.8 4613.16   6
  -4  -2   6 113616. 5998.62   1
   4  -2  -6 125696. 6165.03   6
   4  -2  -5 2618.70 807.927   6
  -4  -2   5 3238.26 997.382   1
   4  -2  -4-58.7017 422.397   6
  -4  -2   4 945.918 712.549   1
   4  -2  -3 20109.3 1889.17   6
  -4  -2   3 16138.0 1700.76   1
   4  -2  -2 80116.5 3555.45   6
  -4  -2   2 77902.9 3858.76   1
   4  -2  -1 82510.7 3098.30   6
  -4  -2   1 80591.0 3701.15   1
  -4  -2   0 148763. 5339.40   2
  -4  -2   0 138617. 4961.12   1
   4  -2   0 141345. 5111.21   5
  -4  -2  -1 48846.8 2284.33   1
   4  -2   1 47758.6 2690.88   5
  -4  -2  -1 47712.1 2731.50   2
   4  -2   2 51019.4 2898.06   5
  -4  -2  -2 58629.8 3178.75   2
  -4  -2  -3 1319.08 669.233   2
   4  -2   3 1456.45 692.553   5
   4  -2   4 30731.5 2517.32   5
  -4  -2  -4 33751.8 2706.85   2
   4  -2   5 78734.7 4483.95   5
   4  -2   6 72203.2 4615.42   5
   4  -2   7 26697.1 2839.49   5
  -4  -1  10 30343.0 3310.65   1
   4  -1 -10 33803.7 3586.16   6
  -4  -1   9 46619.7 4034.86   1
   4  -1  -9 47764.4 4174.77   6
   4  -1  -8 1996.78 692.239   6
  -4  -1   8 3801.05 1367.20   1
   4  -1  -7 1524.71 865.302   6
  -4  -1   7 1448.47 805.947   1
   4  -1  -6 10978.7 1716.32   6
  -4  -1   6 14710.7 1991.09   1
  -4  -1   5 75788.0 4548.78   1
   4  -1  -5 75170.4 4276.20   6
  -4  -1   4 180802. 4888.13   3
   4  -1  -4 167805. 6782.50   6
  -4  -1   3 115740. 5339.35   1
   4  -1  -3 124119. 5184.07   6
   4  -1  -2 110296. 4428.39   6
  -4  -1   2 105937. 4767.02   1
   4  -1  -1 2441.25 461.493   6
  -4  -1   1 2510.17 755.396   1
   4  -1  -1 2369.16 647.573   5
  -4  -1   0 11992.2 1248.87   2
   4  -1   0 10398.1 1220.29   5
  -4  -1   0 10930.2 1215.41   1
  -4  -1  -1 69559.0 3288.94   2
   4  -1   1 68353.7 3353.55   5
  -4  -1  -1 62582.7 2981.05   1
   4  -1   2 72703.1 3608.91   5
  -4  -1  -2 68902.4 2922.19   1
  -4  -1  -2 76641.3 3571.60   2
   4  -1   3 186212. 7155.33   5
  -4  -1  -3 224049. 7370.65   2
   4  -1   4 22657.5 2183.80   5
  -4  -1  -4 22011.8 2071.01   2
   4  -1   5 22376.4 2381.23   5
   4  -1   6 275.156 661.829   5
   4  -1   7 2148.25 1042.37   5
   4   0 -10 10405.2 1996.20   6
  -4   0  10 12043.3 2159.60   1
  -4   0   9 3582.87 1278.74   1
   4   0  -9 665.460 668.665   6
  -4   0   8 43763.7 3840.15   1
   4   0  -8 49356.9 3902.43   6
  -4   0   7 78235.8 4992.38   1
   4   0  -7 76698.1 4787.27   6
  -4   0   6 82567.7 5048.19   1
   4   0  -6 79946.3 4598.74   6
  -4   0   5 39542.5 2024.15   3
  -4   0   5 37050.2 3165.27   1
   4   0  -5 35448.6 2836.70   6
  -4   0   4 36237.1 1743.02   3
  -4   0   4 35356.7 3017.20   1
   4   0  -4 35480.8 2602.56   6
  -4   0   3 42613.8 1941.93   3
  -4   0   3 38110.5 2967.64   1
   4   0  -3 35489.2 2472.01   6
  -4   0   2 113684. 5320.55   1
   4   0  -2 114548. 4566.09   6
   4   0  -1 129997. 4244.82   6
   4   0  -1 121980. 4873.77   5
  -4   0   1 131845. 5475.96   1
   4   0   0 300748. 9135.94   5
  -4   0   0 298042. 9392.90   1
  -4   0  -1 64593.8 3078.46   2
   4   0   1 63332.4 3347.88   5
  -4   0  -2 82.3540 330.225   2
   4   0   2 218.271 407.970   5
   4   0   3 29809.5 2446.88   5
  -4   0  -3 27725.8 2092.28   2
  -4   0  -4 1250.46 667.271   2
   4   0   4 113.838 534.121   5
   4   0   5 77561.1 4799.83   5
   4   0   6 37116.7 3453.94   5
   4   0   7 45595.5 4117.64   5
  -4   1  10 41584.9 3860.69   1
   4   1 -10 33943.7 3636.46   6
  -4   1   9 46069.6 4063.65   1
   4   1  -9 48818.5 4134.80   6
   4   1  -8 2028.61 1100.92   6
  -4   1   8 451.837 719.352   1
   4   1  -7 230.859 612.831   6
  -4   1   7 305.892 612.058   1
   4   1  -6 11430.8 1614.07   6
  -4   1   6 12307.4 1220.33   3
  -4   1   6 12676.1 1859.30   1
  -4   1   5 61154.2 3356.20   3
  -4   1   5 71550.6 4483.15   1
   4   1  -5 68494.4 3976.24   6
  -4   1   4 163208. 5025.26   3
  -4   1   4 150972. 6834.39   1
   4   1  -4 145893. 6019.31   6
   4   1  -3 122335. 5051.90   6
  -4   1   3 137478. 4437.75   3
  -4   1   3 137553. 6229.75   1
   4   1  -2 123686. 4959.68   5
  -4   1   2 119842. 5682.00   1
   4   1  -2 115957. 4487.85   6
   4   1  -1 729.263 298.468   6
   4   1  -1 537.679 448.814   5
   4   1   0 9689.04 613.131   6
   4   1   0 9913.07 1284.34   5
  -4   1  -1 64240.6 2994.57   2
   4   1   1 66295.0 3508.96   5
   4   1   2 73461.8 3935.38   5
  -4   1  -2 73879.5 3328.36   2
   4   1   3 201346. 7857.82   5
  -4   1  -3 226896. 7170.16   2
   4   1   4 21732.2 2335.71   5
  -4   1  -4 24167.2 1978.65   2
   4   1   5 19089.0 2393.70   5
   4   1   6-60.2932 727.316   5
   4   1   7 2157.30 914.853   5
  -4   2  10 4201.94 1354.70   1
   4   2  -9 11900.5 2069.30   6
  -4   2   9 12563.9 2182.84   1
  -4   2   8 73522.2 4980.79   1
   4   2  -8 71471.2 4824.64   6
  -4   2   7 68470.8 4644.18   1
   4   2  -7 69244.6 4406.83   6
   4   2  -6 119159. 5826.64   6
  -4   2   6 119988. 6310.49   1
   4   2  -5 2447.32 794.015   6
  -4   2   5 18.8267 626.499   3
  -4   2   5 1571.19 882.873   1
   4   2  -4-90.7919 432.750   6
  -4   2   4 608.496 679.875   1
  -4   2   4 203.112 274.946   3
  -4   2   3 20797.4 1482.11   3
   4   2  -3 16384.3 1581.39   6
  -4   2   3 21955.0 2290.40   1
   4   2  -2 72116.8 3610.53   5
   4   2  -2 65124.7 3083.54   6
   4   2  -1 92828.4 4283.28   5
   4   2  -1 99418.7 3594.43   6
   4   2   0 153868. 6018.86   5
   4   2   0 159340. 4530.09   6
   4   2   1 50452.2 3086.45   5
   4   2   2 49959.6 3209.43   5
  -4   2  -2 48162.7 2462.57   2
  -4   2  -3 1293.01 560.157   2
   4   2   3 979.665 723.447   5
   4   2   4 34713.4 3083.73   5
   4   2   5 74229.2 4972.35   5
   4   2   6 84681.8 5681.84   5
   4   2   7 24680.9 3367.72   5
  -4   3  10 45039.1 4087.22   1
  -4   3   9 34810.9 3501.93   1
   4   3  -9 33267.8 3371.68   6
  -4   3   8 27532.7 3005.20   1
   4   3  -8 31422.4 3074.74   6
  -4   3   7 5994.11 1510.97   1
   4   3  -7 4561.85 1150.40   6
  -4   3   7 5139.06 868.964   3
  -4   3   6 42904.8 2981.50   3
   4   3  -6 37210.4 3007.01   6
  -4   3   5 91440.1 5307.05   1
   4   3  -5 91411.0 4692.60   6
  -4   3   4 104414. 4244.25   3
   4   3  -4 106918. 4792.68   6
  -4   3   4 110728. 5799.76   1
  -4   3   3 118418. 4420.67   3
   4   3  -3 111385. 4667.83   6
   4   3  -2 12661.1 1463.95   5
   4   3  -2 13694.8 1309.12   6
   4   3  -1 34588.4 2506.07   5
   4   3  -1 35916.1 1984.00   6
   4   3   0 4106.57 946.877   5
   4   3   0 5436.93 647.952   6
   4   3   1 56370.0 3393.47   5
  -4   3  -2 113138. 4058.25   2
   4   3   2 107673. 5161.24   5
   4   3   3 83914.9 4727.25   5
   4   3   4 87287.0 5178.80   5
   4   3   5 32266.0 3264.39   5
   4   3   6 69.8646 742.924   5
  -4   4   9 38136.4 3621.30   1
   4   4  -9 36092.4 3539.70   6
  -4   4   8 40416.6 3673.19   1
   4   4  -8 40599.7 3625.06   6
  -4   4   7 50001.8 3301.86   3
  -4   4   7 56144.7 4248.43   1
   4   4  -7 51813.6 3842.61   6
  -4   4   6 52138.4 3669.21   3
  -4   4   6 50769.9 3972.01   1
   4   4  -6 53935.9 3660.11   6
  -4   4   5 67526.2 3835.09   3
   4   4  -5 60851.1 3730.61   6
  -4   4   5 63028.0 4366.79   1
  -4   4   4 2206.23 631.576   3
  -4   4   3 21194.2 1758.47   3
   4   4  -2 71225.3 3774.90   5
  -4   4   2 77780.4 3649.50   3
   4   4  -1 232074. 8026.54   5
   4   4   0 44490.5 2974.77   5
   4   4   1 78752.6 4211.02   5
  -4   4  -2 23908.7 1527.23   2
   4   4   2 20903.0 2173.47   5
   4   4   3 3262.64 972.264   5
   4   4   4 44849.6 3678.60   5
   4   4   5 30739.0 3294.35   5
   4   4   6 40908.7 4060.25   5
   4   5  -9 1092.03 830.673   6
  -4   5   9 3844.99 1407.46   1
  -4   5   8 32354.6 2958.87   3
  -4   5   8 28134.7 3111.92   1
   4   5  -8 29535.4 3104.78   6
   4   5  -7 3335.96 1104.33   6
  -4   5   7 4165.07 995.600   3
  -4   5   7 4683.77 1348.48   1
  -4   5   6 14943.6 1969.07   3
  -4   5   6 18846.7 2405.57   1
   4   5  -6 19194.7 2250.78   6
  -4   5   5 39625.7 3515.13   1
  -4   5   5 47368.6 3354.48   3
  -4   5   4 99854.8 4524.30   3
  -4   5   3 130627. 5223.91   3
   4   5  -2 81711.4 4198.66   5
  -4   5   2 84608.0 3994.21   3
   4   5  -1 19520.4 1904.44   5
   4   5   0 43371.6 3047.45   5
   4   5   1 87725.4 4646.85   5
   4   5   2 122171. 5862.60   5
   4   5   3 16842.3 2200.98   5
   4   5   4 73407.0 4926.05   5
   4   5   5 2819.60 1187.57   5
   4   5   6 748.747 761.588   5
  -4   6   9 19155.0 2598.24   1
  -4   6   8 22993.0 2729.58   3
  -4   6   8 23965.7 2815.31   1
   4   6  -8 30835.9 3152.06   6
  -4   6   7 55899.9 3949.25   3
  -4   6   7 59389.7 4522.42   1
   4   6  -7 57117.2 4171.25   6
  -4   6   6 25648.0 3014.30   3
  -4   6   6 28330.9 3028.71   1
  -4   6   5 44573.5 3466.45   3
  -4   6   4 7114.25 1134.41   3
  -4   6   3 10122.9 1338.31   3
   4   6  -2 83592.1 4277.82   5
  -4   6   2 76330.3 3937.03   3
   4   6  -1 108269. 5130.57   5
   4   6   0 79133.2 4395.90   5
   4   6   1 56458.3 3706.37   5
   4   6   2 7930.79 1467.08   5
   4   6   3 4947.89 1268.24   5
   4   6   4 29926.6 3214.55   5
   4   6   5 29724.6 3426.21   5
   4   7  -8 2208.00 1006.68   6
  -4   7   8 1491.26 1037.56   3
  -4   7   8 1603.00 1014.58   1
  -4   7   7 1229.36 754.843   3
  -4   7   7 2117.83 1042.35   1
  -4   7   6 18048.1 2423.11   1
  -4   7   6 17352.5 2655.13   3
  -4   7   5 58941.8 4308.44   3
  -4   7   4 75708.1 4356.24   3
  -4   7   3 50295.7 3287.23   3
  -4   7   2 31602.4 2511.59   3
   4   7  -2 28290.9 2500.04   5
   4   7  -1 5623.66 1080.19   5
  -4   7   1 5666.75 1158.06   3
   4   7   0 604.091 498.782   5
   4   7   1 18545.8 2189.51   5
   4   7   2 66029.1 4361.17   5
   4   7   3 76194.6 4954.28   5
   4   7   4 39787.1 3766.88   5
   4   7   5 9919.14 2101.21   5
  -4   8   8 22062.9 2735.58   3
  -4   8   7 102875. 6027.12   3
  -4   8   7 91134.6 6023.55   1
  -4   8   6 18913.5 2591.42   1
  -4   8   6 24728.6 3062.22   3
  -4   8   5 10799.1 1976.90   3
  -4   8   4 3808.33 1195.72   3
  -4   8   3 8967.18 1502.43   3
  -4   8   2 31947.3 2686.15   3
   4   8  -2 32906.2 2749.03   5
   4   8  -1 29628.5 2633.53   5
  -4   8   1 26165.2 2496.72   3
   4   8   0 75096.4 4558.84   5
  -4   8   0 84508.0 4721.52   3
   4   8   1 56353.7 3944.19   5
   4   8   2 2186.75 896.484   5
   4   8   3 3411.06 1227.84   5
   4   8   4 9249.61 1981.40   5
  -4   9   7 2277.82 1284.79   3
  -4   9   6 7143.16 1821.43   3
  -4   9   5 36249.7 3911.02   3
  -4   9   4 75173.2 4909.69   3
  -4   9   3 43559.1 3370.61   3
  -4   9   2 50949.3 3587.17   3
   4   9  -2 50586.3 3610.72   5
   4   9  -1 1129.52 555.113   5
  -4   9   1 1870.65 851.491   3
   4   9   0 14413.8 1995.56   5
  -4   9   0 14887.8 1986.11   3
   4   9   1 7201.18 1534.78   5
  -4   9  -1 7324.76 1456.40   3
   4   9   2 52566.8 4112.14   5
   4   9   3 53068.9 4315.09   5
  -4  10   5 12310.6 2448.22   3
  -4  10   4 1382.28 1064.23   3
  -4  10   3 3645.96 1104.79   3
  -4  10   2 35596.0 3132.40   3
  -4  10   1 61705.6 4233.16   3
   4  10  -1 61465.1 4086.53   5
   4  10   0 59678.6 4169.07   5
  -4  10   0 62679.4 4255.90   3
   4  10   1 27329.2 2884.81   5
  -4  10  -1 28214.5 2908.73   3
   4  10   2-142.711 666.215   5
   4  10   3 5534.01 1631.20   5
   4  11  -1 3431.45 1023.76   5
   4  11   0 2719.72 987.648   5
   4  11   1 33198.7 3291.29   5
   4  11   2 25235.3 2961.73   5
  -5  -9   6 24346.6 2585.08   2
  -5  -9   6 28373.9 2910.05   4
  -5  -9   5 39677.2 3316.00   1
  -5  -9   5 37624.9 3168.41   2
  -5  -9   4 30771.0 2910.49   2
  -5  -9   3-23.0611 638.383   2
  -5  -9   2 511.965 625.137   2
  -5  -9   1 4587.47 1109.10   2
   5  -9   0 35337.6 3932.99   4
   5  -9   1 35884.3 4037.93   4
  -5  -8   7 6957.95 1429.15   2
  -5  -8   6 9133.08 1569.92   2
  -5  -8   6 11026.3 1861.94   1
  -5  -8   5 9472.75 1584.92   2
  -5  -8   5 8718.33 1556.33   1
  -5  -8   4 5082.17 1275.73   2
  -5  -8   4 4877.87 1141.86   1
  -5  -8   3 62511.7 4124.55   2
  -5  -8   2 73363.7 4519.42   2
  -5  -8   1 52389.1 3846.38   2
   5  -8  -1 58993.1 4873.61   4
   5  -8   0 1406.70 744.061   4
  -5  -8   0 1794.46 965.581   2
   5  -8   1 703.570 755.427   4
  -5  -8  -1 3494.34 1184.72   2
   5  -8   2 16787.1 2827.00   4
   5  -7  -7 16885.0 2449.69   6
  -5  -7   7 17840.8 2429.74   1
  -5  -7   6 32643.3 2895.85   2
  -5  -7   6 31172.8 3072.30   1
  -5  -7   5 49391.8 3538.10   2
  -5  -7   5 49691.6 3714.69   1
  -5  -7   4 38234.4 3070.46   2
  -5  -7   4 34973.1 2889.94   1
  -5  -7   3 19626.0 2130.74   2
  -5  -7   3 21030.7 2033.41   1
  -5  -7   2 10220.0 1603.40   2
   5  -7  -1 30894.8 3333.57   4
  -5  -7   1 28013.4 2630.95   2
  -5  -7   0 47407.8 3567.67   2
   5  -7   0 44937.6 4167.17   4
  -5  -7  -1 73229.4 4616.20   2
   5  -7   1 62348.9 5160.31   4
   5  -7   2 12864.3 2379.72   4
  -5  -7  -2 14927.5 2111.50   2
   5  -7   3 19684.3 2944.94   4
   5  -6  -7 9681.41 1906.36   6
  -5  -6   7 8456.28 1773.76   1
   5  -6  -6 10609.6 1881.99   6
  -5  -6   6 10576.6 1791.90   1
   5  -6  -5 17492.1 2339.11   6
  -5  -6   5 15463.4 2000.72   1
  -5  -6   4 22289.8 2225.04   2
  -5  -6   4 23109.6 2273.10   1
  -5  -6   3 69612.2 4058.95   2
  -5  -6   3 66362.2 3784.32   1
  -5  -6   2 37235.5 2910.80   2
   5  -6  -1 55466.0 4402.10   4
  -5  -6   1 51879.2 3581.36   2
   5  -6   0 18002.1 2629.50   4
  -5  -6   0 21344.5 2194.75   2
   5  -6   1 377.294 622.508   4
  -5  -6  -1 1210.93 855.541   2
   5  -6   2 7525.24 1848.75   4
  -5  -6  -2 12361.8 1858.89   2
  -5  -6  -3 43832.2 3686.57   2
   5  -6   3 37404.0 4055.21   4
   5  -5  -8 10878.9 2015.79   6
   5  -5  -7 49541.1 4111.39   6
  -5  -5   7 48124.8 3982.38   1
   5  -5  -6 52123.9 4056.79   6
  -5  -5   6 49622.5 3791.38   1
   5  -5  -5 42335.2 3528.48   6
  -5  -5   5 44492.6 3402.50   1
   5  -5  -4 17489.4 2085.53   6
  -5  -5   4 16685.4 1921.80   1
  -5  -5   3 6450.67 1237.71   2
  -5  -5   3 6240.65 1133.95   1
  -5  -5   2 2725.23 867.725   2
  -5  -5   2 4478.07 887.632   1
  -5  -5   1 9316.46 1419.28   2
   5  -5   0 47232.8 4110.08   4
  -5  -5   0 48115.2 3289.73   2
  -5  -5  -1 51810.8 3549.82   2
   5  -5   1 45941.8 4125.69   4
  -5  -5  -2 74444.6 4446.41   2
   5  -5   2 59445.6 4997.97   4
   5  -5   3 24895.6 3198.04   4
  -5  -5  -3 26326.9 2718.74   2
   5  -5   4 4545.69 1496.20   4
  -5  -5  -4 4091.92 1144.77   2
   5  -4  -8 31853.0 3339.12   6
  -5  -4   8 34924.3 3548.88   1
   5  -4  -7 24519.9 2774.59   6
  -5  -4   7 21608.8 2646.02   1
   5  -4  -6 90.8860 669.505   6
  -5  -4   6 763.920 609.236   1
   5  -4  -5 6004.36 1283.02   6
  -5  -4   5 5628.35 1359.66   1
   5  -4  -4 45840.5 3287.25   6
  -5  -4   4 41470.1 3171.28   1
   5  -4  -3 78339.1 3995.70   6
  -5  -4   3 75021.8 4143.98   1
  -5  -4   2 48701.7 3200.41   2
  -5  -4   2 53491.5 3149.86   1
  -5  -4   1 48972.6 3202.37   2
  -5  -4   0 23012.6 2189.82   2
  -5  -4  -1 3855.59 1014.55   2
   5  -4   1 3292.15 788.085   5
  -5  -4  -2 15420.5 1981.52   2
  -5  -4  -3 62201.0 4123.92   2
  -5  -4  -4 67704.9 4635.65   2
   5  -3  -9-249.680 1001.24   6
   5  -3  -8 2868.73 1166.80   6
  -5  -3   8 2463.06 1157.98   1
   5  -3  -7 23592.4 2709.39   6
  -5  -3   7 29579.5 3139.96   1
   5  -3  -6 52778.0 4016.60   6
  -5  -3   6 58871.0 4262.68   1
   5  -3  -5 76956.3 4685.30   6
  -5  -3   5 81163.5 4855.23   1
   5  -3  -4 42040.0 3139.07   6
  -5  -3   4 41225.4 3182.78   1
  -5  -3   3 42526.9 3116.62   1
   5  -3  -3 47885.4 2988.98   6
  -5  -3   2 6668.06 1091.16   1
  -5  -3   1 74761.3 3736.88   1
  -5  -3   1 80949.2 4097.74   2
  -5  -3   0 98566.0 4662.04   2
   5  -3   0 99935.0 4503.25   5
   5  -3   1 71854.1 3680.97   5
  -5  -3  -1 67419.3 3850.68   2
   5  -3   2 50907.2 3161.57   5
  -5  -3  -2 50639.0 3446.19   2
  -5  -3  -3 15290.8 1939.47   2
   5  -3   3 19417.2 1950.39   5
  -5  -3  -4 428.563 734.284   2
   5  -2  -9 28571.6 3288.06   6
   5  -2  -8 29691.5 3247.50   6
  -5  -2   8 32792.6 3606.04   1
  -5  -2   7 19309.3 2668.47   1
   5  -2  -7 17099.3 2334.22   6
   5  -2  -6 9823.41 1680.70   6
  -5  -2   6 9203.11 1730.27   1
   5  -2  -5-1086.86 890.729   6
  -5  -2   5-316.729 655.047   1
   5  -2  -4 60553.2 3901.60   6
  -5  -2   4 60091.4 4019.68   1
   5  -2  -3 99525.0 4538.33   6
  -5  -2   3 86839.5 4784.75   1
  -5  -2   2 151288. 6254.96   1
  -5  -2   1 53038.5 3183.13   2
  -5  -2   1 53120.5 3156.11   1
  -5  -2   0 33148.5 2446.68   2
  -5  -2   0 33748.5 2249.78   1
   5  -2   0 28072.7 2267.44   5
  -5  -2  -1 14394.7 1651.89   2
   5  -2   1 12316.3 1475.56   5
   5  -2   2 55161.7 3436.01   5
  -5  -2  -2 57506.4 3544.02   2
   5  -2   3 29322.7 2497.09   5
  -5  -2  -3 28683.9 2570.07   2
   5  -2   4 46668.2 3368.82   5
  -5  -2  -4 45074.8 3445.43   2
   5  -2   5 28059.6 2744.70   5
   5  -1  -9 493.672 887.490   6
  -5  -1   8 10412.6 2036.03   1
   5  -1  -8 11779.7 2062.36   6
  -5  -1   7 34799.7 3620.06   1
   5  -1  -7 33201.5 3304.55   6
  -5  -1   6 74805.9 5118.16   1
   5  -1  -6 66299.0 4542.45   6
  -5  -1   5 76249.5 4902.83   1
   5  -1  -5 73920.2 4533.37   6
   5  -1  -4 72453.3 4201.94   6
  -5  -1   4 74264.7 4623.43   1
   5  -1  -3 131.441 546.866   6
  -5  -1   3 135.283 738.023   1
  -5  -1   2 10791.6 1543.13   1
   5  -1  -1 47830.3 3047.49   5
  -5  -1   1 45974.9 3066.93   1
  -5  -1   0 56032.5 3211.32   2
   5  -1   0 49934.5 3135.03   5
  -5  -1   0 52965.1 3105.42   1
  -5  -1  -1 122131. 5105.07   2
   5  -1   1 110679. 5168.96   5
   5  -1   2 69351.7 3978.98   5
  -5  -1  -2 68373.6 3784.61   2
   5  -1   3 25825.9 2460.59   5
  -5  -1  -3 24652.5 2296.45   2
  -5  -1  -4 4025.99 932.683   2
   5  -1   4 3952.22 1105.93   5
   5  -1   5 14188.4 2054.26   5
   5  -1   6 15153.0 2328.27   5
  -5   0   9 48782.8 4423.30   1
   5   0  -9 43585.7 4081.29   6
  -5   0   8 47837.2 4345.65   1
   5   0  -8 51439.3 4256.98   6
  -5   0   7 50727.8 4289.25   1
   5   0  -7 53128.0 4150.25   6
   5   0  -6 6165.83 1291.48   6
  -5   0   6 7130.33 1650.10   1
   5   0  -5 13372.6 1900.81   6
  -5   0   5 13794.3 2231.74   1
  -5   0   4 37481.6 3307.32   1
   5   0  -4 36337.6 2880.59   6
  -5   0   3 36693.0 3156.83   1
   5   0  -3 39112.0 2780.67   6
  -5   0   2 125981. 6001.85   1
   5   0  -1 56345.4 3380.65   5
  -5   0   1 57954.9 3682.23   1
  -5   0   0 6711.07 1144.34   1
  -5   0   0 5654.95 1002.59   2
   5   0   0 7124.41 1207.33   5
  -5   0  -1 8272.04 1171.32   2
   5   0   1 8645.93 1316.74   5
  -5   0  -1 7443.93 1126.16   1
  -5   0  -2 6782.79 1109.21   2
   5   0   2 4363.59 1091.77   5
   5   0   3 54772.2 3797.65   5
  -5   0  -3 57409.7 3459.77   2
   5   0   4 88650.5 5172.17   5
  -5   0  -4 83751.1 4495.99   2
   5   0   5 77289.9 5189.52   5
   5   0   6 11866.9 2176.69   5
   5   1  -9 471.033 743.614   6
   5   1  -8 10442.7 1805.91   6
  -5   1   8 12009.3 2200.67   1
  -5   1   7 29607.8 3347.48   1
   5   1  -7 28493.7 2964.37   6
  -5   1   6 70727.6 5029.81   1
   5   1  -6 66968.6 4417.97   6
  -5   1   5 81447.3 5346.67   1
   5   1  -5 79766.0 4639.68   6
  -5   1   4 76460.6 3221.51   3
  -5   1   4 76133.0 5037.61   1
   5   1  -4 70649.8 4096.44   6
   5   1  -3 127.024 337.487   6
  -5   1   3 1090.94 531.393   3
  -5   1   3 153.745 877.413   1
  -5   1   2 14244.3 2046.32   1
   5   1  -1 41458.1 2881.26   5
  -5   1   1 32111.7 2897.80   1
  -5   1   0 52814.6 3603.87   1
   5   1   0 48855.5 3322.26   5
  -5   1  -1 125626. 5051.04   2
   5   1   1 129972. 5932.60   5
   5   1   2 65048.6 4117.61   5
  -5   1  -2 68876.2 3549.73   2
   5   1   3 26128.0 2598.99   5
  -5   1  -3 21950.7 2016.26   2
   5   1   4 3291.09 1280.34   5
   5   1   5 15950.2 2433.19   5
   5   2  -9 38711.0 3810.59   6
  -5   2   8 32844.3 3547.39   1
   5   2  -8 30353.7 3190.45   6
   5   2  -7 17942.6 2299.98   6
  -5   2   7 19491.2 2768.60   1
   5   2  -6 11394.7 1718.98   6
  -5   2   6 11105.2 2055.66   1
   5   2  -5 462.228 681.230   6
  -5   2   5 667.578 605.749   1
  -5   2   4 66742.1 3149.95   3
  -5   2   4 61646.5 4491.08   1
   5   2  -4 61329.4 3760.57   6
  -5   2   3 88761.4 3885.33   3
  -5   2   3 85094.7 5368.90   1
   5   2  -3 86656.2 4215.88   6
  -5   2   2 174104. 8009.42   1
   5   2  -2 173830. 6961.57   5
   5   2  -1 56072.5 3500.99   5
   5   2   0 31886.2 2639.47   5
  -5   2  -1 12690.7 1377.36   2
   5   2   1 12933.0 1787.06   5
   5   2   2 44904.1 3467.06   5
  -5   2  -2 45920.6 2723.39   2
   5   2   3 38877.5 3436.93   5
   5   2   4 47694.9 3991.45   5
   5   2   5 36457.5 3734.36   5
   5   3  -9-1244.55 1016.68   6
   5   3  -8 1427.59 960.738   6
  -5   3   8-886.174 898.042   1
  -5   3   7 27994.0 3198.73   1
   5   3  -7 25004.9 2811.29   6
  -5   3   6 56272.8 4547.99   1
   5   3  -6 59867.9 4100.83   6
  -5   3   5 85538.3 4079.60   3
  -5   3   5 82719.5 5434.58   1
   5   3  -5 73561.9 4439.38   6
  -5   3   4 42330.7 2619.91   3
  -5   3   4 41376.9 3732.47   1
   5   3  -4 40107.1 2945.75   6
  -5   3   3 49162.0 3964.06   1
  -5   3   3 48168.0 2825.89   3
   5   3  -3 45383.3 2932.72   6
   5   3  -2 9127.61 1452.10   5
   5   3  -1 71338.1 4107.27   5
   5   3   0 102641. 5231.56   5
  -5   3  -1 68165.3 3300.51   2
   5   3   1 67988.3 4213.28   5
   5   3   2 66911.1 4351.32   5
   5   3   3 15079.3 2117.55   5
   5   3   4 3063.92 1195.36   5
   5   3   5 9273.03 1972.15   5
  -5   4   8 27853.2 3366.92   1
   5   4  -8 28870.6 3178.18   6
   5   4  -7 17699.0 2378.50   6
  -5   4   7 21550.7 2882.32   1
   5   4  -6 1630.77 899.124   6
  -5   4   6 1.28716 865.099   1
   5   4  -5 2701.87 1013.84   6
  -5   4   5 6113.47 1210.49   3
  -5   4   5 3178.41 1113.53   1
  -5   4   4 43470.1 3970.27   1
  -5   4   4 49373.4 2998.01   3
   5   4  -4 47550.4 3303.73   6
  -5   4   3 89407.9 4110.49   3
   5   4  -3 72382.2 3974.55   6
   5   4  -2 53878.4 3574.37   5
   5   4  -1 52955.6 3541.95   5
   5   4   0 27848.7 2622.56   5
   5   4   1 3323.60 1062.63   5
   5   4   2 12352.4 1901.48   5
   5   4   3 56051.8 4335.16   5
   5   4   4 57098.6 4645.69   5
   5   5  -8 15851.7 2364.95   6
  -5   5   7 50969.8 4440.74   1
   5   5  -7 45866.8 3887.34   6
  -5   5   6 60825.9 4726.71   1
   5   5  -6 62449.1 4272.12   6
   5   5  -5 45736.4 3470.24   6
  -5   5   5 42843.8 3977.33   1
  -5   5   4 14024.0 2293.05   1
  -5   5   4 15183.7 1696.71   3
   5   5  -4 17439.6 1953.68   6
   5   5  -3 6348.06 1125.48   6
  -5   5   3 7749.95 1179.42   3
   5   5  -2 3385.17 1031.68   5
  -5   5   2 3919.27 994.705   3
   5   5  -1 11931.9 1703.15   5
   5   5   0 46817.2 3556.07   5
   5   5   1 54076.8 3922.99   5
   5   5   2 62121.1 4460.73   5
   5   5   3 34912.8 3441.14   5
   5   5   4 8111.52 1935.67   5
  -5   6   7 10079.0 2149.78   1
   5   6  -7 9659.32 1768.30   6
   5   6  -6 9724.84 1697.84   6
  -5   6   6 7037.30 1702.73   1
  -5   6   6 6572.53 1406.66   3
  -5   6   5 24219.2 2507.90   3
  -5   6   5 18184.0 2690.72   1
   5   6  -5 19637.8 2283.62   6
  -5   6   4 19393.0 2121.66   3
  -5   6   3 85601.1 4470.98   3
   5   6  -2 36226.6 3066.90   5
  -5   6   2 36964.3 2860.24   3
   5   6  -1 45441.8 3436.77   5
   5   6   0 22184.5 2503.35   5
   5   6   1 4.19230 632.344   5
   5   6   2 9293.27 1779.49   5
   5   6   3 39592.4 3833.50   5
   5   7  -7 17093.4 2405.07   6
  -5   7   7 21121.0 2728.93   3
  -5   7   6 28291.4 3460.36   3
   5   7  -6 37130.0 3387.22   6
  -5   7   6 35292.4 3707.75   1
  -5   7   5 47149.3 4409.06   1
  -5   7   5 55191.0 4098.34   3
  -5   7   4 38373.8 3065.32   3
  -5   7   3 17696.5 2049.84   3
   5   7  -2 9714.24 1694.91   5
  -5   7   2 10199.3 1600.29   3
   5   7  -1 35388.0 3105.96   5
  -5   7   1 41371.9 3250.58   3
   5   7   0 45840.1 3713.78   5
   5   7   1 65792.0 4688.18   5
   5   7   2 16417.5 2360.45   5
  -5   8   7 11762.9 2144.05   3
  -5   8   6 9084.59 1987.23   3
  -5   8   5 10750.8 2036.57   3
  -5   8   4 6789.24 1337.21   3
  -5   8   3 77268.6 4620.52   3
  -5   8   2 61827.8 4087.50   3
   5   8  -2 63346.5 4341.36   5
   5   8  -1 59146.8 4192.17   5
  -5   8   1 63193.0 4144.49   3
   5   8   0 2036.00 1087.15   5
  -5   8   0 2694.34 1139.56   3
   5   8   1 2725.44 1123.88   5
  -5   9   5 36382.5 3778.36   3
  -5   9   4 38937.7 3555.36   3
  -5   9   3 2957.02 930.411   3
  -5   9   2-402.114 807.945   3
   5   9  -1 4304.85 1276.80   5
  -5   9   1 6030.69 1411.27   3
   5   9   0 38479.9 3462.33   5
   5  10  -1 20835.6 2533.52   5
  -6  -6   6 11758.6 1920.75   1
  -6  -6   5 26748.1 2731.43   1
  -6  -6   4 56909.1 4012.29   2
  -6  -6   3 32500.7 3013.13   2
  -6  -6   2 23772.3 2553.91   2
  -6  -6   1 2130.96 1051.43   2
   6  -5  -7 31377.3 3268.98   6
  -6  -5   6 30563.2 3112.33   1
  -6  -5   5 9287.34 1680.12   1
  -6  -5   4 13638.6 1929.62   2
  -6  -5   4 14233.3 1870.76   1
  -6  -5   3 30955.1 2833.93   2
  -6  -5   2 67355.9 4253.62   2
  -6  -5   1 70362.5 4391.50   2
  -6  -5   0 25199.8 2646.44   2
  -6  -5  -1 27834.9 2789.70   2
   6  -4  -7 2577.09 1041.68   6
   6  -4  -6 15622.0 2271.63   6
  -6  -4   6 15239.5 2250.75   1
  -6  -4   5 43790.1 3650.95   1
  -6  -4   4 61479.2 4124.79   1
  -6  -4   3 13847.7 1908.73   2
  -6  -4   2 42158.6 3222.47   2
  -6  -4   1 1938.87 906.909   2
  -6  -4   0 16160.0 2000.20   2
  -6  -4  -1 45057.3 3481.03   2
  -6  -4  -2 27534.4 2804.32   2
   6  -3  -8 43737.0 4071.16   6
   6  -3  -7 37885.7 3635.46   6
  -6  -3   7 38263.4 3828.71   1
   6  -3  -6 17225.3 2328.69   6
  -6  -3   6 19514.0 2568.47   1
  -6  -3   5 3647.40 1141.23   1
  -6  -3   4 4596.22 1307.15   1
  -6  -3   3 11055.8 1697.85   1
  -6  -3   2 42006.3 3168.20   2
  -6  -3   1 32016.5 2751.55   2
  -6  -3   0 53888.4 3669.22   2
   6  -3   1 38018.1 2905.15   5
  -6  -3  -1 36948.3 3032.06   2
  -6  -3  -2 4916.99 1241.73   2
  -6  -3  -3-310.421 635.583   2
   6  -2  -8 3224.73 1106.96   6
  -6  -2   7 8262.49 2041.11   1
   6  -2  -7 7772.75 1579.99   6
  -6  -2   6 20183.2 2744.63   1
   6  -2  -6 20315.4 2446.89   6
  -6  -2   5 51668.3 4219.04   1
  -6  -2   4 41554.6 3510.72   1
  -6  -2   3 41840.6 3408.52   1
  -6  -2   2 13879.7 1850.58   1
  -6  -2   1 668.610 563.475   2
  -6  -2   0 514.686 641.053   2
   6  -2   0 1481.40 752.225   5
  -6  -2  -1 17540.6 2044.38   2
   6  -2   1 19390.7 2096.32   5
   6  -2   2 64389.8 4128.12   5
  -6  -2  -2 68058.7 4300.79   2
   6  -2   3 60706.1 4123.21   5
  -6  -2  -3 53096.1 3876.96   2
   6  -1  -8 26852.9 3209.65   6
   6  -1  -7 34474.2 3402.42   6
  -6  -1   7 39788.2 4075.00   1
   6  -1  -6 42347.5 3653.36   6
  -6  -1   6 42853.2 4167.68   1
  -6  -1   5 15429.1 2343.78   1
  -6  -1   4 2334.74 1146.00   1
  -6  -1   3 16997.2 2167.51   1
  -6  -1   2 47183.9 3518.78   1
  -6  -1   1 67187.1 3944.23   2
  -6  -1   0 79098.6 4337.56   2
   6  -1   0 85216.5 4672.64   5
  -6  -1  -1 5252.45 1076.52   2
   6  -1   1 7032.81 1267.12   5
  -6  -1  -2 7197.63 1350.03   2
   6  -1   2 6248.36 1387.93   5
  -6  -1  -3 7072.19 1329.46   2
   6  -1   3 4972.43 1362.80   5
   6  -1   4 15656.8 2226.48   5
   6   0  -8 1522.25 708.704   6
   6   0  -7 998.019 778.907   6
  -6   0   7 1797.82 1252.81   1
   6   0  -6 13533.3 2020.42   6
  -6   0   6 13863.7 2484.05   1
  -6   0   5 37076.3 3756.65   1
  -6   0   4 65797.7 4797.78   1
  -6   0   3 139579. 7061.95   1
  -6   0   2 2244.52 897.688   1
  -6   0   1 4749.61 1175.04   1
   6   0  -1 3814.46 1110.41   5
  -6   0   0 37035.6 2767.32   2
   6   0   0 35071.6 2963.62   5
   6   0   1 27328.4 2686.06   5
  -6   0  -1 33057.6 2641.28   2
   6   0   2 61457.8 4288.65   5
  -6   0  -2 58953.7 3710.97   2
   6   0   3 18319.0 2434.93   5
   6   1  -8 24328.7 3100.12   6
  -6   1   7 39615.2 4127.32   1
   6   1  -7 37163.0 3625.16   6
  -6   1   6 39071.0 4072.28   1
   6   1  -6 38447.6 3522.75   6
  -6   1   5 20804.0 2949.92   1
  -6   1   4 2236.35 1158.43   1
  -6   1   3 10066.8 1888.71   1
  -6   1   2 51548.7 4140.61   1
   6   1  -1 71600.2 4469.85   5
  -6   1   1 67699.7 4551.87   1
  -6   1   0 81396.8 4209.16   2
   6   1   0 73825.4 4566.40   5
  -6   1  -1 11575.4 1489.17   2
   6   1   1 12080.9 1887.66   5
   6   1   2 4089.01 1166.50   5
   6   1   3 9172.64 1925.41   5
   6   2  -8 2208.80 880.237   6
   6   2  -7 8286.85 1803.27   6
  -6   2   7 8227.95 2045.10   1
  -6   2   6 22984.8 3152.50   1
   6   2  -6 22025.6 2590.33   6
  -6   2   5 39533.9 4035.77   1
  -6   2   4 48199.4 4389.14   1
  -6   2   3 45943.5 4295.98   1
  -6   2   2 14954.4 2305.00   1
  -6   2   1-1139.16 996.712   1
   6   2  -1 1295.91 929.118   5
  -6   2   0 641.938 561.446   1
  -6   2   0-78.4284 641.065   2
   6   2   0-229.687 609.962   5
  -6   2  -1 21064.3 2004.21   2
   6   2   1 21523.7 2616.78   5
   6   2   2 62671.9 4661.79   5
   6   2   3 57019.1 4603.80   5
   6   3  -8 35844.0 3706.58   6
   6   3  -7 45158.8 3969.88   6
  -6   3   6 21060.0 2972.98   1
  -6   3   5 2786.16 1226.34   1
  -6   3   4 4012.71 1474.57   1
  -6   3   3 13849.5 1596.60   3
  -6   3   3 10349.5 1988.52   1
  -6   3   2 31900.6 3535.74   1
  -6   3   1 40317.9 4034.06   1
   6   3  -1 39666.7 3375.10   5
  -6   3   0 55089.8 3259.02   2
   6   3   0 49691.9 3856.82   5
   6   3   1 36813.7 3425.16   5
   6   3   2 5244.13 1424.06   5
   6   4  -7 2034.76 1077.61   6
  -6   4   6 21841.5 3083.90   1
  -6   4   5 38492.3 4015.09   1
  -6   4   4 63589.7 5156.21   1
  -6   4   3 13040.0 1638.47   3
  -6   4   3 15256.1 2485.30   1
  -6   4   2 43195.1 4231.65   1
   6   4  -2 36233.3 3310.58   5
   6   4  -1 2971.30 1120.10   5
   6   4   0 21152.8 2568.73   5
   6   4   1 42145.0 3750.71   5
   6   5  -7 37668.3 3686.89   6
  -6   5   5 12164.0 2292.51   1
  -6   5   4 12629.8 1723.30   3
  -6   5   4 13601.4 2369.04   1
  -6   5   3 30991.1 3678.91   1
  -6   5   3 34401.6 2766.46   3
   6   5  -2 68934.4 4707.90   5
  -6   5   2 75032.0 4317.38   3
   6   5  -1 58140.2 4297.70   5
   6   5   0 18884.7 2426.32   5
  -6   6   4 41250.9 4311.12   1
  -6   6   4 53767.7 3744.76   3
  -6   6   3 32553.4 2805.87   3
   6   6  -2 25899.1 2873.51   5
  -6   6   2 30274.6 2762.75   3
   6   6  -1 1748.56 980.868   5
  -6   7   4 10280.3 1677.13   3
  -6   7   3 4594.28 1116.35   3
  -6   7   2 8120.79 1579.64   3
  -6   7   1 57507.3 4096.00   3
  -7  -2   5 47627.0 4262.02   1
  -7  -1   5 2419.75 1069.95   1
  -7  -1   4 21268.7 2809.80   1
  -7   0   4 4575.54 1439.85   1
  -7   0   2 4992.91 1158.68   2
  -7   0   1 2638.43 716.037   2
  -7   0   0 19305.9 2188.80   2
  -7   1   4 20846.5 2911.74   1
  -7   1   3 32607.9 3501.90   1
  -7   1   1 26266.7 2517.16   2
  -7   1   0 3308.31 941.500   2
  -7   2   4 14547.1 2640.87   1
  -7   2   3 5602.34 1652.89   1
  -7   2   1 39624.9 3112.66   2
  -7   3   3 61241.0 5455.20   1
  -7   3   2 37579.4 4186.78   1
;
_shelx_hkl_checksum              52740
_shelx_res_file
;
    shelx.res created by SHELXL-2014/7
TITL logan_aspar_br in P 21
CELL  0.71073   5.2167  10.2784   8.3063   90.000  103.606   90.000
ZERR     2.00   0.0002   0.0005   0.0004    0.000    0.005    0.000
LATT  -1
SYMM  - X, 1/2 + Y, - Z
SFAC  BR   O    N    C    H
UNIT  2 8 4 8 22
MERG   2
OMIT    -3.00 180.00
dfix .88 .01 o1w h1w o1w h2w o2 h1h
dfix .90 .01 n1 h1n n1 h2n n1 h3n n2 h4n n2 h5n
FMAP   2
PLAN   25
ACTA    54.00
BOND   $H
CONF
L.S.   8
TEMP  -150.00
WGHT    0.027400
EXTI    0.018766
FVAR      10.86792
BR1   1    0.364904    0.903056    0.923453    11.00000    0.01205    0.01658 =
         0.01513   -0.00343    0.00197    0.00063
O1    2    1.117604    0.516341    0.760854    11.00000    0.01202    0.02635 =
         0.01850   -0.00611   -0.00018    0.00717
O2    2    0.810587    0.477916    0.526980    11.00000    0.01480    0.02382 =
         0.01592   -0.00620    0.00033    0.00460
O3    2    0.866464    0.826177    0.565337    11.00000    0.01759    0.03090 =
         0.01587    0.00756   -0.00306   -0.01271
O1W   2    1.160207    0.596448    1.156456    11.00000    0.01491    0.01813 =
         0.02456    0.00010    0.00224   -0.00177
AFIX   2
H1W   5    1.274427    0.536319    1.146781    11.00000   -1.20000
H2W   5    1.059424    0.540765    1.193278    11.00000   -1.20000
AFIX   0
N1    3    0.828737    0.703407    0.857999    11.00000    0.01279    0.01238 =
         0.01229   -0.00185    0.00345    0.00262
AFIX   2
H1N   5    0.715998    0.748857    0.903347    11.00000   -1.20000
H2N   5    0.950776    0.757398    0.836388    11.00000   -1.20000
H3N   5    0.931670    0.663469    0.947046    11.00000   -1.20000
AFIX   0
N2    3    0.569879    0.782201    0.324393    11.00000    0.02045    0.01686 =
         0.01225    0.00137    0.00129   -0.00307
C1    4    0.899812    0.531376    0.673099    11.00000    0.01382    0.01021 =
         0.01418    0.00194    0.00558   -0.00212
C2    4    0.689961    0.614279    0.724196    11.00000    0.00720    0.01288 =
         0.01243   -0.00047    0.00196   -0.00208
AFIX  13
H1    5    0.576504    0.554856    0.772935    11.00000   -1.20000
AFIX   0
C3    4    0.512445    0.685830    0.581065    11.00000    0.00918    0.01359 =
         0.01564    0.00033    0.00183   -0.00083
AFIX  23
H2    5    0.407097    0.621527    0.504354    11.00000   -1.20000
H3    5    0.388375    0.741132    0.624273    11.00000   -1.20000
AFIX   0
C4    4    0.662697    0.769704    0.486604    11.00000    0.01345    0.00993 =
         0.01576    0.00174    0.00243    0.00250
H1H   5    0.938225    0.428201    0.509142    11.00000    0.04620
H4N   5    0.645106    0.837184    0.265155    11.00000    0.01594
H5N   5    0.431156    0.732901    0.276010    11.00000    0.01615
HKLF 4
REM  logan_aspar_br in P 21
REM R1 =  0.0276 for    2118 Fo > 4sig(Fo)  and  0.0305 for all    2232 data
REM    128 parameters refined using      9 restraints
END
WGHT      0.0274      0.0000
REM Highest difference peak  0.597,  deepest hole -0.384,  1-sigma level  0.084
Q1    1   0.2653  0.9011  1.0153  11.00000  0.05    0.60
Q2    1   0.4613  0.9006  0.8336  11.00000  0.05    0.54
Q3    1   0.5442  0.8987  0.9122  11.00000  0.05    0.39
Q4    1   1.1431  0.4108  0.9937  11.00000  0.05    0.30
Q5    1   0.1650  0.9421  0.9138  11.00000  0.05    0.30
Q6    1   0.7279  0.9065  0.2983  11.00000  0.05    0.30
Q7    1   0.1544  0.8597  0.9147  11.00000  0.05    0.29
Q8    1   0.8313  0.5982  0.6907  11.00000  0.05    0.29
Q9    1   0.4495  0.8763  1.0479  11.00000  0.05    0.28
Q10   1   0.8901  0.6635  0.4727  11.00000  0.05    0.27
Q11   1   0.7284  0.5466  0.6914  11.00000  0.05    0.27
Q12   1   0.6793  0.3958  0.5773  11.00000  0.05    0.26
Q13   1   0.3821  0.5143  0.7998  11.00000  0.05    0.26
Q14   1   0.4312  0.9100  1.0458  11.00000  0.05    0.26
Q15   1   0.2882  0.7690  0.3029  11.00000  0.05    0.25
Q16   1   0.2013  0.7860  0.7163  11.00000  0.05    0.25
Q17   1   0.7318  0.8637  0.1227  11.00000  0.05    0.25
Q18   1   1.2377  0.4503  0.7917  11.00000  0.05    0.25
Q19   1   0.6139  0.7216  0.5244  11.00000  0.05    0.24
Q20   1   0.6017  0.7822  0.4105  11.00000  0.05    0.24
Q21   1   0.1263  0.6329  0.5302  11.00000  0.05    0.24
Q22   1   0.8976  0.8479  0.9797  11.00000  0.05    0.24
Q23   1   1.0547  0.7793  0.6479  11.00000  0.05    0.24
Q24   1   0.2646  0.9056  0.8084  11.00000  0.05    0.24
Q25   1   0.7007  0.8871  0.9233  11.00000  0.05    0.24
;
_shelx_res_checksum              13100
loop_
_space_group_symop_operation_xyz
'x, y, z'
'-x, y+1/2, -z'
loop_
_atom_site_type_symbol
_atom_site_label
_atom_site_fract_x
_atom_site_fract_y
_atom_site_fract_z
_atom_site_U_iso_or_equiv
_atom_site_adp_type
_atom_site_calc_flag
_atom_site_occupancy
Br Br1 0.36490(6) 0.90306(8) 0.92345(4) 0.01479(13) Uani d 1
O O1 1.1176(6) 0.5163(3) 0.7609(4) 0.0196(7) Uani d 1
O O2 0.8106(6) 0.4779(3) 0.5270(4) 0.0187(7) Uani d 1
O O3 0.8665(6) 0.8262(3) 0.5653(4) 0.0226(7) Uani d 1
O O1W 1.1602(8) 0.5964(4) 1.1565(6) 0.0196(9) Uani d 1
H H1W 1.274(8) 0.536(4) 1.147(7) 0.024 Uiso d 1
H H2W 1.059(10) 0.541(5) 1.193(7) 0.024 Uiso d 1
N N1 0.8287(9) 0.7034(5) 0.8580(6) 0.0124(9) Uani d 1
H H1N 0.716(8) 0.749(4) 0.903(6) 0.015 Uiso d 1
H H2N 0.951(8) 0.757(4) 0.836(6) 0.015 Uiso d 1
H H3N 0.932(8) 0.663(5) 0.947(4) 0.015 Uiso d 1
N N2 0.5699(7) 0.7822(4) 0.3244(4) 0.0169(8) Uani d 1
C C1 0.8998(8) 0.5314(4) 0.6731(5) 0.0124(8) Uani d 1
C C2 0.6900(8) 0.6143(4) 0.7242(5) 0.0109(8) Uani d 1
H H1 0.5765 0.5549 0.7729 0.013 Uiso calc 1
C C3 0.5124(8) 0.6858(4) 0.5811(5) 0.0130(8) Uani d 1
H H2 0.4071 0.6215 0.5044 0.016 Uiso calc 1
H H3 0.3884 0.7411 0.6243 0.016 Uiso calc 1
C C4 0.6627(8) 0.7697(4) 0.4866(5) 0.0132(8) Uani d 1
H H1H 0.938(9) 0.428(5) 0.509(8) 0.046(18) Uiso d 1
H H4N 0.645(9) 0.837(4) 0.265(5) 0.016(12) Uiso d 1
H H5N 0.431(7) 0.733(4) 0.276(6) 0.016(14) Uiso d 1
loop_
_atom_site_aniso_label
_atom_site_aniso_U_11
_atom_site_aniso_U_22
_atom_site_aniso_U_33
_atom_site_aniso_U_12
_atom_site_aniso_U_13
_atom_site_aniso_U_23
Br1 0.01205(18) 0.01658(19) 0.01513(18) 0.0006(2) 0.00197(12) -0.0034(2)
O1 0.0120(15) 0.0263(18) 0.0185(16) 0.0072(13) -0.0002(13) -0.0061(13)
O2 0.0148(14) 0.0238(17) 0.0159(15) 0.0046(13) 0.0003(12) -0.0062(13)
O3 0.0176(16) 0.0309(19) 0.0159(15) -0.0127(13) -0.0031(13) 0.0076(14)
O1W 0.015(2) 0.018(2) 0.025(2) -0.0018(17) 0.0022(16) 0.0001(17)
N1 0.013(2) 0.012(2) 0.012(2) 0.0026(18) 0.0035(17) -0.0018(17)
N2 0.0205(19) 0.0169(18) 0.0123(17) -0.0031(16) 0.0013(15) 0.0014(14)
C1 0.014(2) 0.0102(18) 0.0142(19) -0.0021(15) 0.0056(16) 0.0019(15)
C2 0.0072(18) 0.0129(19) 0.0124(18) -0.0021(15) 0.0020(15) -0.0005(15)
C3 0.0092(18) 0.014(2) 0.016(2) -0.0008(16) 0.0018(16) 0.0003(16)
C4 0.0135(19) 0.0099(19) 0.0158(19) 0.0025(16) 0.0024(16) 0.0017(15)
loop_
_atom_type_symbol
_atom_type_description
_atom_type_scat_dispersion_real
_atom_type_scat_dispersion_imag
_atom_type_scat_source
Br Br -0.2901 2.4595 'International Tables Vol C Tables 4.2.6.8 and 6.1.1.4'
O O 0.0106 0.0060 'International Tables Vol C Tables 4.2.6.8 and 6.1.1.4'
N N 0.0061 0.0033 'International Tables Vol C Tables 4.2.6.8 and 6.1.1.4'
C C 0.0033 0.0016 'International Tables Vol C Tables 4.2.6.8 and 6.1.1.4'
H H 0.0000 0.0000 'International Tables Vol C Tables 4.2.6.8 and 6.1.1.4'
loop_
_geom_angle_atom_site_label_1
_geom_angle_atom_site_label_2
_geom_angle_atom_site_label_3
_geom_angle
C1 O2 H1H 106(4)
H1W O1W H2W 93(5)
C2 N1 H1N 112(3)
C2 N1 H2N 118(3)
H1N N1 H2N 109(5)
C2 N1 H3N 115(4)
H1N N1 H3N 102(4)
H2N N1 H3N 98(5)
C4 N2 H4N 121(3)
C4 N2 H5N 118(3)
H4N N2 H5N 121(5)
O1 C1 O2 125.7(4)
O1 C1 C2 122.6(4)
O2 C1 C2 111.7(4)
N1 C2 C3 112.8(3)
N1 C2 C1 107.3(3)
C3 C2 C1 113.5(3)
N1 C2 H1 107.7
C3 C2 H1 107.7
C1 C2 H1 107.7
C4 C3 C2 113.0(3)
C4 C3 H2 109.0
C2 C3 H2 109.0
C4 C3 H3 109.0
C2 C3 H3 109.0
H2 C3 H3 107.8
O3 C4 N2 123.2(4)
O3 C4 C3 118.4(4)
N2 C4 C3 118.4(4)
loop_
_geom_bond_atom_site_label_1
_geom_bond_atom_site_label_2
_geom_bond_distance
O1 C1 1.207(5)
O2 C1 1.314(5)
O2 H1H 0.879(14)
O3 C4 1.252(5)
O1W H1W 0.875(14)
O1W H2W 0.879(14)
N1 C2 1.490(6)
N1 H1N 0.900(14)
N1 H2N 0.894(14)
N1 H3N 0.904(14)
N2 C4 1.326(5)
N2 H4N 0.898(14)
N2 H5N 0.897(14)
C1 C2 1.524(6)
C2 C3 1.515(6)
C2 H1 1.0000
C3 C4 1.504(6)
C3 H2 0.9900
C3 H3 0.9900
loop_
_geom_hbond_atom_site_label_D
_geom_hbond_atom_site_label_H
_geom_hbond_atom_site_label_A
_geom_hbond_site_symmetry_A
_geom_hbond_distance_DH
_geom_hbond_distance_HA
_geom_hbond_distance_DA
_geom_hbond_angle_DHA
O2 H1H O3 2_746 0.879(14) 1.68(2) 2.543(4) 167(6)
N1 H1N Br1 . 0.900(14) 2.46(2) 3.314(5) 159(4)
N1 H2N Br1 1_655 0.894(14) 2.59(3) 3.408(5) 153(4)
N1 H2N O3 . 0.894(14) 2.30(5) 2.787(6) 114(4)
N1 H3N O1W . 0.904(14) 1.986(16) 2.886(4) 173(5)
N2 H4N Br1 1_554 0.898(14) 2.95(4) 3.479(4) 119(4)
N2 H4N O1 2_756 0.898(14) 2.26(3) 3.081(5) 152(4)
N2 H5N O1W 1_454 0.897(14) 2.071(17) 2.959(6) 170(5)
O1W H1W Br1 2_747 0.875(14) 2.505(19) 3.362(4) 167(5)
O1W H2W Br1 2_647 0.879(14) 2.61(4) 3.323(4) 138(5)
loop_
_geom_torsion_atom_site_label_1
_geom_torsion_atom_site_label_2
_geom_torsion_atom_site_label_3
_geom_torsion_atom_site_label_4
_geom_torsion
O1 C1 C2 N1 20.2(5)
O2 C1 C2 N1 -161.4(4)
O1 C1 C2 C3 145.4(4)
O2 C1 C2 C3 -36.1(5)
N1 C2 C3 C4 66.7(5)
C1 C2 C3 C4 -55.6(5)
C2 C3 C4 O3 -35.7(5)
C2 C3 C4 N2 145.6(4)

_cod_database_fobs_code 2242681
