#------------------------------------------------------------------------------
#$Date: 2018-02-14 10:12:20 +0200 (Wed, 14 Feb 2018) $
#$Revision: 206435 $
#$URL: file:///home/coder/svn-repositories/cod/cif/2/24/23/2242387.cif $
#------------------------------------------------------------------------------
#
# This file is available in the Crystallography Open Database (COD),
# http://www.crystallography.net/. The original data for this entry
# were provided by IUCr Journals, http://journals.iucr.org/.
#
# The file may be used within the scientific community so long as
# proper attribution is given to the journal article from which the
# data were obtained.
#
data_2242387
loop_
_publ_author_name
'Noland, Wayland E.'
'Herzig, Ryan J.'
'Engwall, Abigail J.'
'Jensen, Renee C.'
'Tritch, Kenneth J.'
_publ_section_title
;
 Crystal structures of methyl 3,5-dibromo-4-cyanobenzoate and methyl
 3,5-dibromo-4-isocyanobenzoate
;
_journal_issue                   3
_journal_name_full               'Acta Crystallographica Section E'
_journal_page_first              345
_journal_page_last               348
_journal_paper_doi               10.1107/S2056989018002256
_journal_volume                  74
_journal_year                    2018
_chemical_formula_iupac          'C9 H5 Br2 N O2'
_chemical_formula_moiety         'C9 H5 Br2 N O2'
_chemical_formula_sum            'C9 H5 Br2 N O2'
_chemical_formula_weight         318.96
_chemical_melting_point          391
_chemical_name_common            RNC
_chemical_name_systematic        'Methyl 3,5-dibromo-4-isocyanobenzoate'
_space_group_crystal_system      monoclinic
_space_group_IT_number           14
_space_group_name_Hall           '-P 2yn'
_space_group_name_H-M_alt        'P 1 21/n 1'
_symmetry_space_group_name_Hall  '-P 2yn'
_symmetry_space_group_name_H-M   'P 1 21/n 1'
_atom_sites_solution_hydrogens   geom
_audit_creation_method           SHELXL-2014/6
_cell_angle_alpha                90
_cell_angle_beta                 90.002(3)
_cell_angle_gamma                90
_cell_formula_units_Z            4
_cell_length_a                   3.9233(9)
_cell_length_b                   13.554(3)
_cell_length_c                   18.672(4)
_cell_measurement_reflns_used    2953
_cell_measurement_temperature    173(2)
_cell_measurement_theta_max      27.39
_cell_measurement_theta_min      2.18
_cell_volume                     992.9(4)
_computing_cell_refinement
;
SAINT (Bruker, 2012)
;
_computing_data_collection
;
APEX2 (Bruker, 2012)
;
_computing_data_reduction
;
SAINT (Bruker, 2012)
;
_computing_molecular_graphics
;
Mercury (Macrae <i>et al.</i>, 2008)
;
_computing_publication_material
;
publCIF (Westrip, 2010)
;
_computing_structure_refinement
;
SHELXL2014 (Sheldrick, 2015b)
;
_computing_structure_solution
;
SHELXT2014 (Sheldrick 2015a)
;
_diffrn_ambient_temperature      173(2)
_diffrn_measured_fraction_theta_full 1.000
_diffrn_measured_fraction_theta_max 0.998
_diffrn_measurement_device_type  'Bruker APEXII CCD'
_diffrn_measurement_method       '\f and \w scans'
_diffrn_radiation_type           MoK\a
_diffrn_radiation_wavelength     0.71073
_diffrn_reflns_av_R_equivalents  0.0526
_diffrn_reflns_limit_h_max       5
_diffrn_reflns_limit_h_min       -5
_diffrn_reflns_limit_k_max       17
_diffrn_reflns_limit_k_min       -17
_diffrn_reflns_limit_l_max       24
_diffrn_reflns_limit_l_min       -24
_diffrn_reflns_number            11400
_diffrn_reflns_theta_full        25.242
_diffrn_reflns_theta_max         27.531
_diffrn_reflns_theta_min         1.090
_exptl_absorpt_coefficient_mu    8.134
_exptl_absorpt_correction_T_max  0.7456
_exptl_absorpt_correction_T_min  0.4176
_exptl_absorpt_correction_type   multi-scan
_exptl_absorpt_process_details
;
(SADABS; Sheldrick, 1996)
;
_exptl_crystal_colour            colourless
_exptl_crystal_density_diffrn    2.134
_exptl_crystal_description       Needle
_exptl_crystal_F_000             608
_exptl_crystal_size_max          0.500
_exptl_crystal_size_mid          0.120
_exptl_crystal_size_min          0.030
_refine_diff_density_max         0.849
_refine_diff_density_min         -0.653
_refine_ls_extinction_method     none
_refine_ls_goodness_of_fit_ref   1.024
_refine_ls_hydrogen_treatment    constr
_refine_ls_matrix_type           full
_refine_ls_number_parameters     129
_refine_ls_number_reflns         2277
_refine_ls_number_restraints     0
_refine_ls_restrained_S_all      1.024
_refine_ls_R_factor_all          0.0322
_refine_ls_R_factor_gt           0.0287
_refine_ls_shift/su_max          0.001
_refine_ls_shift/su_mean         0.000
_refine_ls_structure_factor_coef Fsqd
_refine_ls_weighting_details
'w=1/[\s^2^(Fo^2^)+(0.0385P)^2^] where P=(Fo^2^+2Fc^2^)/3'
_refine_ls_weighting_scheme      calc
_refine_ls_wR_factor_gt          0.0673
_refine_ls_wR_factor_ref         0.0689
_reflns_number_gt                2132
_reflns_number_total             2277
_reflns_threshold_expression     'I > 2\s(I)'
_cod_data_source_file            lh5870sup1.cif
_cod_data_source_block           RNC
_cod_database_code               2242387
_shelx_space_group_comment
;
The symmetry employed for this shelxl refinement is uniquely defined
by the following loop, which should always be used as a source of
symmetry information in preference to the above space-group names.
They are only intended as comments.
;
_shelx_estimated_absorpt_t_min   0.106
_shelx_estimated_absorpt_t_max   0.792
_shelx_hkl_file
;
  -1   0   0   -0.15    0.10
  -1   0   0    0.14    0.18
  -1   0   0    0.04    0.13
  -1   0   0    0.12    0.17
  -2   0   0  122.02    7.33
  -2   0   0  123.74    7.90
  -2   0   0  117.24    8.79
  -2   0   0  116.41    7.52
   3   0   0   -0.14    0.54
  -3   0   0    0.05    0.32
  -3   0   0   -0.15    0.43
  -3   0   0    0.10    0.59
  -4   0   0    2.01    0.79
   4   0   0    1.14    0.80
  -4   0   0    2.50    0.99
   0  -1   0   -0.04    0.03
   0  -1   0   -0.06    0.03
   0   1   0   -0.03    0.03
  -1  -1   0    1.79    0.26
  -1  -1   0    2.42    0.38
  -1  -1   0    1.91    0.30
  -1  -1   0    1.79    0.24
   1  -1   0    2.09    0.29
  -1   1   0    1.49    0.28
  -1   1   0    2.15    0.20
  -1   1   0    2.19    0.29
  -2  -1   0   73.83    4.92
  -2  -1   0   73.37    4.67
  -2  -1   0   71.85    5.39
   2  -1   0   73.03    4.86
  -2  -1   0   70.39    4.51
  -2   1   0   71.59    5.42
  -2   1   0   68.71    4.67
  -2   1   0   77.83    4.48
  -3  -1   0   79.90    5.09
  -3  -1   0   78.49    4.86
   3  -1   0   79.11    5.26
  -3  -1   0   79.95    5.32
  -3  -1   0   74.88    5.82
  -3   1   0   69.57    5.14
  -3   1   0   76.97    5.86
  -4  -1   0   24.38    2.27
  -4  -1   0   25.33    2.34
   4  -1   0   26.07    2.24
  -4   1   0   21.70    2.41
  -4   1   0   25.30    2.40
   4   1   0   25.20    2.27
   5   1   0    0.73    1.17
   0  -2   0   98.56    6.04
   0  -2   0   90.67    5.67
   0   2   0   96.73    5.70
   0   2   0   87.55    6.76
  -1  -2   0   16.81    1.28
   1  -2   0   17.17    1.19
  -1  -2   0   16.52    1.11
  -1  -2   0   17.45    1.26
   1   2   0   16.56    1.13
  -1   2   0   16.22    1.32
  -1   2   0   17.00    1.14
  -2  -2   0   70.74    4.50
  -2  -2   0   70.36    4.82
   2  -2   0   72.14    4.72
  -2  -2   0   69.75    4.40
  -2  -2   0   69.33    5.23
  -2   2   0   70.30    5.29
  -2   2   0   72.10    4.55
  -3  -2   0    0.72    0.58
   3  -2   0    1.12    0.56
  -3  -2   0    0.68    0.46
  -3  -2   0    0.56    0.40
  -3  -2   0    0.96    0.55
  -3   2   0    0.15    0.63
  -3   2   0    0.15    0.49
  -4  -2   0   36.07    3.02
   4  -2   0   34.16    2.82
  -4  -2   0   35.27    2.74
  -4   2   0   37.20    3.03
  -4   2   0   36.02    3.14
   4   2   0   33.71    2.91
   0  -3   0   -0.84    0.10
   0  -3   0   -0.96    0.11
   0   3   0   -0.93    0.10
   1  -3   0    1.00    0.24
  -1  -3   0    1.13    0.21
  -1  -3   0    1.17    0.29
  -1  -3   0    0.61    0.20
  -1   3   0    0.68    0.22
   1   3   0    0.79    0.22
  -1   3   0    1.17    0.23
  -2  -3   0   47.25    3.48
   2  -3   0   45.92    3.17
   2  -3   0   47.23    2.84
  -2  -3   0   42.75    3.31
  -2  -3   0   46.42    2.97
  -2   3   0   45.59    3.56
  -2   3   0   48.12    3.08
  -3  -3   0    3.26    0.79
  -3  -3   0    1.72    0.50
   3  -3   0    1.69    0.59
  -3  -3   0    1.78    0.57
  -3  -3   0    0.76    0.43
  -3   3   0    0.86    0.68
  -3   3   0    0.31    0.51
   4  -3   0    1.01    0.78
  -4  -3   0    2.33    0.94
  -4   3   0    2.07    0.86
  -4   3   0    1.16    1.08
   0  -4   0  306.26   19.40
   0  -4   0  288.68   18.23
   0   4   0  314.51   18.33
   0   4   0  299.37   21.76
  -1  -4   0    3.67    0.48
  -1  -4   0    3.53    0.41
   1  -4   0    3.63    0.41
   1   4   0    2.97    0.38
  -1   4   0    4.24    0.40
  -1   4   0    2.96    0.43
   2  -4   0   21.89    1.68
  -2  -4   0   21.33    1.88
  -2  -4   0   21.71    1.76
  -2  -4   0   22.22    1.58
   2   4   0   24.02    1.60
  -2   4   0   23.25    1.66
  -2   4   0   22.81    1.90
  -3  -4   0   22.15    2.01
   3  -4   0   21.22    1.72
  -3  -4   0   20.30    1.77
  -3  -4   0   19.76    1.58
   3   4   0   21.00    1.67
  -3   4   0   19.58    1.84
  -3   4   0   20.37    1.96
  -4  -4   0   19.46    1.65
   4  -4   0   16.67    1.82
  -4   4   0   21.11    2.15
  -4   4   0   15.05    2.20
   4   4   0   16.55    1.80
   0  -5   0    0.07    0.17
   0  -5   0   -0.31    0.12
   0   5   0   -0.02    0.11
   0   5   0   -0.16    0.15
  -1  -5   0   27.68    1.93
  -1  -5   0   26.79    1.78
   1  -5   0   29.38    1.89
  -1   5   0   27.99    1.80
   1   5   0   25.93    1.76
  -1   5   0   24.34    2.09
  -2  -5   0  200.41   14.28
   2  -5   0  226.93   14.13
  -2  -5   0  214.97   13.30
  -2   5   0  224.42   13.42
  -2   5   0  221.07   15.90
   2   5   0  217.05   13.34
  -3  -5   0    2.31    0.60
   3  -5   0    2.82    0.66
  -3  -5   0    1.72    0.87
  -3   5   0    2.27    0.70
   3   5   0    2.92    0.63
  -3   5   0    2.72    0.78
   4  -5   0   30.18    2.46
  -4  -5   0   29.86    2.30
  -4   5   0   24.98    2.80
  -4   5   0   30.61    2.86
   0  -6   0  762.75   48.07
   0  -6   0  787.50   51.15
   0   6   0  823.17   57.42
   0   6   0  818.47   48.31
   1  -6   0  238.51   15.25
  -1  -6   0  227.52   14.35
  -1  -6   0  242.02   15.29
  -1   6   0  238.22   14.43
   1   6   0  243.95   14.40
  -1   6   0  226.33   17.12
  -2  -6   0   90.61    6.28
   2  -6   0   93.42    6.10
  -2  -6   0   88.05    5.76
  -2   6   0   91.87    6.88
   2   6   0   94.31    5.76
  -2   6   0   92.20    5.83
  -3  -6   0    0.80    0.86
   3  -6   0    1.22    0.62
  -3  -6   0    0.72    0.54
  -3   6   0    1.65    0.73
   3   6   0    2.22    0.61
  -3   6   0    2.30    0.74
  -4  -6   0    0.00    0.64
   4  -6   0    0.15    0.85
  -4   6   0    0.73    0.87
  -4   6   0   -0.01    1.13
   0  -7   0   -0.15    0.26
   0  -7   0   -0.18    0.18
   0   7   0    0.13    0.24
  -1  -7   0   50.17    3.26
  -1  -7   0   51.65    3.49
   1  -7   0   49.53    3.43
  -1   7   0   50.30    3.85
  -1   7   0   52.66    3.28
   1   7   0   51.08    3.24
  -2  -7   0    3.50    0.59
   2  -7   0    3.44    0.62
  -2  -7   0    2.67    0.72
  -2   7   0    3.00    0.64
  -2   7   0    4.14    0.69
   2   7   0    3.60    0.63
   3  -7   0   64.53    4.42
  -3  -7   0   63.40    4.19
   3   7   0   61.49    4.15
  -3   7   0   60.93    4.35
  -3   7   0   65.82    5.03
   4  -7   0    4.52    1.03
  -4  -7   0    2.41    0.82
  -4   7   0    3.96    1.36
  -4   7   0    4.89    1.14
   0  -8   0    0.85    0.27
   0  -8   0    1.13    0.38
   0   8   0    0.66    0.31
   1  -8   0   88.07    5.82
  -1  -8   0   88.39    5.88
  -1  -8   0   85.06    5.51
   1   8   0   88.72    5.50
  -1   8   0   89.51    5.54
  -1   8   0   88.21    6.53
   2  -8   0    8.71    0.96
  -2  -8   0    7.81    1.17
  -2  -8   0    6.92    0.93
  -2   8   0    8.44    1.08
   2   8   0    7.67    0.88
  -2   8   0    9.40    0.97
   3  -8   0   12.69    1.42
  -3  -8   0    7.33    1.56
  -3  -8   0   12.23    1.32
  -3   8   0   12.23    1.53
   3   8   0   11.06    1.24
  -3   8   0   13.16    1.57
   4  -8   0   25.58    2.49
  -4  -8   0   28.16    2.39
  -4   8   0   26.94    2.95
  -4   8   0   33.60    2.99
   0  -9   0    0.14    0.25
   0  -9   0    0.00    0.38
   0   9   0    0.09    0.31
  -1  -9   0   13.37    1.19
  -1  -9   0   15.43    1.34
   1  -9   0   13.50    1.24
  -1   9   0   15.83    1.35
   1   9   0   15.24    1.18
  -1   9   0   14.44    1.18
  -2  -9   0    7.67    0.98
   2  -9   0    7.37    0.95
  -2  -9   0    7.78    1.20
   2   9   0    5.65    0.91
  -2   9   0    6.40    1.02
  -2   9   0    5.94    0.92
   3  -9   0    2.13    0.85
  -3  -9   0    2.05    0.72
  -3  -9   0    3.36    1.23
   3   9   0    2.82    0.77
  -3   9   0    3.89    0.98
  -3   9   0    4.42    0.95
   4  -9   0    0.90    0.97
  -4  -9   0    0.96    0.79
  -4   9   0   -0.87    1.08
  -4   9   0    0.67    0.98
   0 -10   0  118.53    7.14
   0 -10   0  111.86    7.61
   0  10   0  115.26    7.20
  -1 -10   0   -0.15    0.49
   1 -10   0   -0.30    0.41
  -1 -10   0   -0.30    0.34
  -1  10   0    0.31    0.37
   1  10   0   -0.13    0.38
  -1  10   0    0.45    0.36
  -2 -10   0   23.64    1.97
   2 -10   0   26.31    2.04
  -2 -10   0   23.99    2.26
   2  10   0   26.63    1.95
  -2  10   0   25.94    2.29
  -2  10   0   25.35    2.01
   3 -10   0   37.53    2.73
  -3 -10   0   24.37    3.10
  -3 -10   0   32.64    2.64
  -3  10   0   34.49    2.77
   3  10   0   34.39    2.54
  -3  10   0   35.74    3.10
   4 -10   0    3.86    1.11
  -4 -10   0    2.37    0.97
  -4  10   0    1.99    1.34
  -4  10   0    3.39    1.19
   0 -11   0    0.14    0.51
   0 -11   0   -0.38    0.33
   0  11   0    0.63    0.40
  -1 -11   0    8.38    0.98
   1 -11   0    8.27    1.03
  -1 -11   0    9.22    1.15
  -1  11   0    7.76    0.92
   1  11   0    8.88    0.95
  -2 -11   0   58.41    3.97
  -2 -11   0   53.86    4.33
   2 -11   0   61.65    4.16
  -2  11   0   55.17    3.99
   2  11   0   57.42    3.89
  -2  11   0   65.11    4.69
  -3 -11   0    3.12    1.36
   3 -11   0    4.57    1.02
  -3 -11   0    4.57    0.97
  -3  11   0    4.93    1.12
  -3  11   0    4.11    1.10
   3  11   0    4.81    0.96
   0 -12   0   24.14    2.02
   0 -12   0   24.23    1.80
   0  12   0   25.39    1.85
  -1 -12   0  118.26    7.26
  -1 -12   0  113.86    7.73
   1 -12   0  115.28    7.66
  -1  12   0  106.48    7.26
   1  12   0  120.37    7.26
  -2 -12   0    9.84    1.59
   2 -12   0    8.47    1.32
  -2 -12   0    9.73    1.28
   2  12   0   10.17    1.22
  -2  12   0    9.79    1.25
  -2  12   0   11.17    1.43
  -3 -12   0    4.22    0.98
   3 -12   0    4.06    1.02
  -3 -12   0    2.75    1.36
  -3  12   0    4.33    1.17
  -3  12   0    3.01    1.06
   3  12   0    2.63    0.88
   0 -13   0   -0.05    0.62
   0  13   0   -0.03    0.48
  -1 -13   0   32.88    2.44
   1 -13   0   32.95    2.55
  -1 -13   0   31.39    2.63
   1  13   0   34.87    2.42
  -1  13   0   30.71    2.39
   2 -13   0   18.48    1.85
  -2 -13   0   16.27    2.08
  -2 -13   0   20.02    1.85
   2  13   0   19.93    1.73
  -2  13   0   17.13    1.75
  -3 -13   0   32.96    2.64
  -3 -13   0   23.03    3.19
   3 -13   0   29.52    2.63
   3  13   0   29.79    2.39
  -3  13   0   31.03    2.72
   0 -14   0   26.00    2.20
   0  14   0   24.07    1.97
   1 -14   0    9.82    1.44
  -1 -14   0   11.49    1.56
  -1 -14   0   11.46    1.29
   1  14   0   12.59    1.36
  -1  14   0    9.79    1.24
   2 -14   0    2.31    0.92
  -2 -14   0    1.23    1.14
  -2 -14   0    0.35    0.71
   2  14   0    2.27    0.84
  -2  14   0    1.15    0.80
  -3 -14   0   12.05    2.28
  -3 -14   0   12.87    1.82
   3 -14   0   13.78    1.85
  -3  14   0   12.88    1.93
   3  14   0   13.55    1.72
   0 -15   0   -0.73    0.78
   0  15   0    0.31    0.58
  -1 -15   0    8.28    1.21
  -1 -15   0   10.65    1.62
   1 -15   0    7.14    1.19
  -1  15   0    9.08    1.22
   1  15   0    9.62    1.32
  -2 -15   0    0.11    1.15
  -2 -15   0   -0.57    0.64
   2 -15   0   -0.51    0.86
   2  15   0    1.75    0.89
  -2  15   0    0.80    0.78
   0 -16   0   20.56    2.13
   0  16   0   19.68    1.84
   1 -16   0    7.17    1.27
  -1 -16   0    5.00    1.25
   1  16   0    4.98    1.04
  -1  16   0    5.62    1.01
   2 -16   0    4.14    1.20
  -2 -16   0    4.81    1.53
   2  16   0    5.27    1.13
  -2  16   0    5.18    1.17
   0 -17   0    0.45    1.01
   0  17   0    0.12    0.68
  -1 -17   0   11.01    1.69
   1 -17   0    8.20    1.52
   1  17   0    8.02    1.31
  -1  17   0    9.75    1.42
   5   0  -1   13.56    2.27
  -4   0   1    0.62    0.94
   4   0  -1   -0.04    0.73
   3   0  -1   90.27    5.96
  -3   0   1   80.48    5.80
  -3   0   1   94.06    5.51
  -3   0   1   85.98    6.62
  -2   0   1   -0.06    0.25
  -2   0   1   -0.13    0.36
  -2   0   1    0.02    0.20
  -1   0   1   59.78    3.72
  -1   0   1   51.71    3.57
  -1   0   1   55.76    4.16
  -1   0   1   58.10    3.47
   0   0   1   -0.07    0.02
  -1   0  -1  104.43    6.73
  -1   0  -1  102.15    7.14
  -1   0  -1  106.64    7.96
  -1   0  -1  123.05    6.66
  -2   0  -1   -0.17    0.20
  -2   0  -1   -0.54    0.31
  -2   0  -1   -0.25    0.30
  -2   0  -1    0.12    0.27
   3   0   1   65.63    4.55
  -3   0  -1   65.26    4.39
  -3   0  -1   64.19    4.99
  -4   0  -1    0.08    0.69
   4   0   1    0.75    0.82
   5  -1  -1   17.43    2.58
   5   1  -1   20.70    2.55
   4  -1  -1    9.29    1.27
  -4  -1   1   12.42    1.60
  -4   1   1    9.84    1.45
  -4   1   1    8.13    1.52
  -3  -1   1   13.67    1.11
  -3  -1   1   13.68    1.41
   3  -1  -1   14.39    1.30
  -3  -1   1   12.33    1.33
  -3   1   1   13.70    1.07
  -3   1   1   12.69    1.38
  -3   1   1   12.97    1.49
  -2  -1   1   25.77    1.66
  -2  -1   1   23.42    1.82
  -2  -1   1   24.31    1.97
  -2  -1   1   25.42    1.85
   2  -1  -1   24.53    1.80
  -2   1   1   25.64    1.62
  -2   1   1   26.24    1.85
  -2   1   1   24.47    2.00
  -1  -1   1   26.97    2.04
  -1  -1   1   26.48    1.79
  -1  -1   1   26.53    1.71
  -1  -1   1   26.39    1.88
   1  -1  -1   28.32    1.83
  -1   1   1   27.22    1.78
  -1   1   1   26.05    2.05
  -1   1   1   27.36    1.68
   0  -1  -1  128.36    9.21
   0  -1   1  124.01    8.20
   0  -1  -1  143.87    8.21
   0  -1   1  121.08    7.71
   0   1   1  126.31    7.72
   0   1  -1  133.39    9.22
   0   1   1  120.47    7.75
   0   1  -1  125.89    7.75
  -1  -1  -1   25.39    1.65
  -1  -1  -1   26.80    1.63
  -1  -1  -1   25.28    1.92
   1  -1   1   24.95    1.77
  -1  -1  -1   22.59    1.81
   1  -1   1   26.63    1.59
  -1   1  -1   25.61    1.65
  -1   1  -1   24.95    1.95
  -2  -1  -1   16.29    1.37
   2  -1   1   15.85    1.31
  -2  -1  -1   17.72    1.28
  -2  -1  -1   16.94    1.37
  -2  -1  -1   15.37    1.14
  -2   1  -1   15.58    1.39
  -2   1  -1   15.17    1.29
   3  -1   1    6.90    0.69
  -3  -1  -1    6.33    0.98
  -3  -1  -1    8.26    1.08
  -3  -1  -1    8.44    1.03
   3  -1   1    6.57    1.07
  -3   1  -1    6.29    1.02
  -3   1  -1    7.67    1.20
  -4  -1  -1   18.33    1.91
   4  -1   1   19.60    1.92
   4   1   1   16.00    1.87
  -4   1  -1   14.16    2.11
  -4   1  -1   18.15    1.97
  -5   1  -1    9.16    1.83
   5  -2  -1    0.32    1.23
  -4  -2   1   22.68    2.07
   4  -2  -1   22.29    1.98
  -4   2   1   18.89    2.35
  -4   2   1   22.00    2.22
  -3  -2   1   17.66    1.59
   3  -2  -1   17.90    1.47
  -3  -2   1   18.15    1.36
  -3  -2   1   17.92    1.57
  -3  -2   1   16.95    1.58
  -3   2   1   16.57    1.65
  -3   2   1   14.14    1.63
  -2  -2   1   98.66    5.97
  -2  -2   1   96.65    6.45
  -2  -2   1   95.23    7.10
   2  -2  -1   96.82    6.36
  -2  -2   1   97.78    6.09
  -2   2   1   95.56    6.12
  -2   2   1  100.19    5.89
  -2   2   1   92.05    7.14
  -1  -2   1  564.43   34.35
  -1  -2   1  536.49   36.39
  -1  -2   1  575.19   34.17
   1  -2  -1  562.43   36.34
  -1   2   1  600.72   34.10
  -1   2   1  575.20   40.85
  -1   2   1  552.64   34.35
   0  -2  -1   14.96    1.24
   0  -2  -1   17.35    1.13
   0  -2   1   16.68    1.06
   0  -2   1   16.59    1.13
   0   2   1   17.52    1.07
   0   2  -1   16.93    1.25
   0   2  -1   16.14    1.07
  -1  -2  -1  949.19   68.53
  -1  -2  -1  911.39   61.09
   1  -2   1  944.00   57.32
  -1  -2  -1  967.88   57.36
   1  -2   1  942.66   61.03
  -1   2  -1 1000.00   57.63
   1   2   1  931.54   57.61
  -1   2  -1  973.89   68.58
  -2  -2  -1   94.29    6.97
  -2  -2  -1  104.53    6.42
   2  -2   1  107.96    6.34
   2  -2   1  106.54    6.88
  -2  -2  -1  101.60    7.64
  -2  -2  -1  109.60    6.50
  -2   2  -1  103.83    7.70
  -2   2  -1  103.44    6.55
  -3  -2  -1   35.56    2.82
   3  -2   1   36.63    2.65
  -3  -2  -1   35.73    2.77
  -3  -2  -1   34.84    2.35
  -3  -2  -1   35.48    2.50
  -3   2  -1   29.75    2.62
  -3   2  -1   34.18    2.88
  -4  -2  -1   11.66    1.48
   4  -2   1   12.15    1.61
  -4   2  -1   11.41    1.64
  -4   2  -1   10.67    1.78
   4   2   1   10.38    1.58
  -5   2  -1    0.55    0.99
   4  -3  -1    3.09    0.89
  -4  -3   1    4.63    0.78
  -4   3   1    4.28    0.99
  -4   3   1    4.03    1.24
   4   3  -1    3.20    0.95
  -3  -3   1   72.43    4.51
   3  -3  -1   70.15    4.79
  -3  -3   1   71.83    4.95
  -3  -3   1   68.85    4.62
  -3   3   1   70.66    4.79
  -3   3   1   68.51    5.40
  -2  -3   1    9.89    1.14
  -2  -3   1   11.64    1.03
   2  -3  -1   11.98    0.99
  -2  -3   1   12.49    0.95
  -2  -3   1   11.50    1.01
  -2   3   1   11.17    1.11
  -2   3   1   13.26    1.07
  -2   3   1   12.09    0.80
  -1  -3   1  331.55   20.65
   1  -3  -1  314.12   21.94
  -1  -3   1  374.30   22.01
  -1   3   1  327.98   24.68
  -1   3   1  348.12   20.77
   1   3  -1  341.77   20.75
   1   3  -1  354.55   24.61
   0  -3   1   34.55    2.25
   0  -3  -1   34.97    2.26
   0  -3  -1   35.91    2.13
   0  -3   1   33.72    2.12
   0  -3  -1   31.15    2.49
   0   3  -1   35.14    2.51
   0   3   1   34.69    2.13
  -1  -3  -1  174.58   12.73
  -1  -3  -1  178.22   10.71
  -1  -3  -1  172.14   11.45
  -1   3  -1  178.10   12.80
  -1   3  -1  185.51   10.77
   1   3   1  168.71   10.73
  -2  -3  -1    5.75    0.61
   2  -3   1    6.29    0.45
  -2  -3  -1    5.68    0.66
  -2  -3  -1    5.66    0.89
   2  -3   1    6.47    0.71
  -2   3  -1    5.84    0.72
  -2   3  -1    5.82    0.77
   2   3   1    6.28    0.63
  -3  -3  -1   74.90    4.69
  -3  -3  -1   73.42    5.55
  -3  -3  -1   68.14    5.19
   3  -3   1   73.45    5.04
  -3   3  -1   72.34    4.94
  -3   3  -1   77.94    5.68
   4  -3   1    7.76    1.42
  -4  -3  -1    6.49    1.17
  -4  -3  -1    7.46    1.33
   4   3   1    7.12    1.10
  -4   3  -1    7.99    1.50
  -4   3  -1    5.26    1.34
  -5   3  -1   17.42    2.37
   4  -4  -1   14.83    1.60
  -4  -4   1   14.79    1.46
  -4   4   1   13.19    1.81
  -4   4   1   13.73    2.11
   4   4  -1   13.40    1.61
  -3  -4   1   27.42    1.97
  -3  -4   1   25.77    2.26
   3  -4  -1   27.71    2.09
  -3   4   1   30.39    2.30
   3   4  -1   25.40    2.05
  -3   4   1   26.81    2.37
  -2  -4   1   85.89    5.20
  -2  -4   1   71.65    5.64
   2  -4  -1   84.69    5.50
  -2   4   1   81.20    6.20
  -2   4   1   82.64    5.29
   2   4  -1   91.15    5.27
  -1  -4   1  231.15   14.06
   1  -4  -1  222.69   14.02
  -1  -4   1  209.18   13.19
  -1   4   1  219.07   13.27
   1   4  -1  216.61   13.25
  -1   4   1  205.66   15.75
   0  -4   1  216.85   13.65
   0  -4  -1  196.69   15.29
   0  -4  -1  221.28   13.66
   0  -4  -1  215.82   12.83
   0  -4   1  204.10   12.82
   0   4   1  218.22   12.90
   0   4  -1  212.73   12.89
   0   4  -1  212.19   15.30
  -1  -4  -1  251.39   15.54
  -1  -4  -1  278.55   16.59
   1  -4   1  259.78   16.52
  -1   4  -1  270.96   15.62
   1   4   1  230.51   15.57
  -1   4  -1  248.38   18.56
  -2  -4  -1  135.52   10.06
  -2  -4  -1  143.47   11.01
   2  -4   1  158.43    9.91
  -2  -4  -1  148.82    9.29
  -2   4  -1  155.28   11.13
  -2   4  -1  161.93    9.41
   2   4   1  156.30    9.32
  -3  -4  -1   25.40    2.40
   3  -4   1   28.72    2.14
  -3  -4  -1   25.56    1.96
  -3  -4  -1   27.29    2.23
   3   4   1   27.11    1.97
  -3   4  -1   26.48    2.22
  -3   4  -1   26.72    2.40
  -4  -4  -1    6.67    1.37
   4  -4   1    7.44    1.32
  -4   4  -1    9.44    1.58
  -4   4  -1    6.27    1.37
   4  -5  -1    6.15    1.06
  -4  -5   1    5.91    0.96
  -4   5   1    6.62    1.47
  -4   5   1    6.30    1.20
   4   5  -1    4.53    1.02
   3  -5  -1    6.13    0.98
  -3  -5   1    5.93    0.89
  -3  -5   1    5.90    1.09
  -3   5   1    6.66    1.04
   3   5  -1    5.56    0.99
  -3   5   1    5.79    1.05
   2  -5  -1   26.40    1.86
  -2  -5   1   23.46    2.05
  -2  -5   1   24.76    1.78
   2   5  -1   25.45    1.95
  -2   5   1   24.60    2.10
  -2   5   1   25.01    1.84
   2   5  -1   26.91    1.81
  -1  -5   1   23.18    1.64
  -1  -5   1   21.47    1.52
   1  -5  -1   23.66    1.60
   1   5  -1   22.76    1.52
  -1   5   1   21.50    1.79
  -1   5   1   23.37    1.54
   0  -5  -1   52.44    3.25
   0  -5   1   51.15    3.25
   0  -5   1   53.90    3.46
   0  -5  -1   53.29    3.47
   0  -5  -1   50.07    3.82
   0   5   1   55.52    3.28
   0   5  -1   51.32    3.83
   0   5  -1   52.55    3.27
  -1  -5  -1   17.56    1.30
   1  -5   1   16.61    1.24
  -1  -5  -1   15.85    1.17
  -1   5  -1   16.70    1.17
   1   5   1   17.23    1.15
  -1   5  -1   15.91    1.37
   2  -5   1   15.37    1.25
  -2  -5  -1   14.88    1.48
  -2  -5  -1   15.11    1.18
  -2  -5  -1   14.70    1.24
  -2   5  -1   15.90    1.24
  -2   5  -1   15.10    1.42
   2   5   1   14.71    1.15
  -3  -5  -1    4.56    1.13
   3  -5   1    6.80    1.05
  -3  -5  -1    5.94    0.92
  -3   5  -1    5.79    1.11
  -3   5  -1    7.33    1.07
   3   5   1    6.03    0.86
   4  -5   1   10.39    1.53
  -4  -5  -1    9.36    1.64
  -4   5  -1    8.15    1.57
  -4   5  -1   11.15    1.75
   4  -6  -1   14.26    1.66
  -4  -6   1   14.35    1.58
  -4   6   1   13.70    2.03
  -4   6   1   15.93    1.94
   4   6  -1   10.86    1.49
  -3  -6   1   43.51    3.83
  -3  -6   1   47.21    3.37
   3  -6  -1   53.25    3.56
   3   6  -1   50.85    3.42
  -3   6   1   52.18    3.60
  -3   6   1   52.38    4.06
  -2  -6   1   18.53    1.48
   2  -6  -1   19.41    1.52
  -2  -6   1   18.59    1.72
   2   6  -1   19.37    1.47
  -2   6   1   18.87    1.72
  -2   6   1   22.24    1.54
   1  -6  -1   12.13    0.96
  -1  -6   1   12.01    1.03
  -1  -6   1   10.81    0.93
  -1   6   1   12.20    0.94
   1   6  -1   13.30    0.94
  -1   6   1   11.88    1.07
   0  -6   1   23.63    1.61
   0  -6  -1   21.87    1.72
   0  -6   1   21.79    1.50
   0  -6  -1   24.46    1.63
   0  -6  -1   22.09    1.51
   0   6   1   23.93    1.53
   0   6  -1   22.60    1.73
   0   6  -1   24.02    1.53
  -1  -6  -1   10.35    0.85
  -1  -6  -1   10.40    0.95
   1  -6   1    9.96    0.87
   1   6   1   10.46    0.81
  -1   6  -1   10.58    0.97
  -1   6  -1   11.38    0.85
  -2  -6  -1   11.58    1.25
   2  -6   1    9.99    0.98
  -2  -6  -1    9.26    0.93
  -2   6  -1    9.82    1.11
  -2   6  -1    9.86    0.99
   2   6   1    9.81    0.87
  -3  -6  -1   25.85    2.70
   3  -6   1   30.98    2.33
  -3  -6  -1   29.34    2.20
   3   6   1   29.12    2.12
  -3   6  -1   31.88    2.67
  -3   6  -1   28.08    2.35
  -4  -6  -1   11.37    1.87
   4  -6   1   11.09    1.57
  -4   6  -1   13.11    1.89
  -4   6  -1   11.56    2.02
   4  -7  -1   15.30    1.69
  -4  -7   1   13.07    1.63
   4   7  -1   12.68    1.52
  -4   7   1   16.16    1.99
  -4   7   1   12.95    2.07
   3  -7  -1   16.54    1.51
  -3  -7   1   11.19    1.79
  -3  -7   1   15.28    1.44
   3   7  -1   17.03    1.43
  -3   7   1   13.02    1.56
  -3   7   1   16.66    1.72
  -2  -7   1   14.42    1.56
  -2  -7   1   16.47    1.35
   2  -7  -1   17.62    1.39
   2   7  -1   16.61    1.32
  -2   7   1   16.06    1.35
  -2   7   1   17.15    1.56
  -1  -7   1   33.50    2.26
  -1  -7   1   34.94    2.42
   1  -7  -1   33.59    2.35
   1   7  -1   36.24    2.25
  -1   7   1   32.95    2.26
  -1   7   1   33.25    2.11
  -1   7   1   33.88    2.64
   0  -7   1  102.87    6.63
   0  -7  -1  101.13    6.23
   0  -7  -1  102.11    6.64
   0  -7  -1   93.71    7.35
   0  -7   1   96.41    6.22
   0   7   1  108.29    6.29
   0   7  -1  103.80    6.28
   0   7  -1  103.69    7.37
   1  -7   1   20.34    1.19
  -1  -7  -1   17.71    1.32
   1  -7   1   17.83    1.38
  -1  -7  -1   17.08    1.44
  -1   7  -1   18.78    1.33
  -1   7  -1   18.24    1.53
   1   7   1   16.31    1.27
   2  -7   1   14.08    1.21
  -2  -7  -1   13.69    1.44
  -2  -7  -1   12.44    1.15
   2   7   1   12.12    1.08
  -2   7  -1   14.14    1.38
  -2   7  -1   13.66    1.19
  -3  -7  -1   13.19    1.35
   3  -7   1   15.76    1.46
  -3  -7  -1   12.37    1.94
   3   7   1   12.75    1.23
  -3   7  -1   13.79    1.66
  -3   7  -1   15.35    1.56
   4  -7   1   11.49    1.62
  -4  -7  -1   10.67    2.01
  -4   7  -1   15.26    1.99
  -4   7  -1   12.26    1.86
  -4  -8   1    6.75    1.16
   4  -8  -1    9.01    1.62
   4   8  -1    8.27    1.24
  -4   8   1    7.92    1.61
  -3  -8   1   23.05    2.69
  -3  -8   1   29.91    2.30
   3  -8  -1   32.10    2.39
  -3   8   1   31.01    2.46
  -3   8   1   31.16    2.72
   3   8  -1   29.98    2.27
   2  -8  -1   27.16    1.85
  -2  -8   1   22.24    1.77
  -2  -8   1   24.41    2.05
  -2   8   1   21.68    1.78
   2   8  -1   21.98    1.73
  -2   8   1   22.46    2.04
  -1  -8   1  139.96    9.41
  -1  -8   1  144.07    8.86
   1  -8  -1  145.66    9.38
  -1   8   1  137.62    8.71
  -1   8   1  142.67    8.90
   1   8  -1  143.16    8.86
  -1   8   1  152.38   10.53
   0  -8   1   61.92    3.92
   0  -8  -1   62.72    3.92
   0  -8  -1   61.21    4.18
   0  -8   1   60.98    4.18
   0   8  -1   65.45    4.60
   0   8   1   61.81    3.95
   0   8  -1   62.60    3.96
   1  -8   1  273.05   15.55
  -1  -8  -1  239.60   15.65
   1  -8   1  258.07   16.64
  -1  -8  -1  260.71   16.69
  -1   8  -1  255.91   15.74
  -1   8  -1  255.61   18.68
   1   8   1  255.55   15.69
   2  -8   1   20.04    1.57
  -2  -8  -1   17.30    1.48
  -2  -8  -1   17.50    1.80
  -2   8  -1   19.47    1.77
  -2   8  -1   19.80    1.56
   2   8   1   17.60    1.41
  -3  -8  -1   44.20    3.08
   3  -8   1   46.01    3.25
  -3  -8  -1   35.59    3.58
  -3   8  -1   42.79    3.24
  -3   8  -1   44.85    3.68
   3   8   1   43.37    2.98
   4  -8   1    7.11    1.25
  -4   8  -1   10.56    1.82
  -4   8  -1    5.66    1.56
   4  -9  -1    6.19    1.25
  -4  -9   1    8.97    1.49
  -4   9   1    4.61    1.39
  -3  -9   1   16.78    1.64
   3  -9  -1   17.14    1.66
  -3  -9   1   11.65    2.06
  -3   9   1   18.43    1.94
   3   9  -1   17.91    1.63
  -3   9   1   16.91    1.78
  -2  -9   1   57.31    3.79
  -2  -9   1   56.52    4.13
   2  -9  -1   56.69    3.94
  -2   9   1   57.70    4.45
   2   9  -1   58.77    3.75
  -2   9   1   53.99    3.81
   1  -9  -1   56.57    3.80
  -1  -9   1   55.12    3.61
  -1  -9   1   54.64    3.84
   1   9  -1   54.22    3.58
  -1   9   1   53.36    3.61
  -1   9   1   59.49    4.24
   0  -9   1   63.55    3.95
   0  -9  -1   61.67    4.23
   0  -9  -1   66.64    3.96
   0  -9   1   60.14    4.22
   0   9   1   60.78    3.98
   0   9  -1   62.18    3.99
   1  -9   1   27.43    2.06
  -1  -9  -1   26.36    1.96
  -1  -9  -1   24.84    2.12
  -1   9  -1   30.77    2.00
   1   9   1   29.76    1.95
  -1   9  -1   29.23    2.29
  -2  -9  -1   34.10    2.61
   2  -9   1   37.17    2.74
  -2  -9  -1   37.76    2.97
  -2   9  -1   38.92    3.11
   2   9   1   38.38    2.58
  -2   9  -1   39.26    2.69
  -3  -9  -1   18.61    1.61
  -3  -9  -1   13.78    2.13
   3  -9   1   15.32    1.68
  -3   9  -1   17.44    1.78
  -3   9  -1   16.52    1.91
   3   9   1   14.56    1.47
   4  -9   1   12.20    1.99
  -4   9  -1   13.26    2.30
  -4   9  -1   16.25    2.20
  -4 -10   1    1.96    0.94
   4 -10  -1    4.05    1.14
  -4  10   1    2.24    1.31
   3 -10  -1    7.32    1.25
  -3 -10   1    7.50    1.25
  -3 -10   1    5.20    1.37
  -3  10   1    7.45    1.22
   3  10  -1    5.52    0.99
  -3  10   1    8.18    1.45
  -2 -10   1   42.26    3.37
  -2 -10   1   43.42    3.05
   2 -10  -1   42.01    3.14
   2  10  -1   40.91    2.97
  -2  10   1   48.54    3.57
  -2  10   1   44.22    3.07
  -1 -10   1    4.78    0.81
  -1 -10   1    7.30    0.96
   1 -10  -1    6.13    0.86
   1  10  -1    6.62    0.81
  -1  10   1    6.81    0.79
   0 -10   1  171.12   10.02
   0 -10   1  158.63   10.66
   0 -10  -1  166.29   10.01
   0 -10  -1  161.84   10.67
   0  10   1  158.92   10.07
   0  10  -1  161.39   10.08
   1 -10   1    3.59    0.62
  -1 -10  -1    2.61    0.55
  -1 -10  -1    3.57    0.71
  -1  10  -1    3.77    0.66
   1  10   1    4.12    0.65
  -1  10  -1    3.52    0.69
  -2 -10  -1   87.85    6.10
   2 -10   1   92.40    5.89
  -2 -10  -1   83.35    5.57
  -2  10  -1   86.87    6.62
  -2  10  -1   82.56    5.63
   2  10   1   86.53    5.51
  -3 -10  -1    6.89    1.19
   3 -10   1    7.09    1.27
  -3 -10  -1    5.72    1.48
  -3  10  -1    6.52    1.25
  -3  10  -1    6.98    1.23
   3  10   1    5.84    1.04
   4 -10   1    3.50    1.20
  -4  10  -1    2.63    1.39
  -4  10  -1    2.72    1.18
  -3 -11   1    9.48    1.38
  -3 -11   1    6.14    1.51
   3 -11  -1    7.05    1.16
   3  11  -1    6.18    1.09
  -3  11   1    6.69    1.24
  -2 -11   1    7.86    1.18
   2 -11  -1    7.00    1.15
  -2 -11   1    8.54    1.30
  -2  11   1    7.09    1.11
   2  11  -1    8.49    1.10
  -1 -11   1   35.68    2.40
   1 -11  -1   33.91    2.50
  -1 -11   1   34.14    2.58
  -1  11   1   31.29    2.37
   1  11  -1   33.73    2.34
   0 -11   1    3.59    0.67
   0 -11  -1    1.75    0.44
   0 -11  -1    2.96    0.68
   0 -11   1    2.57    0.49
   0  11   1    3.00    0.55
   0  11  -1    2.82    0.57
  -1 -11  -1   18.08    1.50
  -1 -11  -1   18.75    1.68
   1 -11   1   19.23    1.58
  -1  11  -1   18.06    1.49
   1  11   1   18.06    1.46
   2 -11   1    5.47    0.95
  -2 -11  -1    7.79    1.29
  -2 -11  -1    4.93    0.87
   2  11   1    7.66    0.96
  -2  11  -1    5.92    0.96
  -2  11  -1    6.62    1.16
  -3 -11  -1   13.09    1.55
  -3 -11  -1   12.53    2.28
   3 -11   1   14.28    1.63
  -3  11  -1   14.09    1.78
  -3  11  -1   12.37    1.84
   3  11   1   13.72    1.49
   3 -12  -1    0.42    0.88
  -3 -12   1    0.98    0.82
  -3 -12   1    1.35    1.21
  -3  12   1    0.01    0.88
   3  12  -1    1.13    0.86
   2 -12  -1   58.61    3.93
  -2 -12   1   47.80    4.11
  -2 -12   1   51.48    3.74
   2  12  -1   58.42    3.70
  -2  12   1   53.09    3.78
  -1 -12   1    4.56    0.73
  -1 -12   1    3.21    0.83
   1 -12  -1    4.10    0.78
  -1  12   1    3.91    0.70
   1  12  -1    3.34    0.72
   0 -12   1    0.56    0.41
   0 -12   1    0.70    0.61
   0 -12  -1    0.89    0.62
   0  12   1    0.45    0.46
   0  12  -1    0.48    0.46
  -1 -12  -1    0.70    0.69
  -1 -12  -1    1.44    0.54
   1 -12   1    1.72    0.65
   1  12   1    2.21    0.59
  -1  12  -1    1.87    0.56
   2 -12   1   24.59    2.17
  -2 -12  -1   24.82    2.49
  -2 -12  -1   24.69    2.12
  -2  12  -1   30.55    2.51
  -2  12  -1   27.78    2.19
   2  12   1   28.24    2.08
  -3 -12  -1    0.67    0.74
  -3 -12  -1    1.12    1.32
   3 -12   1    0.07    0.89
   3  12   1    0.71    0.77
  -3  12  -1    0.30    0.90
  -3  12  -1    1.23    0.95
  -3 -13   1   10.87    1.71
   3 -13  -1    9.25    1.86
   3 -13  -1    9.52    1.61
   3  13  -1    6.50    1.21
  -3  13   1   11.37    1.70
   2 -13  -1    0.73    0.77
  -2 -13   1   -0.55    0.92
  -2 -13   1   -0.59    0.59
   2  13  -1    0.80    0.77
  -2  13   1    0.50    0.72
   1 -13  -1   19.72    1.82
  -1 -13   1   20.92    1.91
  -1 -13   1   20.06    1.72
  -1  13   1   16.94    1.64
   1  13  -1   21.54    1.70
   0 -13   1    0.72    0.67
   0 -13  -1    0.51    0.68
   0  13   1    0.68    0.51
   0  13  -1    1.05    0.56
  -1 -13  -1    9.02    1.14
   1 -13   1   11.14    1.27
  -1 -13  -1   10.53    1.42
   1  13   1   12.63    1.23
  -1  13  -1    8.63    1.14
  -2 -13  -1    1.13    0.99
   2 -13   1    1.03    0.79
  -2 -13  -1    0.51    0.62
  -2  13  -1    0.43    0.65
   2  13   1    0.08    0.68
  -3 -13  -1   13.53    2.50
   3 -13   1   10.35    1.67
   3  13   1   11.07    1.54
  -3  13  -1   14.46    2.01
  -3  13  -1   12.10    1.83
  -3 -14   1   15.33    1.90
   3 -14  -1   15.93    1.95
  -3  14   1   12.89    1.94
   3  14  -1   11.20    1.65
  -2 -14   1   12.11    1.59
   2 -14  -1   13.29    1.65
  -2 -14   1   11.22    1.96
  -2  14   1   13.09    1.59
   2  14  -1   13.92    1.63
  -1 -14   1   17.22    1.61
  -1 -14   1   15.88    1.80
   1 -14  -1   16.23    1.72
   1  14  -1   16.44    1.61
  -1  14   1   17.38    1.58
   0 -14  -1   37.45    3.02
   0 -14   1   41.31    3.04
   0  14   1   39.68    2.80
   0  14  -1   37.63    2.77
   1 -14   1   27.58    2.29
  -1 -14  -1   24.40    2.39
  -1  14  -1   26.49    2.15
   1  14   1   29.61    2.18
   2 -14   1   23.27    2.22
  -2 -14  -1   23.51    2.54
  -2  14  -1   24.29    2.14
   2  14   1   25.39    2.06
  -3 -14  -1    6.69    1.92
   3 -14   1   10.36    1.76
   3  14   1   11.62    1.46
  -3  14  -1    9.71    1.61
  -2 -15   1   31.09    3.08
  -2 -15   1   29.28    2.49
   2 -15  -1   30.19    2.59
  -2  15   1   29.57    2.56
   2  15  -1   29.07    2.49
  -1 -15   1    1.56    0.97
   1 -15  -1    3.07    0.93
  -1 -15   1    1.20    0.69
   1  15  -1    1.19    0.79
  -1  15   1    1.08    0.64
   0 -15   1   35.70    2.82
   0 -15  -1   33.64    2.80
   0  15   1   33.49    2.56
   0  15  -1   33.03    2.56
  -1 -15  -1    2.94    1.05
   1 -15   1    2.99    0.88
  -1  15  -1    1.45    0.69
   1  15   1    1.72    0.78
  -2 -15  -1   14.23    2.36
   2 -15   1   20.92    2.12
  -2  15  -1   21.44    2.04
   2  15   1   23.57    2.05
   2 -16  -1   11.48    1.75
  -2 -16   1    8.84    1.84
  -2 -16   1    9.53    1.50
  -2  16   1   11.90    1.72
   2  16  -1   10.99    1.67
  -1 -16   1    5.90    1.33
   1 -16  -1    8.60    1.39
   1  16  -1    8.97    1.42
  -1  16   1    7.50    1.33
   0 -16  -1   34.66    2.88
   0 -16   1   32.84    2.86
   0  16  -1   32.18    2.62
   0  16   1   33.39    2.58
  -1 -16  -1   11.08    1.87
   1 -16   1   12.00    1.74
  -1  16  -1   14.12    1.50
   1  16   1   12.19    1.53
  -2 -16  -1   22.88    2.65
   2 -16   1   19.82    2.22
  -2  16  -1   20.94    2.11
   2  16   1   20.36    2.04
   2  16   1   20.41    2.10
   1 -17  -1   10.97    1.62
  -1 -17   1    8.88    1.68
  -1  17   1    8.78    1.49
   1  17  -1    9.80    1.54
   0 -17   1    8.96    1.47
   0 -17  -1    6.49    1.41
   0  17   1    8.02    1.30
   0  17  -1    7.31    1.20
  -1 -17  -1    8.01    1.54
   1 -17   1    5.82    1.32
  -1  17  -1    6.20    1.14
   1  17   1    5.05    1.07
   5   0  -2    0.58    1.19
  -4   0   2   17.57    2.02
  -3   0   2    0.03    0.34
   3   0  -2    0.03    0.46
  -3   0   2   -0.55    0.39
  -3   0   2   -0.56    0.58
  -2   0   2  137.01    9.16
  -2   0   2  143.28   10.71
  -2   0   2  151.97    8.94
   2   0  -2  152.79    9.55
  -1   0   2    0.21    0.21
   1   0  -2    0.02    0.13
   1   0  -2    0.21    0.13
  -1   0   2    0.02    0.11
   0   0  -2   54.11    3.29
   0   0   2   44.78    3.10
   0   0   2   53.09    3.10
  -1   0  -2   -0.10    0.13
   1   0   2   -0.05    0.10
  -1   0  -2    0.03    0.15
  -1   0  -2   -0.08    0.22
  -2   0  -2  217.68   14.29
   2   0   2  243.34   14.12
  -2   0  -2  224.82   15.16
  -2   0  -2  243.93   16.94
  -3   0  -2   -0.29    0.45
   3   0   2   -0.20    0.30
  -3   0  -2    0.24    0.57
   3   0   2    0.58    0.61
  -4   0  -2   43.79    3.58
   4   0   2   39.21    3.34
  -5   0  -2    0.89    0.99
   5  -1  -2    9.37    1.88
   5   1  -2   15.73    2.24
  -4  -1   2   13.61    1.80
  -4   1   2   10.32    1.84
   4   1  -2   16.88    1.83
   3  -1  -2    6.70    0.88
  -3  -1   2    5.95    0.76
  -3  -1   2    6.18    1.03
  -3   1   2    5.48    0.92
  -3   1   2    7.19    1.11
  -3   1   2    6.97    0.70
   3   1  -2    6.18    0.93
   2  -1  -2   68.69    4.54
  -2  -1   2   67.57    4.58
  -2  -1   2   66.89    4.45
  -2  -1   2   67.31    4.26
  -2   1   2   70.57    4.47
  -2   1   2   70.33    4.23
  -2   1   2   68.08    5.11
  -1  -1   2  183.69   10.40
  -1  -1   2  162.65   10.52
   1  -1  -2  156.93   11.03
  -1  -1   2  171.99   11.07
  -1   1   2  181.19   10.36
   1   1  -2  176.23   12.41
  -1   1   2  166.56   10.50
   0  -1   2   38.98    2.51
   0  -1  -2   45.36    3.00
   0  -1  -2   40.54    2.67
   0  -1   2   37.79    2.66
   0   1  -2   44.56    3.00
   0   1   2   39.92    2.51
   0   1  -2   38.41    2.51
   0   1   2   38.37    2.51
   1  -1   2  322.10   20.53
  -1  -1  -2  270.37   20.55
   1  -1   2  323.04   19.21
  -1  -1  -2  332.58   23.00
  -1  -1  -2  308.70   19.32
  -1   1  -2  335.30   19.34
  -1   1  -2  329.54   23.02
   1   1   2  325.47   19.24
  -2  -1  -2   54.43    3.37
   2  -1   2   52.81    3.23
  -2  -1  -2   51.49    3.93
   2  -1   2   54.49    3.61
  -2  -1  -2   51.92    3.66
  -2   1  -2   52.70    3.96
  -2   1  -2   46.01    3.38
   3  -1   2    7.99    0.74
  -3  -1  -2    8.43    1.03
  -3  -1  -2    6.58    1.03
   3  -1   2    8.46    1.18
  -3  -1  -2    8.76    1.19
  -3   1  -2    6.74    1.09
  -3   1  -2    7.64    1.11
   3   1   2    9.50    0.84
   4  -1   2   12.81    1.77
  -4  -1  -2   14.15    1.71
   4   1   2   12.99    1.75
  -4   1  -2   14.47    1.77
  -5  -1  -2   13.71    1.99
  -5   1  -2    9.84    1.94
   5  -2  -2    0.74    1.26
  -4  -2   2    2.24    1.01
  -4   2   2    2.66    1.19
   4   2  -2    3.35    0.94
  -3  -2   2   37.03    2.89
   3  -2  -2   41.83    2.85
  -3  -2   2   39.14    2.91
  -3  -2   2   41.56    2.69
  -3   2   2   39.63    3.21
  -3   2   2   38.51    2.98
  -2  -2   2  190.44   11.96
   2  -2  -2  190.73   12.54
  -2  -2   2  196.18   12.62
  -2  -2   2  196.12   11.80
  -2   2   2  198.96   11.99
  -2   2   2  196.64   11.73
  -2   2   2  186.91   14.10
   1  -2  -2  139.93    9.31
  -1  -2   2  141.65    8.87
  -1  -2   2  138.14    9.36
  -1  -2   2  152.92    8.80
   1   2  -2  145.45   10.46
  -1   2   2  142.16    8.86
  -1   2   2  147.05    8.73
  -1   2   2  148.80   10.50
   0  -2   2   41.54    2.68
   0  -2  -2   44.98    3.19
   0  -2  -2   46.68    2.86
   0  -2   2   39.26    2.84
   0   2  -2   43.46    2.69
   0   2   2   44.94    2.69
   0   2  -2   45.26    3.19
   0   2   2   42.92    2.68
   1  -2   2  275.93   18.24
   1  -2   2  284.42   17.08
  -1  -2  -2  274.92   18.30
  -1  -2  -2  289.49   20.44
  -1   2  -2  283.62   20.48
   1   2   2  276.13   17.17
  -1   2  -2  297.80   17.20
  -2  -2  -2  159.73   11.67
  -2  -2  -2  163.34    9.78
   2  -2   2  161.18    9.70
  -2  -2  -2  148.49   10.57
   2  -2   2  166.96   10.48
  -2  -2  -2  159.51    9.83
  -2   2  -2  165.56   11.73
  -2   2  -2  154.18    9.90
   3  -2   2   52.15    3.67
  -3  -2  -2   47.19    3.77
  -3  -2  -2   49.18    3.97
  -3  -2  -2   51.31    3.40
   3   2   2   56.98    3.35
  -3   2  -2   45.77    3.56
  -3   2  -2   52.76    4.06
   4  -2   2    2.35    0.96
  -4  -2  -2    2.96    0.83
  -4   2  -2    2.68    0.91
  -5   2  -2    0.88    1.04
  -4  -3   2   65.57    4.29
  -4  -3   2   65.03    4.53
   4   3  -2   67.40    5.16
  -4   3   2   59.29    4.75
   3  -3  -2    3.20    0.67
  -3  -3   2    4.88    0.82
  -3  -3   2    4.16    0.79
  -3  -3   2    3.73    0.63
   3   3  -2    4.31    0.83
  -3   3   2    3.65    0.89
  -3   3   2    2.96    0.68
   2  -3  -2    6.37    0.67
  -2  -3   2    7.17    0.67
  -2  -3   2    6.00    0.73
  -2  -3   2    6.58    0.85
  -2   3   2    7.22    0.78
  -2   3   2    5.78    0.75
   2   3  -2    6.41    0.70
  -2   3   2    6.52    0.50
  -1  -3   2    5.10    0.50
  -1  -3   2    4.96    0.46
   1  -3  -2    4.06    0.44
   1   3  -2    5.09    0.44
  -1   3   2    4.97    0.53
  -1   3   2    5.12    0.46
   1   3  -2    5.00    0.52
   0  -3  -2   83.41    5.12
   0  -3   2   79.12    4.80
   0  -3  -2   75.35    5.70
   0  -3   2   78.46    5.10
   0   3  -2   79.04    5.71
   0   3   2   76.74    4.80
   0   3  -2   79.48    4.82
   0   3   2   78.80    4.82
   1  -3   2   10.32    0.65
  -1  -3  -2   10.78    0.88
  -1  -3  -2    9.44    0.73
  -1  -3  -2   10.02    0.79
   1  -3   2   10.13    0.79
   1   3   2    8.10    0.67
  -1   3  -2   10.97    0.73
  -1   3  -2    9.69    0.87
  -2  -3  -2    3.43    0.49
   2  -3   2    3.46    0.57
  -2  -3  -2    3.21    0.52
   2  -3   2    3.09    0.31
  -2  -3  -2    2.73    0.67
   2   3   2    2.93    0.45
  -2   3  -2    3.08    0.62
  -2   3  -2    3.11    0.52
  -3  -3  -2    4.07    0.82
  -3  -3  -2    3.49    0.93
   3  -3   2    3.16    0.76
   3   3   2    3.80    0.63
  -3   3  -2    3.55    0.83
  -3   3  -2    4.18    0.80
   4  -3   2   33.74    2.89
  -4  -3  -2   33.12    2.97
  -4  -3  -2   34.81    3.05
  -4   3  -2   36.85    3.18
   4   3   2   34.33    2.54
  -5   3  -2    2.93    1.23
  -4  -4   2    3.43    0.78
   4   4  -2    3.38    1.00
  -4   4   2    3.16    1.26
   3  -4  -2   61.91    4.11
  -3  -4   2   56.16    4.24
  -3  -4   2   60.56    3.90
  -3   4   2   61.24    4.14
   3   4  -2   63.43    4.56
   3   4  -2   57.61    3.98
  -3   4   2   55.07    4.62
  -2  -4   2   74.61    4.60
   2  -4  -2   75.31    4.85
  -2  -4   2   63.57    4.97
   2   4  -2   76.57    4.67
   2   4  -2   73.52    5.38
  -2   4   2   72.37    5.47
  -2   4   2   73.63    4.69
  -1  -4   2  189.12   11.46
   1  -4  -2  176.38   11.42
  -1  -4   2  171.82   10.77
   1   4  -2  190.34   12.77
  -1   4   2  170.67   10.83
  -1   4   2  166.23   12.84
   1   4  -2  172.83   10.82
   0  -4  -2  248.27   19.52
   0  -4   2  271.11   17.42
   0  -4   2  260.73   16.37
   0  -4  -2  289.54   17.44
   0   4   2  268.20   16.37
   0   4  -2  279.41   19.55
   0   4  -2  274.74   16.45
   0   4   2  273.85   16.46
   1  -4   2   85.58    5.14
  -1  -4  -2   85.09    5.63
  -1  -4  -2   90.66    5.25
   1   4   2   71.27    5.20
  -1   4  -2   90.19    5.26
  -1   4  -2   87.47    6.26
   2  -4   2  115.65    7.38
  -2  -4  -2  107.60    7.55
  -2  -4  -2  108.38    6.90
  -2  -4  -2  108.32    8.15
   2   4   2  104.91    6.88
  -2   4  -2  125.03    7.01
  -2   4  -2  112.53    8.28
  -3  -4  -2   50.38    3.87
   3  -4   2   51.07    3.60
  -3  -4  -2   46.26    3.82
  -3   4  -2   47.48    3.53
  -3   4  -2   51.51    4.04
   3   4   2   51.46    3.29
   4  -4   2    8.79    1.43
  -4  -4  -2    5.19    1.41
   4   4   2    7.12    1.03
  -4   4  -2    7.04    1.29
  -4  -5   2    7.26    1.21
   4  -5  -2    8.41    1.24
   4   5  -2    6.53    1.16
  -4   5   2    5.19    1.47
   3  -5  -2   22.63    1.74
  -3  -5   2   23.61    2.04
  -3  -5   2   20.82    1.72
  -3   5   2   21.48    1.93
   3   5  -2   21.08    1.78
  -3   5   2   19.37    1.97
   2  -5  -2   42.93    2.88
  -2  -5   2   42.84    2.77
  -2  -5   2   35.65    3.01
  -2   5   2   41.86    3.26
   2   5  -2   41.77    2.79
   2   5  -2   42.37    3.12
  -2   5   2   43.95    2.84
  -1  -5   2   15.63    1.14
   1  -5  -2   14.69    1.17
  -1  -5   2   17.14    1.23
  -1   5   2   16.42    1.15
  -1   5   2   16.36    1.33
   1   5  -2   16.29    1.16
   0  -5   2  245.23   15.12
   0  -5  -2  260.57   16.10
   0  -5  -2  226.04   18.00
   0  -5   2  259.27   16.09
   0   5   2  254.99   15.20
   0   5  -2  257.83   18.03
   0   5   2  242.32   15.11
   0   5  -2  253.79   15.19
   1  -5   2   15.84    1.18
  -1  -5  -2   16.26    1.26
   1  -5   2   15.83    0.99
  -1   5  -2   16.94    1.11
  -1   5  -2   15.15    1.31
   1   5   2   13.93    1.06
   2  -5   2   40.27    2.75
  -2  -5  -2   37.95    2.93
  -2  -5  -2   39.24    2.58
  -2  -5  -2   39.49    2.98
  -2   5  -2   39.54    3.10
   2   5   2   35.58    2.51
  -2   5  -2   41.76    2.64
  -3  -5  -2    8.29    1.06
   3  -5   2    9.24    1.20
  -3  -5  -2    9.65    1.58
   3   5   2   10.29    1.01
  -3   5  -2   12.70    1.41
  -3   5  -2   11.11    1.36
   4  -5   2   13.49    1.79
  -4  -5  -2   11.36    1.93
  -4   5  -2   15.12    1.99
   4   5   2   16.63    1.57
  -4  -6   2   11.58    1.35
   4  -6  -2    6.14    1.10
   4   6  -2    6.24    1.15
  -4   6   2    6.97    1.52
  -3  -6   2   15.33    1.92
   3  -6  -2   18.31    1.65
  -3  -6   2   20.22    1.65
  -3   6   2   21.02    1.86
   3   6  -2   21.55    1.70
  -3   6   2   21.27    1.95
  -2  -6   2   74.65    4.56
   2  -6  -2   78.12    4.79
  -2  -6   2   64.42    4.91
   2   6  -2   65.35    5.23
  -2   6   2   68.45    4.60
  -2   6   2   72.96    5.39
   2   6  -2   75.54    4.58
  -1  -6   2   46.36    2.98
  -1  -6   2   40.87    2.79
   1  -6  -2   45.08    2.94
  -1   6   2   42.18    2.81
  -1   6   2   44.33    3.30
  -1   6   2   39.71    2.66
   1   6  -2   47.28    2.82
   0  -6  -2   13.14    1.10
   0  -6   2   14.32    1.08
   0  -6   2   14.59    1.00
   0  -6  -2   15.37    1.10
   0   6   2   14.17    1.02
   0   6  -2   15.21    1.14
   0   6  -2   14.29    1.02
  -1  -6  -2   74.81    4.74
   1  -6   2   76.74    5.03
  -1  -6  -2   78.54    5.09
   1  -6   2   76.85    4.63
   1   6   2   75.18    4.71
  -1   6  -2   75.51    4.76
  -1   6  -2   74.01    5.64
  -2  -6  -2  137.65    8.93
   2  -6   2  143.19    9.50
  -2  -6  -2  147.78    9.70
  -2   6  -2  141.53   10.69
   2   6   2  148.48    8.91
  -2   6  -2  150.22    9.03
   3  -6   2   39.56    2.82
  -3  -6  -2   36.25    2.60
  -3  -6  -2   29.05    3.12
  -3   6  -2   43.51    2.88
  -3   6  -2   37.31    3.18
   3   6   2   35.94    2.52
   4  -6   2   20.59    2.04
  -4  -6  -2   15.24    2.53
  -4   6  -2   19.53    2.35
   4   6   2   21.84    1.91
   4  -7  -2   11.64    1.56
  -4  -7   2    7.27    1.15
  -4   7   2    8.05    1.59
   4   7  -2    7.16    1.22
   3  -7  -2    2.97    0.73
  -3  -7   2    2.65    0.68
  -3  -7   2    0.35    0.79
   3   7  -2    2.67    0.77
  -3   7   2    3.91    0.82
  -3   7   2    2.49    0.80
   2  -7  -2   16.00    1.32
  -2  -7   2   14.89    1.32
  -2  -7   2   14.48    1.48
   2   7  -2   16.76    1.33
  -2   7   2   15.87    1.32
  -2   7   2   15.33    1.48
   1  -7  -2  137.12    9.38
  -1  -7   2  150.50    9.43
  -1  -7   2  143.62    8.87
   1   7  -2  155.68    8.90
  -1   7   2  143.13    8.91
  -1   7   2  136.36    8.73
   0  -7   2    1.94    0.36
   0  -7  -2    3.37    0.52
   0  -7   2    2.54    0.43
   0   7  -2    2.85    0.42
   0   7   2    2.48    0.40
   0   7  -2    2.62    0.37
  -1  -7  -2  133.15    8.84
   1  -7   2  137.38    8.17
   1  -7   2  133.16    8.79
  -1  -7  -2  131.53    8.29
  -1   7  -2  139.99    8.33
  -1   7  -2  132.82    9.87
   1   7   2  134.18    8.28
  -2  -7  -2    8.29    0.91
  -2  -7  -2   10.05    1.26
   2  -7   2    9.07    0.92
  -2   7  -2    8.45    1.09
  -2   7  -2    8.40    0.94
   2   7   2    8.82    0.84
   3  -7   2    5.16    0.89
  -3  -7  -2    4.20    1.24
  -3  -7  -2    4.54    0.77
  -3   7  -2    7.03    1.26
  -3   7  -2    6.33    1.04
   3   7   2    5.29    0.82
  -4  -7  -2    3.66    1.54
   4  -7   2    3.20    1.08
   4   7   2    4.65    0.98
  -4   7  -2    4.68    1.18
   4  -8  -2    5.42    1.17
  -4  -8   2    7.03    1.17
  -4   8   2    8.52    1.64
   4   8  -2    7.27    1.20
  -3  -8   2   13.79    1.46
  -3  -8   2    8.10    1.55
   3  -8  -2   14.14    1.42
   3   8  -2   12.66    1.43
  -3   8   2   15.12    1.59
  -3   8   2   15.18    1.64
   2  -8  -2   65.32    4.48
  -2  -8   2   61.44    4.65
  -2  -8   2   65.85    4.30
   2   8  -2   71.41    4.30
  -2   8   2   66.49    4.33
  -2   8   2   65.23    5.06
  -1  -8   2   34.56    2.49
  -1  -8   2   35.55    2.36
  -1   8   2   37.23    2.36
  -1   8   2   33.20    2.18
   0  -8   2   15.05    1.22
   0  -8  -2   15.59    1.24
   0  -8   2   15.96    1.13
   0   8  -2   14.77    1.15
   0   8   2   15.59    1.16
   0   8  -2   16.00    1.26
   1  -8   2   63.20    4.32
  -1  -8  -2   66.45    4.39
   1  -8   2   67.66    3.96
  -1  -8  -2   61.46    4.08
  -1   8  -2   64.14    4.84
  -1   8  -2   66.08    4.11
   1   8   2   60.06    4.04
  -2  -8  -2   32.98    2.46
  -2  -8  -2   33.04    2.80
   2  -8   2   37.70    2.63
  -2   8  -2   37.42    2.95
  -2   8  -2   35.52    2.52
   2   8   2   36.27    2.40
  -3  -8  -2   21.68    1.86
   3  -8   2   26.10    2.06
  -3  -8  -2   17.77    2.45
  -3   8  -2   24.51    2.33
   3   8   2   21.57    1.77
  -3   8  -2   25.91    2.16
  -4  -8  -2    3.56    1.58
   4  -8   2    2.94    1.05
  -4   8  -2    3.71    1.19
   4   8   2    4.33    1.01
   4  -9  -2   13.15    1.74
   4  -9  -2   13.16    2.20
  -4  -9   2   12.46    1.71
  -4   9   2   10.37    1.80
   4   9  -2   13.17    1.67
   3  -9  -2   26.72    2.28
  -3  -9   2   29.01    2.27
   3   9  -2   27.46    2.26
  -3   9   2   30.87    2.43
  -2  -9   2    5.28    0.97
   2  -9  -2    5.35    0.87
  -2  -9   2    5.49    0.82
   2   9  -2    4.41    0.76
  -2   9   2    4.44    0.76
  -1  -9   2   13.01    1.21
   1  -9  -2   11.54    1.13
   1  -9  -2   11.95    1.10
  -1  -9   2   12.68    1.07
   1   9  -2   11.83    1.07
  -1   9   2   11.26    1.01
   0  -9   2   17.76    1.27
   0  -9  -2   17.94    1.42
   0  -9   2   16.97    1.38
   0   9  -2   18.04    1.40
   0   9   2   16.79    1.28
   0   9  -2   15.91    1.29
   1  -9   2   19.72    1.59
  -1  -9  -2   19.46    1.50
  -1  -9  -2   19.57    1.67
  -1   9  -2   18.22    1.48
   1   9   2   21.50    1.48
  -1   9  -2   21.74    1.74
  -2  -9  -2    5.24    0.85
  -2  -9  -2    6.11    1.08
   2  -9   2    5.81    0.91
  -2   9  -2    5.57    0.87
   2   9   2    5.36    0.77
  -2   9  -2    6.80    1.04
   3  -9   2   14.52    1.63
  -3  -9  -2   11.02    1.90
  -3  -9  -2   14.39    1.43
  -3   9  -2   15.06    1.80
  -3   9  -2   14.68    1.65
   3   9   2   11.78    1.31
   4  -9   2    7.82    1.43
  -4  -9  -2    5.83    1.89
  -4   9  -2    7.92    1.52
   4   9   2    8.68    1.49
   4 -10  -2    2.04    1.30
   4 -10  -2    2.07    1.04
  -4 -10   2    2.99    1.03
  -4  10   2    2.13    1.31
   4  10  -2    1.96    1.04
   3 -10  -2   42.81    3.10
  -3 -10   2   38.93    3.02
   3  10  -2   40.51    2.95
  -3  10   2   40.00    3.15
   2 -10  -2   23.17    1.86
  -2 -10   2   20.71    1.83
  -2 -10   2   22.51    2.11
  -2  10   2   22.77    1.82
   2  10  -2   21.80    1.78
  -1 -10   2   92.08    6.19
   1 -10  -2   92.42    6.82
  -1 -10   2   93.38    5.82
   1 -10  -2   96.98    6.13
  -1  10   2   86.79    5.83
   1  10  -2   89.08    5.80
   0 -10   2    2.04    0.43
   0 -10   2    1.98    0.52
   0 -10  -2    2.74    0.58
   0  10   2    2.60    0.48
   0  10  -2    1.54    0.47
   0  10   2    2.72    0.41
  -1 -10  -2   45.70    3.56
  -1 -10  -2   47.52    3.31
   1 -10   2   49.20    3.49
  -1  10  -2   52.06    3.35
   1  10   2   50.79    3.29
  -1  10  -2   56.11    3.91
  -2 -10  -2   39.02    2.97
   2 -10   2   35.43    2.68
  -2 -10  -2   32.26    2.53
  -2  10  -2   35.68    3.03
   2  10   2   38.22    2.50
  -2  10  -2   35.19    2.61
   3 -10   2   23.05    2.03
  -3 -10  -2   18.37    2.51
   3  10   2   20.03    1.74
  -3  10  -2   24.06    2.34
  -3  10  -2   17.96    2.04
   4 -10   2    5.58    1.31
  -4  10  -2    1.45    1.15
   4  10   2    5.67    1.18
   3 -11  -2    7.07    1.35
   3 -11  -2    8.53    1.67
  -3 -11   2    9.16    1.43
   3  11  -2    7.44    1.31
  -3  11   2    9.32    1.52
   2 -11  -2    7.94    1.13
  -2 -11   2    6.72    1.19
   2 -11  -2    5.69    1.00
  -2 -11   2    6.32    1.10
  -2  11   2    6.77    1.00
   2  11  -2    7.08    1.08
  -1 -11   2   18.77    1.72
  -1 -11   2   20.28    1.60
   1 -11  -2   20.50    1.65
   1  11  -2   19.38    1.57
  -1  11   2   19.42    1.57
   0 -11   2  124.39    7.28
   0 -11  -2  109.32    7.74
   0 -11   2  118.57    7.75
   0  11  -2  116.14    7.34
   0  11   2  113.88    7.31
   0  11   2  118.48    7.25
   1 -11   2   13.99    1.36
  -1 -11  -2   13.71    1.47
  -1 -11  -2   14.58    1.26
  -1  11  -2   15.52    1.30
   1  11   2   14.66    1.25
   2 -11   2    4.73    0.85
  -2 -11  -2    3.39    1.01
  -2 -11  -2    4.63    0.78
  -2  11  -2    4.31    0.92
  -2  11  -2    5.19    0.89
   2  11   2    5.12    0.88
  -3 -11  -2    2.58    1.40
   3 -11   2    3.29    1.00
  -3  11  -2    4.21    1.12
  -3  11  -2    3.73    1.06
   3  11   2    4.08    0.84
   3 -12  -2   28.65    2.80
  -3 -12   2   27.94    2.41
  -3  12   2   24.32    2.53
   3  12  -2   26.47    2.26
   2 -12  -2    8.13    1.29
  -2 -12   2    9.03    1.27
  -2 -12   2    7.66    1.34
   2 -12  -2    9.55    1.36
  -2  12   2    8.86    1.24
   2  12  -2    8.10    1.28
   1 -12  -2   29.71    2.28
  -1 -12   2   29.18    2.17
  -1 -12   2   26.16    2.33
   1  12  -2   29.65    2.16
  -1  12   2   29.88    2.17
   0 -12   2    3.68    0.60
   0 -12   2    3.83    0.76
   0 -12  -2    3.78    0.78
   0  12   2    3.77    0.64
   0  12   2    3.40    0.61
   0  12  -2    2.61    0.63
   1 -12   2   60.47    4.16
  -1 -12  -2   56.09    4.23
  -1  12  -2   57.61    3.95
   1  12   2   62.85    3.93
   2 -12   2   10.35    1.37
  -2 -12  -2    8.90    1.60
   2  12   2   11.92    1.28
  -2  12  -2    9.33    1.28
  -2  12  -2   10.63    1.45
   3 -12   2   54.97    3.97
  -3 -12  -2   49.06    4.49
  -3  12  -2   52.04    3.95
  -3  12  -2   52.33    4.48
   3 -13  -2    1.57    0.96
   3 -13  -2    1.29    1.07
  -3 -13   2    0.43    0.85
   3  13  -2    2.13    0.95
  -3  13   2    0.46    0.95
   2 -13  -2    0.98    0.78
  -2 -13   2    0.81    0.99
  -2 -13   2   -0.02    0.67
   2  13  -2    0.27    0.74
  -2  13   2    0.32    0.67
  -1 -13   2   35.28    2.93
   1 -13  -2   39.30    2.84
  -1 -13   2   37.68    2.69
   1  13  -2   36.42    2.67
  -1  13   2   35.86    2.67
   0 -13   2   21.28    1.85
   0 -13  -2   17.70    1.79
   0  13  -2   20.68    1.67
   0  13   2   19.96    1.64
  -1 -13  -2   29.83    2.69
   1 -13   2   34.91    2.61
  -1  13  -2   33.15    2.48
   1  13   2   35.54    2.47
  -2 -13  -2    0.25    1.01
   2 -13   2    0.23    0.72
  -2  13  -2    0.51    0.70
   2  13   2   -0.79    0.63
  -3 -13  -2    1.21    1.42
   3 -13   2   -0.24    0.93
  -3  13  -2    1.54    1.01
  -3  13  -2    1.07    1.02
   3  13   2    1.64    0.89
  -3 -14   2   17.13    2.05
   3 -14  -2   17.56    2.16
  -3  14   2   17.60    2.10
   3  14  -2   15.70    1.87
  -2 -14   2   11.73    1.50
  -2 -14   2    7.63    1.58
   2 -14  -2    8.96    1.48
   2  14  -2    9.46    1.41
  -2  14   2   10.20    1.43
   1 -14  -2   23.99    2.09
  -1 -14   2   23.72    1.95
  -1 -14   2   20.90    2.15
   1  14  -2   23.69    1.97
  -1  14   2   21.57    1.90
   0 -14   2    9.64    1.40
   0 -14  -2   10.01    1.38
   0  14  -2    8.73    1.19
   0  14   2    9.09    1.13
   1 -14   2   16.61    1.69
  -1 -14  -2   13.51    1.82
  -1  14  -2   17.67    1.60
   1  14   2   18.46    1.58
   1  14   2   17.98    1.61
   2 -14   2   15.06    1.75
  -2 -14  -2   11.47    2.02
  -2  14  -2   13.29    1.63
   2  14   2   15.65    1.58
   2  14   2   15.03    1.61
   3 -14   2    8.46    1.48
  -3 -14  -2    9.03    1.99
   3  14   2   11.17    1.79
  -3  14  -2   11.20    1.88
   2 -15  -2    5.01    1.12
  -2 -15   2    4.56    1.43
  -2 -15   2    3.53    0.97
   2  15  -2    4.62    1.10
  -2  15   2    4.69    1.03
  -1 -15   2   10.06    1.61
   1 -15  -2   10.47    1.59
  -1 -15   2   10.34    1.37
   1  15  -2    8.91    1.43
  -1  15   2   11.15    1.34
   0 -15   2    0.77    0.81
   0 -15  -2    1.04    0.88
   0  15   2    0.65    0.59
   0  15  -2    0.68    0.65
  -1 -15  -2   12.26    1.76
   1 -15   2   12.91    1.61
   1  15   2   12.17    1.42
   1  15   2   14.20    1.43
  -1  15  -2    9.88    1.37
   2 -15   2    2.37    0.96
  -2 -15  -2    0.54    1.19
  -2  15  -2    1.02    0.87
   2  15   2    2.52    0.86
   2  15   2    2.62    0.88
  -2 -16   2   18.59    2.72
  -2 -16   2   20.46    2.09
   2 -16  -2   22.92    2.28
   2  16  -2   19.07    2.10
  -2  16   2   21.00    2.29
  -1 -16   2   11.44    1.99
   1 -16  -2   15.36    1.87
  -1  16   2   12.71    1.55
   1  16  -2   15.37    1.71
   0 -16   2    2.63    1.02
   0 -16  -2    1.74    1.04
   0  16   2    2.28    0.76
   0  16  -2    1.50    0.76
  -1 -16  -2    7.99    1.45
   1 -16   2    5.44    1.17
  -1  16  -2    8.04    1.26
   1  16   2    7.81    1.32
  -2 -16  -2   14.85    2.46
  -2  16  -2   17.09    2.03
   2  16   2   20.27    2.01
   2  16   2   17.90    1.93
   1 -17  -2   24.41    2.39
  -1 -17   2   18.47    2.46
   1  17  -2   23.71    2.22
  -1  17   2   22.88    2.11
   0 -17  -2   10.62    1.62
   0 -17   2    9.27    1.59
   0  17   2    9.45    1.38
   0  17  -2   10.16    1.45
  -1 -17  -2   13.94    2.14
   1 -17   2   15.17    2.01
  -1  17  -2   14.88    1.76
   1  17   2   15.80    1.69
   5   0  -3    5.50    1.45
   4   0  -3    0.39    0.81
  -4   0   3    1.10    0.98
   3   0  -3   26.96    2.00
  -3   0   3   24.40    2.23
  -3   0   3   26.94    1.85
   3   0  -3   27.00    2.29
  -2   0   3    0.31    0.23
  -2   0   3    0.15    0.34
   2   0  -3   -0.16    0.23
   2   0  -3    0.18    0.28
   1   0  -3  689.72   43.60
  -1   0   3  643.65   41.30
  -1   0   3  674.13   41.01
   1   0  -3  715.57   49.04
   0   0   3   -0.12    0.08
   0   0   3   -0.27    0.09
   0   0  -3   -0.04    0.10
   0   0  -3   -0.27    0.13
  -1   0  -3  560.19   38.49
  -1   0  -3  507.09   34.33
  -1   0  -3  550.30   32.33
   1   0   3  518.28   32.18
  -2   0  -3    0.16    0.40
   2   0   3    0.22    0.20
  -2   0  -3   -0.51    0.28
  -2   0  -3   -0.13    0.27
  -3   0  -3   13.63    1.48
  -3   0  -3   17.21    1.42
   3   0   3   14.14    1.12
   3   0   3   12.79    1.50
  -4   0  -3    0.13    0.70
   4   0   3   -0.55    0.84
  -5   0  -3    3.74    1.19
   5  -1  -3   12.89    2.32
   5   1  -3   15.04    2.23
  -4  -1   3   14.07    1.88
   4  -1  -3   17.21    1.94
   4   1  -3   13.85    1.84
  -4   1   3   15.24    2.00
  -3  -1   3   84.91    5.64
  -3  -1   3   82.49    5.32
   3  -1  -3   84.27    5.67
  -3   1   3   86.85    5.29
  -3   1   3   82.41    5.67
   3   1  -3   87.03    5.70
   3   1  -3   85.36    6.39
  -2  -1   3   51.17    3.61
  -2  -1   3   57.55    3.44
  -2  -1   3   53.01    3.65
   2  -1  -3   53.90    3.62
   2   1  -3   53.62    4.09
  -2   1   3   52.45    3.62
  -2   1   3   57.81    3.40
  -1  -1   3   68.24    4.18
  -1  -1   3   72.75    4.43
  -1  -1   3   64.49    4.28
   1  -1  -3   68.54    4.99
   1  -1  -3   66.68    4.40
  -1   1   3   67.46    4.26
   1   1  -3   70.76    4.97
  -1   1   3   63.74    4.14
   0  -1   3  185.01   12.07
   0  -1  -3  198.10   12.08
   0  -1  -3  186.07   13.59
   0  -1   3  192.60   11.37
   0   1   3  192.73   11.37
   0   1   3  180.34   11.40
   0   1  -3  173.32   13.58
   0   1  -3  196.45   11.41
  -1  -1  -3   38.07    2.79
  -1  -1  -3   41.10    3.00
   1  -1   3   39.43    2.49
  -1   1  -3   42.34    3.02
  -1   1  -3   37.51    2.50
   1   1   3   42.02    2.52
  -2  -1  -3   68.69    4.32
  -2  -1  -3   63.45    4.72
   2  -1   3   69.92    4.68
  -2  -1  -3   68.20    5.12
   2  -1   3   70.83    4.24
  -2   1  -3   71.74    5.17
   2   1   3   69.86    4.27
  -2   1  -3   64.37    4.37
   3  -1   3   43.79    2.91
   3  -1   3   45.54    3.37
  -3  -1  -3   47.88    3.47
  -3  -1  -3   43.38    3.60
  -3  -1  -3   45.96    3.08
  -3   1  -3   44.71    3.64
   3   1   3   45.40    2.97
  -3   1  -3   49.39    3.24
   4  -1   3    7.90    1.37
  -4  -1  -3    8.31    1.41
   4   1   3    7.68    1.41
  -4   1  -3    8.52    1.49
   5  -1   3    5.17    1.38
  -5  -1  -3    4.81    1.30
  -5   1  -3    4.58    1.29
   5  -2  -3   20.27    2.55
  -5   2   3   11.25    2.33
  -4  -2   3    1.92    1.04
   4  -2  -3    2.76    1.05
  -4   2   3    3.42    1.28
   4   2  -3    3.93    0.97
  -3  -2   3   41.77    2.94
  -3  -2   3   36.39    2.97
   3  -2  -3   40.72    2.88
  -3  -2   3   42.96    2.75
  -3   2   3   39.74    3.07
   3   2  -3   41.68    3.26
   2  -2  -3   10.16    0.83
  -2  -2   3   10.31    0.91
  -2  -2   3    9.80    0.82
  -2  -2   3   10.07    0.99
  -2   2   3   10.61    0.98
  -2   2   3    9.61    0.72
   2   2  -3    8.96    0.92
  -1  -2   3   14.69    0.95
   1  -2  -3   12.53    0.94
  -1  -2   3   13.21    0.98
  -1  -2   3   12.81    1.00
   1  -2  -3   13.83    1.10
   1   2  -3   13.94    1.06
  -1   2   3   13.70    0.98
  -1   2   3   13.44    0.87
   0  -2   3   71.65    4.94
   0  -2  -3   79.84    4.96
   0  -2   3   72.12    4.66
   0  -2  -3   81.78    5.56
   0   2   3   73.93    4.67
   0   2  -3   84.48    5.57
   0   2  -3   74.77    4.67
   0   2   3   73.08    4.66
   1  -2   3   23.95    1.47
   1  -2   3   22.29    1.64
  -1  -2  -3   23.80    1.75
  -1  -2  -3   21.62    1.71
  -1   2  -3   24.50    1.49
  -1   2  -3   24.31    1.81
   1   2   3   22.66    1.50
   1   2   3   20.94    1.44
   2  -2   3    5.12    0.72
   2  -2   3    4.58    0.43
  -2  -2  -3    5.63    0.90
  -2  -2  -3    4.78    0.63
   2   2   3    5.10    0.53
  -2   2  -3    3.60    0.62
  -2   2  -3    5.30    0.72
   3  -2   3   87.24    5.71
  -3  -2  -3   71.91    5.77
  -3  -2  -3   84.06    6.23
  -3  -2  -3   82.65    5.24
  -3   2  -3   85.12    6.30
  -3   2  -3   76.10    5.41
   3   2   3   86.98    5.21
   4  -2   3    4.14    1.12
  -4  -2  -3    2.46    0.83
  -4   2  -3    2.73    0.92
   5  -2   3   17.98    2.20
  -5   2  -3   17.38    2.38
   4  -3  -3    1.40    0.92
  -4  -3   3    0.59    0.59
  -4  -3   3    1.11    0.87
   4   3  -3   -0.05    0.76
  -4   3   3    0.13    1.08
  -3  -3   3   21.34    1.87
  -3  -3   3   21.05    1.80
   3  -3  -3   21.86    1.70
  -3  -3   3   20.02    1.63
  -3   3   3   21.89    1.95
   3   3  -3   22.44    1.90
   2  -3  -3   17.03    1.25
  -2  -3   3   16.49    1.32
  -2  -3   3   17.71    1.23
  -2  -3   3   13.97    1.33
  -2   3   3   16.73    1.08
  -2   3   3   16.99    1.35
   2   3  -3   15.84    1.37
  -1  -3   3   47.82    2.95
  -1  -3   3   50.94    3.12
   1  -3  -3   46.52    3.49
   1  -3  -3   42.00    3.07
  -1   3   3   47.32    2.87
  -1   3   3   46.13    2.97
   1   3  -3   46.65    3.43
   0  -3  -3    0.41    0.15
   0  -3  -3    0.43    0.17
   0  -3   3    0.26    0.13
   0  -3   3    0.02    0.10
   0   3   3    0.19    0.11
   0   3  -3    0.19    0.13
   0   3   3    0.27    0.11
   0   3  -3    0.33    0.14
   1  -3   3   68.28    4.36
   1  -3   3   70.59    4.71
  -1  -3  -3   75.78    4.79
  -1  -3  -3   71.83    5.20
  -1   3  -3   73.54    5.27
   1   3   3   65.93    4.36
  -1   3  -3   74.44    4.41
   1   3   3   71.00    4.40
   2  -3   3   30.72    2.04
  -2  -3  -3   28.78    2.52
   2  -3   3   33.32    2.38
  -2  -3  -3   33.45    2.53
  -2   3  -3   34.26    2.24
   2   3   3   32.77    2.12
   2   3   3   31.56    2.15
  -2   3  -3   36.22    2.64
  -3  -3  -3   33.88    3.33
   3  -3   3   44.75    3.18
  -3  -3  -3   44.10    3.37
  -3   3  -3   38.65    3.03
   3   3   3   45.32    2.86
  -3   3  -3   43.68    3.49
   3   3   3   43.41    2.83
   4  -3   3    0.31    0.90
  -4  -3  -3    1.23    0.72
  -4  -3  -3    1.47    1.15
   4   3   3    1.26    0.63
  -4   3  -3    0.61    0.83
   4  -4  -3   12.71    1.88
  -4  -4   3   13.93    1.39
   4   4  -3    8.63    1.52
  -4   4   3   13.44    1.90
  -3  -4   3   32.25    2.28
  -3  -4   3   31.81    2.49
   3  -4  -3   31.52    2.37
  -3   4   3   31.97    2.52
   3   4  -3   32.72    2.60
   2  -4  -3   68.83    4.55
  -2  -4   3   70.27    4.35
  -2  -4   3   60.84    4.68
  -2   4   3   71.52    4.18
  -2   4   3   67.88    4.43
   2   4  -3   72.68    4.44
   2   4  -3   66.97    5.06
   1  -4  -3   17.63    1.26
   1  -4  -3   15.73    1.42
  -1  -4   3   18.49    1.29
  -1  -4   3   18.21    1.24
   1   4  -3   18.43    1.28
   1   4  -3   18.76    1.38
  -1   4   3   17.17    1.24
   0  -4  -3   30.10    2.32
   0  -4  -3   32.35    2.12
   0  -4   3   31.96    2.11
   0  -4   3   30.08    1.98
   0   4  -3   33.16    2.00
   0   4  -3   31.65    2.34
   0   4   3   32.28    2.00
   0   4   3   30.43    1.98
   1  -4   3   19.79    1.23
   1  -4   3   19.78    1.41
  -1  -4  -3   21.64    1.51
  -1  -4  -3   19.59    1.47
  -1   4  -3   20.40    1.31
   1   4   3   17.79    1.30
  -1   4  -3   19.66    1.57
   1   4   3   16.47    1.25
  -2  -4  -3  110.47    8.45
  -2  -4  -3  114.58    7.84
   2  -4   3  118.05    7.65
  -2   4  -3  117.39    8.58
  -2   4  -3  120.94    7.23
   2   4   3  112.95    7.11
  -3  -4  -3   50.45    4.77
   3  -4   3   68.69    4.62
  -3  -4  -3   65.72    5.00
  -3   4  -3   67.88    5.15
  -3   4  -3   66.61    4.46
   3   4   3   67.67    4.20
   3   4   3   69.15    4.26
  -4  -4  -3   18.89    2.49
   4  -4   3   23.79    2.31
  -4   4  -3   23.39    2.47
   4   4   3   24.24    1.96
  -4  -5   3    0.76    0.70
   4  -5  -3   -0.05    0.88
  -4   5   3   -0.54    1.09
   4   5  -3    0.46    0.89
  -3  -5   3   97.97    6.21
   3  -5  -3   98.08    6.52
  -3  -5   3  100.97    6.76
  -3   5   3   98.11    6.43
   3   5  -3   93.52    6.30
   2  -5  -3    9.29    0.86
  -2  -5   3    8.91    1.03
  -2  -5   3    9.42    0.89
   2   5  -3   10.56    1.00
  -2   5   3    8.65    0.92
   2   5  -3    8.71    0.83
   1  -5  -3   35.00    2.79
  -1  -5   3   38.51    2.52
   1  -5  -3   38.88    2.49
  -1  -5   3   35.68    2.38
  -1   5   3   34.65    2.30
   1   5  -3   38.69    2.41
  -1   5   3   36.69    2.40
   0  -5   3   93.61    5.76
   0  -5   3   94.99    6.12
   0  -5  -3   97.84    6.14
   0  -5  -3   87.41    6.81
   0   5   3   94.50    5.79
   0   5   3   93.62    5.75
   0   5  -3   95.11    5.79
   0   5  -3   95.54    6.84
   1  -5   3   47.62    2.99
  -1  -5  -3   51.28    3.36
   1  -5   3   48.73    3.28
  -1   5  -3   50.17    3.68
  -1   5  -3   52.15    3.10
   1   5   3   43.78    3.03
   2  -5   3   20.23    1.55
  -2  -5  -3   22.14    1.86
  -2  -5  -3   17.98    1.58
  -2   5  -3   21.56    1.52
   2   5   3   21.00    1.37
  -2   5  -3   17.61    1.75
   3  -5   3   49.45    3.62
  -3  -5  -3   50.64    3.98
  -3   5  -3   39.32    3.47
  -3   5  -3   55.19    4.10
   3   5   3   52.31    3.35
   3   5   3   51.83    3.27
  -4  -5  -3    0.32    1.21
   4  -5   3    0.95    0.89
  -4   5  -3    0.73    0.92
   4   5   3    0.02    0.64
  -4  -6   3    0.93    0.73
   4  -6  -3    0.06    0.98
  -4   6   3    3.16    1.33
   4   6  -3    0.87    0.89
   3  -6  -3   12.90    1.26
  -3  -6   3   11.92    1.26
  -3   6   3   12.05    1.50
   3   6  -3   11.46    1.33
   2  -6  -3   64.69    3.95
  -2  -6   3   61.25    3.78
  -2  -6   3   48.21    4.03
   2   6  -3   55.01    4.28
  -2   6   3   58.44    3.83
   2   6  -3   61.68    3.82
  -1  -6   3  220.62   13.49
  -1  -6   3  204.73   12.70
   1  -6  -3  197.55   15.11
   1  -6  -3  211.03   13.46
  -1   6   3  205.22   12.59
   1   6  -3  217.26   12.76
  -1   6   3  201.54   12.76
   0  -6   3  169.67   10.57
   0  -6  -3  176.37   11.25
   0  -6   3  179.08   11.24
   0  -6  -3  156.95   12.55
   0   6   3  170.54   10.56
   0   6  -3  180.63   12.59
   0   6   3  176.80   10.63
   0   6  -3  180.91   10.63
   1  -6   3  187.38   11.95
  -1  -6  -3  186.80   12.00
   1  -6   3  190.42   11.14
   1   6   3  162.37   11.22
  -1   6  -3  186.14   13.41
  -1   6  -3  191.82   11.28
   2  -6   3   32.25    2.38
  -2  -6  -3   29.92    2.58
  -2   6  -3   33.18    2.67
   2   6   3   32.19    2.13
  -2   6  -3   33.42    2.28
   3  -6   3    6.64    1.12
  -3  -6  -3    5.20    1.33
  -3   6  -3    5.65    1.20
  -3   6  -3    5.42    0.99
   3   6   3    6.88    0.81
   3   6   3    6.42    0.92
   4  -6   3    1.18    0.95
  -4  -6  -3    0.96    1.24
  -4   6  -3    1.85    0.96
   4   6   3    1.86    0.79
   4  -7  -3   38.00    3.34
  -4  -7   3   34.96    2.67
   4   7  -3   29.42    2.65
  -4   7   3   32.06    3.08
  -3  -7   3    3.55    0.79
   3  -7  -3    4.54    0.82
  -3   7   3    4.34    0.94
   3   7  -3    3.65    0.87
  -2  -7   3  101.08    6.22
  -2  -7   3   82.33    6.62
   2  -7  -3  105.27    6.53
   2   7  -3  106.76    6.25
  -2   7   3   95.57    6.26
   1  -7  -3   17.37    1.27
  -1  -7   3   16.42    1.24
  -1  -7   3   17.52    1.31
   1  -7  -3   15.93    1.39
  -1   7   3   15.17    1.07
   1   7  -3   17.60    1.26
  -1   7   3   15.90    1.23
   0  -7   3   23.24    1.61
   0  -7  -3   20.40    1.68
   0  -7   3   21.24    1.49
   0  -7  -3   23.01    1.63
   0   7  -3   21.82    1.52
   0   7  -3   23.25    1.72
   0   7   3   23.02    1.52
   0   7   3   22.42    1.49
   1  -7   3   10.72    0.97
   1  -7   3   11.45    0.79
  -1  -7  -3   11.00    1.08
   1   7   3   11.13    0.88
  -1   7  -3   11.05    0.92
  -1   7  -3   11.33    1.07
   2  -7   3   66.80    4.48
  -2  -7  -3   62.86    4.68
  -2   7  -3   67.72    4.29
  -2   7  -3   70.93    5.07
   2   7   3   60.24    4.13
   3  -7   3    3.53    0.85
  -3  -7  -3    2.08    1.14
  -3   7  -3    2.21    0.81
   3   7   3    2.43    0.59
  -3   7  -3    2.01    0.82
   3   7   3    3.56    0.71
  -4  -7  -3   19.73    2.65
   4  -7   3   18.85    2.08
   4   7   3   17.85    1.88
  -4   7  -3   20.06    2.38
   4  -8  -3    1.82    1.15
  -4  -8   3    0.25    0.76
   4   8  -3    0.87    0.99
  -4   8   3    0.79    1.20
   3  -8  -3   27.57    2.10
  -3  -8   3   24.98    2.12
   3   8  -3   23.41    2.07
  -3   8   3   26.90    2.23
  -2  -8   3   32.31    2.34
  -2  -8   3   29.90    2.52
   2  -8  -3   32.32    2.38
  -2   8   3   35.59    2.37
   2   8  -3   33.13    2.34
   1  -8  -3   18.44    1.56
  -1  -8   3   18.05    1.39
   1  -8  -3   19.66    1.44
  -1  -8   3   18.81    1.50
  -1   8   3   17.87    1.38
  -1   8   3   17.55    1.21
   1   8  -3   20.22    1.42
   0  -8   3   31.58    2.07
   0  -8  -3   31.96    2.24
   0  -8  -3   28.84    2.34
   0  -8   3   31.19    2.22
   0   8   3   33.67    2.07
   0   8  -3   33.19    2.40
   0   8  -3   30.35    2.09
   0   8   3   30.96    2.09
  -1  -8  -3    9.90    1.02
   1  -8   3   10.29    0.76
   1  -8   3    9.01    0.94
  -1   8  -3   11.52    0.92
  -1   8  -3   10.91    1.05
   1   8   3    9.86    0.84
   2  -8   3   30.90    2.30
  -2  -8  -3   29.39    2.51
  -2   8  -3   32.59    2.22
   2   8   3   28.08    2.05
  -2   8  -3   30.94    2.58
  -3  -8  -3   43.59    4.06
   3  -8   3   52.59    3.64
   3   8   3   49.98    3.40
  -3   8  -3   49.98    3.59
  -3   8  -3   46.87    4.07
  -4  -8  -3    1.21    1.49
   4  -8   3    2.32    1.04
  -4   8  -3    1.60    1.08
   4   8   3    2.23    0.88
  -4  -9   3    1.40    0.87
   4  -9  -3    1.65    1.22
   4   9  -3    1.47    0.98
  -4   9   3    0.30    1.26
   3  -9  -3    0.63    0.69
   3  -9  -3    0.30    0.78
  -3  -9   3    0.93    0.68
   3   9  -3   -0.48    0.69
  -3   9   3    0.68    0.75
   2  -9  -3   24.49    2.15
  -2  -9   3   23.41    1.90
  -2  -9   3   22.43    2.09
   2  -9  -3   25.53    1.92
  -2   9   3   23.54    1.88
   2   9  -3   25.61    1.91
   1  -9  -3   24.58    2.03
  -1  -9   3   26.64    1.82
   1  -9  -3   24.87    1.86
  -1  -9   3   25.15    1.92
  -1   9   3   25.19    1.80
   1   9  -3   23.04    1.80
   0  -9  -3   89.89    6.10
   0  -9   3   92.20    6.09
   0  -9   3   93.01    5.72
   0   9   3   91.14    5.71
   0   9   3   90.28    5.76
   0   9  -3   95.55    6.75
   0   9  -3   90.88    5.76
  -1  -9  -3   35.02    2.66
   1  -9   3   35.77    2.58
   1   9   3   36.26    2.40
  -1   9  -3   37.01    2.46
  -1   9  -3   36.42    2.87
   2  -9   3   45.58    3.32
  -2  -9  -3   47.38    3.57
  -2   9  -3   49.25    3.21
  -2   9  -3   47.17    3.75
   2   9   3   43.91    3.04
  -3  -9  -3    0.93    1.15
   3  -9   3    1.72    0.88
  -3   9  -3    0.32    0.80
   3   9   3    1.28    0.64
  -3   9  -3    0.12    0.72
  -4  -9  -3    0.04    1.57
   4  -9   3    2.06    1.09
  -4   9  -3    1.73    1.12
   4   9   3    2.65    0.96
  -4 -10   3   16.70    1.97
   4 -10  -3   17.45    2.45
  -4  10   3   16.78    2.34
   4  10  -3   13.50    1.95
   3 -10  -3    3.09    1.03
   3 -10  -3    1.97    0.81
  -3 -10   3    2.81    0.85
   3  10  -3    2.76    0.91
  -3  10   3    3.26    0.91
   2 -10  -3   23.09    2.19
  -2 -10   3   24.51    1.96
  -2 -10   3   25.23    2.17
   2 -10  -3   25.62    1.99
  -2  10   3   23.16    1.93
   2  10  -3   24.98    1.96
  -1 -10   3   30.41    2.25
   1 -10  -3   30.19    2.18
  -1 -10   3   29.85    2.11
   1 -10  -3   28.70    2.37
   1  10  -3   29.03    2.10
  -1  10   3   27.58    2.08
   0 -10   3    1.36    0.38
   0 -10  -3    1.16    0.52
   0 -10   3    1.40    0.47
   0  10   3    0.94    0.38
   0  10  -3    0.78    0.41
   0  10   3    0.84    0.32
  -1 -10  -3   17.71    1.60
   1 -10   3   17.43    1.54
  -1  10  -3   20.03    1.68
   1  10   3   19.02    1.43
  -1  10  -3   18.73    1.47
  -2 -10  -3   49.75    3.70
   2 -10   3   48.94    3.45
   2  10   3   46.07    3.16
  -2  10  -3   45.79    3.32
  -2  10  -3   49.22    3.88
   3 -10   3    1.34    0.86
  -3 -10  -3    0.49    1.25
  -3  10  -3    1.14    0.87
  -3  10  -3    1.66    0.88
   3  10   3    0.46    0.69
  -4 -10  -3   22.05    3.37
   4 -10   3   30.72    2.86
   4  10   3   34.06    2.69
  -4  10  -3   30.61    3.21
   3 -11  -3   37.08    3.15
  -3 -11   3   30.45    2.64
   3 -11  -3   34.90    2.69
   3  11  -3   31.21    2.60
  -3  11   3   31.82    2.75
  -2 -11   3   11.75    1.69
   2 -11  -3   13.23    1.56
  -2 -11   3   14.11    1.45
   2 -11  -3   14.86    1.45
   2  11  -3   12.90    1.41
  -2  11   3   13.03    1.39
   1 -11  -3   16.79    1.51
  -1 -11   3   15.82    1.57
  -1 -11   3   17.90    1.45
  -1  11   3   16.49    1.38
   1  11  -3   17.16    1.47
   0 -11   3   10.07    0.93
   0 -11  -3    8.20    1.09
   0 -11   3    9.57    1.09
   0  11   3   10.09    0.97
   0  11   3    9.53    0.89
   0  11  -3    9.50    1.03
  -1 -11  -3   27.51    2.33
   1 -11   3   30.73    2.27
   1  11   3   32.16    2.12
   1  11   3   26.86    2.09
  -1  11  -3   29.34    2.14
   2 -11   3    6.21    0.98
  -2 -11  -3    5.47    1.19
  -2  11  -3    6.54    1.17
   2  11   3    7.25    1.00
  -2  11  -3    5.78    0.95
   3 -11   3   19.11    2.01
  -3 -11  -3   18.16    2.60
   3  11   3   20.09    1.94
  -3  11  -3   17.61    2.11
  -3  11  -3   21.09    2.31
  -3 -12   3    2.26    0.94
   3 -12  -3    4.18    1.17
   3 -12  -3    2.11    0.97
  -3  12   3    2.39    1.02
   3  12  -3    2.65    1.02
   2 -12  -3   56.54    3.72
   2 -12  -3   54.23    4.08
  -2 -12   3   50.72    3.55
  -2 -12   3   40.40    3.79
   2  12  -3   49.52    3.49
  -2  12   3   47.45    3.53
  -1 -12   3    4.47    0.87
   1 -12  -3    5.08    0.85
  -1 -12   3    4.44    0.73
   1  12  -3    4.87    0.84
  -1  12   3    4.76    0.84
   0 -12  -3  101.33    7.31
   0 -12   3  113.97    7.33
   0 -12   3  113.06    6.87
   0  12   3  110.38    6.84
   0  12  -3  111.00    6.94
   0  12   3  106.45    6.91
  -1 -12  -3    6.54    1.08
   1 -12   3    6.31    0.92
  -1  12  -3    5.18    0.90
   1  12   3    6.06    0.88
   1  12   3    6.24    0.97
   2 -12   3   30.45    2.53
  -2 -12  -3   28.07    2.75
  -2  12  -3   28.80    2.45
   2  12   3   33.33    2.33
   2  12   3   32.53    2.39
  -2  12  -3   31.69    2.79
   3 -12   3    2.60    0.99
  -3 -12  -3    1.44    1.37
  -3  12  -3    1.61    1.03
  -3  12  -3    1.94    1.02
   3  12   3    0.49    0.78
   3 -13  -3    5.02    1.18
  -3 -13   3    6.87    1.25
   3 -13  -3    8.22    1.47
   3  13  -3    6.72    1.24
  -3  13   3    6.31    1.37
  -2 -13   3   33.51    2.64
  -2 -13   3   32.04    2.99
   2 -13  -3   34.75    2.68
   2  13  -3   31.89    2.56
  -2  13   3   33.21    2.62
  -1 -13   3   12.11    1.34
  -1 -13   3   12.09    1.52
   1 -13  -3   13.56    1.46
  -1  13   3   11.31    1.27
   1  13  -3   13.67    1.39
   0 -13   3    2.16    0.74
   0 -13  -3    0.65    0.66
   0  13  -3    1.03    0.62
   0  13   3    1.85    0.56
  -1 -13  -3   18.32    1.91
   1 -13   3   19.81    1.78
   1  13   3   19.85    1.67
   1  13   3   18.74    1.61
  -1  13  -3   18.76    1.66
  -2 -13  -3   19.20    2.36
   2 -13   3   23.20    2.11
   2  13   3   22.32    1.89
   2  13   3   24.91    2.03
  -2  13  -3   24.29    2.06
   3 -13   3    3.81    1.11
  -3 -13  -3    2.63    1.62
  -3  13  -3    4.87    1.23
   3  13   3    5.47    1.12
  -3  13  -3    3.58    1.24
   3 -14  -3    2.99    1.14
  -3  14   3    3.59    1.31
   3  14  -3    3.97    1.14
  -2 -14   3    9.35    1.49
  -2 -14   3    9.00    1.65
   2 -14  -3    8.35    1.46
   2  14  -3   11.85    1.58
  -2  14   3    8.21    1.38
  -1 -14   3   39.37    3.13
  -1 -14   3   39.39    2.86
   1 -14  -3   40.60    3.06
   1  14  -3   39.83    2.90
  -1  14   3   36.13    2.84
   0 -14  -3    6.81    1.12
   0 -14   3    7.89    1.17
   0  14   3    5.71    0.91
   0  14  -3    6.95    1.13
  -1 -14  -3   15.04    1.93
   1 -14   3   18.86    1.81
  -1  14  -3   18.20    1.72
   1  14   3   22.32    1.76
   1  14   3   19.62    1.67
   2 -14   3   14.54    1.76
  -2 -14  -3   13.55    2.10
  -2  14  -3   13.49    1.66
   2  14   3   14.45    1.60
   2  14   3   16.83    1.65
  -3 -14  -3    8.59    2.04
  -3  14  -3    7.73    1.53
  -2 -15   3    8.91    1.71
   2 -15  -3   10.55    1.78
  -2 -15   3   11.13    1.53
  -2  15   3    9.49    1.51
   2  15  -3    9.37    1.55
  -1 -15   3    1.77    0.94
  -1 -15   3    2.55    0.79
   1 -15  -3    1.84    0.94
  -1  15   3    1.96    0.72
   1  15  -3    1.19    0.80
   0 -15   3   40.09    3.09
   0 -15  -3   36.95    3.04
   0  15   3   36.52    2.79
   0  15  -3   38.16    2.85
  -1 -15  -3    1.14    0.96
   1 -15   3    0.98    0.86
   1  15   3    1.21    0.65
  -1  15  -3    1.39    0.72
   1  15   3    1.39    0.72
   2 -15   3   19.19    2.06
  -2 -15  -3   16.14    2.37
  -2  15  -3   17.42    2.02
   2  15   3   21.57    1.93
   2  15   3   18.79    1.92
   2 -16  -3    2.23    1.10
  -2 -16   3    2.70    0.99
   2  16  -3    2.83    1.09
   1 -16  -3    9.99    1.77
  -1 -16   3    9.34    1.54
   1  16  -3   10.48    1.55
  -1  16   3    9.12    1.35
   0 -16  -3    3.16    1.12
   0 -16   3    3.34    1.12
   0  16   3    4.62    0.91
   0  16  -3    3.25    0.91
  -1 -16  -3    8.07    1.48
   1 -16   3    9.07    1.41
   1  16   3    6.28    1.09
  -1  16  -3    7.89    1.29
  -2 -16  -3    4.66    1.60
   2  16   3    4.04    1.09
  -2  16  -3    5.34    1.23
   2  16   3    5.24    1.11
  -1 -17   3    4.27    1.41
   1 -17  -3    5.79    1.37
   1  17  -3    5.03    1.25
  -1  17   3    4.81    1.16
   0 -17   3    0.99    1.07
   0 -17  -3   -0.38    1.05
   0  17   3   -0.14    0.67
   0  17  -3   -0.82    0.73
  -1 -17  -3   11.20    1.97
   1 -17   3   11.39    1.84
   1  17   3   11.06    1.48
  -1  17  -3    9.99    1.48
  -5   0   4    0.65    1.32
   5   0  -4    0.52    1.16
  -4   0   4   52.46    4.23
   4   0  -4   60.55    4.67
   3   0  -4    0.23    0.52
  -3   0   4   -0.10    0.34
   3   0  -4    0.05    0.39
  -3   0   4   -0.43    0.58
  -2   0   4    6.31    0.59
   2   0  -4    6.45    0.72
  -2   0   4    5.66    0.81
   2   0  -4    5.82    0.58
  -1   0   4   -0.05    0.12
   1   0  -4    0.10    0.18
   1   0  -4    0.14    0.09
  -1   0   4    0.05    0.19
   0   0  -4    3.15    0.45
   0   0  -4    4.27    0.37
   0   0   4    3.60    0.38
   0   0   4    4.00    0.33
   1   0   4   -0.14    0.12
  -1   0  -4    0.04    0.17
  -1   0  -4   -0.23    0.22
  -1   0  -4   -0.11    0.11
  -2   0  -4    9.47    1.17
   2   0   4   12.50    0.90
  -2   0  -4   13.22    1.15
  -2   0  -4   12.09    0.99
  -3   0  -4    0.37    0.51
   3   0   4   -0.10    0.32
  -3   0  -4    0.24    0.48
  -4   0  -4   79.12    6.00
   4   0   4   72.56    5.53
   5   0   4   -0.93    1.24
  -5   0  -4    0.02    0.97
  -5  -1   4    1.92    1.38
  -5   1   4   -0.14    1.42
  -4  -1   4   15.19    1.97
   4  -1  -4   18.10    1.99
  -4   1   4   15.33    2.06
   4   1  -4   15.18    1.89
  -3  -1   4   11.22    1.46
   3  -1  -4   14.04    1.21
   3  -1  -4   14.23    1.48
  -3  -1   4   15.66    1.21
   3   1  -4   14.62    1.43
  -3   1   4   13.71    1.12
   3   1  -4   14.27    1.21
  -3   1   4   11.75    1.53
   2  -1  -4   31.38    2.06
   2  -1  -4   29.02    2.36
  -2  -1   4   29.93    1.98
  -2  -1   4   27.67    2.14
  -2   1   4   28.53    2.15
  -2   1   4   31.80    1.95
   2   1  -4   29.96    2.35
   1  -1  -4   73.46    5.19
   1  -1  -4   82.99    5.89
  -1  -1   4   90.21    5.19
  -1  -1   4   75.45    4.93
  -1  -1   4   75.69    5.04
   1   1  -4   84.62    5.88
  -1   1   4   79.64    4.91
  -1   1   4   80.73    5.03
   0  -1  -4   24.42    1.52
   0  -1   4   23.15    1.50
   0  -1  -4   18.19    1.73
   0  -1   4   21.31    1.45
   0   1  -4   23.01    1.43
   0   1   4   23.69    1.45
   0   1   4   22.39    1.42
  -1  -1  -4   61.87    4.26
   1  -1   4   64.67    3.88
  -1  -1  -4   65.35    4.64
   1   1   4   62.90    3.89
  -1   1  -4   64.17    3.87
  -1   1  -4   65.54    4.66
   1   1   4   57.52    3.83
  -2  -1  -4   37.77    2.84
  -2  -1  -4   35.80    2.35
  -2  -1  -4   31.57    2.70
   2  -1   4   37.13    2.31
   2  -1   4   32.73    2.64
   2   1   4   39.12    2.36
  -2   1  -4   37.25    2.86
  -2   1  -4   37.34    2.44
  -3  -1  -4   21.69    1.76
   3  -1   4   22.32    1.56
  -3  -1  -4   21.86    2.09
   3  -1   4   22.68    2.02
  -3  -1  -4   23.25    2.03
  -3   1  -4   21.37    1.84
  -3   1  -4   21.70    2.05
   3   1   4   24.31    1.64
  -4  -1  -4   10.80    1.52
   4  -1   4    9.81    1.78
   4   1   4    9.42    1.54
  -4   1  -4   10.70    1.59
   5  -1   4   -0.29    1.23
  -5   1  -4    1.94    1.13
   5   1   4    4.03    1.43
  -5  -2   4    2.73    1.35
  -5   2   4    1.91    1.47
  -4  -2   4    4.32    1.19
   4  -2  -4    2.40    1.00
  -4   2   4    2.73    1.21
   4   2  -4    3.20    0.95
  -3  -2   4   20.24    1.47
  -3  -2   4   15.74    1.69
   3  -2  -4   20.15    1.51
   3  -2  -4   16.47    1.75
   3   2  -4   18.50    1.71
  -3   2   4   18.03    1.81
  -2  -2   4   85.40    5.84
   2  -2  -4   84.77    5.99
  -2  -2   4   96.83    6.05
  -2  -2   4   96.06    5.70
   2  -2  -4   89.15    6.80
  -2   2   4   95.01    5.63
  -2   2   4   95.01    5.87
   2   2  -4   92.25    6.76
  -1  -2   4   48.68    3.23
   1  -2  -4   46.70    3.28
  -1  -2   4   53.62    3.16
   1  -2  -4   50.80    3.75
  -1  -2   4   49.58    3.31
   1   2  -4   53.01    3.72
  -1   2   4   50.24    3.21
  -1   2   4   51.08    3.11
   0  -2  -4  473.16   31.70
   0  -2  -4  456.16   28.20
   0  -2   4  415.42   28.18
   0  -2   4  419.08   26.51
   0   2  -4  472.61   31.71
   0   2   4  429.98   26.62
   0   2  -4  429.34   26.62
   0   2   4  423.15   26.51
  -1  -2  -4   51.31    3.60
  -1  -2  -4   51.68    3.87
   1  -2   4   52.92    3.54
   1  -2   4   53.81    3.27
   1   2   4   47.28    3.21
  -1   2  -4   55.42    3.26
   1   2   4   53.88    3.28
  -1   2  -4   55.16    3.93
  -2  -2  -4  127.28    9.58
   2  -2   4  142.28    8.77
   2  -2   4  147.77    9.52
  -2  -2  -4  147.82   10.55
  -2   2  -4  148.03   10.61
   2   2   4  142.97    8.82
   2   2   4  150.88    8.84
  -2   2  -4  145.18    8.93
  -3  -2  -4   11.31    1.52
  -3  -2  -4    8.46    1.16
   3  -2   4    8.58    1.27
   3   2   4   10.70    0.97
  -3   2  -4   11.96    1.28
  -3   2  -4   10.47    1.30
  -4  -2  -4    2.35    0.84
   4  -2   4    1.54    1.06
  -4   2  -4    2.04    0.90
  -5   2  -4    4.83    1.36
  -4  -3   4   54.20    3.94
  -4  -3   4   53.49    3.64
   4  -3  -4   54.86    4.46
   4   3  -4   52.85    4.32
  -4   3   4   51.93    4.22
  -3  -3   4   11.76    1.43
  -3  -3   4   12.64    1.18
   3  -3  -4   12.56    1.20
   3  -3  -4   12.86    1.45
   3   3  -4   13.39    1.33
  -3   3   4   13.39    1.51
  -2  -3   4  309.15   18.21
   2  -3  -4  296.73   21.73
  -2  -3   4  317.88   19.39
  -2  -3   4  290.98   18.37
   2  -3  -4  275.59   19.28
  -2   3   4  302.52   18.40
   2   3  -4  301.89   21.67
  -2   3   4  302.76   18.09
   1  -3  -4   58.16    4.17
  -1  -3   4   62.92    3.98
  -1  -3   4   68.07    4.20
   1  -3  -4   64.78    4.73
   1   3  -4   68.76    4.70
  -1   3   4   63.09    4.03
  -1   3   4   62.90    3.94
   1   3  -4   63.42    4.05
   0  -3   4  195.15   13.12
   0  -3  -4  217.70   14.75
   0  -3  -4  215.49   13.14
   0  -3   4  191.86   12.35
   0   3   4  192.70   12.40
   0   3   4  194.24   12.34
   0   3  -4  206.72   12.40
   0   3  -4  218.30   14.76
  -1  -3  -4   50.36    3.58
   1  -3   4   45.63    3.02
   1  -3   4   50.57    3.28
  -1   3  -4   49.19    3.64
  -1   3  -4   48.94    3.03
   1   3   4   50.63    3.05
   1   3   4   44.56    2.98
   2  -3   4  216.38   13.06
  -2  -3  -4  221.68   14.23
   2  -3   4  221.69   14.07
  -2  -3  -4  221.38   15.67
  -2   3  -4  224.36   15.76
   2   3   4  192.58   13.12
  -2   3  -4  209.26   13.23
   2   3   4  220.05   13.15
  -3  -3  -4    6.55    0.96
   3  -3   4    6.08    1.00
  -3  -3  -4    6.73    1.22
   3   3   4    6.03    0.82
  -3   3  -4    5.45    1.07
  -3   3  -4    6.11    0.95
   4  -3   4   32.15    2.76
  -4  -3  -4   31.42    3.05
  -4   3  -4   30.47    2.94
   4   3   4   29.91    2.31
   4  -4  -4   10.43    1.73
  -4  -4   4    7.91    1.21
  -4   4   4    8.71    1.63
   4   4  -4    9.79    1.52
  -3  -4   4   28.71    2.06
   3  -4  -4   27.38    2.44
   3  -4  -4   26.13    2.08
  -3   4   4   29.03    2.32
   3   4  -4   29.04    2.32
  -2  -4   4   20.12    1.42
   2  -4  -4   18.70    1.65
  -2  -4   4   18.79    1.54
   2  -4  -4   19.32    1.43
   2   4  -4   17.81    1.53
  -2   4   4   19.51    1.23
  -2   4   4   18.38    1.49
   2   4  -4   19.84    1.54
  -1  -4   4  150.44    9.36
   1  -4  -4  140.25   10.51
  -1  -4   4  144.79    8.83
   1   4  -4  148.01    8.91
  -1   4   4  138.43    8.88
   1   4  -4  144.82   10.49
   0  -4  -4  128.08    7.92
   0  -4   4  117.01    7.44
   0  -4   4  116.91    7.90
   0  -4  -4  127.37    8.86
   0   4  -4  121.90    8.86
   0   4  -4  125.53    7.47
   0   4   4  117.39    7.43
   0   4   4  122.22    7.47
  -1  -4  -4  166.18   12.16
   1  -4   4  170.87   10.92
  -1  -4  -4  176.63   10.99
   1  -4   4  178.34   10.20
  -1   4  -4  169.86   10.27
  -1   4  -4  169.12   12.25
   1   4   4  149.44   10.22
   1   4   4  166.20   10.25
  -2  -4  -4   25.08    1.94
   2  -4   4   25.66    1.89
   2  -4   4   22.76    1.61
  -2  -4  -4   24.22    2.11
  -2   4  -4   25.19    2.08
   2   4   4   22.59    1.60
   2   4   4   24.60    1.70
  -2   4  -4   26.67    1.76
  -3  -4  -4   19.61    1.74
   3  -4   4   18.01    1.75
  -3  -4  -4   18.62    2.11
  -3   4  -4   16.33    1.69
   3   4   4   18.57    1.50
  -3   4  -4   21.08    1.92
   4  -4   4   12.50    1.76
  -4  -4  -4    9.78    1.84
  -4   4  -4   11.95    1.84
   4   4   4   14.32    1.42
   4  -5  -4    9.29    1.74
  -4  -5   4    9.04    1.29
  -4   5   4    9.80    1.65
   4   5  -4    7.08    1.33
  -3  -5   4   35.20    2.50
   3  -5  -4   35.69    2.55
   3  -5  -4   34.72    2.94
  -3   5   4   37.50    2.73
   3   5  -4   30.52    2.59
  -2  -5   4   11.43    1.21
  -2  -5   4   14.87    1.13
   2  -5  -4   13.15    1.27
   2  -5  -4   14.23    1.10
   2   5  -4   15.50    1.25
   2   5  -4   11.97    1.11
  -2   5   4   12.57    1.15
   1  -5  -4   35.85    2.72
   1  -5  -4   34.45    2.40
  -1  -5   4   36.23    2.33
  -1  -5   4   37.61    2.43
  -1   5   4   36.39    2.34
  -1   5   4   34.14    2.26
   1   5  -4   37.38    2.36
   1   5  -4   33.15    2.71
   0  -5  -4    0.35    0.20
   0  -5   4    0.26    0.21
   0  -5  -4    0.43    0.25
   0  -5   4    0.34    0.17
   0   5  -4    0.33    0.21
   0   5  -4    0.20    0.18
   0   5   4    0.32    0.18
   0   5   4    0.28    0.16
  -1  -5  -4   18.57    1.46
   1  -5   4   19.49    1.20
   1  -5   4   20.02    1.40
  -1  -5  -4   19.26    1.42
  -1   5  -4   18.14    1.28
   1   5   4   16.67    1.28
   1   5   4   16.98    1.22
  -1   5  -4   18.55    1.54
  -2  -5  -4   29.24    2.30
   2  -5   4   30.44    2.22
  -2  -5  -4   30.02    2.47
  -2   5  -4   35.02    2.12
   2   5   4   28.43    2.02
  -2   5  -4   28.38    2.46
   2   5   4   28.26    1.94
  -3  -5  -4   17.69    2.10
  -3   5  -4   17.42    1.82
  -3   5  -4   13.12    1.61
   3   5   4   19.44    1.47
   4  -5   4   10.81    1.67
  -4  -5  -4   10.63    1.93
   4   5   4   10.58    1.32
  -4   5  -4   11.36    1.84
   4  -6  -4   31.63    2.98
  -4  -6   4   31.83    2.42
  -4   6   4   29.96    2.91
   4   6  -4   25.12    2.53
  -3  -6   4   11.32    1.24
   3  -6  -4   12.95    1.25
   3  -6  -4   11.64    1.49
  -3   6   4   11.96    1.45
   3   6  -4    9.17    1.33
  -2  -6   4   10.06    0.96
  -2  -6   4    6.93    1.01
   2  -6  -4   10.02    1.10
   2  -6  -4   12.08    0.96
   2   6  -4    9.01    0.89
   2   6  -4    9.64    1.07
  -2   6   4   11.10    1.01
  -1  -6   4    2.65    0.49
   1  -6  -4    2.33    0.50
   1  -6  -4    2.80    0.46
  -1  -6   4    2.77    0.47
  -1   6   4    2.56    0.45
  -1   6   4    2.85    0.35
   1   6  -4    2.87    0.49
   0  -6  -4   40.94    2.79
   0  -6   4   39.93    2.62
   0  -6   4   42.30    2.78
   0  -6  -4   39.50    3.05
   0   6   4   40.64    2.61
   0   6  -4   42.28    3.08
   0   6  -4   42.29    2.64
   0   6   4   41.85    2.64
  -1  -6  -4    4.69    0.70
   1  -6   4    3.45    0.33
   1  -6   4    3.02    0.48
   1   6   4    2.84    0.41
  -1   6  -4    2.81    0.44
  -1   6  -4    2.88    0.54
   1   6   4    3.26    0.46
   2  -6   4    7.64    0.85
  -2  -6  -4    7.64    1.20
  -2   6  -4    7.54    1.02
  -2   6  -4    8.44    0.87
   2   6   4    6.36    0.76
   2   6   4    6.87    0.67
   3  -6   4   23.94    1.97
  -3  -6  -4   19.90    2.42
  -3   6  -4   19.41    1.91
   3   6   4   24.10    1.77
  -3   6  -4   19.21    2.11
  -4  -6  -4   31.02    3.66
   4  -6   4   40.69    3.35
  -4   6  -4   41.30    3.69
   4   6   4   44.47    3.02
   4  -7  -4    7.60    1.45
  -4  -7   4    6.36    1.08
   4   7  -4    3.95    1.15
  -4   7   4    7.82    1.60
  -3  -7   4   26.29    2.02
   3  -7  -4   24.33    2.36
   3   7  -4   22.86    2.08
  -3   7   4   26.61    2.18
  -2  -7   4   33.21    3.03
  -2  -7   4   44.62    2.88
   2  -7  -4   42.83    3.34
   2  -7  -4   46.26    2.96
  -2   7   4   41.54    2.90
   2   7  -4   44.33    2.93
  -1  -7   4   23.71    1.70
   1  -7  -4   21.28    1.82
   1  -7  -4   23.27    1.66
  -1  -7   4   21.29    1.60
  -1   7   4   23.16    1.62
  -1   7   4   22.99    1.47
   1   7  -4   23.05    1.64
   0  -7   4   34.81    2.35
   0  -7   4   30.81    2.19
   0  -7  -4   34.50    2.36
   0  -7  -4   32.15    2.53
   0   7  -4   34.25    2.23
   0   7   4   35.65    2.23
   0   7  -4   34.67    2.56
   0   7   4   33.85    2.19
   1  -7   4   48.78    3.19
  -1  -7  -4   46.62    3.26
   1  -7   4   44.11    2.89
   1   7   4   45.50    2.96
  -1   7  -4   50.16    3.02
  -1   7  -4   46.57    3.56
   1   7   4   43.94    2.99
   2  -7   4   24.10    1.80
  -2  -7  -4   21.01    2.01
   2   7   4   20.55    1.54
   2   7   4   20.46    1.62
  -2   7  -4   25.22    2.03
  -2   7  -4   22.02    1.69
   3  -7   4   48.01    3.63
  -3  -7  -4   49.18    4.07
  -3   7  -4   50.59    3.55
   3   7   4   48.62    3.37
  -3   7  -4   49.42    4.07
   4  -7   4    5.42    1.21
  -4  -7  -4    2.38    1.50
  -4   7  -4    4.31    1.20
   4   7   4    4.46    0.99
  -4  -8   4   12.99    1.55
   4  -8  -4   13.50    2.10
   4   8  -4    8.96    1.49
  -4   8   4    9.51    1.76
  -3  -8   4    3.76    0.81
   3  -8  -4    4.27    0.84
   3  -8  -4    2.87    0.93
   3   8  -4    4.23    0.94
  -3   8   4    3.74    0.90
   2  -8  -4   33.76    2.74
   2  -8  -4   35.22    2.42
  -2  -8   4   27.39    2.52
  -2  -8   4   33.06    2.37
   2   8  -4   35.74    2.41
  -2   8   4   33.28    2.38
   1  -8  -4   18.87    1.63
  -1  -8   4   21.67    1.56
   1  -8  -4   20.57    1.50
  -1  -8   4   17.60    1.44
  -1   8   4   19.76    1.45
  -1   8   4   18.71    1.29
   1   8  -4   19.63    1.49
   0  -8  -4  296.32   22.63
   0  -8   4  327.71   20.25
   0  -8  -4  305.91   20.25
   0  -8   4  307.23   19.03
   0   8  -4  318.45   22.68
   0   8   4  319.10   19.14
   0   8  -4  318.89   19.13
   0   8   4  317.22   19.02
  -1  -8  -4   15.00    1.44
   1  -8   4   17.96    1.36
   1  -8   4   15.83    1.13
   1   8   4   16.01    1.26
  -1   8  -4   17.28    1.28
   1   8   4   17.19    1.22
  -1   8  -4   16.91    1.48
   2  -8   4   51.13    3.63
  -2  -8  -4   56.95    3.92
  -2   8  -4   52.37    3.48
   2   8   4   52.16    3.34
  -2   8  -4   52.16    4.10
   2   8   4   47.43    3.40
   3  -8   4    7.82    1.31
  -3  -8  -4    8.97    1.69
  -3   8  -4    8.96    1.42
  -3   8  -4    6.68    1.21
   3   8   4    7.33    1.08
  -4  -8  -4    7.41    1.96
   4  -8   4    5.18    1.24
  -4   8  -4    5.58    1.36
   4   8   4    4.98    1.07
   4  -9  -4    3.59    1.32
  -4  -9   4    4.61    1.06
  -4   9   4    7.75    1.67
   4   9  -4    3.17    1.12
   3  -9  -4   34.93    3.10
   3  -9  -4   36.90    2.71
  -3  -9   4   33.63    2.65
   3   9  -4   33.03    2.65
  -3   9   4   33.85    2.76
  -2  -9   4   59.16    3.90
   2  -9  -4   60.15    4.55
   2  -9  -4   65.52    4.06
  -2  -9   4   45.89    4.10
   2   9  -4   63.84    3.93
  -2   9   4   55.00    3.90
   1  -9  -4  106.54    6.61
   1  -9  -4   98.94    7.37
  -1  -9   4  101.11    6.65
  -1  -9   4   99.55    6.27
  -1   9   4   92.22    6.28
   0  -9  -4   25.60    2.06
   0  -9   4   28.17    1.92
   0  -9   4   29.25    2.07
   0   9  -4   29.27    2.20
   0   9  -4   28.88    1.96
   0   9   4   28.81    1.95
   0   9   4   27.21    1.89
  -1  -9  -4   45.03    3.52
   1  -9   4   50.42    3.45
   1   9   4   52.52    3.24
  -1   9  -4   51.82    3.87
   1   9   4   47.14    3.25
  -1   9  -4   51.97    3.30
   2  -9   4   36.37    2.68
  -2  -9  -4   32.83    2.87
  -2   9  -4   35.79    2.99
   2   9   4   36.59    2.42
   2   9   4   34.26    2.50
  -2   9  -4   36.31    2.56
  -3  -9  -4   20.01    2.53
   3  -9   4   19.41    1.92
   3   9   4   18.20    1.73
  -3   9  -4   21.31    2.16
  -3   9  -4   14.65    1.92
  -4  -9  -4    5.18    1.97
   4  -9   4    3.52    1.22
   4   9   4    4.02    1.06
  -4   9  -4    4.12    1.27
   4 -10  -4    8.53    1.65
  -4 -10   4    9.01    1.37
  -4  10   4   10.01    1.75
   4  10  -4    5.95    1.37
  -3 -10   4    6.83    1.08
   3 -10  -4    6.58    1.28
   3 -10  -4    5.87    1.02
   3  10  -4    6.59    1.18
  -3  10   4    7.62    1.23
  -2 -10   4    6.23    1.02
  -2 -10   4    4.44    0.96
   2 -10  -4    5.64    1.01
   2 -10  -4    7.10    1.13
   2  10  -4    5.85    0.94
  -2  10   4    5.86    0.94
  -1 -10   4   93.71    6.15
   1 -10  -4   87.26    6.76
   1 -10  -4   95.96    6.11
  -1 -10   4   88.72    5.78
   1  10  -4   92.55    5.80
  -1  10   4   88.97    5.80
   0 -10   4    1.38    0.48
   0 -10  -4    1.42    0.52
   0 -10   4    1.21    0.37
   0  10  -4    0.54    0.42
   0  10   4    1.07    0.38
   0  10   4    1.16    0.33
   1 -10   4  106.84    7.13
  -1 -10  -4  101.50    7.18
   1  10   4  101.73    6.70
  -1  10  -4  111.34    6.77
   1  10   4  110.51    6.71
  -1  10  -4  109.90    7.97
   2 -10   4    2.64    0.66
  -2 -10  -4    2.49    0.94
  -2  10  -4    3.59    0.79
   2  10   4    2.20    0.58
   2  10   4    2.87    0.64
  -2  10  -4    3.17    0.73
  -3 -10  -4    9.09    1.88
   3 -10   4   10.86    1.62
  -3  10  -4   11.31    1.70
   3  10   4    9.46    1.33
  -3  10  -4    9.46    1.62
  -4 -10  -4    8.51    2.12
   4 -10   4   10.55    1.90
   4  10   4    6.56    1.27
  -4  10  -4   12.36    2.13
   3 -11  -4   13.53    1.65
  -3 -11   4   14.76    1.69
   3 -11  -4   13.86    1.94
   3  11  -4   13.97    1.75
  -3  11   4   14.44    1.78
   2 -11  -4   33.49    2.67
   2 -11  -4   33.89    2.43
  -2 -11   4   30.47    2.34
  -2 -11   4   25.73    2.56
   2  11  -4   29.44    2.34
  -2  11   4   27.71    2.28
  -1 -11   4   17.29    1.50
  -1 -11   4   16.68    1.67
   1 -11  -4   20.63    1.62
   1  11  -4   19.39    1.56
  -1  11   4   16.63    1.48
   0 -11   4    2.51    0.59
   0 -11   4    3.68    0.55
   0 -11  -4    2.24    0.64
   0  11  -4    1.60    0.55
   0  11   4    1.80    0.48
   0  11   4    2.04    0.44
  -1 -11  -4    8.04    1.26
   1 -11   4    9.11    1.16
  -1  11  -4   10.36    1.08
   1  11   4   10.60    1.04
   1  11   4   12.50    1.07
   2 -11   4   33.32    2.51
  -2 -11  -4   28.32    2.74
  -2  11  -4   31.55    2.41
  -2  11  -4   32.04    2.78
   2  11   4   30.33    2.34
   2  11   4   31.93    2.26
   3 -11   4    5.25    1.13
  -3 -11  -4    4.75    1.64
   3  11   4    7.49    1.14
  -3  11  -4    4.79    1.22
  -3  11  -4    6.66    1.28
  -3 -12   4   12.80    1.72
   3 -12  -4   15.51    1.86
   3 -12  -4   12.93    1.96
  -3  12   4   14.60    1.82
   3  12  -4   12.68    1.72
   2 -12  -4    2.52    0.82
  -2 -12   4    2.31    0.94
  -2 -12   4    3.00    0.80
   2 -12  -4    2.60    0.82
   2  12  -4    2.53    0.84
  -2  12   4    3.17    0.79
  -1 -12   4    3.79    0.84
  -1 -12   4    2.82    0.66
   1 -12  -4    3.58    0.76
   1  12  -4    2.87    0.74
  -1  12   4    3.03    0.65
   0 -12   4    6.02    0.98
   0 -12   4    5.69    0.79
   0 -12  -4    4.01    0.78
   0  12   4    4.51    0.72
   0  12  -4    5.60    0.95
   0  12   4    5.97    0.74
   1 -12   4    5.57    1.03
  -1 -12  -4    6.98    1.10
   1  12   4    6.26    0.88
  -1  12  -4    6.09    0.96
   1  12   4    6.51    0.90
  -2 -12  -4    1.31    1.00
   2 -12   4    1.80    0.78
   2  12   4    0.93    0.60
  -2  12  -4    1.38    0.73
   2  12   4    2.08    0.67
  -2  12  -4    1.74    0.76
   3 -12   4   19.90    2.05
  -3 -12  -4   20.59    2.73
  -3  12  -4   18.26    2.30
  -3  12  -4   16.99    2.19
   3  12   4   17.12    1.92
   3 -13  -4    2.49    1.15
   3 -13  -4    3.90    1.07
  -3 -13   4    4.83    1.13
   3  13  -4    3.01    1.10
  -3  13   4    3.64    1.13
  -2 -13   4   33.98    3.33
  -2 -13   4   41.20    3.04
   2 -13  -4   43.94    3.11
  -2  13   4   38.92    3.03
   2  13  -4   42.07    3.02
  -1 -13   4   16.31    1.53
   1 -13  -4   16.23    1.68
  -1 -13   4   15.87    1.72
   1  13  -4   15.67    1.58
  -1  13   4   16.92    1.51
   0 -13   4    2.96    0.79
   0 -13  -4    3.50    0.86
   0  13  -4    3.24    0.77
   0  13   4    2.62    0.64
   1 -13   4   19.32    1.78
  -1 -13  -4   17.23    1.91
   1  13   4   21.30    1.68
  -1  13  -4   18.87    1.68
   1  13   4   18.74    1.63
  -2 -13  -4   31.56    2.97
   2 -13   4   33.02    2.69
   2  13   4   33.05    2.45
  -2  13  -4   32.83    2.61
   2  13   4   31.81    2.53
  -3 -13  -4    6.37    1.90
   3 -13   4    9.15    1.66
  -3  13  -4    7.04    1.51
  -3  13  -4    7.95    1.49
   3  13   4    9.09    1.35
  -2 -14   4    1.90    0.83
   2 -14  -4    1.57    0.93
  -2  14   4    2.51    0.90
   2  14  -4    2.81    1.02
  -1 -14   4   21.92    2.10
   1 -14  -4   20.10    2.02
  -1 -14   4   23.01    1.90
  -1  14   4   20.68    1.83
   1  14  -4   20.16    1.91
   0 -14  -4   33.24    2.82
   0 -14   4   36.99    2.86
   0  14  -4   37.09    2.69
   0  14   4   35.71    2.62
   1 -14   4   32.34    2.55
  -1 -14  -4   28.79    2.68
   1  14   4   32.75    2.34
   1  14   4   33.46    2.37
  -1  14  -4   26.26    2.38
   2 -14   4    4.34    1.09
  -2 -14  -4    3.30    1.29
   2  14   4    4.39    0.92
   2  14   4    6.19    1.00
  -2  14  -4    4.02    1.05
  -2 -15   4    0.79    0.78
   2 -15  -4    0.35    0.91
  -2  15   4    0.08    0.80
   2  15  -4    1.94    1.00
  -1 -15   4   40.64    3.22
  -1 -15   4   35.29    2.80
   1 -15  -4   37.60    3.03
   1  15  -4   40.64    2.94
  -1  15   4   34.55    2.81
   0 -15   4    0.56    0.83
   0 -15  -4    0.94    0.89
   0  15  -4    0.99    0.71
   0  15   4    1.03    0.60
  -1 -15  -4   17.05    2.17
   1 -15   4   22.37    1.99
   1  15   4   20.74    1.79
  -1  15  -4   19.00    1.87
   1  15   4   20.80    1.82
   2 -15   4    0.24    0.88
  -2 -15  -4    1.32    1.21
  -2  15  -4    0.75    0.90
   2  15   4   -0.26    0.73
   2  15   4   -0.64    0.66
  -1 -16   4   24.07    2.40
   1 -16  -4   22.68    2.26
  -1  16   4   20.15    2.00
   1  16  -4   22.96    2.22
   0 -16  -4   40.97    3.53
   0 -16   4   47.64    3.60
   0  16   4   45.18    3.26
   0  16  -4   45.61    3.37
  -1 -16  -4   23.08    2.69
   1 -16   4   31.44    2.58
  -1  16  -4   24.50    2.35
   1  16   4   29.97    2.34
  -1 -17   4    0.60    1.17
   0 -17  -4    6.25    1.44
   0 -17   4    8.91    1.53
   0  17   4    6.26    1.11
   0  17  -4    8.87    1.53
   1  17   4    1.72    0.84
   4   0  -5    0.32    0.79
  -4   0   5    0.65    1.01
  -3   0   5   71.85    4.29
  -3   0   5   63.76    4.61
   3   0  -5   65.04    5.14
   2   0  -5    0.05    0.31
  -2   0   5    0.05    0.37
   2   0  -5   -0.15    0.20
  -2   0   5   -0.18    0.23
  -1   0   5  166.17    9.59
  -1   0   5  157.35    9.74
   1   0  -5  149.36   11.44
   0   0   5   -0.04    0.11
   0   0   5    0.01    0.17
   0   0  -5   -0.31    0.21
   0   0  -5   -0.11    0.15
  -1   0  -5  264.87   20.12
  -1   0  -5  335.61   22.53
   1   0   5  332.26   18.84
  -2   0  -5    0.33    0.31
  -2   0  -5    0.13    0.49
  -2   0  -5    0.03    0.26
   2   0   5   -0.05    0.20
   3   0   5  110.84    6.86
  -3   0  -5  110.94    8.32
  -4   0  -5    0.17    0.72
   4   0   5   -0.26    0.98
   4  -1  -5   13.00    1.69
  -4  -1   5   10.66    1.66
   4   1  -5   11.15    1.60
  -4   1   5    9.81    1.68
  -3  -1   5   74.49    5.02
   3  -1  -5   71.77    5.63
  -3  -1   5   76.48    4.71
  -3   1   5   73.91    5.06
  -3   1   5   73.30    4.65
   3   1  -5   74.38    5.61
  -2  -1   5   55.58    3.49
   2  -1  -5   54.86    3.64
   2  -1  -5   53.44    4.16
  -2  -1   5   53.17    3.69
   2   1  -5   55.31    3.65
  -2   1   5   54.58    3.46
  -2   1   5   58.17    3.72
   2   1  -5   56.71    4.15
   1  -1  -5  225.55   15.44
  -1  -1   5  209.73   13.08
  -1  -1   5  205.98   12.92
  -1   1   5  204.58   13.05
   1   1  -5  221.49   15.42
  -1   1   5  210.78   12.91
   0  -1   5  270.82   16.95
   0  -1   5  288.95   17.99
   0  -1  -5  286.01   18.00
   0   1   5  272.23   16.95
   0   1   5  278.59   16.98
   0   1  -5  282.85   16.99
  -1  -1  -5  138.53    9.34
   1  -1   5  142.51    8.67
  -1  -1  -5  143.20   10.35
  -1   1  -5  144.29   10.37
   1   1   5  141.91    8.67
  -1   1  -5  150.56    9.33
  -1   1  -5  136.99    8.65
  -2  -1  -5   30.70    2.36
  -2  -1  -5   32.41    2.37
  -2  -1  -5   29.00    1.90
   2  -1   5   27.14    1.90
  -2   1  -5   32.90    2.02
   2   1   5   28.20    1.94
  -2   1  -5   28.72    2.37
   3  -1   5   32.39    2.98
  -3  -1  -5   39.36    3.15
  -3  -1  -5   44.82    3.18
   3  -1   5   37.07    2.52
   3   1   5   41.53    2.59
  -3   1  -5   37.63    3.18
   4  -1   5   14.66    1.95
  -4  -1  -5   15.30    1.81
   4   1   5   12.33    1.96
  -4   1  -5   15.17    1.84
   4  -2  -5    9.10    1.61
  -4  -2   5    8.36    1.49
  -4   2   5   13.17    1.93
   4   2  -5   10.07    1.52
  -3  -2   5   28.89    2.35
  -3  -2   5   29.59    2.07
   3  -2  -5   29.06    2.49
   3   2  -5   28.82    2.43
  -3   2   5   29.37    2.42
  -2  -2   5   38.70    2.99
   2  -2  -5   44.73    3.40
   2  -2  -5   44.09    2.95
  -2  -2   5   45.55    2.86
  -2  -2   5   46.32    2.97
   2   2  -5   43.16    3.35
  -2   2   5   45.95    2.79
  -2   2   5   42.90    3.01
  -1  -2   5   34.54    2.18
  -1  -2   5   32.57    2.24
   1  -2  -5   34.97    2.58
  -1  -2   5   30.43    2.24
  -1   2   5   36.26    2.17
  -1   2   5   34.09    2.24
   1   2  -5   34.83    2.56
   0  -2   5  114.88    7.07
   0  -2  -5  121.65    7.51
   0  -2  -5  115.27    8.46
   0  -2   5  116.84    7.48
   0   2   5  118.13    7.07
   0   2  -5  116.77    8.45
   0   2   5  110.71    7.07
   0   2  -5  112.94    7.08
  -1  -2  -5   32.66    2.37
   1  -2   5   35.68    2.32
   1  -2   5   33.19    2.12
  -1  -2  -5   33.69    2.48
   1   2   5   33.13    2.10
  -1   2  -5   33.68    2.06
   1   2   5   28.82    2.01
  -1   2  -5   33.45    2.51
   2  -2   5   69.08    4.63
  -2  -2  -5   63.52    4.71
   2  -2   5   64.45    4.15
  -2  -2  -5   70.34    5.03
   2   2   5   71.67    4.22
  -2   2  -5   69.77    5.08
  -2   2  -5   65.36    4.26
   2   2   5   62.82    4.13
  -3  -2  -5   24.80    2.41
   3  -2   5   25.31    2.21
  -3  -2  -5   26.43    2.24
  -3   2  -5   24.58    2.31
   3   2   5   26.68    1.86
  -4  -2  -5    5.17    1.04
   4  -2   5    5.35    1.32
  -4  -2  -5    6.89    1.53
  -4   2  -5    5.91    1.20
  -4  -3   5    7.73    1.39
   4  -3  -5    7.46    1.56
  -4  -3   5    7.68    1.20
  -4   3   5    8.34    1.60
   4   3  -5    8.03    1.37
   3  -3  -5   54.01    3.54
  -3  -3   5   53.29    3.42
  -3  -3   5   51.44    3.63
   3  -3  -5   51.37    4.07
  -3   3   5   49.60    3.69
   3   3  -5   48.59    3.97
  -2  -3   5    6.85    0.69
   2  -3  -5    5.71    0.61
  -2  -3   5    6.40    0.69
  -2  -3   5    6.22    0.81
   2  -3  -5    6.09    0.80
   2   3  -5    6.33    0.71
  -2   3   5    5.71    0.80
  -2   3   5    5.74    0.54
   1  -3  -5    4.83    0.49
  -1  -3   5    6.16    0.54
   1  -3  -5    6.66    0.63
  -1  -3   5    6.00    0.51
  -1   3   5    5.60    0.55
   1   3  -5    5.57    0.61
   1   3  -5    6.95    0.68
  -1   3   5    4.95    0.52
   0  -3   5    0.12    0.13
   0  -3   5    0.12    0.13
   0  -3  -5    0.25    0.23
   0  -3  -5   -0.09    0.17
   0   3  -5    0.21    0.18
   0   3   5   -0.01    0.13
   0   3   5    0.22    0.12
   0   3  -5    0.00    0.21
   1  -3   5    8.35    0.78
  -1  -3  -5   10.01    0.90
   1  -3   5    7.83    0.68
  -1  -3  -5    8.85    0.76
  -1   3  -5    8.83    0.83
   1   3   5    7.23    0.58
  -1   3  -5    9.43    0.65
   1   3   5    9.27    0.69
   2  -3   5    5.42    0.81
  -2  -3  -5    6.21    1.07
   2  -3   5    6.11    0.54
  -2  -3  -5    4.80    0.67
  -2   3  -5    4.97    0.79
   2   3   5    5.25    0.48
   2   3   5    5.15    0.59
  -2   3  -5    5.29    0.66
   3  -3   5   48.36    3.59
  -3  -3  -5   47.31    3.79
  -3  -3  -5   45.70    3.79
   3   3   5   50.63    3.20
  -3   3  -5   48.13    3.91
   4  -3   5    5.72    1.28
  -4  -3  -5    5.80    1.55
  -4   3  -5    4.87    1.15
   4   3   5    5.81    0.91
   4  -4  -5   22.72    2.28
  -4  -4   5   18.81    1.76
   4   4  -5   16.31    1.99
  -4   4   5   19.00    2.44
   3  -4  -5   15.15    1.71
   3  -4  -5   18.66    1.42
  -3  -4   5   17.99    1.45
   3   4  -5   15.53    1.54
  -3   4   5   16.82    1.69
   2  -4  -5   47.07    3.48
  -2  -4   5   45.67    2.95
  -2  -4   5   46.83    3.14
   2  -4  -5   42.72    3.02
   2   4  -5   43.05    3.06
  -2   4   5   46.77    3.05
  -2   4   5   45.16    2.79
   2   4  -5   42.75    3.37
  -1  -4   5   80.14    4.94
  -1  -4   5   79.29    5.19
   1  -4  -5   81.93    5.85
   1  -4  -5   71.73    5.17
   1   4  -5   81.76    5.01
  -1   4   5   71.56    4.91
   1   4  -5   91.78    5.88
  -1   4   5   77.94    4.97
   0  -4   5   21.43    1.48
   0  -4  -5   24.70    1.77
   0  -4  -5   22.84    1.60
   0  -4   5   22.24    1.57
   0   4   5   23.59    1.49
   0   4   5   20.97    1.48
   0   4  -5   22.83    1.77
   0   4  -5   24.03    1.51
   1  -4   5   62.64    3.73
   1  -4   5   60.24    4.04
  -1  -4  -5   61.65    4.11
  -1  -4  -5   60.15    4.42
  -1   4  -5   59.66    3.75
   1   4   5   54.47    3.70
   1   4   5   62.45    3.78
  -1   4  -5   60.58    4.50
  -2  -4  -5   40.76    3.10
   2  -4   5   44.52    2.94
   2  -4   5   37.61    2.60
  -2  -4  -5   46.49    3.19
  -2   4  -5   39.48    2.70
  -2   4  -5   42.54    3.23
   2   4   5   39.64    2.65
   2   4   5   38.22    2.56
  -3  -4  -5   27.56    2.41
   3  -4   5   30.99    2.42
  -3  -4  -5   27.51    2.68
  -3   4  -5   28.55    2.56
   3   4   5   29.06    2.06
  -4  -4  -5   12.18    1.96
   4  -4   5    9.31    1.71
  -4   4  -5    9.73    1.74
   4   4   5    9.25    1.26
  -4  -5   5   25.03    2.00
   4  -5  -5   22.07    2.48
  -4   5   5   22.53    2.53
   4   5  -5   21.73    2.31
   3  -5  -5   65.64    4.91
  -3  -5   5   61.37    4.12
   3  -5  -5   62.49    4.27
  -3   5   5   66.19    4.36
   3   5  -5   56.62    4.27
   2  -5  -5    0.17    0.41
  -2  -5   5    0.29    0.40
  -2  -5   5    0.01    0.33
   2  -5  -5    0.25    0.34
  -2   5   5    0.15    0.31
   2   5  -5    0.70    0.29
   2   5  -5    0.28    0.56
  -1  -5   5  375.49   22.85
   1  -5  -5  388.33   27.26
  -1  -5   5  375.58   24.25
  -1   5   5  366.26   22.82
  -1   5   5  382.23   22.97
   1   5  -5  340.86   27.26
   1   5  -5  413.06   23.00
   0  -5   5    4.16    0.43
   0  -5  -5    4.48    0.52
   0  -5  -5    4.55    0.53
   0  -5   5    4.16    0.47
   0   5   5    4.48    0.43
   0   5   5    4.27    0.42
   0   5  -5    4.82    0.50
   0   5  -5    4.65    0.49
  -1  -5  -5  261.46   19.00
  -1  -5  -5  259.24   17.07
   1  -5   5  274.72   15.92
   1  -5   5  269.76   17.02
   1   5   5  234.14   15.97
  -1   5  -5  266.74   19.10
   1   5   5  261.68   15.98
  -1   5  -5  277.86   16.03
   2  -5   5    0.04    0.39
  -2  -5  -5    0.10    0.29
  -2  -5  -5   -0.22    0.66
   2   5   5    0.21    0.29
  -2   5  -5    0.51    0.36
   2   5   5    0.18    0.25
  -2   5  -5    0.01    0.39
   3  -5   5   55.66    4.01
  -3  -5  -5   56.93    4.42
   3   5   5   57.91    3.66
  -3   5  -5   44.96    3.88
  -3   5  -5   57.97    4.44
   4  -5   5   21.43    2.34
  -4  -5  -5   19.92    2.96
  -4   5  -5   24.23    2.56
   4   5   5   25.12    2.02
   4  -6  -5    4.66    1.22
  -4  -6   5    3.62    0.91
  -4   6   5    5.80    1.43
   4   6  -5    5.03    1.20
   3  -6  -5   19.64    1.55
   3  -6  -5   17.35    1.85
  -3  -6   5   17.14    1.59
  -3   6   5   19.22    1.79
   3   6  -5   14.07    1.67
   2  -6  -5   60.77    3.84
  -2  -6   5   47.47    3.91
  -2  -6   5   60.63    3.71
   2  -6  -5   58.69    4.36
   2   6  -5   60.34    3.80
   2   6  -5   52.27    4.21
  -2   6   5   58.76    3.76
  -1  -6   5   83.66    5.36
   1  -6  -5   85.42    5.63
  -1  -6   5   84.25    5.65
   1  -6  -5   79.97    6.32
  -1   6   5   84.21    5.39
   1   6  -5   87.49    5.40
  -1   6   5   87.06    5.30
   1   6  -5   94.05    6.32
   0  -6   5   68.93    4.79
   0  -6  -5   73.62    4.82
   0  -6  -5   73.38    5.34
   0  -6   5   70.04    4.52
   0   6  -5   70.21    5.35
   0   6   5   74.83    4.55
   0   6  -5   77.86    4.56
   0   6   5   73.93    4.51
   1  -6   5  155.19    9.84
   1  -6   5  163.98   10.57
  -1  -6  -5  166.82   10.64
  -1  -6  -5  158.12   11.73
  -1   6  -5  156.87   11.85
   1   6   5  157.60    9.92
  -1   6  -5  177.17    9.97
   1   6   5  162.11    9.91
   2  -6   5   75.02    5.04
  -2  -6  -5   72.57    5.23
   2   6   5   69.19    4.67
   2   6   5   74.18    4.60
  -2   6  -5   73.01    5.63
  -2   6  -5   78.62    4.76
  -3  -6  -5   28.08    2.80
   3  -6   5   27.44    2.31
  -3   6  -5   26.00    2.50
  -3   6  -5   26.44    2.22
   3   6   5   27.44    2.05
   4  -6   5    9.02    1.66
  -4  -6  -5    6.87    1.86
  -4   6  -5    7.48    1.42
   4   6   5    7.85    1.31
   4  -7  -5    2.32    1.15
  -4  -7   5    2.11    0.88
  -4   7   5    2.23    1.26
   4   7  -5    2.72    1.12
   3  -7  -5    9.74    1.48
   3  -7  -5   11.42    1.21
  -3  -7   5    9.58    1.26
   3   7  -5    9.17    1.39
  -3   7   5    9.71    1.37
   2  -7  -5   68.26    4.23
   2  -7  -5   62.48    4.77
  -2  -7   5   60.85    4.05
   2   7  -5   60.21    4.13
  -2   7   5   58.42    4.10
  -1  -7   5   48.43    3.26
   1  -7  -5   51.40    3.82
  -1  -7   5   52.64    3.44
   1  -7  -5   50.67    3.41
  -1   7   5   50.21    3.29
   1   7  -5   54.12    3.33
  -1   7   5   46.60    3.16
   0  -7   5  199.08   12.54
   0  -7  -5  207.87   13.36
   0  -7  -5  200.43   14.91
   0  -7   5  211.83   13.35
   0   7  -5  212.65   12.62
   0   7   5  202.60   12.53
   0   7  -5  201.64   14.94
   0   7   5  212.65   12.62
   1  -7   5   28.81    1.90
   1  -7   5   29.51    2.15
  -1  -7  -5   28.11    2.23
  -1   7  -5   30.73    2.38
  -1   7  -5   30.90    2.02
   1   7   5   28.63    1.95
   1   7   5   30.65    2.01
   2  -7   5   33.76    2.50
  -2  -7  -5   29.80    2.71
  -2   7  -5   35.13    2.81
   2   7   5   33.75    2.21
  -2   7  -5   34.24    2.37
   2   7   5   32.57    2.30
  -3  -7  -5    6.67    1.54
   3  -7   5    8.58    1.32
  -3   7  -5    7.58    1.33
   3   7   5    7.37    1.05
  -3   7  -5    5.29    1.04
  -4  -7  -5    1.87    1.58
   4  -7   5    4.12    1.22
   4   7   5    2.90    0.88
  -4   7  -5    1.70    1.02
   4  -8  -5    4.69    1.31
  -4  -8   5    5.00    1.05
   4   8  -5    4.38    1.22
  -4   8   5    4.91    1.41
   3  -8  -5   28.71    2.19
  -3  -8   5   26.85    2.17
   3  -8  -5   26.74    2.55
  -3   8   5   25.28    2.29
   3   8  -5   25.72    2.32
   2  -8  -5   25.44    1.86
  -2  -8   5   22.95    1.81
  -2  -8   5   18.73    1.89
   2  -8  -5   23.76    2.07
  -2   8   5   25.22    1.84
   2   8  -5   24.12    1.90
  -1  -8   5   21.79    1.65
   1  -8  -5   21.37    1.77
   1  -8  -5   20.73    1.62
  -1  -8   5   22.07    1.58
  -1   8   5   20.89    1.42
  -1   8   5   20.51    1.56
   1   8  -5   21.92    1.63
   0  -8  -5   33.40    2.65
   0  -8   5   34.55    2.30
   0  -8  -5   34.14    2.48
   0  -8   5   36.38    2.46
   0   8   5   34.64    2.29
   0   8  -5   35.41    2.34
   0   8  -5   34.95    2.68
   0   8   5   36.98    2.34
  -1  -8  -5   17.11    1.64
   1  -8   5   19.23    1.38
   1  -8   5   21.81    1.62
   1   8   5   20.97    1.50
   1   8   5   23.46    1.48
  -1   8  -5   20.50    1.76
  -1   8  -5   20.80    1.51
  -2  -8  -5   53.45    3.83
   2  -8   5   50.88    3.56
   2   8   5   48.26    3.33
   2   8   5   49.25    3.24
  -2   8  -5   54.02    3.41
  -2   8  -5   47.21    3.99
  -3  -8  -5   14.39    2.19
   3  -8   5   14.53    1.61
  -3   8  -5    8.06    1.53
  -3   8  -5   14.91    1.75
   3   8   5   12.50    1.34
   4  -8   5    6.62    1.36
  -4  -8  -5    4.51    1.80
   4   8   5    6.58    1.12
  -4   8  -5    6.43    1.39
   4  -9  -5   28.53    2.89
  -4  -9   5   25.93    2.35
  -4   9   5   25.92    2.76
   4   9  -5   22.95    2.42
  -3  -9   5    3.60    0.89
   3  -9  -5    4.44    0.86
   3  -9  -5    5.19    1.07
  -3   9   5    4.02    0.97
   3   9  -5    3.38    1.02
  -2  -9   5    2.04    0.61
   2  -9  -5    3.14    0.73
   2  -9  -5    2.48    0.64
  -2  -9   5    2.98    0.76
  -2   9   5    2.74    0.65
   2   9  -5    3.04    0.74
   1  -9  -5    4.39    0.68
  -1  -9   5    4.74    0.82
  -1  -9   5    5.69    0.71
   1  -9  -5    3.64    0.74
  -1   9   5    5.08    0.64
   1   9  -5    4.88    0.75
   0  -9   5    0.53    0.28
   0  -9  -5    0.29    0.44
   0  -9   5    0.39    0.39
   0   9   5    0.23    0.25
   0   9  -5   -0.15    0.32
   0   9  -5    0.27    0.28
   0   9   5    0.05    0.28
   1  -9   5    4.40    0.68
  -1  -9  -5    1.42    0.56
   1   9   5    2.26    0.45
  -1   9  -5    1.97    0.52
  -1   9  -5    2.41    0.51
   1   9   5    2.13    0.45
  -2  -9  -5    4.71    1.08
   2  -9   5    4.33    0.82
  -2   9  -5    5.02    1.01
   2   9   5    5.03    0.72
   2   9   5    3.13    0.65
  -2   9  -5    5.77    0.84
  -3  -9  -5    5.67    1.59
   3  -9   5    4.39    1.07
  -3   9  -5    4.12    1.04
  -3   9  -5    5.71    1.14
   3   9   5    6.67    1.08
  -4  -9  -5   19.48    3.23
   4  -9   5   20.82    2.40
   4   9   5   23.24    2.12
  -4   9  -5   24.57    2.73
   4 -10  -5    7.45    1.57
  -4 -10   5    7.97    1.32
  -4  10   5    7.68    1.72
   4  10  -5    6.95    1.45
   3 -10  -5    9.03    1.63
  -3 -10   5   11.19    1.45
   3 -10  -5    9.64    1.37
   3  10  -5    7.15    1.28
  -3  10   5    9.72    1.51
   2 -10  -5   26.99    1.88
  -2 -10   5   14.14    1.86
  -2 -10   5   21.97    1.78
   2 -10  -5   23.08    2.00
  -2  10   5   17.88    1.72
   2  10  -5   20.98    1.83
  -1 -10   5   30.52    2.23
   1 -10  -5   27.97    2.16
  -1 -10   5   28.66    2.07
   1 -10  -5   25.91    2.31
   1  10  -5   30.96    2.14
  -1  10   5   28.88    2.07
   0 -10   5    4.34    0.76
   0 -10  -5    4.18    0.70
   0 -10   5    4.60    0.61
   0  10   5    4.71    0.60
   0  10   5    3.82    0.64
   0  10  -5    4.19    0.73
   1 -10   5   44.91    3.16
  -1 -10  -5   40.32    3.20
  -1  10  -5   45.63    3.50
   1  10   5   45.39    2.94
   1  10   5   43.23    2.96
  -1  10  -5   45.88    3.01
  -2 -10  -5   14.31    1.89
   2 -10   5   15.65    1.58
  -2  10  -5   17.54    1.59
  -2  10  -5   15.80    1.75
   2  10   5   17.06    1.49
   2  10   5   18.74    1.39
   3 -10   5   15.99    1.87
  -3 -10  -5   14.07    2.56
  -3  10  -5   15.12    1.95
   3  10   5   14.78    1.56
  -3  10  -5   13.58    1.81
  -4 -10  -5    7.70    2.03
   4 -10   5    4.18    1.35
   4  10   5    5.94    1.17
  -4  10  -5    4.30    1.34
   3 -11  -5   13.10    1.70
   3 -11  -5   13.53    1.88
  -3 -11   5   13.83    1.66
  -3  11   5   12.83    1.73
   3  11  -5   11.03    1.66
   2 -11  -5   19.55    1.92
   2 -11  -5   20.90    1.76
  -2 -11   5   16.47    2.00
  -2 -11   5   18.49    1.71
   2  11  -5   18.52    1.78
  -2  11   5   19.00    1.71
  -1 -11   5  101.67    7.09
  -1 -11   5  105.91    6.68
   1 -11  -5  112.52    7.07
  -1  11   5  100.71    6.70
   1  11  -5  106.51    6.72
   0 -11   5  104.24    6.52
   0 -11   5  107.52    6.96
   0 -11  -5   99.43    6.97
   0  11   5  105.10    6.51
   0  11   5  102.32    6.58
   0  11  -5  106.18    6.60
  -1 -11  -5   46.06    3.96
   1 -11   5   59.26    3.93
   1  11   5   62.75    3.69
   1  11   5   53.87    3.66
  -1  11  -5   55.86    3.72
   2 -11   5    9.53    1.29
  -2 -11  -5    9.53    1.69
  -2  11  -5   10.59    1.44
   2  11   5   10.73    1.13
  -2  11  -5   10.75    1.33
   2  11   5    9.89    1.20
  -3 -11  -5   19.93    2.69
   3 -11   5   19.32    2.05
  -3  11  -5   18.81    2.17
   3  11   5   18.86    1.84
  -3  11  -5   19.09    2.28
  -3 -12   5    1.71    0.91
   3 -12  -5    2.04    1.07
   3 -12  -5    0.98    0.89
  -3  12   5    1.36    0.97
   3  12  -5    0.86    1.03
   2 -12  -5   31.55    2.49
  -2 -12   5   32.59    2.47
   2 -12  -5   32.91    2.79
   2  12  -5   29.11    2.48
  -2  12   5   29.54    2.44
   1 -12  -5    8.23    1.18
  -1 -12   5    6.62    1.18
  -1 -12   5    7.15    0.99
  -1  12   5    6.85    0.97
   1  12  -5    7.24    1.17
   0 -12   5   37.23    2.63
   0 -12  -5   37.22    2.89
   0 -12   5   40.46    2.89
   0  12   5   39.18    2.61
   0  12   5   35.87    2.66
   0  12  -5   41.84    2.77
   1 -12   5   12.78    1.37
  -1 -12  -5   12.12    1.53
  -1  12  -5   12.44    1.35
   1  12   5   13.42    1.25
   1  12   5   13.08    1.24
  -2 -12  -5   54.47    4.34
   2 -12   5   57.22    4.09
  -2  12  -5   55.78    4.54
  -2  12  -5   57.01    3.94
   2  12   5   52.31    3.81
   2  12   5   59.07    3.78
   3 -12   5    2.39    1.04
  -3 -12  -5    3.54    1.57
  -3  12  -5    1.22    1.08
  -3  12  -5    1.38    1.04
   3  12   5    2.11    0.87
  -3 -13   5    0.42    0.92
   3 -13  -5   -0.96    1.00
   3 -13  -5    0.59    1.00
  -3  13   5    0.37    0.97
   3  13  -5    0.42    1.04
   2 -13  -5   29.89    2.36
  -2 -13   5   26.52    2.26
   2  13  -5   24.70    2.28
  -2  13   5   24.95    2.25
   1 -13  -5    1.78    0.78
  -1 -13   5    2.61    0.87
  -1 -13   5    2.56    0.68
  -1  13   5    1.60    0.65
   1  13  -5    2.00    0.79
   0 -13   5  110.71    6.99
   0 -13  -5   93.19    6.93
   0  13   5  101.70    6.58
   0  13  -5  106.51    6.64
  -1 -13  -5    1.85    0.85
   1 -13   5    2.39    0.77
   1  13   5    2.02    0.62
   1  13   5    1.92    0.58
  -1  13  -5    2.67    0.72
   2 -13   5   14.05    1.69
  -2 -13  -5   14.62    2.04
  -2  13  -5   14.24    1.64
   2  13   5   16.59    1.55
   2  13   5   14.37    1.55
   3 -13   5    1.09    1.07
  -3 -13  -5    1.41    1.50
   3  13   5    0.61    0.81
  -3  13  -5    1.94    1.09
  -3  13  -5    2.35    1.23
  -2 -14   5    8.26    1.22
   2 -14  -5    7.26    1.23
  -2  14   5    7.87    1.35
   2  14  -5    6.28    1.21
  -1 -14   5    8.62    1.24
  -1 -14   5    8.78    1.48
   1 -14  -5    8.83    1.42
   1  14  -5    9.10    1.39
  -1  14   5    9.28    1.20
   0 -14   5    6.52    1.07
   0 -14  -5    6.09    1.08
   0  14   5    4.41    0.83
   0  14  -5    5.69    1.02
  -1 -14  -5   11.64    1.85
   1 -14   5   13.19    1.62
   1  14   5   17.10    1.48
  -1  14  -5   15.58    1.56
   1  14   5   15.07    1.44
  -2 -14  -5    6.44    1.42
   2 -14   5    5.69    1.19
   2  14   5    5.69    1.00
  -2  14  -5    4.05    1.03
  -2 -15   5    2.13    0.91
   2 -15  -5    1.78    1.03
  -2  15   5    3.45    0.99
   2  15  -5    1.60    1.05
  -1 -15   5    0.71    0.69
  -1 -15   5    1.41    0.99
   1 -15  -5    0.73    0.91
  -1  15   5    1.38    0.71
   1  15  -5    1.05    0.86
   0 -15   5    4.28    1.06
   0 -15  -5    3.74    1.02
   0  15   5    3.77    0.83
   0  15  -5    4.15    0.98
   1 -15   5    1.15    0.83
  -1 -15  -5    2.09    1.06
   1  15   5    0.92    0.65
   1  15   5    1.74    0.76
  -1  15  -5    2.59    0.81
   2 -15   5    4.94    1.20
  -2 -15  -5    5.20    1.51
   2  15   5    4.30    0.98
  -2  15  -5    3.82    1.11
   1 -16  -5    5.70    1.21
  -1 -16   5    4.47    1.30
   1  16  -5    6.03    1.21
  -1  16   5    6.66    1.11
   0 -16   5    2.04    1.08
   0 -16  -5    0.73    0.99
   0  16  -5    0.68    0.84
   0  16   5    0.79    0.70
  -1 -16  -5    8.58    1.59
   1 -16   5    9.27    1.42
  -1  16  -5    8.27    1.42
   1  16   5   10.61    1.35
   0 -17  -5   30.23    2.94
   0 -17   5   35.42    3.02
   0  17   5   31.60    2.63
   0  17  -5   33.03    2.74
   4   0  -6    1.30    0.87
  -4   0   6    1.47    1.04
  -3   0   6    0.33    0.64
  -3   0   6   -0.33    0.35
   3   0  -6    0.25    0.52
   2   0  -6   65.45    4.33
  -2   0   6   66.99    4.15
   2   0  -6   66.60    4.96
  -2   0   6   66.41    4.38
  -1   0   6   -0.10    0.18
  -1   0   6   -0.16    0.21
   1   0  -6    0.43    0.25
   0   0   6  118.60    7.64
   0   0  -6  128.77    8.07
   0   0   6  124.66    7.62
  -1   0  -6   -0.08    0.20
  -1   0  -6   -0.32    0.32
   1   0   6    0.00    0.16
  -2   0  -6   33.42    2.92
  -2   0  -6   40.61    2.86
  -2   0  -6   42.47    2.41
   2   0   6   34.34    2.41
  -3   0  -6    0.15    0.51
   3   0   6    0.12    0.35
  -4   0  -6    1.81    0.86
   4   0   6    1.41    1.15
   4  -1  -6   30.93    2.94
  -4  -1   6   32.08    2.89
   4   1  -6   33.95    2.94
  -4   1   6   34.91    3.02
   3  -1  -6   16.79    1.61
  -3  -1   6   15.00    1.31
  -3  -1   6   17.01    1.69
   3   1  -6   16.02    1.56
  -3   1   6   16.27    1.25
  -3   1   6   15.18    1.67
   2  -1  -6  176.99   11.48
   2  -1  -6  178.51   13.00
  -2  -1   6  173.04   10.88
  -2  -1   6  181.74   11.12
  -2   1   6  173.41   10.85
   2   1  -6  183.21   12.98
  -2   1   6  176.77   11.12
   2   1  -6  181.35   11.48
   1  -1  -6   72.57    5.34
  -1  -1   6   81.11    5.23
   1  -1  -6   88.30    6.10
  -1  -1   6   83.02    5.12
  -1   1   6   86.96    5.12
  -1   1   6   83.52    5.22
   1   1  -6   86.16    6.09
   0  -1   6   79.78    4.86
   0  -1  -6   80.42    4.88
   0  -1   6   70.67    4.62
   0   1   6   77.30    4.64
   0   1   6   75.38    4.58
   0   1  -6   62.42    5.49
   1  -1   6   88.80    5.53
  -1  -1  -6   87.88    5.99
  -1  -1  -6   90.82    6.58
  -1   1  -6   86.40    5.96
   1   1   6   90.12    5.52
  -1   1  -6   92.14    5.46
  -1   1  -6   90.32    6.60
  -2  -1  -6   98.74    7.32
  -2  -1  -6  106.34    6.76
   2  -1   6   94.96    6.07
  -2   1  -6   96.09    7.34
   2   1   6   99.77    6.11
   3  -1   6    7.60    1.21
   3  -1   6    9.01    0.82
  -3  -1  -6    7.78    1.13
  -3  -1  -6    8.55    1.48
  -3   1  -6    8.59    1.20
   3   1   6    8.51    0.87
   4  -1   6   15.44    2.09
  -4  -1  -6   18.42    1.95
  -4   1  -6   18.35    2.01
   4   1   6   11.47    2.07
   4  -2  -6   18.76    2.10
  -4  -2   6   18.18    2.22
  -4   2   6   19.05    2.27
   4   2  -6   18.83    1.99
  -3  -2   6   18.42    1.47
  -3  -2   6   16.84    1.75
   3  -2  -6   18.39    1.78
   3   2  -6   19.13    1.72
  -3   2   6   19.25    1.82
   2  -2  -6   73.40    5.47
  -2  -2   6   77.61    4.61
  -2  -2   6   61.47    4.72
   2  -2  -6   67.72    4.78
  -2   2   6   79.32    4.54
   2   2  -6   74.89    5.44
  -2   2   6   77.60    4.79
  -1  -2   6   17.20    1.22
   1  -2  -6   17.98    1.44
  -1  -2   6   17.49    1.31
   1   2  -6   20.19    1.45
  -1   2   6   17.72    1.29
  -1   2   6   15.86    1.22
   0  -2   6    0.57    0.18
   0  -2  -6    0.77    0.22
   0  -2  -6    0.39    0.31
   0  -2   6    0.93    0.23
   0   2  -6    0.15    0.29
   0   2   6    0.68    0.21
   0   2  -6    0.70    0.22
   0   2   6    0.44    0.14
  -1  -2  -6    9.97    0.91
   1  -2   6    8.87    0.75
  -1  -2  -6    9.88    0.84
   1  -2   6    9.05    0.84
  -1   2  -6    8.64    0.63
   1   2   6    8.30    0.58
   1   2   6    9.17    0.71
  -1   2  -6    9.25    0.85
  -2  -2  -6  129.44    9.30
  -2  -2  -6  116.72    8.50
   2  -2   6  134.63    8.45
   2  -2   6  123.48    7.74
   2   2   6  134.03    7.80
  -2   2  -6  124.84    9.34
   2   2   6  122.29    7.71
  -2   2  -6  126.73    7.83
  -3  -2  -6   16.65    2.05
   3  -2   6   17.24    1.85
  -3  -2  -6   20.60    1.80
  -3   2  -6   17.19    1.85
   3   2   6   20.41    1.48
  -4  -2  -6   35.55    3.16
  -4  -2  -6   33.28    3.36
   4  -2   6   34.88    3.16
  -4   2  -6   38.46    3.29
  -4  -3   6   -0.18    0.96
   4  -3  -6    1.15    0.89
  -4  -3   6    0.18    0.63
   4   3  -6    0.90    0.78
  -4   3   6    0.23    1.12
   3  -3  -6    1.06    0.63
  -3  -3   6    1.72    0.72
  -3  -3   6    1.74    0.52
  -3   3   6    0.79    0.69
   3   3  -6    1.38    0.55
  -2  -3   6   75.25    5.32
   2  -3  -6   83.37    5.43
  -2  -3   6   85.00    5.21
  -2  -3   6   91.27    5.47
   2  -3  -6   83.29    6.19
  -2   3   6   84.81    5.11
   2   3  -6   78.10    6.12
  -2   3   6   81.21    5.33
  -1  -3   6   52.02    3.19
  -1  -3   6   49.96    3.30
   1  -3  -6   53.48    3.78
   1  -3  -6   45.88    3.30
  -1   3   6   49.95    3.23
   1   3  -6   47.19    3.77
   1   3  -6   56.55    3.30
   0  -3  -6  776.09   48.73
   0  -3   6  751.61   48.70
   0  -3   6  749.50   45.82
   0  -3  -6  783.79   54.78
   0   3   6  723.49   45.99
   0   3  -6  809.86   54.79
   0   3   6  723.45   45.80
   0   3  -6  762.74   46.01
   1  -3   6   73.19    4.56
  -1  -3  -6   72.46    4.62
  -1  -3  -6   69.78    5.01
   1  -3   6   68.24    4.24
   1   3   6   59.78    4.14
  -1   3  -6   69.06    5.05
   1   3   6   68.90    4.23
  -1   3  -6   64.17    4.18
   2  -3   6  101.17    6.77
  -2  -3  -6  103.09    6.92
   2  -3   6   98.91    6.20
  -2  -3  -6  103.33    7.43
  -2   3  -6  101.36    6.28
   2   3   6   93.98    6.15
   2   3   6  104.64    6.25
  -2   3  -6   99.88    7.49
  -3  -3  -6    2.56    0.67
  -3  -3  -6    1.28    0.98
   3  -3   6    2.41    0.78
   3   3   6    3.09    0.60
  -3   3  -6    3.25    0.78
   4  -3   6    2.37    1.15
  -4  -3  -6   -0.24    1.31
   4   3   6    1.34    0.67
  -4   3  -6    1.93    0.95
  -4  -4   6   12.38    1.44
   4  -4  -6   13.67    1.85
  -4   4   6   12.43    2.03
  -3  -4   6   60.78    3.80
   3  -4  -6   56.92    4.48
   3   4  -6   52.06    4.34
  -3   4   6   61.45    4.07
   2  -4  -6   21.13    1.74
   2  -4  -6   17.11    1.44
  -2  -4   6   21.71    1.50
  -2  -4   6   19.79    1.53
   2   4  -6   22.42    1.68
  -2   4   6   22.86    1.62
   2   4  -6   18.06    1.62
  -2   4   6   20.91    1.34
  -1  -4   6   65.96    3.97
   1  -4  -6   53.32    4.12
  -1  -4   6   64.17    4.14
   1  -4  -6   69.06    4.69
   1   4  -6   68.63    4.06
  -1   4   6   64.88    4.00
   1   4  -6   62.13    4.72
  -1   4   6   57.69    3.95
   0  -4   6   54.94    3.68
   0  -4   6   57.95    3.89
   0  -4  -6   57.27    3.91
   0  -4  -6   64.03    4.40
   0   4   6   57.98    3.67
   0   4   6   57.40    3.68
   0   4  -6   61.24    4.40
   0   4  -6   62.04    3.70
  -1  -4  -6   64.12    4.23
   1  -4   6   63.18    3.86
   1  -4   6   61.90    4.16
  -1  -4  -6   63.59    4.57
  -1   4  -6   61.69    3.85
  -1   4  -6   58.96    4.61
   1   4   6   60.69    3.87
   1   4   6   59.41    3.80
   2  -4   6   38.54    2.79
   2  -4   6   37.32    2.46
  -2  -4  -6   39.04    2.99
  -2  -4  -6   38.37    2.91
  -2   4  -6   40.75    2.54
   2   4   6   37.30    2.50
  -2   4  -6   37.78    3.02
   2   4   6   34.36    2.37
  -3  -4  -6   85.32    6.47
  -3  -4  -6   78.24    6.19
   3  -4   6   85.24    5.98
   3   4   6   91.69    5.48
  -3   4  -6   86.46    6.61
   4  -4   6   19.68    2.29
  -4  -4  -6   12.88    2.29
  -4   4  -6   19.23    2.25
   4   4   6   20.41    1.74
   4  -5  -6   25.75    2.54
  -4  -5   6   26.95    2.12
  -4   5   6   24.22    2.61
   4   5  -6   19.28    2.28
   3  -5  -6   12.07    1.48
  -3  -5   6   13.24    1.26
   3   5  -6   11.99    1.58
  -3   5   6   10.78    1.46
   2  -5  -6   69.78    5.23
  -2  -5   6   76.58    4.73
   2  -5  -6   75.51    4.61
  -2  -5   6   68.92    4.43
  -2   5   6   66.00    4.50
   2   5  -6   63.41    5.12
   2   5  -6   64.32    4.52
   1  -5  -6   62.93    4.46
  -1  -5   6   69.06    4.27
  -1  -5   6   71.98    4.48
   1  -5  -6   67.00    5.03
  -1   5   6   62.74    4.26
  -1   5   6   66.40    4.30
   1   5  -6   66.40    5.07
   1   5  -6   77.60    4.37
   0  -5   6   29.21    2.08
   0  -5  -6   29.92    2.11
   0  -5  -6   31.68    2.35
   0  -5   6   29.08    1.97
   0   5   6   29.42    1.97
   0   5  -6   33.54    2.01
   0   5  -6   31.86    2.35
   0   5   6   28.86    1.97
   1  -5   6  105.06    6.55
  -1  -5  -6  108.38    7.80
   1  -5   6  110.71    7.05
  -1  -5  -6  112.49    7.12
  -1   5  -6  103.76    7.87
   1   5   6   97.90    6.54
   1   5   6  107.78    6.60
  -1   5  -6  110.26    6.60
  -2  -5  -6   40.92    3.11
   2  -5   6   42.16    2.93
  -2  -5  -6   40.94    3.07
  -2   5  -6   37.60    2.67
   2   5   6   40.14    2.65
   2   5   6   38.08    2.53
  -2   5  -6   40.83    3.21
   3  -5   6    5.75    1.07
  -3  -5  -6    6.15    1.43
  -3   5  -6    6.22    1.21
   3   5   6    7.51    0.92
  -4  -5  -6   19.53    2.88
   4  -5   6   15.06    2.08
  -4   5  -6   18.08    2.22
   4   5   6   19.38    1.76
  -4  -6   6    3.44    0.89
   4  -6  -6    3.05    1.11
   4   6  -6    0.99    1.04
  -4   6   6    1.46    1.22
   3  -6  -6   13.33    1.58
  -3  -6   6   11.77    1.30
   3   6  -6   12.23    1.54
  -3   6   6   14.77    1.57
  -2  -6   6   65.49    4.69
  -2  -6   6   65.99    4.34
   2  -6  -6   70.50    5.13
   2  -6  -6   73.91    4.52
   2   6  -6   59.31    4.42
   2   6  -6   68.37    5.01
  -2   6   6   65.69    4.41
   1  -6  -6   11.53    0.97
   1  -6  -6   13.49    1.10
  -1  -6   6   12.36    0.99
  -1  -6   6   12.61    0.98
  -1   6   6   11.46    0.96
  -1   6   6   12.52    0.94
   1   6  -6    8.56    1.10
   1   6  -6   13.02    1.10
   0  -6   6   78.44    5.02
   0  -6  -6   76.96    5.60
   0  -6  -6   77.24    5.04
   0  -6   6   70.69    4.72
   0   6  -6   73.83    5.61
   0   6   6   74.90    4.72
   0   6   6   76.76    4.75
   0   6  -6   79.77    4.77
  -1  -6  -6    6.91    0.71
  -1  -6  -6    7.47    0.91
   1  -6   6    7.60    0.77
   1  -6   6    6.78    0.57
   1   6   6    5.93    0.58
   1   6   6    6.68    0.68
  -1   6  -6    6.82    0.66
  -1   6  -6    7.75    0.82
  -2  -6  -6   31.81    2.70
  -2   6  -6   32.12    2.31
   2   6   6   34.38    2.27
  -2   6  -6   34.20    2.75
   2   6   6   32.27    2.14
   3  -6   6    6.13    1.09
  -3  -6  -6    8.12    1.54
  -3   6  -6    6.48    1.26
   3   6   6    7.02    0.96
  -4  -6  -6    0.20    1.50
   4  -6   6    1.61    1.15
   4   6   6    0.96    0.74
  -4   6  -6    0.70    0.94
  -4  -7   6    3.03    0.93
   4  -7  -6    3.52    1.20
   4   7  -6    3.82    1.21
  -4   7   6    1.95    1.27
   3  -7  -6   65.66    5.13
   3  -7  -6   69.22    4.53
  -3  -7   6   66.48    4.37
   3   7  -6   56.78    4.44
  -3   7   6   67.26    4.55
   2  -7  -6   26.76    1.92
   2  -7  -6   25.15    2.18
  -2  -7   6   25.14    1.89
   2   7  -6   24.80    1.97
  -2   7   6   24.16    1.92
   1  -7  -6   11.03    1.09
  -1  -7   6   14.95    1.16
  -1  -7   6   13.01    1.09
   1  -7  -6   13.76    1.23
  -1   7   6   13.69    1.10
   1   7  -6   15.76    1.24
  -1   7   6   13.89    1.03
   0  -7  -6  136.89    9.95
   0  -7   6  131.79    8.38
   0  -7   6  143.65    8.91
   0  -7  -6  137.43    8.93
   0   7   6  134.48    8.37
   0   7  -6  132.03    9.96
   0   7   6  135.09    8.42
   0   7  -6  141.67    8.44
  -1  -7  -6   28.21    2.15
  -1  -7  -6   28.69    2.14
   1  -7   6   28.23    2.05
   1  -7   6   26.43    1.80
  -1   7  -6   25.73    2.24
   1   7   6   26.97    1.90
  -1   7  -6   30.91    1.93
   1   7   6   27.30    1.84
  -2  -7  -6   22.56    2.16
   2  -7   6   22.79    1.89
  -2   7  -6   21.28    2.05
  -2   7  -6   23.89    1.77
   2   7   6   23.72    1.59
   2   7   6   22.02    1.69
  -3  -7  -6   30.05    3.15
   3  -7   6   32.37    2.71
   3   7   6   33.48    2.40
  -3   7  -6   33.66    2.96
  -4  -7  -6    5.75    1.85
   4  -7   6    2.06    1.15
   4   7   6    1.23    0.80
  -4   7  -6    3.42    1.12
  -4  -8   6   12.18    1.57
   4  -8  -6   11.45    1.95
  -4   8   6   10.51    1.73
   4   8  -6    6.92    1.47
  -3  -8   6    1.50    0.69
   3  -8  -6    0.66    0.67
   3  -8  -6    0.74    0.81
   3   8  -6    1.14    0.93
  -3   8   6    1.85    0.84
  -2  -8   6   48.49    3.11
   2  -8  -6   39.39    3.15
   2  -8  -6   46.49    3.60
   2   8  -6   46.15    3.19
  -2   8   6   48.16    3.16
  -1  -8   6    2.49    0.48
   1  -8  -6    2.55    0.53
   1  -8  -6    1.84    0.48
  -1  -8   6    2.77    0.52
  -1   8   6    2.59    0.39
  -1   8   6    2.39    0.49
   1   8  -6    1.90    0.59
   0  -8  -6    0.54    0.39
   0  -8  -6    0.01    0.35
   0  -8   6    0.38    0.25
   0  -8   6    0.40    0.34
   0   8  -6    0.18    0.28
   0   8  -6    0.19    0.37
   0   8   6    0.31    0.28
   0   8   6    0.81    0.27
  -1  -8  -6    4.56    0.79
   1  -8   6    4.24    0.70
   1  -8   6    4.24    0.47
  -1   8  -6    4.79    0.72
   1   8   6    4.41    0.61
   1   8   6    4.02    0.56
  -1   8  -6    4.30    0.67
   2  -8   6   66.36    4.65
  -2  -8  -6   68.85    4.83
  -2   8  -6   69.11    5.19
   2   8   6   64.88    4.22
  -2   8  -6   69.08    4.40
   2   8   6   63.04    4.30
  -3  -8  -6    5.09    1.51
   3  -8   6    2.79    0.91
   3   8   6    2.99    0.72
  -3   8  -6    3.68    0.96
   4  -8   6   21.98    2.28
  -4  -8  -6   16.16    2.93
  -4   8  -6   16.50    2.32
   4   8   6   17.89    1.85
   4  -9  -6    1.89    1.18
  -4  -9   6    1.58    0.88
  -4   9   6    1.49    1.28
   4   9  -6    0.73    1.16
  -3  -9   6    1.13    0.71
   3  -9  -6    1.15    0.87
   3  -9  -6    1.66    0.78
  -3   9   6    2.11    0.85
   3   9  -6    1.84    0.99
   2  -9  -6   19.28    1.91
  -2  -9   6   21.21    1.69
   2  -9  -6   19.84    1.68
  -2   9   6   19.56    1.68
   2   9  -6   20.37    1.80
  -1  -9   6  152.70    9.72
   1  -9  -6  152.09    9.69
   1  -9  -6  142.04   10.81
  -1  -9   6  140.21    9.15
  -1   9   6  147.02    9.22
   1   9  -6  153.03    9.23
   0  -9   6  129.45    8.03
   0  -9  -6  118.75    8.03
   0  -9   6  116.77    7.53
   0   9  -6  118.65    8.92
   0   9   6  120.35    7.52
   0   9   6  124.14    7.59
   0   9  -6  124.46    7.60
   1  -9   6  189.04   12.03
  -1  -9  -6  179.85   12.08
   1   9   6  178.22   11.29
   1   9   6  175.36   11.28
  -1   9  -6  183.02   13.46
  -1   9  -6  196.82   11.37
  -2  -9  -6   14.11    1.81
   2  -9   6   13.53    1.51
   2   9   6   14.77    1.23
  -2   9  -6   16.42    1.41
  -2   9  -6   14.45    1.61
   2   9   6   15.19    1.31
   3  -9   6    1.58    0.90
  -3  -9  -6    2.30    1.43
  -3   9  -6    1.76    0.91
   3   9   6    1.74    0.68
   4  -9   6    2.52    1.23
  -4  -9  -6    2.41    1.96
  -4   9  -6    3.00    1.18
   4   9   6    1.51    0.89
  -4 -10   6    0.31    0.98
   4  10  -6    1.85    1.17
  -3 -10   6   30.66    2.42
   3 -10  -6   28.92    2.78
   3 -10  -6   29.16    2.45
   3  10  -6   27.99    2.48
  -3  10   6   28.27    2.52
   2 -10  -6    3.09    0.80
   2 -10  -6    3.71    0.78
  -2 -10   6    2.76    0.70
   2  10  -6    2.67    0.88
  -2  10   6    3.85    0.76
   1 -10  -6   32.72    2.62
  -1 -10   6   33.95    2.46
   1 -10  -6   32.63    2.44
  -1 -10   6   31.74    2.30
   1  10  -6   33.68    2.40
  -1  10   6   31.92    2.32
   0 -10  -6   13.98    1.28
   0 -10   6   12.72    1.21
   0 -10   6   11.18    1.05
   0  10   6   12.26    1.04
   0  10   6   14.18    1.12
   0  10  -6   13.78    1.19
   1 -10   6   39.22    2.70
  -1 -10  -6   34.32    2.77
  -1  10  -6   36.27    2.95
  -1  10  -6   36.95    2.55
   1  10   6   33.82    2.49
   1  10   6   38.29    2.49
   2 -10   6    1.98    0.75
  -2 -10  -6    1.35    0.87
  -2  10  -6    2.83    0.71
  -2  10  -6    2.05    0.73
   2  10   6    2.30    0.56
   2  10   6    1.34    0.54
   3 -10   6   54.00    3.94
  -3 -10  -6   52.73    4.43
   3  10   6   47.07    3.54
  -3  10  -6   50.45    4.31
  -4 -10  -6    0.59    1.76
  -4  10  -6    0.59    1.16
  -3 -11   6   16.15    1.86
   3 -11  -6   17.36    2.13
   3 -11  -6   17.37    1.78
  -3  11   6   16.92    1.92
   3  11  -6   14.08    1.98
   2 -11  -6    5.39    0.98
   2 -11  -6    5.60    0.91
  -2 -11   6    5.04    0.90
   2  11  -6    4.73    1.03
  -2  11   6    7.41    1.05
  -1 -11   6   29.66    2.28
   1 -11  -6   34.51    2.48
  -1 -11   6   30.61    2.44
  -1  11   6   32.76    2.32
   1  11  -6   31.09    2.37
   0 -11  -6    1.37    0.63
   0 -11   6    1.72    0.45
   0 -11   6    1.62    0.57
   0  11   6    1.76    0.49
   0  11  -6    1.54    0.58
   0  11   6    1.68    0.40
  -1 -11  -6   47.63    3.73
   1 -11   6   54.83    3.67
   1  11   6   48.63    3.39
  -1  11  -6   53.68    3.47
   1  11   6   50.69    3.38
   2 -11   6    4.96    0.99
  -2 -11  -6    5.77    1.26
   2  11   6    4.92    0.82
  -2  11  -6    6.41    1.20
  -2  11  -6    4.14    0.93
   3 -11   6    9.72    1.75
  -3 -11  -6   10.73    2.04
  -3  11  -6   10.62    1.80
   3  11   6   11.80    1.43
  -3 -12   6    8.19    1.31
   3 -12  -6    6.41    1.34
   3 -12  -6    5.45    1.15
   3  12  -6    7.21    1.39
  -3  12   6    7.55    1.38
   2 -12  -6    9.27    1.44
  -2 -12   6    7.19    1.24
   2 -12  -6    9.26    1.33
   2  12  -6    9.29    1.44
  -2  12   6    7.75    1.24
  -1 -12   6   53.30    3.73
  -1 -12   6   56.89    4.02
   1 -12  -6   59.63    3.98
   1  12  -6   57.92    3.83
  -1  12   6   50.43    3.74
   0 -12   6    1.50    0.48
   0 -12   6    1.04    0.61
   0 -12  -6    0.92    0.69
   0  12   6    1.70    0.46
   0  12   6    1.83    0.53
   0  12  -6    1.46    0.61
   1 -12   6   31.10    2.38
  -1 -12  -6   21.86    2.40
   1  12   6   30.22    2.17
   1  12   6   34.30    2.19
  -1  12  -6   27.82    2.23
  -2 -12  -6    4.17    1.24
   2 -12   6    3.69    0.92
   2  12   6    4.31    0.82
  -2  12  -6    5.03    1.02
  -2  12  -6    5.34    1.02
  -3 -12  -6    1.57    1.55
   3 -12   6    5.37    1.23
   3  12   6    5.84    1.08
  -3  12  -6    5.31    1.27
   3 -13  -6   16.67    1.86
   3 -13  -6   17.14    2.20
  -3 -13   6   17.06    1.99
   3  13  -6   14.67    2.00
  -3  13   6   14.63    2.01
  -2 -13   6    4.27    0.93
   2 -13  -6    3.12    1.00
  -2  13   6    4.02    0.91
   2  13  -6    4.93    1.15
  -1 -13   6    4.18    0.95
  -1 -13   6    2.97    0.72
   1 -13  -6    2.46    0.88
   1  13  -6    3.40    0.95
  -1  13   6    3.46    0.75
   0 -13  -6   33.10    2.83
   0 -13   6   36.80    2.82
   0  13  -6   40.05    2.76
   0  13   6   37.02    2.64
   1 -13   6    1.55    0.75
  -1 -13  -6    1.82    0.92
  -1  13  -6    1.90    0.74
   1  13   6    0.81    0.59
   1  13   6    1.06    0.53
   2 -13   6    9.20    1.43
  -2 -13  -6    8.57    1.61
   2  13   6    7.50    1.22
  -2  13  -6    7.16    1.23
  -3 -13  -6    7.77    1.98
   3 -13   6   11.56    1.81
   3  13   6   10.62    1.51
  -3  13  -6    7.86    1.52
  -2 -14   6   16.88    1.81
   2 -14  -6   17.97    1.98
   2  14  -6   16.04    1.92
  -2  14   6   16.55    1.81
  -1 -14   6    7.86    1.17
  -1 -14   6    6.14    1.22
   1 -14  -6    6.59    1.16
  -1  14   6    8.15    1.14
   1  14  -6    8.10    1.39
   0 -14   6    0.24    0.72
   0 -14  -6   -0.18    0.80
   0  14  -6   -0.53    0.66
   0  14   6   -0.08    0.52
   1 -14   6   12.34    1.55
  -1 -14  -6   13.47    1.83
   1  14   6   14.37    1.43
   1  14   6   12.53    1.36
  -1  14  -6   12.65    1.49
  -2 -14  -6   14.78    2.31
   2 -14   6   17.18    1.99
  -2  14  -6   17.39    1.90
   2  14   6   19.41    1.79
   2 -15  -6    1.50    1.12
  -2 -15   6    0.71    0.79
  -2  15   6    0.42    0.83
   2  15  -6    1.12    1.08
  -1 -15   6   56.63    4.00
   1 -15  -6   60.68    4.27
  -1 -15   6   55.34    4.38
   1  15  -6   59.24    4.11
  -1  15   6   55.00    4.02
   0 -15   6    1.68    0.93
   0 -15  -6    1.97    0.97
   0  15  -6    1.72    0.89
   0  15   6    2.36    0.73
  -1 -15  -6   63.08    5.10
   1 -15   6   74.72    5.02
  -1  15  -6   67.44    4.76
   1  15   6   71.73    4.69
   1  15   6   68.90    4.66
  -2 -15  -6    1.70    1.34
   2 -15   6   -0.01    0.95
  -2  15  -6    1.26    0.95
   2  15   6    1.41    0.78
   1 -16  -6    2.20    1.10
  -1 -16   6    1.03    1.12
  -1  16   6    1.37    0.78
   1  16  -6    1.41    0.99
   0 -16   6    1.83    1.07
   0 -16  -6    4.45    1.20
   0  16   6    2.23    0.80
   0  16  -6    2.58    0.98
   1 -16   6    3.66    1.08
  -1 -16  -6    3.79    1.27
  -1  16  -6    1.56    0.88
   1  16   6    2.59    0.87
   0 -17   6   13.09    2.14
   0  17   6   14.27    1.64
  -4   0   7    0.80    1.08
   4   0  -7   -0.01    0.78
  -3   0   7   31.75    2.76
   3   0  -7   35.86    2.94
  -3   0   7   38.44    2.45
   2   0  -7    0.13    0.17
   2   0  -7   -0.08    0.35
  -2   0   7    0.13    0.26
  -2   0   7   -0.21    0.38
  -1   0   7  122.80    7.71
   1   0  -7  129.57    9.04
  -1   0   7  118.93    7.59
   0   0  -7   -0.16    0.30
   0   0   7    0.07    0.14
   0   0   7    0.09    0.22
   0   0  -7    0.09    0.21
  -1   0  -7   74.03    5.51
   1   0   7   71.06    4.61
  -1   0  -7   78.36    5.03
  -2   0  -7    0.17    0.54
   2   0   7    0.20    0.23
  -2   0  -7   -0.20    0.32
   3   0   7   71.18    4.47
  -3   0  -7   69.81    5.44
  -4   0  -7   -0.41    0.72
   4   0   7   -1.42    1.02
   4  -1  -7    4.54    1.06
  -4  -1   7    6.37    1.38
  -4   1   7    5.69    1.45
   4   1  -7    5.41    1.08
  -3  -1   7   16.37    1.76
  -3  -1   7   19.69    1.43
   3  -1  -7   18.19    1.73
  -3   1   7   19.52    1.38
  -3   1   7   17.60    1.81
   3   1  -7   15.02    1.66
   2  -1  -7   40.43    3.17
   2  -1  -7   38.35    2.70
  -2  -1   7   38.32    2.83
  -2  -1   7   44.86    2.68
  -2   1   7   42.60    2.88
   2   1  -7   38.77    3.14
  -2   1   7   44.14    2.64
   1  -1  -7  262.35   17.05
   1  -1  -7  275.13   19.26
  -1  -1   7  260.49   16.29
  -1  -1   7  267.84   16.14
   1   1  -7  257.76   19.25
  -1   1   7  265.19   16.28
  -1   1   7  273.17   16.15
   0  -1  -7   29.89    2.40
   0  -1   7   28.58    2.00
   0  -1   7   31.57    2.06
   0  -1  -7   31.63    2.08
   0   1  -7   25.72    2.36
   0   1   7   30.54    1.94
   0   1   7   30.58    2.02
  -1  -1  -7  313.79   21.76
   1  -1   7  291.17   18.22
  -1  -1  -7  300.81   19.48
   1   1   7  302.58   18.20
  -1   1  -7  312.44   21.76
  -1   1  -7  296.22   18.18
  -1   1  -7  285.68   19.45
  -2  -1  -7   62.94    4.66
   2  -1   7   59.84    3.86
  -2  -1  -7   56.87    4.36
   2   1   7   63.58    3.89
  -2   1  -7   60.36    4.68
  -2   1  -7   64.11    3.89
  -3  -1  -7   31.82    2.69
   3  -1   7   30.80    2.66
  -3  -1  -7   27.42    2.66
   3  -1   7   31.74    2.14
  -3   1  -7   31.86    2.72
   3   1   7   33.76    2.19
  -4  -1  -7    3.28    0.93
   4  -1   7    2.24    1.22
   4   1   7    1.30    1.25
  -4   1  -7    3.66    1.00
  -4  -2   7    5.31    1.27
   4  -2  -7    5.61    1.15
  -4   2   7    5.10    1.38
   4   2  -7    7.12    1.32
   3  -2  -7    6.78    1.09
  -3  -2   7    7.63    0.90
  -3  -2   7    7.39    1.24
  -3   2   7    7.21    1.16
   3   2  -7    6.39    1.02
  -2  -2   7   17.94    1.34
   2  -2  -7   18.50    1.60
  -2  -2   7   19.85    1.54
   2  -2  -7   18.73    1.29
  -2   2   7   17.98    1.51
  -2   2   7   18.24    1.28
   2   2  -7   16.87    1.53
   1  -2  -7   47.73    3.43
   1  -2  -7   43.41    2.98
  -1  -2   7   42.90    2.97
  -1  -2   7   48.76    2.91
  -1   2   7   47.69    2.97
  -1   2   7   44.31    2.92
   1   2  -7   44.39    3.43
   0  -2   7   92.22    5.76
   0  -2  -7   95.66    6.08
   0  -2   7   93.83    6.05
   0   2  -7   97.86    5.74
   0   2   7   93.77    5.71
   0   2   7   95.74    5.76
   0   2  -7   80.94    6.85
   1  -2   7   57.99    3.74
  -1  -2  -7   60.08    4.06
   1  -2   7   58.05    4.00
  -1  -2  -7   62.00    4.40
  -1   2  -7   59.52    4.41
  -1   2  -7   56.84    3.62
   1   2   7   57.83    3.68
   2  -2   7   12.99    1.01
  -2  -2  -7   13.31    1.24
  -2  -2  -7   13.87    1.41
   2  -2   7   11.57    1.25
  -2   2  -7   13.15    1.04
   2   2   7   14.09    1.05
  -2   2  -7   13.75    1.32
   3  -2   7    4.89    1.04
  -3  -2  -7    4.72    1.21
  -3  -2  -7    4.42    0.80
   3   2   7    4.58    0.74
  -3   2  -7    4.29    0.84
   4  -2   7   12.97    1.97
  -4  -2  -7   12.44    1.68
  -4  -2  -7    9.16    1.95
  -4   2  -7   14.12    1.84
  -4  -3   7    5.19    1.33
   4  -3  -7    4.88    1.13
  -4  -3   7    6.35    1.09
  -4   3   7    3.38    1.33
   4   3  -7    4.93    1.02
   3  -3  -7  116.31    8.67
  -3  -3   7  118.95    7.29
  -3  -3   7  118.18    7.52
  -3   3   7  115.83    7.59
   3   3  -7  112.04    8.59
  -2  -3   7   24.28    1.60
  -2  -3   7   22.74    1.73
   2  -3  -7   17.76    1.51
   2  -3  -7   21.85    1.86
   2   3  -7   22.36    1.78
  -2   3   7   24.06    1.49
  -2   3   7   21.86    1.70
  -1  -3   7  168.87    9.49
  -1  -3   7  140.27    9.96
   1  -3  -7  147.46    9.98
  -1   3   7  158.16    9.50
  -1   3   7  170.85    9.57
   1   3  -7  146.32    9.58
   0  -3  -7   30.19    2.39
   0  -3   7   29.74    1.97
   0  -3  -7   31.95    2.09
   0  -3   7   29.63    2.04
   0   3  -7   29.23    2.38
   0   3  -7   31.34    1.96
   0   3   7   29.70    1.96
   0   3   7   28.81    1.92
  -1  -3  -7   81.55    6.07
   1  -3   7   89.42    6.03
  -1  -3  -7   96.80    6.69
  -1   3  -7   94.36    6.72
   1   3   7   92.02    5.53
   1   3   7   97.00    5.63
  -1   3  -7   83.22    5.57
   2  -3   7    9.72    1.18
  -2  -3  -7   12.88    1.45
  -2  -3  -7   11.95    1.15
   2  -3   7   12.43    0.97
   2   3   7   13.12    0.99
  -2   3  -7   10.37    0.96
  -2   3  -7   12.27    1.24
   3  -3   7   49.96    4.31
  -3  -3  -7   70.86    4.68
  -3  -3  -7   59.90    4.63
   3   3   7   61.38    3.89
  -3   3  -7   59.63    4.74
   4  -3   7    5.20    1.33
  -4  -3  -7    4.11    1.62
  -4   3  -7    2.25    0.96
   4   3   7    3.45    0.77
   4  -4  -7    9.91    1.70
  -4  -4   7    9.51    1.33
  -4   4   7   13.07    2.00
  -3  -4   7   11.55    1.12
   3  -4  -7    9.20    1.24
   3   4  -7    7.59    1.07
  -3   4   7    7.53    1.32
   2  -4  -7   13.43    1.13
   2  -4  -7   16.46    1.42
  -2  -4   7   16.32    1.21
   2   4  -7   15.22    1.30
  -2   4   7   13.93    1.05
  -2   4   7   16.05    1.33
   2   4  -7   13.51    1.38
   1  -4  -7    3.70    0.47
  -1  -4   7    3.37    0.42
   1  -4  -7    4.28    0.60
  -1  -4   7    3.85    0.49
  -1   4   7    4.34    0.49
   1   4  -7    2.86    0.59
   1   4  -7    3.61    0.60
  -1   4   7    3.36    0.53
   0  -4   7   96.64    5.87
   0  -4   7   84.69    6.18
   0  -4  -7   97.14    6.23
   0  -4  -7   98.36    7.02
   0   4  -7   92.98    5.88
   0   4   7   93.57    5.86
   0   4  -7  103.65    7.03
   0   4   7   92.89    5.85
  -1  -4  -7    5.31    0.77
   1  -4   7    4.86    0.63
   1  -4   7    4.96    0.54
  -1  -4  -7    5.36    0.65
   1   4   7    4.75    0.53
   1   4   7    4.52    0.41
  -1   4  -7    4.61    0.66
  -1   4  -7    4.51    0.50
  -2  -4  -7   11.27    1.05
   2  -4   7   11.05    1.19
   2  -4   7   10.00    0.89
  -2  -4  -7   11.74    1.43
  -2   4  -7   10.34    1.16
  -2   4  -7    9.67    0.93
   2   4   7    9.84    0.92
   3  -4   7   13.21    1.64
  -3  -4  -7   13.15    1.43
  -3  -4  -7   15.35    1.99
  -3   4  -7   13.34    1.60
   3   4   7   14.01    1.27
  -4  -4  -7    6.91    1.77
   4  -4   7    8.50    1.52
   4   4   7    8.66    1.21
  -4   4  -7    5.21    1.23
   4  -5  -7    5.06    1.21
  -4  -5   7    5.22    0.98
   4   5  -7    6.09    1.37
  -4   5   7    6.04    1.52
   3  -5  -7   20.16    2.08
  -3  -5   7   23.20    1.81
  -3   5   7   24.01    2.05
   3   5  -7   21.90    2.06
   2  -5  -7   61.67    3.80
   2  -5  -7   56.17    4.33
  -2  -5   7   59.62    3.69
  -2   5   7   53.96    3.76
   2   5  -7   56.76    4.24
   2   5  -7   48.34    3.76
  -1  -5   7  116.34    7.07
   1  -5  -7   97.69    7.42
  -1  -5   7  113.41    7.43
   1  -5  -7  112.29    8.37
   1   5  -7  134.24    7.19
  -1   5   7  115.26    7.11
  -1   5   7  107.41    7.06
   1   5  -7  120.96    8.43
   0  -5  -7    3.15    0.52
   0  -5   7    2.93    0.42
   0  -5   7    3.17    0.42
   0  -5  -7    4.20    0.63
   0   5  -7    3.53    0.56
   0   5  -7    3.31    0.50
   0   5   7    3.33    0.40
   0   5   7    3.78    0.44
  -1  -5  -7  247.03   16.99
  -1  -5  -7  247.78   15.27
   1  -5   7  234.07   15.20
   1  -5   7  235.34   14.23
   1   5   7  232.39   14.26
  -1   5  -7  234.91   14.29
   1   5   7  214.69   14.23
  -1   5  -7  228.70   17.03
  -2  -5  -7   26.82    2.44
   2  -5   7   24.52    1.90
  -2  -5  -7   31.62    2.27
   2  -5   7   27.14    2.20
   2   5   7   30.51    1.99
  -2   5  -7   30.81    2.41
  -2   5  -7   25.39    1.97
  -3  -5  -7   41.11    3.72
   3  -5   7   45.92    3.39
  -3   5  -7   41.90    3.63
   3   5   7   44.46    2.98
  -4  -5  -7    2.46    1.60
   4  -5   7    3.85    1.29
  -4   5  -7    4.04    1.15
   4   5   7    4.64    0.90
   4  -6  -7    9.53    1.75
  -4  -6   7    8.84    1.41
   4   6  -7    9.07    1.50
  -4   6   7   12.65    2.01
   3  -6  -7   21.81    2.09
  -3  -6   7   22.51    1.80
   3   6  -7   18.88    1.98
  -3   6   7   20.29    1.98
   2  -6  -7   16.92    1.52
  -2  -6   7   17.00    1.33
   2  -6  -7   14.11    1.26
   2   6  -7   14.91    1.48
   2   6  -7   15.57    1.41
  -2   6   7   15.90    1.36
  -1  -6   7   46.27    2.95
  -1  -6   7   43.50    3.05
   1  -6  -7   39.96    3.04
   1  -6  -7   51.11    3.45
   1   6  -7   48.16    3.04
  -1   6   7   42.36    2.92
  -1   6   7   45.46    2.96
   0  -6   7    8.80    0.80
   0  -6  -7    9.80    1.00
   0  -6  -7   10.20    0.92
   0  -6   7   11.03    0.87
   0   6   7    9.70    0.80
   0   6  -7   10.40    0.96
   0   6  -7   10.54    0.88
   0   6   7    9.76    0.80
  -1  -6  -7   20.99    1.85
   1  -6   7   24.66    1.58
   1  -6   7   23.53    1.77
  -1  -6  -7   24.03    1.89
  -1   6  -7   23.34    1.95
   1   6   7   20.85    1.54
  -1   6  -7   25.76    1.65
   1   6   7   24.45    1.65
  -2  -6  -7   11.61    1.48
   2  -6   7   10.71    1.16
  -2   6  -7   10.54    1.22
  -2   6  -7    9.07    1.01
   2   6   7    9.91    0.96
   3  -6   7   35.26    2.76
  -3  -6  -7   37.86    3.25
   3   6   7   31.39    2.38
  -3   6  -7   30.16    2.90
  -4  -6  -7   20.15    2.99
   4  -6   7   21.44    2.43
  -4   6  -7   23.35    2.55
   4   6   7   21.53    1.98
   4  -7  -7    1.51    1.08
  -4  -7   7    1.68    0.85
  -4   7   7    1.10    1.25
   4   7  -7   -0.37    1.04
  -3  -7   7    9.64    1.18
   3  -7  -7    8.43    1.38
  -3   7   7    7.93    1.33
   3   7  -7    6.11    1.21
  -2  -7   7   68.23    4.30
   2  -7  -7   65.14    5.04
   2   7  -7   67.19    4.41
  -2   7   7   63.80    4.35
  -1  -7   7   82.89    5.36
  -1  -7   7   81.42    5.64
   1  -7  -7   81.67    5.64
   1  -7  -7   89.52    6.32
   1   7  -7   81.99    6.33
   1   7  -7   92.32    5.46
  -1   7   7   88.16    5.33
  -1   7   7   84.81    5.40
   0  -7   7  125.75    7.91
   0  -7  -7  129.30    9.41
   0  -7  -7  124.92    8.43
   0  -7   7  124.22    8.40
   0   7   7  132.89    7.96
   0   7   7  129.79    7.91
   0   7  -7  137.87    7.98
   0   7  -7  124.94    9.41
  -1  -7  -7   54.11    4.08
  -1  -7  -7   57.72    4.40
   1  -7   7   55.50    3.69
   1  -7   7   60.39    4.04
   1   7   7   59.00    3.78
  -1   7  -7   59.24    4.49
   1   7   7   60.69    3.72
  -1   7  -7   64.99    3.80
   2  -7   7  137.12    8.86
  -2  -7  -7  138.10    9.04
  -2   7  -7  126.08    9.86
  -2   7  -7  141.18    8.33
   2   7   7  122.07    8.23
   3  -7   7    7.46    1.23
  -3  -7  -7    4.52    1.50
  -3   7  -7    6.53    1.33
   3   7   7    6.51    1.00
  -4  -7  -7    1.42    1.56
   4  -7   7    1.36    1.14
   4   7   7    0.55    0.76
  -4   7  -7    1.12    0.97
  -4  -8   7    2.02    0.97
   4  -8  -7    3.73    1.21
  -4   8   7    2.76    1.26
   4   8  -7    2.61    1.26
   3  -8  -7    5.14    1.06
  -3  -8   7    5.64    0.96
  -3   8   7    4.52    1.03
   3   8  -7    3.52    1.06
   2  -8  -7    2.76    0.61
   2  -8  -7    2.43    0.69
  -2  -8   7    3.11    0.63
   2   8  -7    1.87    0.78
  -2   8   7    4.03    0.72
   1  -8  -7   89.16    6.60
   1  -8  -7   89.91    5.92
  -1  -8   7   93.08    5.94
  -1  -8   7   85.65    5.61
  -1   8   7   85.82    5.65
   1   8  -7   92.81    5.69
  -1   8   7   86.88    5.54
   0  -8   7   15.28    1.25
   0  -8  -7   16.31    1.49
   0  -8  -7   17.02    1.42
   0  -8   7   17.53    1.36
   0   8   7   16.93    1.26
   0   8   7   18.65    1.30
   0   8  -7   17.57    1.46
   0   8  -7   17.73    1.35
  -1  -8  -7   57.39    4.42
   1  -8   7   62.50    4.00
   1  -8   7   68.14    4.39
  -1   8  -7   65.95    4.12
   1   8   7   63.22    4.09
   1   8   7   66.04    4.04
  -1   8  -7   62.92    4.86
   2  -8   7    5.14    0.93
  -2  -8  -7    5.95    1.08
   2   8   7    4.48    0.78
  -2   8  -7    4.91    0.80
  -2   8  -7    5.14    0.89
   3  -8   7    1.93    0.91
  -3  -8  -7    2.81    1.33
   3   8   7    2.58    0.69
  -3   8  -7    2.89    0.93
   4  -8   7    5.04    1.39
  -4  -8  -7    6.74    2.02
  -4   8  -7    5.63    1.30
   4   8   7    5.10    1.06
  -4  -9   7   12.78    1.72
   4  -9  -7   13.23    2.13
   4   9  -7   13.37    2.01
  -4   9   7   13.87    2.17
  -3  -9   7   26.61    2.18
   3  -9  -7   27.85    2.53
   3   9  -7   25.13    2.33
  -3   9   7   21.58    2.25
   2  -9  -7   70.91    5.23
  -2  -9   7   65.39    4.46
   2  -9  -7   74.69    4.65
   2   9  -7   63.93    4.54
  -2   9   7   62.34    4.48
  -1  -9   7   34.49    2.56
   1  -9  -7   40.02    2.72
  -1  -9   7   35.76    2.71
   1  -9  -7   38.97    2.97
   1   9  -7   39.58    2.70
  -1   9   7   36.93    2.60
   0  -9   7    3.78    0.57
   0  -9  -7    5.16    0.74
   0  -9   7    4.87    0.72
   0   9  -7    4.40    0.75
   0   9   7    3.56    0.56
   0   9   7    4.07    0.60
   0   9  -7    4.03    0.65
   1  -9   7   32.40    2.41
  -1  -9  -7   31.20    2.52
   1   9   7   32.26    2.25
   1   9   7   32.04    2.20
  -1   9  -7   33.41    2.66
  -1   9  -7   33.48    2.29
   2  -9   7   33.99    2.63
  -2  -9  -7   29.24    2.83
   2   9   7   33.40    2.38
  -2   9  -7   33.74    2.88
  -2   9  -7   35.03    2.49
   3  -9   7   16.18    1.90
  -3  -9  -7   16.80    2.54
  -3   9  -7   16.75    2.01
   3   9   7   15.61    1.56
  -4  -9  -7    6.96    2.18
   4  -9   7    7.17    1.55
  -4   9  -7    7.08    1.48
   4   9   7    7.75    1.26
   3 -10  -7    1.37    0.95
  -3 -10   7    2.07    0.81
  -3  10   7    0.99    0.86
   3  10  -7    1.31    1.04
  -2 -10   7    3.64    0.78
   2 -10  -7    3.91    0.86
   2 -10  -7    5.76    1.04
   2  10  -7    3.50    1.01
  -2  10   7    4.87    0.85
   1 -10  -7    6.92    0.99
   1 -10  -7    6.92    0.99
  -1 -10   7    6.75    1.02
  -1 -10   7    6.27    0.84
   1  10  -7    8.29    1.12
  -1  10   7    7.32    0.89
   0 -10  -7   92.36    6.50
   0 -10   7   92.96    6.08
   0 -10   7  102.18    6.50
   0  10  -7  100.97    6.17
   0  10   7   98.68    6.14
   0  10   7   95.30    6.06
   1 -10   7    7.93    0.99
  -1 -10  -7    6.78    1.20
  -1  10  -7    8.00    0.94
  -1  10  -7    7.96    1.02
   1  10   7    6.90    0.79
   1  10   7    7.17    0.89
  -2 -10  -7    1.09    0.95
   2 -10   7    2.22    0.83
  -2  10  -7    2.52    0.76
   2  10   7    2.19    0.62
  -2  10  -7    2.02    0.75
  -3 -10  -7    5.35    1.70
   3 -10   7    3.21    1.11
  -3  10  -7    5.27    1.14
   3  10   7    4.56    0.90
   3 -11  -7   21.25    2.38
  -3 -11   7   21.60    2.08
  -3  11   7   23.06    2.21
   3  11  -7   19.68    2.20
  -2 -11   7   21.05    1.91
   2 -11  -7   22.04    2.15
   2 -11  -7   23.68    1.96
   2  11  -7   23.19    2.10
  -2  11   7   21.71    1.93
   1 -11  -7   25.57    2.14
  -1 -11   7   25.26    2.01
  -1 -11   7   27.37    2.21
  -1  11   7   28.21    2.06
   1  11  -7   28.83    2.18
   0 -11   7   19.74    1.62
   0 -11   7   17.50    1.44
   0 -11  -7   16.31    1.64
   0  11   7   18.64    1.44
   0  11  -7   20.31    1.61
   0  11   7   19.74    1.51
   1 -11   7   54.19    3.83
  -1 -11  -7   53.05    3.93
   1  11   7   51.76    3.53
   1  11   7   52.05    3.57
  -1  11  -7   57.68    3.65
  -2 -11  -7   25.32    2.46
   2 -11   7   26.23    2.18
  -2  11  -7   23.73    2.09
  -2  11  -7   23.37    2.33
   2  11   7   23.21    1.96
   3 -11   7   26.77    2.61
  -3 -11  -7   28.08    3.19
   3  11   7   26.71    2.27
  -3  11  -7   26.37    2.77
   3 -12  -7    3.20    1.12
  -3 -12   7    1.35    0.91
  -3  12   7    1.25    1.03
   3  12  -7    2.42    1.18
  -2 -12   7   19.12    1.78
   2 -12  -7   18.63    1.86
   2 -12  -7   20.22    2.06
  -2  12   7   16.26    1.72
   2  12  -7   17.88    1.92
  -1 -12   7    1.24    0.69
  -1 -12   7    1.07    0.56
   1 -12  -7    1.27    0.76
  -1  12   7    1.14    0.54
   1  12  -7    0.29    0.76
   0 -12   7   16.04    1.36
   0 -12   7   15.63    1.58
   0 -12  -7   16.36    1.63
   0  12   7   16.41    1.43
   0  12   7   16.11    1.35
   0  12  -7   18.68    1.59
   1 -12   7    1.14    0.67
  -1 -12  -7    1.30    0.84
  -1  12  -7    0.21    0.59
   1  12   7    0.43    0.47
   1  12   7    0.36    0.45
   2 -12   7   20.48    1.90
  -2 -12  -7   15.94    2.18
  -2  12  -7   20.78    2.05
   2  12   7   15.62    1.66
  -2  12  -7   17.97    1.85
  -3 -12  -7    0.78    1.54
   3 -12   7    4.19    1.13
   3  12   7    2.29    0.86
  -3  12  -7    1.13    1.00
   3 -13  -7    7.38    1.44
  -3 -13   7    6.70    1.28
   3  13  -7    5.09    1.41
  -3  13   7    9.03    1.55
   2 -13  -7   25.89    2.28
  -2 -13   7   21.68    2.11
  -2  13   7   25.52    2.15
   2  13  -7   23.61    2.29
  -1 -13   7    5.95    0.93
   1 -13  -7    7.30    1.23
  -1 -13   7    3.96    1.00
  -1  13   7    5.27    0.91
   1  13  -7    5.18    1.09
   0 -13   7   60.66    4.06
   0 -13  -7   49.73    4.00
   0  13  -7   58.84    3.88
   0  13   7   53.22    3.77
   1 -13   7    6.61    1.20
  -1 -13  -7    5.93    1.16
  -1  13  -7    5.99    1.03
   1  13   7    8.02    1.05
   1  13   7    6.21    1.00
   2 -13   7   45.66    3.48
  -2 -13  -7   41.29    3.74
   2  13   7   46.92    3.24
  -2  13  -7   43.25    3.38
   3 -13   7    4.92    1.28
  -3 -13  -7    6.09    1.92
   3  13   7    4.63    1.08
  -3  13  -7    5.65    1.31
  -2 -14   7    2.17    0.84
   2 -14  -7    0.99    0.98
  -2  14   7    0.69    0.77
   2  14  -7    1.62    1.08
  -1 -14   7   21.39    2.16
  -1 -14   7   21.12    1.83
   1 -14  -7   20.22    2.01
   1  14  -7   20.44    2.05
  -1  14   7   19.62    1.84
   0 -14  -7    7.25    1.27
   0 -14   7    8.60    1.44
   0  14   7    9.77    1.23
   0  14  -7   10.79    1.45
   1 -14   7   14.42    1.72
  -1 -14  -7   16.18    1.93
   1  14   7   16.04    1.56
   1  14   7   16.38    1.51
  -1  14  -7   15.49    1.68
   2 -14   7    0.95    0.95
  -2 -14  -7   -0.49    1.24
  -2  14  -7    0.49    0.90
   2  14   7    0.49    0.66
  -2 -15   7   28.15    2.61
   2 -15  -7   36.04    2.82
  -2  15   7   29.71    2.64
   2  15  -7   28.92    2.76
   1 -15  -7    0.11    0.96
  -1 -15   7    0.17    0.64
   1  15  -7   -0.96    0.86
  -1  15   7    0.36    0.66
   0 -15  -7    5.82    1.22
   0 -15   7    4.69    1.14
   0  15  -7    6.07    1.17
   0  15   7    5.93    0.99
  -1 -15  -7   -0.50    1.03
   1 -15   7    0.75    0.85
   1  15   7   -0.05    0.66
  -1  15  -7    1.25    0.84
   1  15   7   -0.10    0.59
  -2 -15  -7   14.60    2.40
   2 -15   7   16.75    2.16
  -2  15  -7   15.89    2.04
   2  15   7   18.42    1.80
   1 -16  -7   13.82    1.89
   1  16  -7   16.50    2.00
  -1  16   7   13.41    1.72
   0 -16   7    7.06    1.38
   0 -16  -7    6.95    1.38
   0  16  -7    9.91    1.65
   0  16   7    6.77    1.12
   1 -16   7   12.32    1.70
  -1 -16  -7    7.68    1.57
  -1  16  -7   10.58    1.58
   1  16   7   12.83    1.48
   4   0  -8   41.81    3.67
  -4   0   8   47.21    3.61
  -3   0   8    0.21    0.70
   3   0  -8    0.03    0.55
  -3   0   8   -0.08    0.39
   2   0  -8   34.43    2.80
  -2   0   8   37.11    2.36
  -2   0   8   35.67    2.56
  -1   0   8    0.14    0.25
   1   0  -8    0.11    0.31
  -1   0   8    0.17    0.25
   0   0   8   93.83    5.91
   0   0  -8   97.22    6.27
   0   0   8   99.08    5.98
   0   0  -8   93.02    7.09
  -1   0  -8    0.00    0.30
  -1   0  -8   -0.27    0.34
   1   0   8    0.10    0.21
  -2   0  -8   57.03    4.33
   2   0   8   59.20    3.59
  -2   0  -8   51.76    4.03
  -3   0  -8   -0.17    0.49
   3   0   8    0.02    0.37
   4   0   8   15.72    2.35
  -4   0  -8   23.00    2.26
  -4  -1   8    5.54    1.37
   4  -1  -8    7.90    1.45
  -4   1   8    9.22    1.62
   4   1  -8    8.18    1.41
   3  -1  -8   22.69    2.05
  -3  -1   8   25.41    1.74
  -3  -1   8   21.01    2.03
  -3   1   8   23.60    2.06
  -3   1   8   21.58    1.65
   3   1  -8   20.64    1.99
  -2  -1   8  100.75    6.05
  -2  -1   8   93.93    5.82
   2  -1  -8   91.24    6.94
   2   1  -8   90.67    6.91
  -2   1   8   91.56    6.02
  -2   1   8   94.10    5.80
  -1  -1   8  100.17    6.16
  -1  -1   8   94.50    6.06
   1  -1  -8  103.05    6.31
   1  -1  -8   98.47    7.19
  -1   1   8   92.18    6.14
   1   1  -8  103.10    7.21
  -1   1   8   91.72    6.07
   0  -1  -8  237.31   15.55
   0  -1   8  208.48   13.75
   0  -1  -8  213.78   13.77
   0  -1   8  201.02   13.00
   0   1   8  209.26   12.99
   0   1  -8  203.49   15.52
   0   1   8  217.94   13.03
  -1  -1  -8   52.72    4.11
   1  -1   8   54.34    3.47
  -1  -1  -8   55.88    3.78
  -1   1  -8   61.28    3.79
   1   1   8   51.14    3.43
  -1   1  -8   52.42    4.11
   2  -1   8   80.16    4.89
  -2  -1  -8   78.33    5.47
  -2  -1  -8   76.78    5.87
  -2   1  -8   75.65    5.89
   2   1   8   80.07    4.90
   3  -1   8   21.11    2.19
   3  -1   8   23.39    1.69
  -3  -1  -8   25.38    2.18
  -3  -1  -8   23.96    2.38
   3   1   8   25.10    1.74
  -3   1  -8   21.64    2.17
  -4  -1  -8    5.16    1.07
   4  -1   8    3.37    1.25
   4   1   8    3.22    1.37
  -4   1  -8    4.50    1.07
  -4  -2   8    4.19    1.29
   4  -2  -8    6.91    1.40
   4   2  -8    3.95    1.00
  -4   2   8    6.26    1.44
  -3  -2   8   12.62    1.18
  -3  -2   8   15.68    1.57
   3  -2  -8   12.40    1.41
  -3   2   8   10.91    1.49
   3   2  -8   12.09    1.35
  -2  -2   8    2.05    0.44
   2  -2  -8    2.58    0.55
  -2  -2   8    2.68    0.60
  -2   2   8    2.07    0.57
   2   2  -8    2.37    0.48
  -2   2   8    2.23    0.40
  -1  -2   8   19.98    1.52
   1  -2  -8   24.13    1.44
   1  -2  -8   22.68    1.73
   1   2  -8   17.40    1.73
  -1   2   8   19.58    1.49
   0  -2   8   65.34    4.30
   0  -2  -8   70.27    4.53
   0  -2   8   68.02    4.50
   0   2  -8   67.96    4.27
   0   2   8   68.11    4.31
   0   2   8   69.56    4.24
  -1  -2  -8   57.20    4.22
  -1  -2  -8   55.42    3.88
   1  -2   8   59.03    3.84
   1  -2   8   56.42    3.59
  -1   2  -8   56.46    4.23
  -1   2  -8   52.86    3.44
   1   2   8   54.31    3.52
   2  -2   8    1.78    0.37
   2  -2   8    2.33    0.68
  -2  -2  -8    2.04    0.50
  -2  -2  -8    3.52    0.86
   2   2   8    2.70    0.44
  -2   2  -8    2.57    0.57
  -3  -2  -8    8.18    1.12
   3  -2   8    5.80    1.13
  -3  -2  -8    9.76    1.68
   3   2   8    7.61    0.91
  -3   2  -8    7.64    1.22
  -4  -2  -8   13.61    1.77
  -4  -2  -8   11.61    2.11
   4  -2   8   14.81    2.08
  -4   2  -8   13.48    1.88
  -4  -3   8   14.19    1.96
  -4  -3   8   16.44    1.53
   4  -3  -8   13.75    1.85
   4   3  -8   12.98    1.71
  -4   3   8   16.38    2.17
  -3  -3   8    2.07    0.83
   3  -3  -8    3.45    0.80
  -3  -3   8    4.09    0.69
   3   3  -8    3.55    0.70
  -3   3   8    4.28    0.98
   2  -3  -8   53.94    4.14
   2  -3  -8   66.26    4.80
  -2  -3   8   71.83    4.07
  -2  -3   8   50.39    4.11
   2   3  -8   55.50    4.71
  -2   3   8   74.58    4.24
  -2   3   8   74.56    3.98
   1  -3  -8   13.71    1.09
  -1  -3   8   15.14    1.14
   1  -3  -8   17.54    1.34
   1   3  -8   13.78    1.24
   1   3  -8   16.31    1.42
  -1   3   8   15.21    1.16
  -1   3   8   15.45    1.19
   0  -3   8   37.36    2.51
   0  -3   8   38.11    2.44
   0  -3  -8   37.62    2.55
   0   3   8   36.89    2.36
   0   3  -8   38.00    2.41
   0   3  -8   36.97    2.93
   0   3   8   35.32    2.41
   1  -3   8    8.48    0.81
   1  -3   8    7.87    0.87
  -1  -3  -8    9.07    0.97
  -1  -3  -8    9.63    0.98
   1   3   8   10.67    0.79
  -1   3  -8    7.82    0.68
   1   3   8    9.72    0.62
  -1   3  -8    9.13    0.95
  -2  -3  -8  142.44   10.35
   2  -3   8  131.66    8.68
   2  -3   8  145.88    9.39
  -2  -3  -8  142.56    9.50
   2   3   8  144.14    8.69
  -2   3  -8  139.24   10.41
  -3  -3  -8    6.32    1.37
  -3  -3  -8    6.39    1.05
   3  -3   8    7.10    1.32
  -3   3  -8    5.77    1.19
   3   3   8    7.08    0.88
  -4  -3  -8   27.88    3.38
   4  -3   8   34.31    3.09
  -4   3  -8   31.92    3.10
   4   3   8   34.96    2.50
   4  -4  -8    5.30    1.18
  -4  -4   8    5.22    0.95
  -4   4   8    6.63    1.51
  -3  -4   8    6.63    0.97
   3  -4  -8    5.04    0.95
  -3   4   8    8.74    1.27
   3   4  -8    6.05    0.94
   2  -4  -8    9.15    1.10
  -2  -4   8   10.04    0.95
   2  -4  -8   10.44    0.86
  -2   4   8    9.76    1.05
  -2   4   8    9.08    0.82
   2   4  -8   10.16    1.01
  -1  -4   8   67.88    4.18
  -1  -4   8   54.95    4.31
   1  -4  -8   64.68    4.34
   1  -4  -8   71.88    4.94
  -1   4   8   68.59    4.22
  -1   4   8   62.74    4.20
   1   4  -8   76.77    4.31
   0  -4   8    0.36    0.24
   0  -4   8    0.56    0.26
   0  -4  -8    0.35    0.43
   0  -4  -8    0.69    0.32
   0   4  -8    0.11    0.38
   0   4   8    0.44    0.18
   0   4  -8    0.38    0.31
   0   4   8    0.22    0.22
  -1  -4  -8   95.90    6.89
   1  -4   8   97.26    6.20
   1  -4   8   95.35    5.80
   1   4   8   90.67    5.77
  -1   4  -8   90.86    6.90
  -1   4  -8   89.90    5.74
   1   4   8   91.20    5.69
  -2  -4  -8    4.67    0.97
  -2  -4  -8    5.48    0.78
   2  -4   8    5.12    0.66
   2  -4   8    5.66    0.97
   2   4   8    6.61    0.74
  -2   4  -8    5.83    0.90
  -3  -4  -8    4.39    0.77
   3  -4   8    4.89    1.07
  -3  -4  -8    3.61    1.25
   3   4   8    3.67    0.67
  -3   4  -8    2.92    0.85
   4  -4   8    8.29    1.56
  -4  -4  -8    5.20    1.72
  -4   4  -8    7.24    1.37
   4   4   8    8.38    1.23
   4  -5  -8   10.96    1.75
  -4  -5   8   10.41    1.36
   4   5  -8    8.07    1.60
  -4   5   8   12.76    2.05
  -3  -5   8   10.20    1.20
   3  -5  -8   11.19    1.44
   3   5  -8   10.64    1.53
  -3   5   8   12.76    1.50
   2  -5  -8  150.13    9.91
   2  -5  -8  117.15    8.70
  -2  -5   8  133.99    8.32
  -2   5   8  137.35    8.46
   2   5  -8  142.42    9.83
   2   5  -8  123.63    8.46
   1  -5  -8    8.44    0.80
  -1  -5   8    7.97    0.77
  -1  -5   8    9.69    0.84
   1  -5  -8    9.61    0.97
   1   5  -8   10.18    1.07
  -1   5   8    9.43    0.84
  -1   5   8   10.10    0.89
   1   5  -8   11.00    1.04
   0  -5   8  141.15    8.79
   0  -5  -8  143.69    9.35
   0  -5   8  133.86    9.31
   0  -5  -8  143.52   10.51
   0   5   8  145.92    8.81
   0   5  -8  144.16   10.51
   0   5   8  141.01    8.78
   0   5  -8  153.98    8.85
  -1  -5  -8   17.46    1.53
  -1  -5  -8   17.20    1.48
   1  -5   8   18.03    1.41
   1  -5   8   17.45    1.26
  -1   5  -8   18.39    1.27
  -1   5  -8   16.30    1.53
   1   5   8   18.31    1.30
   1   5   8   16.70    1.17
   2  -5   8   54.81    4.18
  -2  -5  -8   75.10    5.01
   2  -5   8   64.95    4.62
  -2  -5  -8   67.62    4.84
  -2   5  -8   73.54    5.14
   2   5   8   75.21    4.28
  -2   5  -8   55.57    4.23
   3  -5   8   21.48    2.10
  -3  -5  -8   22.27    2.53
  -3   5  -8   21.85    2.17
   3   5   8   21.39    1.72
   4  -5   8    5.03    1.43
  -4  -5  -8   10.17    2.00
  -4   5  -8    6.28    1.33
   4   5   8    7.56    1.09
   4  -6  -8   26.08    2.67
  -4  -6   8   26.58    2.21
  -4   6   8   26.55    2.74
   4   6  -8   23.88    2.53
  -3  -6   8   10.77    1.28
   3  -6  -8   10.29    1.44
   3   6  -8    9.58    1.53
  -3   6   8   11.52    1.47
   2  -6  -8   13.69    1.29
  -2  -6   8   17.95    1.40
   2  -6  -8   18.23    1.61
  -2   6   8   17.51    1.45
   2   6  -8   18.54    1.62
   1  -6  -8   10.14    1.01
   1  -6  -8   12.87    1.20
  -1  -6   8   12.54    1.05
  -1  -6   8   12.72    1.04
   1   6  -8   14.46    1.30
  -1   6   8   13.63    1.08
  -1   6   8   12.67    1.05
   0  -6  -8   44.57    2.95
   0  -6   8   43.03    2.90
   0  -6  -8   41.95    3.30
   0  -6   8   40.61    2.75
   0   6  -8   43.55    2.79
   0   6   8   40.97    2.74
   0   6   8   43.21    2.75
   0   6  -8   42.22    3.27
  -1  -6  -8   26.71    2.16
   1  -6   8   26.71    2.01
   1  -6   8   26.85    1.79
  -1  -6  -8   28.75    2.11
  -1   6  -8   24.23    2.17
   1   6   8   26.12    1.83
  -1   6  -8   27.36    1.83
   1   6   8   25.68    1.74
  -2  -6  -8   28.31    2.39
   2  -6   8   25.05    2.08
  -2   6  -8   24.79    1.87
   2   6   8   24.37    1.83
  -2   6  -8   25.12    2.22
   3  -6   8    8.49    1.41
  -3  -6  -8    7.83    1.63
  -3   6  -8    7.34    1.35
   3   6   8    6.56    1.03
   4  -6   8   16.02    2.15
  -4  -6  -8   17.54    2.83
  -4   6  -8   13.22    2.08
   4   6   8   15.46    1.65
   4  -7  -8    5.64    1.31
  -4  -7   8    4.95    1.03
   4   7  -8    3.76    1.33
  -4   7   8    4.45    1.45
   3  -7  -8   14.01    1.67
  -3  -7   8   13.43    1.41
  -3   7   8   13.24    1.62
   3   7  -8   11.44    1.67
  -2  -7   8   20.93    1.60
   2  -7  -8   17.17    1.53
   2  -7  -8   19.63    1.85
   2   7  -8   21.56    1.80
  -2   7   8   21.83    1.67
  -1  -7   8  133.07   10.00
  -1  -7   8  156.10    9.50
   1  -7  -8  170.39   11.26
   1   7  -8  165.16    9.60
  -1   7   8  163.14    9.56
   1   7  -8  134.07   11.26
  -1   7   8  156.69    9.47
   0  -7  -8   48.55    3.78
   0  -7   8   45.37    3.16
   0  -7  -8   48.58    3.41
   0  -7   8   49.34    3.36
   0   7   8   50.20    3.18
   0   7   8   48.33    3.16
   0   7  -8   50.11    3.76
   0   7  -8   54.67    3.24
   1  -7   8   90.14    5.62
  -1  -7  -8   85.19    6.71
  -1  -7  -8   82.60    6.12
   1  -7   8   93.87    6.08
  -1   7  -8   90.56    6.78
  -1   7  -8  100.50    5.72
   1   7   8   93.28    5.69
   1   7   8   88.95    5.62
   2  -7   8   46.12    3.35
  -2  -7  -8   48.57    3.59
   2   7   8   41.92    3.02
  -2   7  -8   49.38    3.12
  -2   7  -8   42.19    3.63
   3  -7   8    7.17    1.29
  -3  -7  -8    6.32    1.57
  -3   7  -8    5.72    1.14
   3   7   8    6.09    1.02
   4  -7   8    2.45    1.26
  -4  -7  -8    4.57    1.87
  -4   7  -8    4.52    1.26
   4   7   8    3.76    0.94
  -4  -8   8    4.84    1.07
   4  -8  -8    5.68    1.31
  -4   8   8    3.99    1.42
   4   8  -8    3.63    1.32
   3  -8  -8   10.34    1.58
  -3  -8   8   10.85    1.35
   3   8  -8    9.13    1.56
  -3   8   8   10.99    1.56
   2  -8  -8    6.37    0.89
  -2  -8   8    5.67    0.88
   2  -8  -8    4.82    1.03
   2   8  -8    7.17    1.13
  -2   8   8    5.19    0.85
  -1  -8   8    9.80    1.02
   1  -8  -8   10.25    1.12
   1  -8  -8   10.44    1.03
  -1  -8   8    9.82    0.97
  -1   8   8   12.01    0.97
  -1   8   8   10.79    0.99
   0  -8   8   51.53    3.68
   0  -8  -8   56.18    3.75
   0  -8  -8   54.05    4.14
   0  -8   8   50.97    3.48
   0   8   8   52.07    3.47
   0   8  -8   55.32    4.12
   0   8  -8   57.57    3.56
   0   8   8   56.36    3.51
   1  -8   8   16.19    1.20
  -1  -8  -8   17.35    1.53
   1  -8   8   18.46    1.47
   1   8   8   15.81    1.29
  -1   8  -8   15.33    1.52
   1   8   8   16.56    1.22
  -1   8  -8   16.30    1.32
   2  -8   8   12.91    1.41
  -2  -8  -8   12.98    1.62
  -2   8  -8   14.89    1.31
   2   8   8   12.36    1.18
  -2   8  -8   11.35    1.44
   3  -8   8    6.00    1.24
  -3  -8  -8    6.29    1.62
   3   8   8    5.84    1.01
  -3   8  -8    5.65    1.14
   4  -8   8    8.77    1.62
  -4  -8  -8    7.35    2.12
  -4   8  -8    6.82    1.47
   4   8   8    7.79    1.36
   4  -9  -8    4.17    1.35
  -4  -9   8    6.01    1.19
   4   9  -8    5.39    1.46
  -4   9   8    5.06    1.50
   3  -9  -8   18.16    2.07
  -3  -9   8   19.01    1.85
   3   9  -8   17.54    2.05
  -3   9   8   20.00    1.99
  -2  -9   8   27.93    2.13
   2  -9  -8   29.36    2.46
   2  -9  -8   23.85    2.11
   2   9  -8   29.21    2.33
  -2   9   8   30.15    2.20
  -1  -9   8   13.78    1.29
  -1  -9   8   13.02    1.16
   1  -9  -8   12.44    1.23
   1  -9  -8   12.15    1.32
   1   9  -8   13.81    1.40
  -1   9   8   14.51    1.19
   0  -9  -8    8.35    1.01
   0  -9   8    6.75    0.75
   0  -9   8    7.22    0.89
   0   9  -8    7.59    0.92
   0   9   8    7.54    0.77
   0   9  -8    6.46    0.85
   0   9   8    5.86    0.73
   1  -9   8   17.63    1.49
  -1  -9  -8   16.97    1.65
  -1   9  -8   17.25    1.43
   1   9   8   17.20    1.36
   1   9   8   17.14    1.29
  -1   9  -8   15.46    1.58
   2  -9   8   59.09    4.01
  -2  -9  -8   56.58    4.21
  -2   9  -8   54.54    4.40
   2   9   8   49.64    3.64
  -2   9  -8   56.17    3.77
   3  -9   8   41.77    3.25
  -3  -9  -8   40.98    3.75
   3   9   8   35.79    2.80
  -3   9  -8   37.69    3.45
   4  -9   8    8.55    1.81
  -4  -9  -8   10.78    2.39
   4   9   8    7.26    1.26
  -4   9  -8   10.28    2.03
   3 -10  -8    0.63    0.90
  -3 -10   8    1.04    0.79
  -3  10   8    1.73    0.95
   3  10  -8    1.67    1.11
  -2 -10   8    2.75    0.72
   2 -10  -8    3.86    0.81
   2 -10  -8    2.94    0.82
  -2  10   8    4.10    0.85
   2  10  -8    4.38    1.04
  -1 -10   8   22.38    1.84
   1 -10  -8   21.53    1.94
   1 -10  -8   24.36    1.83
  -1 -10   8   19.94    1.69
  -1  10   8   20.43    1.72
   1  10  -8   24.91    1.92
   0 -10   8   62.19    4.19
   0 -10  -8   62.66    4.52
   0 -10   8   63.43    4.49
   0  10   8   67.12    4.20
   0  10  -8   68.25    4.31
   0  10   8   69.38    4.26
  -1 -10  -8   20.39    1.92
   1 -10   8   21.06    1.75
   1  10   8   20.98    1.54
   1  10   8   20.99    1.61
  -1  10  -8   19.34    1.69
  -1  10  -8   20.57    1.87
   2 -10   8    4.28    0.98
  -2 -10  -8    2.17    1.05
  -2  10  -8    3.94    0.85
  -2  10  -8    3.91    0.87
   2  10   8    3.17    0.69
   3 -10   8    0.86    1.03
  -3 -10  -8    2.80    1.61
  -3  10  -8    0.75    0.89
   3  10   8    0.60    0.68
  -3 -11   8   10.81    1.55
   3 -11  -8   12.11    1.81
  -3  11   8   10.69    1.67
   3  11  -8    7.57    1.48
   2 -11  -8   31.66    2.53
   2 -11  -8   34.79    2.85
  -2 -11   8   30.42    2.46
   2  11  -8   34.03    2.69
  -2  11   8   31.05    2.53
  -1 -11   8   37.55    2.66
   1 -11  -8   40.14    2.83
  -1 -11   8   32.66    2.82
   1  11  -8   41.70    2.84
  -1  11   8   37.59    2.70
   0 -11   8   39.88    2.94
   0 -11  -8   39.19    2.98
   0 -11   8   37.74    2.71
   0  11  -8   41.65    2.86
   0  11   8   41.27    2.77
   0  11   8   40.80    2.71
  -1 -11  -8   28.17    2.66
   1 -11   8   35.91    2.57
   1  11   8   32.34    2.36
   1  11   8   33.63    2.34
  -1  11  -8   34.91    2.45
  -2 -11  -8   16.54    2.23
   2 -11   8   22.23    2.00
   2  11   8   21.58    1.76
  -2  11  -8   20.12    2.11
  -2  11  -8   20.15    1.91
   3 -11   8    5.91    1.33
  -3 -11  -8    8.69    1.90
   3  11   8    8.34    1.27
  -3  11  -8    5.81    1.33
   3 -12  -8   22.53    2.48
  -3 -12   8   20.63    2.16
   3  12  -8   23.43    2.39
  -3  12   8   21.90    2.30
   2 -12  -8    1.90    0.85
  -2 -12   8    1.22    0.69
   2  12  -8    0.57    0.93
  -2  12   8    1.21    0.74
  -1 -12   8   14.39    1.64
   1 -12  -8   11.30    1.42
  -1 -12   8   12.14    1.26
   1  12  -8   12.64    1.57
  -1  12   8   12.98    1.34
   0 -12  -8    2.50    0.84
   0 -12   8    3.51    0.59
   0 -12   8    3.75    0.78
   0  12   8    2.58    0.56
   0  12   8    2.47    0.63
   0  12  -8    3.26    0.83
  -1 -12  -8   23.61    2.35
   1 -12   8   27.19    2.22
  -1  12  -8   28.43    2.13
   1  12   8   25.73    1.99
   1  12   8   25.71    1.98
  -2 -12  -8    2.84    1.24
   2 -12   8    2.08    0.85
  -2  12  -8    3.13    0.93
  -2  12  -8    2.52    0.91
   2  12   8    2.49    0.72
   3 -12   8   13.92    1.95
  -3 -12  -8   12.33    2.28
   3  12   8   13.05    1.66
  -3  12  -8   14.09    2.07
   2 -13  -8   10.64    1.68
  -2 -13   8   10.68    1.49
   2  13  -8   13.01    1.77
  -2  13   8   12.15    1.54
  -1 -13   8   52.93    3.93
   1 -13  -8   62.69    4.22
   1  13  -8   61.09    4.14
  -1  13   8   56.77    4.02
   0 -13  -8    3.30    0.93
   0 -13   8    3.18    0.86
   0  13  -8    3.79    0.93
   0  13   8    3.62    0.75
   1 -13   8   39.17    3.02
  -1 -13  -8   30.37    3.05
  -1  13  -8   40.47    2.89
   1  13   8   37.63    2.73
   1  13   8   40.32    2.75
   2 -13   8   10.14    1.57
  -2 -13  -8    8.93    1.66
  -2  13  -8    8.53    1.40
   2  13   8   11.42    1.38
  -3  13  -8    5.18    1.32
  -2 -14   8    3.12    0.91
   2 -14  -8    2.10    1.08
   2  14  -8    2.55    1.16
  -2  14   8    3.65    0.96
   1 -14  -8    0.71    0.90
  -1 -14   8    0.55    0.62
   1  14  -8    0.88    0.97
  -1  14   8    0.81    0.66
   0 -14   8   23.83    2.22
   0 -14  -8   25.50    2.40
   0  14  -8   27.36    2.29
   0  14   8   24.62    2.05
   1 -14   8   -0.03    0.76
  -1 -14  -8    0.03    0.99
   1  14   8    0.29    0.56
   1  14   8   -0.15    0.51
  -1  14  -8   -0.40    0.75
  -2 -14  -8    7.11    1.58
   2 -14   8    5.73    1.19
   2  14   8    4.74    1.01
  -2  14  -8    7.50    1.29
  -2 -15   8    0.26    0.80
   2 -15  -8    1.32    1.13
  -2  15   8    1.23    0.94
   1 -15  -8    6.26    1.24
  -1 -15   8    7.41    1.09
  -1  15   8    7.35    1.27
   1  15  -8    4.82    1.25
   0 -15   8   -0.08    0.87
   0 -15  -8    0.30    0.98
   0  15  -8   -1.06    0.79
   0  15   8    0.39    0.61
  -1 -15  -8   16.80    2.10
   1 -15   8   17.76    1.88
  -1  15  -8   11.95    1.71
   1  15   8   14.99    1.56
   1  15   8   15.02    1.61
   2 -15   8   -0.12    1.02
  -2  15  -8   -0.54    0.91
   2  15   8    0.14    0.75
   1 -16  -8    0.72    1.18
   1  16  -8    0.81    1.08
  -1  16   8    1.59    0.82
   0 -16  -8   16.40    2.24
   0 -16   8   19.66    2.28
   0  16  -8   19.65    2.11
   0  16   8   18.45    1.82
  -1 -16  -8    1.47    1.24
   1 -16   8    0.57    0.93
  -1  16  -8    0.50    0.94
   4   0  -9   -0.13    0.82
  -4   0   9    1.18    1.08
   3   0  -9    3.94    0.83
  -3   0   9    4.47    0.96
  -3   0   9    6.33    0.84
   2   0  -9    0.04    0.42
  -2   0   9   -0.24    0.35
  -2   0   9   -0.35    0.29
  -1   0   9   20.40    1.43
  -1   0   9   21.74    1.47
   1   0  -9   17.06    1.62
   0   0   9   -0.21    0.16
   0   0   9   -0.49    0.24
   0   0  -9    0.15    0.43
   0   0  -9   -0.01    0.26
  -1   0  -9   42.60    3.05
  -1   0  -9   37.42    2.77
   1   0   9   35.47    2.52
   2   0   9   -0.36    0.27
  -2   0  -9    0.21    0.41
  -2   0  -9   -0.05    0.60
   3   0   9    7.02    0.84
  -3   0  -9    6.59    1.15
   4   0   9   -0.54    1.08
  -4   0  -9   -0.22    0.78
   4  -1  -9   11.07    1.70
  -4  -1   9   15.40    1.95
   4   1  -9   10.28    1.66
  -4   1   9   16.20    2.01
  -3  -1   9   40.31    2.60
  -3  -1   9   37.57    2.88
   3  -1  -9   35.50    3.06
  -3   1   9   38.97    2.91
   3   1  -9   33.19    3.01
  -3   1   9   39.34    2.54
   2  -1  -9    8.04    1.02
  -2  -1   9    9.82    1.04
  -2  -1   9    9.53    0.87
   2   1  -9    8.74    0.99
  -2   1   9    8.68    0.82
  -2   1   9    8.09    1.00
  -1  -1   9   22.84    1.52
   1  -1  -9   20.65    1.73
  -1  -1   9   20.79    1.53
   1  -1  -9   21.07    1.41
   1   1  -9   20.82    1.76
  -1   1   9   19.26    1.51
  -1   1   9   20.84    1.53
   0  -1   9   56.29    3.89
   0  -1  -9   65.66    4.65
   0  -1   9   58.08    4.03
   0  -1  -9   63.46    4.07
   0   1   9   60.02    3.81
   0   1  -9   59.18    4.63
   0   1   9   63.07    3.91
  -1  -1  -9   24.08    1.81
   1  -1   9   22.71    1.63
  -1  -1  -9   22.48    1.91
  -1   1  -9   21.31    1.78
  -1   1  -9   22.49    1.90
   1   1   9   22.57    1.57
  -2  -1  -9    5.60    0.84
  -2  -1  -9    5.84    0.99
   2  -1   9    4.67    0.63
   2   1   9    5.31    0.66
  -2   1  -9    5.60    0.88
  -3  -1  -9   44.74    3.92
   3  -1   9   49.41    3.27
  -3  -1  -9   48.91    4.01
   3  -1   9   50.25    3.86
  -3   1  -9   51.86    4.06
   3   1   9   53.67    3.32
  -4  -1  -9   14.91    1.82
   4  -1   9   10.84    2.05
  -4   1  -9   12.78    1.85
   4   1   9   12.47    2.12
   4  -2  -9    2.52    0.99
  -4  -2   9    2.25    1.16
  -4   2   9    2.38    1.19
   4   2  -9    1.82    0.87
   3  -2  -9   47.36    3.93
  -3  -2   9   51.86    3.34
  -3  -2   9   53.76    3.61
  -3   2   9   52.13    3.67
   3   2  -9   46.17    3.88
   2  -2  -9   25.58    2.16
  -2  -2   9   25.96    1.84
  -2  -2   9   25.32    1.98
  -2   2   9   28.42    2.03
  -2   2   9   28.76    1.82
   2   2  -9   23.45    2.12
  -1  -2   9   34.37    2.39
   1  -2  -9   36.61    2.76
   1  -2  -9   37.60    2.36
  -1  -2   9   37.89    2.36
  -1   2   9   35.28    2.38
   1   2  -9   29.65    2.78
   0  -2   9   37.07    2.46
   0  -2  -9   39.75    2.95
   0  -2   9   36.91    2.50
   0  -2  -9   38.24    2.54
   0   2   9   35.25    2.34
   0   2  -9   33.15    2.92
   0   2   9   35.20    2.44
   0   2  -9   38.41    2.40
  -1  -2  -9   51.63    3.43
   1  -2   9   50.74    3.36
  -1  -2  -9   48.41    3.71
   1   2   9   47.87    3.08
  -1   2  -9   50.44    3.71
  -1   2  -9   42.27    2.97
   2  -2   9   29.40    2.07
  -2  -2  -9   30.79    2.51
  -2  -2  -9   31.14    2.49
   2  -2   9   28.49    2.37
   2   2   9   32.15    2.09
  -2   2  -9   29.69    2.52
  -3  -2  -9   38.96    3.15
   3  -2   9   33.13    3.04
  -3  -2  -9   40.80    3.31
  -3   2  -9   35.21    3.19
   3   2   9   41.11    2.63
  -4  -2  -9    1.37    0.83
  -4  -2  -9    2.10    1.50
   4  -2   9    1.75    1.25
  -4   2  -9    0.66    0.89
   4  -3  -9   -0.04    0.85
  -4  -3   9    0.18    0.63
  -4  -3   9   -0.54    1.01
  -4   3   9    0.46    1.12
   4   3  -9   -0.30    0.74
  -3  -3   9   14.77    1.49
  -3  -3   9   10.39    1.17
   3  -3  -9    9.37    1.34
   3   3  -9   10.94    1.25
  -3   3   9   11.58    1.40
  -2  -3   9   12.93    1.21
   2  -3  -9   11.78    1.26
  -2  -3   9   13.15    1.09
  -2   3   9   12.26    1.20
  -2   3   9   11.91    1.01
   2   3  -9   11.87    1.19
   1  -3  -9  268.46   18.51
  -1  -3   9  251.08   15.53
   1  -3  -9  275.97   16.42
  -1   3   9  253.32   15.63
   1   3  -9  247.67   15.66
   1   3  -9  237.27   18.58
  -1   3   9  249.43   15.57
   0  -3  -9  127.26    8.08
   0  -3   9  126.15    8.05
   0  -3   9  129.75    7.66
   0   3   9  120.74    7.59
   0   3  -9  112.13    9.13
   0   3  -9  120.62    7.63
   0   3   9  128.03    7.65
   1  -3   9  205.39   13.79
   1  -3   9  208.24   12.95
  -1  -3  -9  217.91   13.86
  -1  -3  -9  222.94   15.45
   1   3   9  208.90   12.83
   1   3   9  218.36   12.91
  -1   3  -9  189.44   12.87
  -1   3  -9  223.97   15.45
  -2  -3  -9    8.57    1.03
  -2  -3  -9    9.48    1.26
   2  -3   9    7.63    1.10
   2  -3   9    8.92    0.89
   2   3   9    9.63    0.88
  -2   3  -9    9.28    1.11
  -3  -3  -9    7.38    1.43
  -3  -3  -9    7.70    1.10
   3  -3   9    3.36    1.03
  -3   3  -9    7.05    1.22
   3   3   9    7.54    0.91
  -4  -3  -9    0.52    1.47
   4  -3   9    0.95    1.17
  -4   3  -9   -0.16    0.86
   4   3   9    0.12    0.65
  -4  -4   9   12.64    1.47
   4  -4  -9   12.42    1.77
  -4   4   9   12.12    2.10
  -3  -4   9   13.34    1.32
   3  -4  -9   13.03    1.56
   3   4  -9   13.10    1.39
  -3   4   9   14.80    1.64
  -2  -4   9   72.43    4.49
   2  -4  -9   73.22    5.30
  -2   4   9   74.85    4.41
  -2   4   9   72.53    4.61
   2   4  -9   60.68    5.21
   2   4  -9   66.14    4.60
  -1  -4   9    5.63    0.61
  -1  -4   9    7.27    0.75
   1  -4  -9    8.46    0.88
   1  -4  -9    8.25    0.69
  -1   4   9    7.88    0.74
  -1   4   9   10.94    0.86
   1   4  -9    6.96    0.93
   1   4  -9    6.94    0.99
   0  -4   9    3.82    0.53
   0  -4  -9    4.20    0.61
   0  -4   9    4.09    0.48
   0  -4  -9    3.93    0.80
   0   4  -9    3.80    0.79
   0   4  -9    3.51    0.57
   0   4   9    4.37    0.53
   0   4   9    3.15    0.39
   1  -4   9    3.41    0.57
   1  -4   9    3.53    0.62
  -1  -4  -9    4.33    0.79
  -1  -4  -9    4.26    0.75
   1   4   9    4.95    0.57
   1   4   9    4.74    0.38
  -1   4  -9    3.64    0.50
  -1   4  -9    5.14    0.76
  -2  -4  -9   80.51    5.64
  -2  -4  -9   80.08    5.94
   2  -4   9   75.92    5.46
   2  -4   9   81.98    5.02
  -2   4  -9   72.84    6.00
   2   4   9   83.20    5.02
  -3  -4  -9    9.73    1.24
  -3  -4  -9   11.40    1.91
   3  -4   9    9.70    1.55
  -3   4  -9    8.76    1.37
   3   4   9    9.22    1.09
   4  -4   9    8.09    1.58
  -4  -4  -9    6.94    1.93
  -4   4  -9    8.40    1.68
   4   4   9    7.44    1.23
   4  -5  -9    0.04    0.91
  -4  -5   9   -0.57    0.68
  -4   5   9    0.40    1.14
   4   5  -9    0.62    1.14
   3  -5  -9   27.31    2.51
  -3  -5   9   29.39    2.17
  -3   5   9   31.22    2.46
   3   5  -9   26.49    2.43
   2  -5  -9   24.14    2.07
  -2  -5   9   24.52    1.80
  -2   5   9   24.79    1.88
   2   5  -9   23.80    2.02
   2   5  -9   20.79    1.96
  -1  -5   9   16.12    1.29
   1  -5  -9   18.41    1.30
   1  -5  -9   15.26    1.48
  -1  -5   9   13.57    1.23
  -1   5   9   18.37    1.31
   1   5  -9   22.73    1.52
   1   5  -9   19.21    1.61
  -1   5   9   16.20    1.32
   0  -5   9  140.27    9.36
   0  -5  -9  150.99    9.41
   0  -5   9  140.09    8.85
   0  -5  -9  136.45   10.58
   0   5  -9  151.20   10.59
   0   5   9  141.30    8.83
   0   5   9  137.86    8.83
   0   5  -9  152.60    8.89
  -1  -5  -9   33.48    2.81
   1  -5   9   35.29    2.54
  -1  -5  -9   38.00    2.64
   1  -5   9   36.42    2.36
  -1   5  -9   35.12    2.31
  -1   5  -9   33.36    2.80
   1   5   9   34.11    2.23
   1   5   9   35.97    2.35
  -2  -5  -9   15.02    1.70
  -2  -5  -9   14.79    1.36
   2  -5   9   12.30    1.41
   2  -5   9   12.58    1.15
   2   5   9   14.89    1.20
  -2   5  -9   14.52    1.49
   3  -5   9   40.86    3.42
  -3  -5  -9   49.14    3.83
   3   5   9   45.44    3.01
  -3   5  -9   40.89    3.65
  -4  -5  -9   -1.52    1.47
   4  -5   9   -0.89    1.11
  -4   5  -9    0.59    0.95
   4   5   9    0.17    0.70
   4  -6  -9    0.60    0.97
  -4  -6   9   -1.15    0.70
  -4   6   9    0.80    1.12
   4   6  -9    0.33    1.15
   3  -6  -9    4.07    0.97
  -3  -6   9    6.81    1.03
   3   6  -9    4.67    1.07
  -3   6   9    6.14    1.11
   2  -6  -9    6.21    1.00
   2  -6  -9    5.96    0.77
  -2  -6   9    6.79    0.84
  -2   6   9    6.11    0.88
   2   6  -9    3.25    0.77
   2   6  -9    7.33    1.17
   1  -6  -9    8.40    0.92
   1  -6  -9   10.41    1.10
  -1  -6   9    8.86    0.91
  -1  -6   9   10.39    0.94
  -1   6   9   10.75    0.95
   1   6  -9   13.27    1.19
   1   6  -9   12.34    1.23
  -1   6   9   13.11    1.03
   0  -6   9   -0.07    0.27
   0  -6  -9    0.15    0.48
   0  -6  -9    0.43    0.41
   0  -6   9    0.11    0.26
   0   6  -9    0.66    0.42
   0   6   9    0.05    0.23
   0   6  -9   -0.14    0.41
   0   6   9    0.14    0.27
   1  -6   9   18.54    1.48
  -1  -6  -9   19.08    1.58
  -1  -6  -9   16.32    1.62
   1  -6   9   17.78    1.31
   1   6   9   18.62    1.24
  -1   6  -9   17.66    1.33
  -1   6  -9   17.58    1.62
   1   6   9   17.00    1.34
  -2  -6  -9   13.58    1.67
   2  -6   9   13.37    1.39
  -2   6  -9   12.17    1.40
   2   6   9   10.78    1.09
   3  -6   9   11.08    1.60
  -3  -6  -9    9.73    1.83
   3   6   9   11.19    1.17
  -3   6  -9    9.41    1.52
  -4  -6  -9   -0.70    1.55
   4  -6   9   -0.98    1.08
   4   6   9    0.36    0.72
  -4   6  -9   -0.91    0.87
  -4  -7   9   33.27    2.56
   4  -7  -9   30.48    3.02
  -4   7   9   31.66    3.03
   4   7  -9   26.76    2.79
   3  -7  -9    7.58    1.38
  -3  -7   9    7.85    1.23
   3   7  -9    8.74    1.35
  -3   7   9    8.26    1.38
   2  -7  -9    3.01    0.58
   2  -7  -9    3.14    0.74
  -2  -7   9    2.66    0.62
  -2   7   9    3.39    0.69
   2   7  -9    1.08    0.79
   1  -7  -9   42.59    2.71
  -1  -7   9   37.33    2.60
   1  -7  -9   42.31    3.05
  -1  -7   9   32.84    2.67
   1   7  -9   33.03    3.07
   1   7  -9   40.94    2.74
  -1   7   9   40.35    2.63
  -1   7   9   39.93    2.62
   0  -7   9   19.10    1.44
   0  -7  -9   21.25    1.79
   0  -7  -9   20.03    1.63
   0  -7   9   18.29    1.51
   0   7  -9   20.08    1.72
   0   7   9   20.38    1.43
   0   7   9   18.88    1.43
   0   7  -9   21.08    1.53
   1  -7   9   28.65    1.90
  -1  -7  -9   27.10    2.24
  -1  -7  -9   23.61    2.30
   1  -7   9   28.21    2.12
  -1   7  -9   29.77    1.99
   1   7   9   29.36    1.87
  -1   7  -9   27.60    2.34
   1   7   9   28.62    1.97
   2  -7   9    3.97    0.84
  -2  -7  -9    6.33    1.19
   2   7   9    4.28    0.69
  -2   7  -9    3.99    0.82
  -3  -7  -9   17.10    2.35
   3  -7   9   11.38    1.72
  -3   7  -9    9.96    1.64
   3   7   9   12.56    1.27
  -4  -7  -9   41.28    4.15
   4  -7   9   35.26    3.40
   4   7   9   38.35    2.87
  -4   7  -9   37.35    3.58
   4  -8  -9    3.59    1.23
  -4  -8   9    2.99    1.00
   4   8  -9    1.62    1.34
  -4   8   9    1.44    1.27
  -3  -8   9   37.34    2.90
   3  -8  -9   42.09    3.39
  -3   8   9   43.70    3.13
   3   8  -9   33.39    3.07
   2  -8  -9    3.30    0.79
  -2  -8   9    3.53    0.70
   2  -8  -9    4.76    0.82
  -2   8   9    4.16    0.76
   2   8  -9    3.71    1.02
   1  -8  -9   28.48    2.45
  -1  -8   9   27.91    2.12
   1  -8  -9   29.33    2.21
   1   8  -9   32.42    2.31
  -1   8   9   31.09    2.15
  -1   8   9   32.13    2.12
   0  -8  -9   29.28    2.13
   0  -8   9   27.05    1.92
   0  -8   9   25.83    2.04
   0  -8  -9   26.82    2.34
   0   8   9   27.74    1.93
   0   8   9   28.23    1.93
   0   8  -9   28.15    2.28
   0   8  -9   29.13    2.02
   1  -8   9   52.69    3.54
  -1  -8  -9   55.43    3.98
   1  -8   9   58.23    3.90
  -1   8  -9   52.09    4.29
   1   8   9   55.72    3.62
   1   8   9   56.95    3.55
  -1   8  -9   57.58    3.66
   2  -8   9    7.58    1.18
  -2  -8  -9    8.37    1.51
   2   8   9    5.61    0.87
  -2   8  -9    6.05    1.13
  -3  -8  -9   29.06    3.07
   3  -8   9   25.43    2.55
   3   8   9   28.45    2.15
  -3   8  -9   26.17    2.68
  -4  -8  -9    1.36    1.79
   4  -8   9    2.09    1.30
  -4   8  -9    2.05    1.12
   4   8   9    1.29    0.84
  -3  -9   9    6.40    1.09
   3  -9  -9    6.87    1.21
  -3   9   9    5.97    1.22
   3   9  -9    5.30    1.33
   2  -9  -9   26.12    1.94
  -2  -9   9   22.53    1.87
   2  -9  -9   24.00    2.18
   2   9  -9   22.65    2.11
  -2   9   9   21.29    1.93
   1  -9  -9   22.59    1.86
   1  -9  -9   23.12    2.04
  -1  -9   9   22.26    1.77
  -1   9   9   26.13    1.83
   1   9  -9   26.02    2.01
   0  -9   9  226.59   15.69
   0  -9   9  232.42   14.76
   0  -9  -9  240.48   15.73
   0   9  -9  258.91   14.90
   0   9  -9  237.86   17.59
   0   9   9  248.09   14.85
   0   9   9  247.24   14.76
   1  -9   9   40.74    2.91
  -1  -9  -9   40.14    3.02
   1   9   9   38.80    2.68
  -1   9  -9   36.76    3.16
   1   9   9   41.03    2.62
  -1   9  -9   38.40    2.71
  -2  -9  -9   24.23    2.40
   2  -9   9   25.97    2.14
  -2   9  -9   22.55    2.22
   2   9   9   21.69    1.81
   3  -9   9    2.64    1.10
  -3  -9  -9    3.40    1.59
  -3   9  -9    2.34    0.99
   3   9   9    3.28    0.79
   3 -10  -9   -0.56    0.85
  -3 -10   9    0.34    0.73
  -3  10   9    0.51    0.90
   3  10  -9    1.74    1.14
   2 -10  -9   63.84    4.62
   2 -10  -9   63.25    4.11
  -2 -10   9   52.95    3.92
  -2  10   9   55.32    4.00
   2  10  -9   53.09    4.09
   1 -10  -9   -0.01    0.55
   1 -10  -9    0.25    0.61
  -1 -10   9    0.61    0.44
  -1  10   9    0.50    0.45
   1  10  -9   -0.70    0.71
   0 -10  -9    2.96    0.75
   0 -10   9    2.64    0.50
   0 -10   9    3.59    0.70
   0  10   9    2.57    0.52
   0  10  -9    3.50    0.72
   0  10   9    3.42    0.60
  -1 -10  -9    0.18    0.72
   1 -10   9    0.44    0.54
  -1  10  -9    0.64    0.57
   1  10   9    0.46    0.37
   1  10   9    0.07    0.38
  -1  10  -9    0.01    0.47
   2 -10   9   45.65    3.29
  -2 -10  -9   40.55    3.45
  -2  10  -9   43.88    3.54
  -2  10  -9   35.00    2.98
   2  10   9   43.09    2.95
   3 -10   9    1.18    1.03
  -3 -10  -9   -0.59    1.42
  -3  10  -9   -0.34    0.83
   3  10   9    0.25    0.62
   3 -11  -9    8.23    1.64
  -3 -11   9    7.28    1.22
   3  11  -9    5.82    1.37
  -3  11   9    8.81    1.43
   2 -11  -9   16.50    1.72
  -2 -11   9   16.80    1.66
   2 -11  -9   21.16    1.98
   2  11  -9   15.61    1.95
  -2  11   9   18.83    1.77
   1 -11  -9   13.07    1.39
  -1 -11   9   12.52    1.25
   1  11  -9   14.48    1.57
  -1  11   9   11.92    1.26
   0 -11  -9   52.11    3.80
   0 -11   9   51.46    3.75
   0 -11   9   48.45    3.47
   0  11  -9   57.08    3.64
   0  11   9   52.87    3.47
   0  11   9   55.51    3.56
   1 -11   9    7.52    1.11
  -1 -11  -9    5.62    1.13
  -1  11  -9    7.14    1.07
   1  11   9    7.92    0.90
   1  11   9    7.78    1.00
   2 -11   9   20.19    1.93
  -2 -11  -9   19.31    2.28
   2  11   9   18.87    1.67
  -2  11  -9   19.80    1.86
  -2  11  -9   16.98    2.02
   3 -11   9   16.38    2.13
  -3 -11  -9   17.94    2.76
  -3  11  -9   12.81    2.06
   3  11   9   14.19    1.60
  -3 -12   9    0.85    0.87
   3 -12  -9    0.37    1.05
  -3  12   9    0.92    1.02
   3  12  -9   -0.16    1.18
  -2 -12   9   10.21    1.40
   2 -12  -9    9.98    1.47
  -2  12   9   13.21    1.51
   2  12  -9   13.18    1.78
   1 -12  -9    0.53    0.76
  -1 -12   9    1.05    0.55
   1  12  -9    1.05    0.91
  -1  12   9    1.08    0.61
   0 -12  -9    6.28    1.06
   0 -12   9    6.36    1.15
   0 -12   9    6.19    0.86
   0  12  -9    6.99    1.10
   0  12   9    6.15    0.86
   0  12   9    6.74    0.93
   1 -12   9    0.18    0.64
  -1 -12  -9    0.40    0.88
   1  12   9    0.70    0.50
  -1  12  -9    1.05    0.70
   1  12   9    0.86    0.53
  -2 -12  -9   15.16    2.18
   2 -12   9   15.18    1.78
  -2  12  -9   15.74    1.76
  -2  12  -9   16.54    1.91
   2  12   9   14.03    1.55
   3 -12   9    0.35    1.02
  -3 -12  -9    2.85    1.68
   3  12   9    1.28    0.78
  -3  12  -9    2.14    1.07
  -2 -13   9    3.79    0.95
   2 -13  -9    3.00    1.01
  -2  13   9    4.64    1.07
   2  13  -9    3.64    1.22
   1 -13  -9   16.18    1.73
  -1 -13   9   16.19    1.50
   1  13  -9   16.01    1.86
  -1  13   9   14.30    1.54
   0 -13  -9    1.98    0.89
   0 -13   9    1.67    0.75
   0  13  -9    1.80    0.89
   0  13   9    0.77    0.60
  -1 -13  -9   13.70    1.89
   1 -13   9   16.49    1.73
  -1  13  -9   13.84    1.61
   1  13   9   16.13    1.50
  -2 -13  -9    8.93    1.66
   2 -13   9    8.40    1.35
   2  13   9    7.25    1.09
  -2  13  -9    6.36    1.26
  -2 -14   9   13.13    1.70
   2 -14  -9   14.39    1.79
  -2  14   9   12.96    1.72
   2  14  -9   15.62    2.04
   1 -14  -9    4.99    1.15
  -1 -14   9    7.58    1.07
   1  14  -9    6.20    1.28
  -1  14   9    5.23    0.98
   0 -14  -9    0.11    0.90
   0 -14   9    0.16    0.77
   0  14  -9   -0.15    0.86
   0  14   9   -0.14    0.55
  -1 -14  -9   11.91    1.82
   1 -14   9   11.67    1.56
  -1  14  -9    9.12    1.48
   1  14   9   10.98    1.34
  -2 -14  -9    9.99    1.81
   2 -14   9   11.51    1.78
  -2  14  -9    9.67    1.69
   2  14   9   12.43    1.51
  -1 -15   9    0.36    0.70
   1 -15  -9   -0.98    0.92
   1  15  -9    0.55    1.07
  -1  15   9   -0.48    0.65
   0 -15   9   80.32    5.72
   0 -15  -9   75.80    5.69
   0  15   9   78.24    5.32
   0  15  -9   84.22    5.51
   1 -15   9    0.39    0.89
  -1 -15  -9    0.32    1.12
   1  15   9    0.03    0.64
  -1  15  -9    0.38    0.90
   1 -16  -9    5.45    1.32
  -1  16   9    4.06    1.01
   0 -16  -9    0.78    1.13
   0 -16   9   -0.18    1.01
   0  16   9    0.01    0.65
   0  16  -9   -0.11    1.01
   1 -16   9    5.74    1.27
  -1  16  -9    3.32    1.14
  -4   0  10   17.91    2.15
   4   0 -10   15.69    1.92
  -3   0  10    0.02    0.44
  -3   0  10    0.02    0.59
   3   0 -10   -0.63    0.59
   2   0 -10  143.11   10.93
  -2   0  10  151.88    9.21
  -2   0  10  153.12    9.40
  -1   0  10    0.05    0.26
   1   0 -10    0.18    0.41
  -1   0  10    0.22    0.33
   0   0  10   89.96    5.92
   0   0 -10  103.47    7.18
   0   0 -10   95.51    6.30
   0   0  10   94.90    6.02
  -1   0 -10   -0.22    0.42
  -1   0 -10    0.12    0.44
   1   0  10   -0.14    0.26
   2   0  10  119.34    7.50
  -2   0 -10  125.17    8.21
  -2   0 -10  119.35    9.00
  -3   0 -10    0.03    0.59
   3   0  10   -0.11    0.39
   4   0  10   20.34    2.52
  -4   0 -10   20.43    2.31
   4  -1 -10    3.54    1.04
  -4  -1  10    3.41    1.18
  -4   1  10    4.50    1.29
   4   1 -10    2.43    0.96
   3  -1 -10   10.48    1.42
  -3  -1  10    9.33    1.43
  -3  -1  10   13.35    1.21
  -3   1  10   12.04    1.51
   3   1 -10   13.19    1.42
  -3   1  10   12.70    1.16
   2  -1 -10   42.51    3.53
  -2  -1  10   47.37    3.01
  -2  -1  10   46.19    3.16
  -2   1  10   50.29    3.01
   2   1 -10   42.12    3.52
  -2   1  10   45.83    3.17
  -1  -1  10   63.81    3.76
   1  -1 -10   58.98    3.78
   1  -1 -10   53.40    4.37
  -1  -1  10   58.39    3.76
  -1   1  10   49.86    3.72
  -1   1  10   63.78    3.79
   0  -1 -10  200.07   13.37
   0  -1 -10  234.83   15.12
   0  -1  10  204.12   12.66
   0  -1  10  197.06   13.35
   0   1  10  193.32   12.61
   0   1 -10  218.29   15.12
   0   1  10  199.07   12.66
   1  -1  10   93.79    5.93
  -1  -1 -10   97.42    6.34
  -1  -1 -10  100.29    7.06
  -1   1 -10  103.89    7.07
  -1   1 -10   80.89    5.74
  -1   1 -10   91.28    6.32
   1   1  10   96.38    5.88
  -2  -1 -10   52.68    3.83
   2  -1  10   52.23    3.35
  -2  -1 -10   48.79    4.01
  -2   1 -10   53.17    4.06
   2   1  10   51.70    3.35
  -3  -1 -10   10.02    1.78
   3  -1  10    7.46    0.90
  -3  -1 -10    9.98    1.31
   3  -1  10    5.35    1.21
   3   1  10    8.85    0.98
  -3   1 -10    8.65    1.29
   4  -1  10    5.06    1.51
  -4  -1 -10    5.89    1.18
  -4   1 -10    6.44    1.24
   4   1  10    6.87    1.56
   4  -2 -10   11.31    1.79
  -4  -2  10   15.59    1.99
  -4   2  10   16.46    2.12
   4   2 -10   12.30    1.71
  -3  -2  10   15.98    1.38
   3  -2 -10   14.67    1.62
  -3  -2  10   14.86    1.63
   3   2 -10   13.87    1.54
  -3   2  10   16.91    1.71
  -2  -2  10    0.60    0.40
  -2  -2  10    0.75    0.47
   2  -2 -10    1.36    0.53
  -2   2  10    0.68    0.39
   2   2 -10    0.41    0.45
  -2   2  10    0.78    0.50
  -1  -2  10   31.14    2.13
  -1  -2  10   29.21    2.11
   1  -2 -10   30.08    2.45
   1  -2 -10   33.15    2.08
  -1   2  10   28.33    2.13
   1   2 -10   31.27    2.55
  -1   2  10   30.09    2.12
   0  -2  10    0.43    0.33
   0  -2 -10    0.63    0.47
   0  -2 -10    0.54    0.33
   0  -2  10    0.38    0.24
   0   2  10    0.37    0.33
   0   2 -10    0.02    0.29
   0   2  10    0.58    0.19
   0   2 -10    0.47    0.51
   1  -2  10   17.12    1.33
  -1  -2 -10   16.37    1.59
  -1  -2 -10   18.80    1.52
   1  -2  10   13.40    1.35
  -1   2 -10   18.21    1.58
   1   2  10   18.32    1.28
   2  -2  10    0.92    0.38
  -2  -2 -10    0.88    0.73
   2  -2  10    1.82    0.63
  -2  -2 -10    1.46    0.52
  -2   2 -10    1.85    0.57
   2   2  10    0.95    0.39
   3  -2  10   15.75    1.96
  -3  -2 -10   18.86    1.88
  -3  -2 -10   18.99    2.22
   3   2  10   20.28    1.54
  -3   2 -10   18.24    1.93
  -4  -2 -10    7.19    1.26
   4  -2  10    4.39    1.38
  -4  -2 -10    5.98    1.81
  -4   2 -10    7.92    1.59
   4  -3 -10   34.37    3.12
  -4  -3  10   34.81    2.63
  -4  -3  10   36.36    3.05
  -4   3  10   37.41    3.18
   4   3 -10   31.24    3.12
   3  -3 -10    3.57    0.87
  -3  -3  10    5.71    1.03
  -3  -3  10    4.64    0.78
  -3   3  10    7.06    1.16
   3   3 -10    4.36    0.81
   2  -3 -10   60.93    4.48
  -2  -3  10   56.93    3.79
  -2  -3  10   61.31    3.93
  -2   3  10   58.90    3.76
   2   3 -10   57.18    4.44
  -2   3  10   54.83    3.91
   1  -3 -10    0.81    0.28
   1  -3 -10    0.90    0.47
  -1  -3  10    1.37    0.39
  -1   3  10    0.59    0.30
   1   3 -10    1.05    0.51
   1   3 -10    1.05    0.54
  -1   3  10    1.37    0.45
   0  -3  10    4.61    0.65
   0  -3  10    5.75    0.57
   0  -3 -10    5.22    0.90
   0  -3 -10    5.89    0.67
   0   3 -10    5.37    0.65
   0   3  10    5.38    0.64
   0   3 -10    4.49    0.81
   0   3  10    4.80    0.49
  -1  -3 -10    1.61    0.58
  -1  -3 -10    0.56    0.51
   1  -3  10    1.11    0.37
   1  -3  10    1.36    0.44
  -1   3 -10    1.05    0.50
  -1   3 -10    0.46    0.25
   1   3  10    1.28    0.36
   2  -3  10   32.20    2.29
  -2  -3 -10   32.99    2.70
  -2  -3 -10   34.27    2.74
  -2   3 -10   32.00    2.75
   2   3  10   33.63    2.26
  -3  -3 -10    3.50    0.79
  -3  -3 -10    3.31    1.24
   3  -3  10    2.64    0.92
  -3   3 -10    3.76    0.91
   3   3  10    3.96    0.71
   4  -3  10   25.52    2.89
  -4  -3 -10   31.06    3.41
   4   3  10   32.63    2.34
  -4   3 -10   26.96    2.90
   4  -4 -10    6.63    1.27
  -4  -4  10    7.36    1.27
  -4   4  10    7.60    1.61
  -3  -4  10   10.41    1.17
   3  -4 -10    9.16    1.36
   3   4 -10    8.04    1.19
  -3   4  10   14.33    1.53
  -2  -4  10    7.17    0.87
   2  -4 -10    6.90    1.00
   2   4 -10    5.70    1.01
  -2   4  10    7.59    0.83
   2   4 -10    6.14    0.94
  -2   4  10    5.86    0.90
   1  -4 -10   49.15    3.15
  -1  -4  10   44.41    3.07
   1  -4 -10   53.01    3.63
   1   4 -10   41.89    3.68
  -1   4  10   52.54    3.13
   1   4 -10   41.14    3.14
  -1   4  10   44.38    3.08
   0  -4  10    0.30    0.26
   0  -4 -10    0.29    0.37
   0  -4  10    0.50    0.31
   0  -4 -10    0.63    0.51
   0   4 -10    0.36    0.53
   0   4 -10    0.83    0.39
   0   4  10    0.34    0.20
   0   4  10    0.89    0.31
  -1  -4 -10   19.00    1.96
  -1  -4 -10   22.14    1.88
   1  -4  10   20.47    1.62
   1  -4  10   24.01    1.76
   1   4  10   27.18    1.63
  -1   4 -10   18.51    1.51
  -1   4 -10   28.32    2.01
  -2  -4 -10    4.08    0.82
   2  -4  10    3.12    0.56
  -2  -4 -10    4.16    0.96
   2  -4  10    3.12    0.80
  -2   4 -10    3.46    0.71
   2   4  10    4.14    0.68
  -3  -4 -10   18.80    2.32
  -3  -4 -10   18.06    1.78
   3  -4  10   19.15    1.99
   3   4  10   16.10    1.49
  -3   4 -10   16.68    1.88
  -4  -4 -10    5.97    1.87
   4  -4  10    4.35    1.39
   4   4  10    3.59    0.86
  -4   4 -10    3.77    1.13
   4  -5 -10    1.27    0.97
  -4  -5  10    1.25    0.79
   4   5 -10    3.01    1.27
  -4   5  10    2.48    1.26
  -3  -5  10   16.43    1.49
   3  -5 -10   15.08    1.73
  -3   5  10   16.07    1.74
   3   5 -10   13.30    1.78
  -2  -5  10   47.27    3.21
   2  -5 -10   44.17    3.73
  -2   5  10   48.88    3.31
   2   5 -10   52.14    3.42
  -1  -5  10    1.36    0.40
   1  -5 -10    1.23    0.51
   1  -5 -10    0.81    0.37
   1   5 -10    1.94    0.62
   1   5 -10    1.33    0.60
  -1   5  10    0.94    0.35
  -1   5  10    1.88    0.48
   0  -5 -10  157.42   12.42
   0  -5  10  158.90   10.98
   0  -5  10  170.63   10.41
   0  -5 -10  181.51   11.05
   0   5  10  166.98   10.38
   0   5  10  171.01   10.39
   0   5 -10  169.04   12.45
   0   5 -10  178.64   10.44
   1  -5  10    0.69    0.42
  -1  -5 -10   -0.21    0.50
  -1  -5 -10    0.49    0.56
   1  -5  10    0.32    0.31
  -1   5 -10    0.43    0.44
  -1   5 -10    1.06    0.35
   1   5  10    0.78    0.35
   2  -5  10  107.69    6.09
  -2  -5 -10   93.08    7.19
  -2  -5 -10  100.48    6.74
   2  -5  10   95.22    6.59
  -2   5 -10   90.77    7.28
   2   5  10   92.37    6.07
  -3  -5 -10   12.71    2.04
   3  -5  10    7.74    1.34
  -3   5 -10    7.31    1.41
   3   5  10   10.77    1.18
   4  -5  10    2.92    1.26
  -4  -5 -10    2.23    1.75
   4   5  10    3.89    0.91
  -4   5 -10    4.68    1.22
   4  -6 -10    8.72    1.73
  -4  -6  10   10.32    1.46
  -4   6  10    9.48    1.67
   4   6 -10    6.40    1.53
   3  -6 -10   22.96    2.27
  -3  -6  10   26.40    2.03
  -3   6  10   25.59    2.23
   3   6 -10   21.64    2.25
  -2  -6  10   61.24    3.91
   2  -6 -10   69.70    4.61
  -2   6  10   62.39    4.01
   2   6 -10   56.31    4.04
   2   6 -10   47.02    4.54
   1  -6 -10   64.34    4.53
   1  -6 -10   62.98    4.00
  -1  -6  10   53.47    3.83
   1   6 -10   55.05    3.96
  -1   6  10   66.45    3.90
   1   6 -10   54.72    4.58
  -1   6  10   57.69    3.86
   0  -6 -10    8.30    1.17
   0  -6  10    9.73    0.88
   0  -6  10    8.82    0.86
   0  -6 -10   11.33    1.02
   0   6 -10   10.32    1.01
   0   6 -10   10.00    1.14
   0   6  10    9.18    0.80
   0   6  10    9.85    0.89
  -1  -6 -10   28.01    2.34
   1  -6  10   32.51    2.07
   1  -6  10   30.18    2.24
  -1   6 -10   24.33    2.01
   1   6  10   32.46    2.09
  -1   6 -10   32.16    2.51
  -2  -6 -10   52.52    4.01
   2  -6  10   51.52    3.79
  -2   6 -10   51.79    4.14
   2   6  10   51.47    3.43
  -3  -6 -10   33.00    3.19
   3  -6  10   28.25    2.70
   3   6  10   32.80    2.31
  -3   6 -10   28.19    2.80
   4  -6  10    7.87    1.63
  -4  -6 -10    9.16    2.13
  -4   6 -10    7.67    1.48
   4   6  10    7.71    1.16
   4  -7 -10   11.70    1.86
  -4  -7  10   10.55    1.58
  -4   7  10   14.43    2.09
   4   7 -10    5.69    1.56
   3  -7 -10    1.53    0.84
  -3  -7  10    2.20    0.74
  -3   7  10    2.91    0.94
   3   7 -10    3.65    1.09
  -2  -7  10   16.02    1.45
   2  -7 -10   17.15    1.69
   2   7 -10   13.88    1.66
  -2   7  10   18.18    1.53
   1  -7 -10  117.69    7.71
   1  -7 -10  116.11    8.65
  -1  -7  10  112.97    7.33
  -1   7  10  120.11    7.35
   1   7 -10  122.52    7.45
  -1   7  10  116.05    7.37
   1   7 -10  115.50    8.74
   0  -7 -10   25.62    2.00
   0  -7 -10   24.34    2.21
   0  -7  10   25.43    1.89
   0  -7  10   24.25    1.81
   0   7  10   26.29    1.79
   0   7 -10   26.36    2.19
   0   7 -10   28.18    1.90
   0   7  10   24.56    1.80
   1  -7  10  156.62    9.46
  -1  -7 -10  161.23   10.21
   1  -7  10  157.29   10.12
  -1   7 -10  149.04   11.32
   1   7  10  154.49    9.49
  -1   7 -10  142.62    9.49
  -2  -7 -10   18.63    2.08
   2  -7  10   18.61    1.76
  -2   7 -10   15.78    1.79
   2   7  10   17.82    1.45
   3  -7  10    5.45    1.23
  -3  -7 -10    3.67    1.55
   3   7  10    4.92    0.87
  -3   7 -10    5.77    1.11
   4  -7  10    5.51    1.51
  -4  -7 -10   11.99    2.20
  -4   7 -10    6.63    1.44
   4   7  10    6.80    1.14
  -4  -8  10   10.96    1.56
   4   8 -10    7.24    1.72
  -3  -8  10   18.13    1.77
   3  -8 -10   17.79    1.97
   3   8 -10   13.72    1.92
  -3   8  10   18.06    1.91
   2  -8 -10    4.33    0.86
  -2  -8  10    4.30    0.76
  -2   8  10    3.77    0.81
   2   8 -10    3.11    0.94
  -1  -8  10   14.52    1.33
   1  -8 -10   15.51    1.54
   1  -8 -10   18.72    1.44
   1   8 -10   16.72    1.60
  -1   8  10   16.03    1.37
  -1   8  10   15.77    1.34
   0  -8 -10   15.60    1.72
   0  -8  10   18.80    1.48
   0  -8  10   16.30    1.36
   0  -8 -10   18.86    1.61
   0   8  10   18.88    1.38
   0   8 -10   19.43    1.67
   0   8 -10   17.34    1.49
   0   8  10   17.87    1.38
  -1  -8 -10   14.03    1.54
   1  -8  10   15.50    1.38
   1  -8  10   16.06    1.16
   1   8  10   14.70    1.25
  -1   8 -10   13.78    1.28
  -1   8 -10   11.03    1.42
   2  -8  10    3.19    0.84
  -2  -8 -10    2.97    1.11
  -2   8 -10    2.21    0.74
   2   8  10    2.94    0.63
  -3  -8 -10    8.65    1.90
   3  -8  10   14.14    1.84
  -3   8 -10   10.47    1.73
   3   8  10   10.39    1.31
  -4  -8 -10    9.52    2.25
   4   8  10    6.74    1.17
  -3  -9  10   24.57    2.14
   3  -9 -10   25.62    2.40
  -3   9  10   21.91    2.26
   3   9 -10   18.48    2.40
  -2  -9  10   23.78    2.00
   2  -9 -10   28.49    2.38
  -2   9  10   25.33    2.07
   2   9 -10   22.79    2.23
   1  -9 -10    1.55    0.58
   1  -9 -10    1.40    0.65
  -1  -9  10    1.01    0.46
   1   9 -10    0.68    0.79
  -1   9  10    1.00    0.47
   0  -9 -10    2.29    0.69
   0  -9  10    2.79    0.52
   0  -9  10    2.75    0.59
   0   9 -10    1.85    0.59
   0   9  10    1.91    0.49
   0   9 -10    2.03    0.67
   0   9  10    2.64    0.51
   1  -9  10    1.17    0.60
   1  -9  10    0.88    0.36
  -1  -9 -10    0.99    0.75
   1   9  10    1.02    0.46
  -1   9 -10    1.41    0.57
  -1   9 -10    0.23    0.50
  -2  -9 -10   10.38    1.84
   2  -9  10   15.37    1.58
   2   9  10   12.21    1.25
  -2   9 -10   11.40    1.54
   3  -9  10   18.16    2.16
  -3  -9 -10   20.41    2.75
   3   9  10   20.00    1.70
  -3   9 -10   14.84    2.14
   3 -10 -10    2.65    1.04
  -3 -10  10    2.79    0.93
   3  10 -10    2.80    1.24
  -3  10  10    1.80    0.99
   2 -10 -10   19.91    1.88
  -2 -10  10   16.06    1.57
  -2  10  10   15.58    1.63
   2  10 -10   14.47    1.89
   1 -10 -10    6.63    1.05
  -1 -10  10    7.44    0.92
   1 -10 -10    6.94    1.14
  -1  10  10    7.06    0.97
   1  10 -10    7.48    1.18
   0 -10  10    2.25    0.64
   0 -10  10    1.87    0.46
   0 -10 -10    1.87    0.74
   0  10 -10    0.71    0.64
   0  10  10    1.69    0.48
   0  10  10    1.15    0.44
   1 -10  10    5.85    0.98
  -1 -10 -10    4.51    1.03
   1  10  10    6.70    0.89
  -1  10 -10    7.07    1.04
  -1  10 -10    4.88    1.02
   2 -10  10    8.75    1.48
  -2 -10 -10   10.51    1.83
   2  10  10    8.96    1.13
  -2  10 -10    9.78    1.49
   3 -10  10    5.51    1.33
  -3 -10 -10    8.92    1.94
  -3  10 -10    5.32    1.28
   3  10  10    6.39    1.02
   3 -11 -10    4.96    1.22
  -3 -11  10    4.81    1.06
  -3  11  10    4.01    1.18
   3  11 -10    3.95    1.35
   2 -11 -10   12.31    1.69
  -2 -11  10   12.45    1.44
  -2  11  10   14.15    1.54
   2  11 -10   14.14    1.86
   1 -11 -10   26.67    2.17
  -1 -11  10   22.99    1.99
   1  11 -10   30.00    2.32
  -1  11  10   26.76    2.06
   0 -11  10   31.73    2.45
   0 -11  10   36.69    2.71
   0 -11 -10   36.76    2.79
   0  11 -10   38.16    2.71
   0  11  10   35.11    2.47
   0  11  10   35.54    2.53
  -1 -11 -10   51.12    3.89
   1 -11  10   55.32    3.77
   1  11  10   49.45    3.49
  -1  11 -10   50.22    3.59
  -2 -11 -10   25.79    2.74
   2 -11  10   31.95    2.50
   2  11  10   26.33    2.15
  -2  11 -10   25.23    2.59
   3 -11  10    6.04    1.47
  -3 -11 -10    8.69    2.02
  -3  11 -10    6.68    1.40
   3  11  10    6.50    1.06
   3 -12 -10   31.75    2.87
  -3 -12  10   24.43    2.46
  -3  12  10   27.10    2.86
   3  12 -10   25.59    2.95
  -2 -12  10    5.71    1.00
   2 -12 -10    3.82    1.00
   2  12 -10    4.16    1.27
  -2  12  10    5.58    1.06
  -1 -12  10   34.14    2.59
   1 -12 -10   36.89    2.80
  -1  12  10   35.39    2.66
   1  12 -10   36.41    2.87
   0 -12  10    0.30    0.44
   0 -12 -10    0.17    0.81
   0 -12  10    0.35    0.64
   0  12  10    0.61    0.49
   0  12 -10   -0.39    0.72
   1 -12  10   18.70    1.78
  -1 -12 -10   13.78    1.96
  -1  12 -10   18.50    1.80
   1  12  10   20.59    1.65
  -2 -12 -10    9.34    1.60
   2 -12  10    6.80    1.21
  -2  12 -10    7.78    1.49
   2  12  10    5.86    0.98
  -3 -12 -10   29.80    3.34
   3 -12  10   23.39    2.64
  -3  12 -10   22.77    2.72
   2 -13 -10    3.43    1.11
  -2 -13  10    4.39    1.00
  -2  13  10    4.92    1.09
   2  13 -10    3.48    1.27
   1 -13 -10   47.48    3.69
  -1 -13  10   48.00    3.42
   1  13 -10   51.42    3.67
  -1  13  10   48.26    3.48
   0 -13 -10    8.13    1.25
   0 -13  10    6.41    1.09
   0  13  10    7.02    1.08
   0  13 -10    5.93    1.18
  -1 -13 -10   60.29    4.62
   1 -13  10   65.28    4.56
  -1  13 -10   58.45    4.30
   1  13  10   62.88    4.19
   2 -13  10    4.29    1.11
  -2 -13 -10    0.03    1.24
   2  13  10    3.16    0.82
  -2 -14  10   10.75    1.53
   2 -14 -10   10.27    1.71
  -2  14  10    7.25    1.37
   2  14 -10   11.08    1.93
   1 -14 -10   -0.38    0.92
  -1 -14  10   -0.17    0.56
  -1  14  10    0.27    0.63
   1  14 -10   -0.01    1.04
   0 -14 -10   18.20    2.08
   0 -14  10   17.55    1.98
   0  14  10   20.37    1.79
   0  14 -10   19.94    2.09
  -1 -14 -10    0.19    1.07
   1 -14  10    0.17    0.82
  -1  14 -10    0.05    0.82
   1  14  10    1.07    0.69
  -2 -14 -10    7.20    1.67
   2 -14  10    7.34    1.35
   2  14  10    6.19    1.09
   1 -15 -10   -0.72    1.00
  -1 -15  10    0.67    0.73
   1  15 -10    2.66    1.21
  -1  15  10    0.25    0.72
   0 -15 -10    0.83    1.07
   0 -15  10    0.46    1.01
   0  15  10    0.15    0.65
   0  15 -10    2.32    1.06
   1 -15  10    1.40    0.93
  -1 -15 -10    0.96    1.18
   1  15  10    1.31    0.77
  -1  15 -10   -0.78    0.82
   0 -16 -10   -0.69    1.15
   0  16  10    1.56    0.80
   0  16 -10   -0.53    1.06
   4   0 -11    0.00    0.83
  -4   0  11    0.76    1.06
   3   0 -11   42.98    3.63
  -3   0  11   48.33    3.39
  -3   0  11   45.81    3.10
  -2   0  11    0.37    0.40
   2   0 -11    0.20    0.49
  -2   0  11    0.00    0.41
  -1   0  11    1.12    0.37
   1   0 -11    1.36    0.55
  -1   0  11    0.90    0.42
   0   0 -11    2.03    0.60
   0   0  11   -0.05    0.31
   0   0 -11   -0.31    0.29
   0   0  11    0.38    0.21
   1   0  11    0.89    0.39
  -1   0 -11    0.66    0.54
  -1   0 -11    0.68    0.50
  -2   0 -11   -0.43    0.45
  -2   0 -11    0.72    0.69
   2   0  11   -0.16    0.34
   3   0  11   24.64    1.83
  -3   0 -11   23.57    2.29
   4   0  11    1.78    1.33
  -4   0 -11   -0.46    0.82
   4  -1 -11    4.82    1.13
  -4  -1  11    4.27    1.26
  -4   1  11    4.39    1.28
   4   1 -11    3.58    1.05
  -3  -1  11   32.96    2.47
   3  -1 -11   33.32    2.90
  -3  -1  11   36.96    2.76
   3   1 -11   31.63    2.88
  -3   1  11   38.10    2.79
  -3   1  11   37.27    2.50
  -2  -1  11   36.80    2.56
   2  -1 -11   33.58    2.83
  -2  -1  11   36.62    2.45
  -2   1  11   36.06    2.43
  -2   1  11   36.20    2.58
   2   1 -11   33.09    2.82
   1  -1 -11  113.13    8.08
  -1  -1  11  114.83    6.85
  -1  -1  11  105.99    6.83
  -1   1  11   97.15    6.81
   1   1 -11  110.92    8.14
  -1   1  11  111.49    6.86
   0  -1  11    1.24    0.42
   0  -1  11    1.31    0.32
   0  -1 -11    1.98    0.60
   0  -1 -11    1.61    0.42
   0   1 -11    2.11    0.65
   0   1  11    1.38    0.30
   0   1  11    1.68    0.46
   1  -1  11   85.86    5.53
  -1  -1 -11   93.26    5.92
  -1  -1 -11   81.96    6.57
  -1   1 -11   88.33    6.59
   1   1  11   86.75    5.49
   2  -1  11   37.33    2.59
  -2  -1 -11   38.89    3.13
  -2  -1 -11   39.41    3.02
   2   1  11   38.03    2.58
  -2   1 -11   37.74    3.14
  -3  -1 -11   25.87    2.47
   3  -1  11   14.13    2.05
  -3  -1 -11   21.01    2.10
   3  -1  11   21.44    1.65
  -3   1 -11   20.44    2.10
   3   1  11   24.23    1.70
  -4  -1 -11    1.89    0.97
   4  -1  11    2.00    1.29
  -4   1 -11    1.74    0.97
   4   1  11    1.44    1.30
  -4  -2  11    6.80    1.44
   4  -2 -11    6.80    1.25
  -4   2  11    7.89    1.50
   4   2 -11    5.95    1.17
  -3  -2  11   20.87    1.64
  -3  -2  11   22.95    1.91
   3  -2 -11   18.26    1.90
  -3   2  11   16.32    1.84
   3   2 -11   17.28    1.84
  -2  -2  11    1.30    0.53
  -2  -2  11    1.01    0.44
   2  -2 -11    1.71    0.60
  -2   2  11    0.74    0.47
  -2   2  11    0.28    0.46
   2   2 -11    1.13    0.54
   1  -2 -11  110.95    8.21
  -1  -2  11  118.66    6.98
  -1  -2  11  110.27    6.95
  -1   2  11  118.19    6.99
   1   2 -11  103.66    8.28
  -1   2  11  104.58    6.96
   0  -2 -11   78.19    5.27
   0  -2  11   64.71    4.40
   0  -2  11   64.33    4.55
   0  -2 -11   68.08    4.60
   0   2 -11   70.90    5.29
   0   2  11   66.79    4.30
   0   2 -11   65.72    4.33
   0   2  11   72.27    4.44
  -1  -2 -11   88.07    5.77
  -1  -2 -11   75.00    6.39
   1  -2  11   91.74    5.41
   1  -2  11   78.78    5.69
  -1   2 -11   88.95    6.43
   1   2  11   86.71    5.34
  -2  -2 -11    1.69    0.79
   2  -2  11    0.14    0.54
   2  -2  11    1.21    0.44
  -2  -2 -11    0.23    0.50
   2   2  11    0.48    0.39
  -2   2 -11    0.70    0.55
  -3  -2 -11   20.01    2.25
   3  -2  11   16.76    1.95
  -3  -2 -11   16.78    1.85
   3   2  11   19.16    1.54
  -3   2 -11   16.61    1.90
  -4  -2 -11    5.56    1.81
   4  -2  11    4.68    1.39
  -4  -2 -11    6.97    1.30
  -4   2 -11    8.37    1.42
  -4  -3  11    0.66    1.07
   4  -3 -11    0.67    0.94
  -4   3  11    1.50    1.20
   3  -3 -11   26.94    2.39
  -3  -3  11   24.86    2.22
   3   3 -11   22.74    2.26
  -3   3  11   35.09    2.45
   2  -3 -11    2.76    0.69
  -2  -3  11    2.96    0.66
  -2  -3  11    4.92    0.76
   2   3 -11    2.84    0.64
  -2   3  11    4.42    0.74
  -2   3  11    3.27    0.60
   1  -3 -11   62.52    5.22
   1  -3 -11   73.19    4.59
  -1  -3  11   77.41    4.50
  -1   3  11   80.80    4.51
  -1   3  11   55.63    4.44
   0  -3  11    4.26    0.69
   0  -3 -11    5.36    0.71
   0  -3  11    5.51    0.58
   0  -3 -11    6.24    0.97
   0   3  11    4.76    0.49
   0   3  11    5.19    0.69
   0   3 -11    4.19    0.85
   0   3 -11    4.54    0.65
   1  -3  11  172.06    9.74
  -1  -3 -11  155.54   10.40
   1  -3  11  166.03   10.36
   1   3  11  145.56    9.67
  -1   3 -11  147.86   11.59
   2  -3  11    8.36    0.92
   2  -3  11    9.37    1.16
  -2  -3 -11    7.82    1.35
  -2  -3 -11    8.59    1.13
  -2   3 -11    8.31    1.19
   2   3  11    7.55    0.88
  -3  -3 -11   68.99    5.21
  -3  -3 -11   67.67    5.32
   3  -3  11   71.66    5.01
   3   3  11   67.82    4.44
  -3   3 -11   64.98    5.38
  -4  -3 -11    1.15    1.67
   4  -3  11   -0.31    1.20
  -4   3 -11    1.81    1.00
   4   3  11    0.99    0.75
  -4  -4  11    6.05    1.02
   4  -4 -11    4.40    1.18
  -4   4  11    7.68    1.58
   3  -4 -11   19.88    2.13
  -3  -4  11   27.04    1.90
  -3   4  11   25.59    2.18
   3   4 -11   20.22    2.03
   2  -4 -11   23.98    1.97
  -2  -4  11   22.73    1.72
   2   4 -11   20.44    1.88
  -2   4  11   21.32    1.67
  -2   4  11   22.09    1.79
   2   4 -11   19.93    1.94
  -1  -4  11   26.36    2.06
   1  -4 -11   31.31    2.07
   1  -4 -11   31.21    2.42
  -1   4  11   27.65    2.05
   1   4 -11   26.77    2.15
  -1   4  11   37.66    2.17
   1   4 -11   25.45    2.47
   0  -4  11  147.53    8.98
   0  -4 -11  158.99   10.73
   0  -4  11  126.90    9.41
   0  -4 -11  157.58    9.50
   0   4 -11  148.31    8.96
   0   4  11  145.93    8.91
   0   4 -11  125.24   10.70
   0   4  11  149.24    8.97
   1  -4  11   11.68    1.11
  -1  -4 -11   13.79    1.37
   1  -4  11   10.79    1.04
   1   4  11   14.93    1.05
  -1   4 -11    8.60    0.87
   2  -4  11    9.26    1.30
  -2  -4 -11   13.53    1.60
   2  -4  11   10.36    1.06
  -2  -4 -11   11.71    1.31
   2   4  11   11.91    1.08
  -2   4 -11   12.49    1.41
  -3  -4 -11   17.89    2.25
   3  -4  11    9.34    1.72
  -3  -4 -11   14.28    1.60
  -3   4 -11   13.78    1.71
   3   4  11   14.42    1.40
   4  -4  11   14.36    2.20
  -4  -4 -11   20.87    2.89
   4   4  11   14.17    1.62
  -4   4 -11   13.82    2.09
   4  -5 -11    4.43    1.18
  -4  -5  11    3.68    0.97
  -4   5  11    4.52    1.44
   4   5 -11    5.64    1.44
   3  -5 -11   57.66    4.50
  -3  -5  11   57.28    3.84
  -3   5  11   58.39    4.10
   3   5 -11   51.23    4.06
  -2  -5  11   16.72    1.47
   2  -5 -11   14.72    1.67
   2   5 -11   20.32    1.76
  -2   5  11   19.11    1.56
   1  -5 -11   49.39    3.62
   1  -5 -11   51.81    3.18
  -1  -5  11   43.99    3.09
   1   5 -11   41.69    3.68
   1   5 -11   37.62    3.15
  -1   5  11   44.33    3.08
  -1   5  11   55.37    3.17
   0  -5 -11   19.41    1.82
   0  -5  11   19.83    1.47
   0  -5  11   18.14    1.42
   0  -5 -11   20.64    1.56
   0   5 -11   17.77    1.82
   0   5  11   18.00    1.42
   0   5 -11   19.60    1.47
   0   5  11   17.69    1.32
   1  -5  11   18.73    1.58
  -1  -5 -11   22.08    1.88
   1  -5  11   20.58    1.71
  -1   5 -11   25.95    2.00
  -1   5 -11   17.32    1.49
   1   5  11   26.57    1.63
   2  -5  11   39.91    2.45
  -2  -5 -11   34.66    2.87
   2  -5  11   33.65    2.72
  -2  -5 -11   35.72    2.90
  -2   5 -11   31.50    2.95
   2   5  11   33.64    2.43
  -3  -5 -11   33.57    3.09
   3  -5  11   23.41    2.61
  -3   5 -11   31.46    2.80
   3   5  11   32.00    2.30
   4  -5  11    3.99    1.38
  -4  -5 -11    7.47    1.99
  -4   5 -11    3.32    1.18
   4   5  11    4.89    1.00
  -4  -6  11    4.28    1.03
   4  -6 -11    5.29    1.24
   4   6 -11    2.72    1.33
  -4   6  11    4.92    1.50
  -3  -6  11   34.63    2.59
   3  -6 -11   38.00    3.02
   3   6 -11   27.02    2.75
  -3   6  11   35.98    2.82
   2  -6 -11   14.01    1.43
  -2  -6  11   13.81    1.23
  -2   6  11   12.16    1.26
   2   6 -11    7.24    1.32
   2   6 -11   10.86    1.45
   1  -6 -11    6.36    1.04
   1  -6 -11    8.38    0.89
  -1  -6  11    7.71    0.89
  -1   6  11    6.63    0.92
   1   6 -11    8.10    1.14
   1   6 -11    8.54    1.17
  -1   6  11    8.26    0.83
   0  -6  11    5.14    0.72
   0  -6  11    4.54    0.66
   0  -6 -11    5.87    1.04
   0  -6 -11    5.01    0.87
   0   6  11    5.34    0.71
   0   6  11    5.81    0.59
   0   6 -11    4.33    0.83
   0   6 -11    4.39    0.79
  -1  -6 -11   14.19    1.43
   1  -6  11   13.53    1.12
   1  -6  11   12.60    1.25
   1   6  11   13.37    1.14
  -1   6 -11   10.91    1.08
  -1   6 -11   13.20    1.41
  -2  -6 -11   17.00    1.90
   2  -6  11   14.70    1.57
   2   6  11   14.90    1.31
  -2   6 -11   13.51    1.63
  -3  -6 -11   22.20    2.63
   3  -6  11   14.26    2.04
   3   6  11   20.98    1.72
  -3   6 -11   17.66    2.05
  -4  -6 -11    2.27    1.83
   4  -6  11    2.88    1.31
   4   6  11    2.10    0.89
  -4   6 -11    2.37    1.15
  -4  -7  11    2.26    0.95
  -4   7  11    2.62    1.47
   4   7 -11    1.53    1.34
  -3  -7  11   13.60    1.45
   3  -7 -11   10.04    1.63
   3   7 -11   12.29    1.78
  -3   7  11   15.29    1.72
   2  -7 -11   55.32    3.89
  -2  -7  11   47.14    3.30
  -2   7  11   45.40    3.37
   2   7 -11   43.14    3.45
  -1  -7  11   20.99    1.79
   1  -7 -11   26.19    1.88
   1  -7 -11   25.91    2.14
   1   7 -11   22.49    2.22
  -1   7  11   25.10    1.83
  -1   7  11   25.36    1.87
   1   7 -11   24.19    2.01
   0  -7  11   22.77    1.65
   0  -7 -11   21.71    2.04
   0  -7 -11   22.73    1.82
   0  -7  11   19.80    1.67
   0   7  11   21.71    1.57
   0   7 -11   24.95    1.77
   0   7 -11   22.32    2.01
   0   7  11   21.31    1.63
   1  -7  11   24.26    1.78
   1  -7  11   24.01    1.94
  -1  -7 -11   24.41    2.12
   1   7  11   24.82    1.82
  -1   7 -11   25.07    1.83
  -1   7 -11   25.16    2.21
   2  -7  11   23.27    2.14
  -2  -7 -11   21.59    2.42
   2   7  11   27.59    1.90
  -2   7 -11   23.10    2.28
   3  -7  11   25.18    2.44
  -3  -7 -11   26.18    2.91
  -3   7 -11   25.11    2.50
   3   7  11   22.07    1.96
   4  -7  11    1.61    1.35
  -4  -7 -11    2.09    1.88
  -4   7 -11    1.91    1.23
   4   7  11    2.13    0.88
  -3  -8  11    7.18    1.24
   3  -8 -11    7.07    1.47
  -3   8  11    8.92    1.41
   3   8 -11    4.83    1.28
   2  -8 -11    2.75    0.84
  -2  -8  11    2.63    0.66
   2   8 -11    2.21    1.03
  -2   8  11    1.16    0.60
  -1  -8  11   78.75    5.47
   1  -8 -11   87.83    5.75
   1  -8 -11   93.86    6.46
  -1   8  11   85.74    5.49
  -1   8  11   81.57    5.49
   1   8 -11   84.84    5.61
   0  -8  11    5.04    0.78
   0  -8  11    6.56    0.77
   0  -8 -11    5.28    1.11
   0  -8 -11    5.34    0.98
   0   8  11    6.88    0.72
   0   8  11    4.71    0.76
   0   8 -11    6.16    1.02
   0   8 -11    5.78    1.00
   1  -8  11   58.40    3.74
  -1  -8 -11   55.14    4.15
   1  -8  11   59.98    4.06
  -1   8 -11   60.95    4.54
  -1   8 -11   52.14    3.78
   1   8  11   58.40    3.78
  -2  -8 -11    1.94    1.13
   2  -8  11    0.19    0.70
   2   8  11    0.84    0.53
  -2   8 -11    1.43    0.73
  -3  -8 -11    6.58    1.78
   3  -8  11    8.37    1.49
   3   8  11    7.54    1.14
  -3   8 -11    7.76    1.59
  -3  -9  11    8.30    1.20
   3  -9 -11    5.33    1.21
   3   9 -11    6.99    1.48
  -3   9  11    8.16    1.32
  -2  -9  11   23.38    1.94
   2  -9 -11   21.90    2.22
  -2   9  11   25.64    2.03
  -1  -9  11   30.08    2.30
   1  -9 -11   29.22    2.39
   1   9 -11   35.05    2.54
  -1   9  11   33.51    2.33
   0  -9  11   29.86    2.22
   0  -9 -11   32.03    2.47
   0  -9  11   28.47    2.32
   0   9  11   34.08    2.24
   0   9 -11   31.22    2.66
   0   9 -11   32.83    2.39
   0   9  11   33.25    2.23
   1  -9  11   65.01    4.36
   1  -9  11   60.63    4.01
  -1  -9 -11   64.75    4.47
  -1   9 -11   56.58    4.79
  -1   9 -11   61.16    4.09
   1   9  11   61.21    4.04
  -2  -9 -11   54.45    4.13
   2  -9  11   57.09    3.88
   2   9  11   48.99    3.48
  -2   9 -11   46.72    4.18
  -3  -9 -11   20.91    2.71
   3  -9  11   19.45    2.12
   3   9  11   12.46    1.50
  -3   9 -11   13.45    2.06
  -3 -10  11    5.56    1.10
   3 -10 -11    4.12    1.18
   3  10 -11    3.47    1.32
  -3  10  11    4.08    1.14
   2 -10 -11   48.35    3.54
  -2 -10  11   38.97    2.99
   2  10 -11   36.19    3.21
  -2  10  11   40.63    3.09
  -1 -10  11    4.86    0.84
   1 -10 -11    3.79    0.83
   1 -10 -11    4.00    0.88
  -1  10  11    6.03    0.90
   1  10 -11    7.37    1.20
   0 -10  11   36.97    2.64
   0 -10  11   35.51    2.82
   0 -10 -11   35.07    2.90
   0  10 -11   40.01    2.82
   0  10  11   43.41    2.70
   0  10  11   38.31    2.64
   1 -10  11   12.58    1.34
  -1 -10 -11   13.93    1.67
  -1  10 -11   12.45    1.36
  -1  10 -11   11.33    1.47
   1  10  11   12.53    1.25
  -2 -10 -11   17.66    2.47
   2 -10  11   23.61    2.20
  -2  10 -11   20.91    2.24
   2  10  11   23.93    1.85
  -3 -10 -11    2.42    1.61
   3 -10  11    0.62    1.07
  -3  10 -11    1.71    1.02
   3  10  11    2.77    0.82
  -3 -11  11   22.50    2.26
   3 -11 -11   23.71    2.54
  -3  11  11   23.04    2.44
   3  11 -11   20.25    2.47
   2 -11 -11   15.60    1.86
  -2 -11  11   14.90    1.55
  -2  11  11   13.23    1.61
   2  11 -11   14.80    1.94
   1 -11 -11   41.39    3.00
  -1 -11  11   35.79    2.79
   1  11 -11   41.88    3.08
  -1  11  11   40.06    2.87
   0 -11  11    4.09    0.68
   0 -11 -11    4.25    0.98
   0 -11  11    3.53    0.80
   0  11 -11    2.89    0.90
   0  11  11    4.04    0.71
   0  11  11    4.16    0.72
   1 -11  11   28.01    2.30
  -1 -11 -11   25.41    2.50
  -1  11 -11   27.41    2.26
   1  11  11   29.94    2.15
   2 -11  11   18.37    1.92
  -2 -11 -11   17.29    2.29
  -2  11 -11   16.27    1.95
   2  11  11   14.73    1.58
  -3 -11 -11   12.10    2.17
   3 -11  11    9.84    1.73
  -3  11 -11   11.13    1.98
   3  11  11   11.71    1.45
  -2 -12  11    3.59    0.90
   2  12 -11    1.24    1.17
  -2  12  11    4.87    1.06
  -1 -12  11    2.56    0.70
   1 -12 -11    2.86    0.88
  -1  12  11    3.04    0.74
   1  12 -11    2.90    1.12
   0 -12  11    5.38    0.98
   0 -12 -11    6.80    1.19
   0 -12  11    5.84    0.90
   0  12 -11    5.83    1.07
   0  12  11    5.60    0.98
   1 -12  11    5.03    0.99
  -1 -12 -11    4.21    1.18
  -1  12 -11    4.17    0.97
   1  12  11    3.13    0.74
   2 -12  11    0.67    0.83
  -2 -12 -11    1.73    1.24
   2  12  11    2.22    0.74
  -2  12 -11    1.89    0.93
  -2 -13  11   13.35    1.62
  -2  13  11   14.61    1.73
   2  13 -11   11.88    2.00
  -1 -13  11    2.62    0.76
   1 -13 -11    2.83    0.99
  -1  13  11    5.36    0.96
   1  13 -11    1.99    1.14
   0 -13 -11    5.37    1.18
   0  13 -11    5.34    1.16
   0  13  11    7.65    1.10
   1 -13  11    4.40    1.06
  -1 -13 -11    3.55    1.23
   1  13  11    6.82    1.11
  -1  13 -11    4.98    1.09
  -2 -13 -11    6.75    1.67
   2 -13  11    9.46    1.61
   2  13  11    9.82    1.34
  -2 -14  11    8.25    1.31
  -2  14  11    8.39    1.40
   1 -14 -11   15.13    1.83
  -1 -14  11   13.60    1.53
  -1  14  11   13.93    1.58
   1  14 -11   12.09    2.08
   0 -14 -11   11.21    1.76
   0  14  11   10.61    1.35
   0  14 -11   10.31    1.74
  -1 -14 -11    8.15    1.53
   1 -14  11    7.12    1.30
   1  14  11    7.98    1.25
  -1  14 -11    6.25    1.25
   2 -14  11    3.07    1.12
   2  14  11    3.61    0.94
   1 -15 -11    2.15    1.15
  -1 -15  11    2.71    0.86
  -1  15  11    1.59    0.83
   1  15 -11    1.68    1.28
   0 -15 -11   18.25    2.28
   0  15 -11   24.25    2.47
   0  15  11   20.12    1.94
  -1 -15 -11   -0.53    1.20
   1 -15  11    0.59    0.96
  -1  15 -11    1.94    1.01
   4   0 -12    1.46    0.93
  -4   0  12    1.34    1.15
  -3   0  12   -0.27    0.52
   3   0 -12   -0.49    0.63
  -3   0  12    0.02    0.65
  -2   0  12   54.81    3.56
   2   0 -12   43.50    3.99
  -2   0  12   59.17    3.48
  -1   0  12   -0.09    0.26
  -1   0  12   -0.52    0.36
   1   0 -12    0.08    0.55
   0   0 -12  230.09   15.51
   0   0  12  197.32   12.91
   0   0 -12  208.04   13.69
   0   0  12  210.70   12.98
  -1   0 -12   -0.02    0.55
   1   0  12    0.26    0.36
  -1   0 -12   -0.02    0.47
  -2   0 -12   82.62    6.11
  -2   0 -12   94.46    6.73
   2   0  12   86.42    5.58
  -3   0 -12   -0.55    0.62
   3   0  12    0.34    0.50
  -4   0 -12    4.06    1.12
   4   0  12    2.03    1.23
  -4  -1  12    8.13    1.46
   4  -1 -12    6.12    1.23
  -4   1  12   12.10    1.88
   4   1 -12    5.89    1.22
  -3  -1  12    6.69    1.06
  -3  -1  12    7.66    1.17
   3  -1 -12    5.49    1.02
  -3   1  12    8.09    1.21
   3   1 -12    5.20    0.98
  -2  -1  12   24.54    1.97
   2  -1 -12   21.72    2.18
  -2  -1  12   31.95    1.97
   2   1 -12   19.91    2.15
  -2   1  12   30.93    1.97
  -2   1  12   27.96    2.03
   1  -1 -12   35.70    2.80
  -1  -1  12   32.72    2.41
  -1  -1  12   34.46    2.34
   1   1 -12   34.17    2.87
  -1   1  12   33.26    2.35
  -1   1  12   34.25    2.41
   0  -1  12   50.68    3.64
   0  -1  12   53.54    3.57
   0  -1 -12   53.83    3.68
   0  -1 -12   57.55    4.25
   0   1  12   49.00    3.43
   0   1 -12   58.95    3.48
   0   1 -12   60.45    4.31
   0   1  12   51.19    3.56
   1  -1  12   17.49    1.38
  -1  -1 -12   20.52    1.59
  -1  -1 -12   12.59    1.66
   1   1  12   18.54    1.37
  -1   1 -12   15.17    1.66
   2  -1  12   53.30    3.72
   2  -1  12   60.85    4.10
  -2  -1 -12   60.60    4.51
  -2  -1 -12   54.68    4.17
  -2   1 -12   57.64    4.51
   2   1  12   54.30    3.70
  -3  -1 -12   11.65    1.77
   3  -1  12    9.61    1.19
   3  -1  12   11.94    1.70
  -3  -1 -12   13.30    1.62
  -3   1 -12   12.35    1.63
   3   1  12   12.65    1.23
   4  -1  12   23.35    2.58
  -4  -1 -12   17.31    2.37
  -4   1 -12   23.64    2.53
   4   1  12   24.58    2.68
   4  -2 -12   29.63    2.88
  -4  -2  12   30.85    2.79
   4   2 -12   29.53    2.84
  -4   2  12   34.37    3.08
  -3  -2  12    1.07    0.64
  -3  -2  12    2.04    0.79
   3  -2 -12    0.80    0.74
   3   2 -12    0.88    0.67
  -3   2  12    1.89    0.85
  -2  -2  12   67.99    4.49
   2  -2 -12   71.45    5.28
  -2  -2  12   75.35    4.60
  -2   2  12   64.84    4.59
  -2   2  12   67.71    4.48
   2   2 -12   67.52    5.26
   1  -2 -12   25.66    2.42
  -1  -2  12   31.80    2.13
  -1  -2  12   30.45    2.05
  -1   2  12   25.03    2.09
  -1   2  12   33.00    2.09
   0  -2 -12    3.75    0.77
   0  -2  12    2.42    0.44
   0  -2  12    3.25    0.61
   0  -2 -12    3.18    0.52
   0   2 -12    3.37    0.80
   0   2 -12    2.69    0.49
   0   2  12    2.90    0.57
   0   2  12    3.30    0.43
   1  -2  12   52.36    3.46
   1  -2  12   53.93    3.30
  -1  -2 -12   48.27    3.52
  -1   2 -12   47.47    3.91
   1   2  12   43.83    3.21
  -2  -2 -12   41.04    3.17
   2  -2  12   39.41    2.76
  -2  -2 -12   38.15    3.28
   2   2  12   43.91    2.75
  -2   2 -12   37.64    3.31
  -3  -2 -12    0.75    1.10
  -3  -2 -12    0.23    0.69
   3  -2  12    0.58    0.85
   3   2  12    1.14    0.58
  -3   2 -12    0.39    0.71
   4  -2  12   14.75    2.26
  -4  -2 -12   18.04    2.19
  -4   2 -12   16.83    2.18
  -4  -3  12   -1.39    0.95
   4  -3 -12    0.66    0.95
  -4   3  12    0.34    1.11
  -3  -3  12   -0.09    0.56
  -3  -3  12    0.13    0.72
   3  -3 -12   -0.05    0.72
   3   3 -12    1.07    0.68
  -3   3  12    1.19    0.79
  -2  -3  12   91.83    6.00
  -2  -3  12  101.19    6.10
   2  -3 -12   95.32    7.09
  -2   3  12   93.25    6.00
  -2   3  12   94.42    6.13
   2   3 -12   90.70    7.08
   1  -3 -12   24.83    2.03
  -1  -3  12   22.73    1.75
   1   3 -12   22.39    1.79
  -1   3  12   22.24    1.69
  -1   3  12   26.22    1.82
   1   3 -12   20.55    2.10
   0  -3  12  116.68    7.40
   0  -3 -12  126.85    8.80
   0  -3  12  114.66    7.72
   0  -3 -12  122.16    7.79
   0   3  12  118.99    7.40
   0   3  12  111.71    7.29
   0   3 -12  115.62    7.34
   0   3 -12  118.07    8.86
   1  -3  12   11.05    1.16
   1  -3  12   12.69    1.15
  -1  -3 -12   14.28    1.38
  -1   3 -12   13.07    1.44
   1   3  12   13.58    1.12
  -2  -3 -12   53.10    4.13
   2  -3  12   54.14    3.46
   2  -3  12   40.20    3.69
  -2  -3 -12   55.33    3.93
  -2   3 -12   50.65    4.15
   2   3  12   57.33    3.46
  -3  -3 -12    1.88    1.19
   3  -3  12   -0.03    0.76
  -3  -3 -12    0.50    0.70
  -3   3 -12   -0.06    0.71
   3   3  12    0.44    0.57
  -4  -3 -12    0.47    1.65
   4  -3  12   -0.07    1.12
   4   3  12    0.28    0.72
  -4   3 -12    0.19    0.97
   4  -4 -12   12.56    1.87
  -4  -4  12   12.26    1.57
   4   4 -12   13.87    2.04
  -4   4  12   13.41    2.11
  -3  -4  12   25.55    1.99
   3  -4 -12   24.30    2.26
   3   4 -12   22.87    2.17
  -3   4  12   21.32    2.17
  -2  -4  12   64.75    4.02
   2  -4 -12   66.67    4.71
   2   4 -12   55.01    4.10
   2   4 -12   58.00    4.70
  -2   4  12   59.30    4.09
  -2   4  12   57.91    3.98
   1  -4 -12   13.28    1.46
  -1  -4  12   14.71    1.27
  -1   4  12   14.23    1.20
   1   4 -12   17.01    1.40
  -1   4  12   15.15    1.31
   1   4 -12   14.10    1.55
   0  -4 -12   44.86    3.01
   0  -4  12   43.23    2.89
   0  -4 -12   48.75    3.46
   0  -4  12   40.11    2.91
   0   4  12   41.68    2.75
   0   4 -12   41.07    2.82
   0   4 -12   37.86    3.48
   0   4  12   42.95    2.87
  -1  -4 -12   20.00    1.87
   1  -4  12   20.10    1.71
   1  -4  12   24.25    1.69
  -1   4 -12   21.00    2.02
   1   4  12   22.28    1.62
  -2  -4 -12   31.63    2.71
   2  -4  12   26.98    2.19
  -2  -4 -12   33.13    2.68
   2  -4  12   23.35    2.42
   2   4  12   37.26    2.26
  -2   4 -12   33.18    2.74
  -3  -4 -12   14.40    2.15
  -3  -4 -12   11.87    1.60
   3  -4  12    9.28    1.68
   3   4  12   14.56    1.39
  -3   4 -12   13.32    1.73
  -4  -4 -12   14.82    2.36
   4  -4  12    7.98    1.66
  -4   4 -12   12.02    1.98
   4   4  12    9.51    1.44
  -4  -5  12   13.01    1.63
   4  -5 -12    9.26    1.83
   4   5 -12   12.14    2.06
  -4   5  12   17.45    2.31
  -3  -5  12    0.85    0.67
   3  -5 -12   -0.32    0.74
  -3   5  12    1.00    0.83
   3   5 -12    0.40    0.96
  -2  -5  12   28.16    2.22
   2   5 -12   31.54    2.43
  -2   5  12   30.39    2.29
   1  -5 -12   49.04    3.19
  -1  -5  12   43.89    3.11
   1  -5 -12   46.45    3.63
   1   5 -12   44.14    3.21
  -1   5  12   42.79    3.07
   1   5 -12   42.59    3.69
  -1   5  12   53.72    3.17
   0  -5  12    3.85    0.59
   0  -5  12    4.96    0.74
   0  -5 -12    3.90    0.85
   0  -5 -12    5.21    0.83
   0   5  12    4.06    0.68
   0   5  12    4.08    0.52
   0   5 -12    3.88    0.91
   0   5 -12    4.88    0.79
  -1  -5 -12   27.65    2.37
   1  -5  12   27.15    2.23
   1  -5  12   27.57    2.10
   1   5  12   34.22    2.12
  -1   5 -12   30.04    2.58
   2  -5  12   57.67    3.96
  -2  -5 -12   56.27    4.27
  -2  -5 -12   54.35    4.14
  -2   5 -12   50.53    4.32
   2   5  12   50.86    3.57
  -3  -5 -12    2.30    1.31
   3  -5  12   -0.74    0.84
   3   5  12    0.67    0.61
  -3   5 -12    0.56    0.77
  -4  -5 -12   28.06    3.58
   4  -5  12   30.61    2.88
   4   5  12   27.35    2.30
  -4   5 -12   22.91    2.85
  -4  -6  12    0.95    0.83
   4  -6 -12   -0.72    1.05
  -4   6  12    0.46    1.21
   4   6 -12    2.12    1.37
   3  -6 -12    2.74    0.96
  -3  -6  12    3.57    0.84
  -3   6  12    5.12    1.09
   3   6 -12    5.69    1.30
   2  -6 -12   29.14    2.58
  -2  -6  12   28.92    2.25
  -2   6  12   31.55    2.33
   2   6 -12   28.97    2.41
   1  -6 -12   24.01    2.11
   1  -6 -12   23.27    1.83
  -1  -6  12   21.36    1.81
  -1   6  12   27.53    1.90
   1   6 -12   24.81    1.99
   1   6 -12   23.85    2.22
  -1   6  12   23.82    1.79
   0  -6  12  122.96    7.77
   0  -6 -12  133.47    8.25
   0  -6 -12  138.56    9.29
   0  -6  12  114.74    8.15
   0   6 -12  116.53    7.77
   0   6  12  126.62    7.71
   0   6 -12  117.77    9.29
   0   6  12  123.64    7.75
   1  -6  12   30.73    2.20
   1  -6  12   31.20    2.37
  -1  -6 -12   32.17    2.52
  -1   6 -12   30.38    2.69
   1   6  12   30.56    2.21
  -2  -6 -12   31.38    2.77
   2  -6  12   29.15    2.46
  -2   6 -12   29.06    2.69
   2   6  12   30.41    2.19
  -3  -6 -12    7.03    1.66
   3  -6  12    5.91    1.25
   3   6  12    6.00    0.97
  -3   6 -12    6.88    1.27
  -4  -6 -12   -0.67    1.70
   4  -6  12    1.30    1.31
   4   6  12    1.47    0.83
  -4   6 -12    2.03    1.17
   3  -7 -12   16.39    1.98
  -3  -7  12   18.14    1.79
   3   7 -12   17.26    2.04
  -3   7  12   21.60    2.02
   2  -7 -12   12.03    1.52
  -2  -7  12   11.89    1.29
  -2   7  12   12.83    1.36
   2   7 -12   10.45    1.53
   1  -7 -12   20.43    1.58
  -1  -7  12   16.74    1.50
   1  -7 -12   20.20    1.78
  -1   7  12   17.55    1.49
  -1   7  12   19.29    1.56
   1   7 -12   17.62    1.77
   1   7 -12   16.52    1.89
   0  -7 -12   39.08    3.19
   0  -7  12   36.17    2.71
   0  -7 -12   40.74    2.83
   0  -7  12   39.39    2.65
   0   7  12   40.69    2.57
   0   7 -12   32.75    2.64
   0   7 -12   37.35    3.18
   0   7  12   39.80    2.63
   1  -7  12   13.15    1.36
   1  -7  12   15.98    1.25
  -1  -7 -12   16.08    1.61
  -1   7 -12   10.14    1.23
   1   7  12   15.87    1.28
  -1   7 -12   15.94    1.62
   2  -7  12   12.83    1.52
  -2  -7 -12   11.71    1.91
  -2   7 -12   12.43    1.62
   2   7  12   13.43    1.28
   3  -7  12   35.26    3.00
  -3  -7 -12   36.81    3.45
  -3   7 -12   29.46    3.09
   3   7  12   33.89    2.53
   3  -8 -12    8.92    1.58
  -3  -8  12    7.90    1.36
  -3   8  12    7.30    1.33
   3   8 -12    6.28    1.40
   2  -8 -12   33.22    2.77
  -2  -8  12   29.57    2.35
  -2   8  12   32.35    2.45
   2   8 -12   28.66    2.59
   1  -8 -12   21.09    1.63
  -1  -8  12   17.81    1.57
   1  -8 -12   20.91    1.83
   1   8 -12   19.51    1.81
   1   8 -12   11.93    2.01
  -1   8  12   17.66    1.53
  -1   8  12   20.12    1.61
   0  -8  12    7.39    0.94
   0  -8  12    9.15    0.96
   0  -8 -12    8.99    1.21
   0  -8 -12    9.70    1.35
   0   8  12    8.79    0.86
   0   8 -12    8.36    1.25
   0   8  12    8.66    0.94
   0   8 -12    8.01    1.16
   1  -8  12   16.24    1.27
   1  -8  12   14.28    1.43
  -1  -8 -12   15.93    1.70
  -1   8 -12   11.94    1.30
   1   8  12   15.64    1.34
  -1   8 -12   15.99    1.67
   2  -8  12   27.04    2.44
  -2  -8 -12   31.50    2.83
  -2   8 -12   27.96    2.66
   2   8  12   28.04    2.15
   3  -8  12    5.25    1.28
  -3  -8 -12    4.12    1.66
   3   8  12    6.49    0.98
  -3   8 -12    3.78    1.13
   3  -9 -12    1.66    1.00
  -3  -9  12    1.42    0.84
   3   9 -12    1.29    1.21
  -3   9  12    1.57    1.02
   2  -9 -12   20.59    1.95
  -2  -9  12   16.22    1.66
  -2   9  12   17.41    1.71
   2   9 -12   14.21    1.90
  -1  -9  12   53.40    3.82
   1  -9 -12   55.48    3.99
   1  -9 -12   63.26    4.49
   1   9 -12   55.17    3.98
  -1   9  12   57.52    3.85
   0  -9 -12   20.71    1.92
   0  -9  12   17.28    1.74
   0  -9  12   22.95    1.73
   0   9 -12   24.13    1.92
   0   9  12   23.27    1.67
   0   9 -12   22.51    2.09
   0   9  12   23.83    1.74
   1  -9  12   36.50    2.92
  -1  -9 -12   40.02    3.13
   1  -9  12   42.40    2.78
   1   9  12   41.68    2.77
  -1   9 -12   39.62    3.30
  -1   9 -12   33.94    2.75
   2  -9  12   12.14    1.58
  -2  -9 -12   10.80    1.74
  -2   9 -12   11.32    1.62
   2   9  12   10.86    1.25
   3  -9  12    2.15    1.14
  -3  -9 -12   -1.26    1.41
  -3   9 -12    2.14    1.01
   3   9  12    0.69    0.70
  -3 -10  12   26.75    2.40
   3 -10 -12   31.50    2.75
   3  10 -12   22.12    2.59
  -3  10  12   24.45    2.51
   2 -10 -12    4.17    1.08
  -2 -10  12    4.81    0.92
  -2  10  12    4.07    0.93
   2  10 -12    5.99    1.35
   1 -10 -12   18.80    1.93
  -1 -10  12   17.41    1.62
   1 -10 -12   19.02    1.75
  -1  10  12   21.46    1.69
   1  10 -12   19.66    1.97
   0 -10  12   17.45    1.57
   0 -10 -12   19.83    1.94
   0  10  12   20.89    1.63
   0  10  12   20.37    1.57
   0  10 -12   19.94    1.85
   1 -10  12   12.69    1.40
  -1 -10 -12   12.76    1.74
  -1  10 -12   10.87    1.40
  -1  10 -12   14.28    1.61
   1  10  12   14.96    1.33
  -2 -10 -12    4.30    1.33
   2 -10  12    3.23    1.01
  -2  10 -12    2.79    0.94
   2  10  12    3.07    0.76
   3 -10  12   14.00    2.08
  -3 -10 -12   15.93    2.72
  -3  10 -12   13.31    2.14
   3  10  12   14.79    1.60
   3 -11 -12    3.29    1.24
  -3 -11  12    4.72    1.24
   3  11 -12    4.54    1.52
  -3  11  12    4.19    1.27
   2 -11 -12   17.10    2.04
  -2 -11  12   17.95    1.73
  -2  11  12   16.70    1.82
   2  11 -12   20.20    2.16
  -1 -11  12    9.35    1.19
   1 -11 -12    9.24    1.43
   1  11 -12    9.84    1.72
  -1  11  12   11.47    1.27
   0 -11 -12    0.78    0.80
   0 -11  12    0.45    0.44
   0  11  12    0.25    0.47
   0  11 -12    0.12    0.78
   0  11  12    0.42    0.50
  -1 -11 -12   11.71    1.77
   1 -11  12   13.35    1.44
   1  11  12   13.40    1.32
  -1  11 -12   10.79    1.44
  -2 -11 -12   26.95    2.82
   2 -11  12   27.24    2.41
   2  11  12   25.18    2.10
  -2  11 -12   21.99    2.52
  -3 -11 -12    9.41    2.20
   3 -11  12    6.91    1.49
   3  11  12    5.98    1.15
  -3  11 -12    5.10    1.37
  -2 -12  12    2.01    0.81
  -2  12  12    1.28    0.83
   2  12 -12   -0.88    1.14
  -1 -12  12   29.43    2.42
   1 -12 -12   32.14    2.66
  -1  12  12   32.08    2.48
   1  12 -12   33.18    2.75
   0 -12  12   16.15    1.51
   0 -12 -12   16.43    1.90
   0  12 -12   18.11    1.85
   0  12  12   18.26    1.55
  -1 -12 -12   33.99    2.94
   1 -12  12   34.01    2.73
  -1  12 -12   29.40    2.61
   1  12  12   33.87    2.50
  -2 -12 -12   -0.56    1.24
   2 -12  12    1.52    0.90
   2  12  12    1.15    0.71
  -2  12 -12    1.93    0.97
  -2 -13  12   11.22    1.56
  -2  13  12   11.51    1.68
   2  13 -12   12.60    2.04
  -1 -13  12    1.41    0.68
   1 -13 -12    1.69    1.00
  -1  13  12    1.67    0.77
   1  13 -12    0.56    1.16
   0 -13 -12   25.17    2.47
   0  13 -12   26.78    2.40
   1 -13  12    2.62    0.97
  -1 -13 -12    3.34    1.21
  -1  13 -12    1.55    0.92
   1  13  12    2.36    0.75
  -2 -13 -12    9.26    1.79
   2 -13  12    7.29    1.38
   2  13  12    7.59    1.33
   1 -14 -12    7.98    1.39
  -1 -14  12    6.46    1.08
   1  14 -12    3.78    1.33
  -1  14  12    7.57    1.27
   0 -14 -12    7.08    1.41
   0  14 -12    6.65    1.39
  -1 -14 -12    4.62    1.37
   1 -14  12    3.26    1.04
   1  14  12    3.13    0.85
  -1  14 -12    2.57    1.01
   0 -15 -12    0.46    1.18
   0  15 -12    0.23    1.16
  -4   0  13    0.57    1.06
   4   0 -13   -0.31    0.91
   3   0 -13   65.00    5.17
  -3   0  13   67.21    4.41
  -3   0  13   66.46    4.60
   2   0 -13   -0.20    0.58
  -2   0  13    0.11    0.47
  -2   0  13    0.89    0.51
  -1   0  13  124.95    7.75
   1   0 -13  121.90    9.23
  -1   0  13  123.86    7.78
   0   0 -13    0.34    0.39
   0   0  13    0.43    0.38
   0   0 -13    2.02    0.69
   0   0  13    0.09    0.22
   1   0  13   62.76    3.73
  -1   0 -13   48.98    4.41
   2   0  13   -0.02    0.43
  -2   0 -13    0.13    0.62
  -2   0 -13    0.97    0.76
  -3   0 -13   40.40    3.32
   3   0  13   39.46    2.67
   3   0  13   30.44    3.03
   4   0  13    0.27    1.21
  -4   0 -13   -0.79    0.88
   4  -1 -13    8.35    1.70
  -4  -1  13   10.84    1.83
   4   1 -13    9.76    1.71
  -4   1  13   11.51    1.90
  -3  -1  13    4.37    1.00
   3  -1 -13    2.95    0.89
  -3  -1  13    5.50    0.88
  -3   1  13    4.64    0.98
   3   1 -13    2.91    0.86
  -2  -1  13    5.63    0.88
  -2  -1  13    5.76    0.96
   2  -1 -13    5.08    0.90
  -2   1  13    5.47    0.87
  -2   1  13    4.38    0.77
   2   1 -13    5.36    1.01
  -1  -1  13   48.33    3.05
   1  -1 -13   38.22    3.62
  -1  -1  13   45.56    3.13
  -1   1  13   44.39    3.12
  -1   1  13   51.46    3.08
   0  -1 -13  106.65    7.25
   0  -1  13  103.64    7.22
   0  -1 -13  122.40    8.29
   0  -1  13  112.16    6.95
   0   1 -13  116.60    8.30
   0   1  13  102.19    6.81
   0   1 -13  112.42    6.85
   0   1  13  107.23    6.93
  -1  -1 -13   62.39    4.14
   1  -1  13   66.22    3.90
   1   1  13   54.27    3.83
  -1   1 -13   51.89    4.60
  -2  -1 -13    4.38    0.99
   2  -1  13    4.05    0.86
  -2  -1 -13    5.28    0.97
   2  -1  13    4.34    0.73
   2   1  13    4.99    0.83
  -2   1 -13    5.27    0.97
   3  -1  13    7.52    1.09
  -3  -1 -13    9.44    1.53
   3  -1  13    9.06    1.56
  -3  -1 -13    7.81    1.48
  -3   1 -13    7.09    1.48
   3   1  13    7.50    1.11
  -4  -1 -13    7.22    1.42
   4  -1  13   11.10    2.00
   4   1  13    5.84    1.53
  -4   1 -13    8.30    1.52
   4  -2 -13    2.91    1.07
  -4  -2  13    2.03    1.11
   4   2 -13    2.38    1.03
  -4   2  13    2.57    1.22
  -3  -2  13   11.95    1.34
   3  -2 -13    7.86    1.42
  -3  -2  13   10.49    1.42
   3   2 -13    7.95    1.37
  -3   2  13   12.08    1.51
  -2  -2  13   33.81    2.33
  -2  -2  13   31.80    2.32
   2  -2 -13   31.39    2.64
   2   2 -13   30.00    2.63
  -2   2  13   28.95    2.27
  -2   2  13   29.48    2.32
   1  -2 -13   56.33    4.90
  -1  -2  13   68.71    4.15
  -1  -2  13   67.30    4.23
  -1   2  13   67.67    4.22
   1   2 -13   55.45    4.95
  -1   2  13   68.13    4.17
   0  -2 -13   13.27    1.39
   0  -2  13    9.34    1.06
   0  -2  13   10.10    0.92
   0  -2 -13    9.79    1.05
   0   2  13    9.97    0.86
   0   2 -13   10.56    1.42
   0   2  13   10.89    1.06
   0   2 -13   13.08    1.01
   1  -2  13   94.23    5.53
  -1  -2 -13   86.41    5.88
   1  -2  13   91.78    5.84
   1   2  13   83.83    5.48
  -1   2 -13   74.67    6.56
   2  -2  13   16.71    1.44
   2  -2  13   11.42    1.50
  -2  -2 -13   16.25    1.77
  -2  -2 -13   17.99    1.82
   2   2  13   17.68    1.43
  -2   2 -13   17.21    1.83
   3  -2  13   19.09    2.02
  -3  -2 -13   17.41    2.00
  -3  -2 -13   16.74    2.25
  -3   2 -13   18.16    2.06
   3   2  13   17.60    1.60
   4  -2  13    2.97    1.31
  -4  -2 -13    3.18    1.12
  -4   2 -13    2.00    1.10
  -4  -3  13    0.27    1.04
   4  -3 -13    0.79    0.99
  -4   3  13    2.04    1.18
   3  -3 -13    9.69    1.50
  -3  -3  13   14.95    1.40
  -3  -3  13    8.73    1.39
   3   3 -13    6.84    1.37
  -3   3  13   12.91    1.54
   2  -3 -13    0.64    0.65
  -2  -3  13    0.51    0.51
  -2  -3  13    0.96    0.57
  -2   3  13   -0.33    0.52
  -2   3  13    0.84    0.55
   2   3 -13    0.96    0.66
  -1  -3  13    0.17    0.43
   1  -3 -13    0.58    0.63
  -1   3  13    0.27    0.45
  -1   3  13   -0.08    0.30
   1   3 -13    0.48    0.55
   1   3 -13   -0.45    0.60
   0  -3 -13    2.10    0.71
   0  -3  13    1.74    0.39
   0  -3 -13    2.19    0.56
   0  -3  13    1.47    0.51
   0   3 -13    2.02    0.78
   0   3  13    0.84    0.48
   0   3 -13    2.29    0.53
   0   3  13    1.27    0.32
   1  -3  13    0.21    0.42
   1  -3  13    0.00    0.40
  -1  -3 -13   -2.00    0.55
  -1  -3 -13    0.03    0.58
   1   3  13   -0.02    0.34
  -1   3 -13   -0.05    0.62
  -2  -3 -13    0.56    0.67
   2  -3  13    0.35    0.45
   2  -3  13    0.32    0.55
  -2  -3 -13    1.22    0.84
  -2   3 -13    0.84    0.72
   2   3  13    0.45    0.49
  -3  -3 -13   24.70    2.76
   3  -3  13   27.42    2.51
  -3  -3 -13   27.65    2.55
  -3   3 -13   24.63    2.61
   3   3  13   26.98    2.08
   4  -3  13    1.76    1.23
  -4  -3 -13    0.78    1.72
   4   3  13   -0.33    0.72
  -4   3 -13    1.24    1.04
   4  -4 -13    1.31    1.04
  -4  -4  13    1.09    0.85
  -4   4  13    1.35    1.16
   4   4 -13    3.19    1.34
   3  -4 -13    4.56    1.02
  -3  -4  13    5.58    0.93
  -3   4  13    4.85    1.06
   3   4 -13    4.08    0.96
  -2  -4  13   47.42    3.01
   2  -4 -13   43.54    3.45
  -2   4  13   42.41    3.04
   2   4 -13   44.03    3.10
  -2   4  13   35.53    2.91
   1  -4 -13   86.60    6.23
  -1  -4  13   81.44    5.29
   1   4 -13   78.78    6.26
   1   4 -13   84.94    5.32
  -1   4  13   78.29    5.25
   0  -4  13   15.47    1.31
   0  -4 -13   17.35    1.46
   0  -4 -13   20.08    1.75
   0  -4  13   18.29    1.45
   0   4 -13   18.10    1.88
   0   4  13   15.29    1.21
   0   4  13   16.53    1.40
   0   4 -13   15.45    1.35
   1  -4  13   58.08    4.41
  -1  -4 -13   62.66    4.55
   1  -4  13   64.95    4.21
   1   4  13   67.53    4.19
  -1   4 -13   67.99    5.08
   2  -4  13   55.62    3.61
  -2  -4 -13   54.91    4.14
   2  -4  13   55.36    3.98
  -2  -4 -13   53.18    4.36
   2   4  13   56.48    3.65
  -2   4 -13   50.45    4.39
  -3  -4 -13    7.50    1.60
  -3  -4 -13    8.27    1.46
   3  -4  13   10.71    1.64
   3   4  13    9.42    1.23
  -3   4 -13    7.84    1.56
  -4  -4 -13    3.75    1.81
   4  -4  13    3.89    1.36
   4   4  13    4.24    0.96
  -4   4 -13    3.19    1.23
  -4  -5  13    1.32    0.86
  -4   5  13    1.22    1.32
   3  -5 -13    1.25    0.88
  -3  -5  13    0.93    0.68
  -3   5  13    2.53    0.98
   3   5 -13    1.08    1.02
   2  -5 -13    2.01    0.78
  -2  -5  13    2.88    0.69
  -2   5  13    2.40    0.68
   2   5 -13    2.32    0.90
   2   5 -13    0.63    0.67
   1  -5 -13   70.17    5.97
  -1  -5  13   78.89    5.12
  -1   5  13   73.53    5.06
   1   5 -13   78.85    6.07
  -1   5  13   83.25    5.11
   1   5 -13   91.71    5.21
   0  -5 -13    7.65    0.98
   0  -5  13    6.41    0.89
   0  -5 -13    8.74    1.19
   0   5 -13    5.00    1.09
   0   5  13    5.61    0.82
   0   5  13    6.35    0.65
   0   5 -13    6.27    0.94
  -1  -5 -13  103.63    6.63
   1  -5  13   96.40    6.47
   1  -5  13   94.81    6.11
  -1   5 -13   88.56    7.30
   1   5  13   96.87    6.08
   2  -5  13    6.08    1.02
  -2  -5 -13    6.89    1.28
  -2  -5 -13    5.69    1.03
   2  -5  13    7.79    0.91
  -2   5 -13    4.88    1.05
   2   5  13    5.56    0.86
   3  -5  13    0.67    0.93
  -3  -5 -13    2.43    1.35
   3   5  13    2.38    0.74
  -3   5 -13    2.30    0.97
   4   5  13    3.11    0.97
   3  -6 -13   30.69    2.81
  -3  -6  13   33.28    2.49
   3   6 -13   25.39    2.59
  -3   6  13   32.47    2.69
   2  -6 -13   47.65    3.56
  -2  -6  13   41.96    3.06
   2   6 -13   38.92    3.15
  -2   6  13   41.90    3.09
  -1  -6  13   50.57    3.51
   1  -6 -13   55.66    4.10
   1   6 -13   47.55    3.57
   1   6 -13   49.58    4.16
  -1   6  13   59.12    3.55
  -1   6  13   48.07    3.46
   0  -6 -13    7.51    1.06
   0  -6  13    6.87    0.90
   0  -6 -13    8.85    1.28
   0   6  13    7.35    0.72
   0   6  13    6.84    0.87
   0   6 -13    6.14    0.91
   0   6 -13    6.27    1.27
   1  -6  13   22.16    1.80
  -1  -6 -13   23.11    2.12
   1  -6  13   18.52    1.86
   1   6  13   28.87    1.86
  -1   6 -13   27.48    2.32
  -2  -6 -13   23.37    2.45
   2  -6  13   19.45    2.05
   2   6  13   26.70    1.90
  -2   6 -13   24.30    2.36
   3  -6  13   16.45    2.18
  -3  -6 -13   25.00    2.70
   3   6  13   22.20    1.88
  -3   6 -13   20.72    2.35
   3  -7 -13    3.91    1.11
  -3  -7  13    6.34    1.08
  -3   7  13    7.54    1.28
   3   7 -13    5.35    1.28
  -2  -7  13    7.89    1.15
   2  -7 -13    6.25    1.32
  -2   7  13    8.52    1.16
   2   7 -13    6.24    1.15
   1  -7 -13    5.08    0.94
  -1  -7  13    5.36    0.83
   1   7 -13    5.10    1.05
  -1   7  13    6.02    0.98
  -1   7  13    5.19    0.78
   1   7 -13    5.37    1.02
   0  -7  13  110.87    7.01
   0  -7 -13  121.30    8.35
   0  -7 -13  114.43    7.43
   0   7  13  111.52    6.94
   0   7 -13  101.92    8.36
   0   7 -13  105.68    7.02
   0   7  13  109.39    6.98
   1  -7  13    4.68    0.79
   1  -7  13    3.81    0.65
  -1  -7 -13    0.58    0.80
  -1  -7 -13    4.25    0.96
   1   7  13    3.95    0.69
  -1   7 -13    3.75    0.88
  -2  -7 -13   12.00    1.92
   2  -7  13   12.83    1.50
  -2   7 -13   12.02    1.62
   2   7  13    9.40    1.20
   3  -7  13   12.90    1.89
  -3  -7 -13   13.67    2.43
   3   7  13   11.05    1.41
  -3   7 -13   12.27    1.90
  -3  -8  13    3.00    0.88
   3  -8 -13    2.41    1.06
  -3   8  13    4.02    1.12
   3   8 -13    3.68    1.28
  -2  -8  13   17.47    1.63
   2  -8 -13   19.69    1.94
  -2   8  13   15.59    1.65
   2   8 -13   13.45    1.88
   1  -8 -13   11.83    1.69
  -1  -8  13   15.15    1.43
  -1   8  13   16.70    1.49
   1   8 -13   14.01    1.95
  -1   8  13   17.38    1.44
   1   8 -13   21.45    1.78
   0  -8 -13   32.12    2.44
   0  -8  13   29.84    2.26
   0  -8 -13   32.08    2.73
   0   8 -13   28.05    2.30
   0   8 -13   30.90    2.75
   0   8  13   29.89    2.23
   0   8  13   32.67    2.18
   1  -8  13   27.35    2.16
  -1  -8 -13   29.11    2.42
   1  -8  13   27.21    1.99
   1   8  13   24.46    2.00
  -1   8 -13   25.72    2.49
   2  -8  13    5.13    1.15
  -2  -8 -13    7.93    1.53
   2   8  13    9.14    1.10
  -2   8 -13    8.02    1.45
  -3  -8 -13    8.04    1.82
   3  -8  13    7.36    1.44
   3   8  13    5.31    1.01
  -3   8 -13    6.43    1.36
  -3  -9  13    4.06    1.03
   3  -9 -13    4.60    1.20
   3   9 -13    4.56    1.40
  -3   9  13    5.78    1.25
  -2  -9  13    1.82    0.71
   2  -9 -13    2.14    0.96
  -2   9  13    2.55    0.80
   2   9 -13    2.54    1.10
   1  -9 -13    4.61    1.00
  -1  -9  13    4.22    0.76
   1  -9 -13    4.23    0.92
   1   9 -13    4.67    1.10
  -1   9  13    4.29    0.78
   0  -9  13    8.48    1.01
   0  -9 -13    8.84    1.27
   0   9  13    7.49    1.00
   0   9 -13    7.71    1.30
   0   9 -13    8.22    1.29
  -1  -9 -13    0.67    0.88
   1  -9  13    2.06    0.59
   1  -9  13    2.39    0.76
  -1   9 -13    2.69    0.86
   1   9  13    2.53    0.65
   2  -9  13    2.87    0.95
  -2  -9 -13    3.66    1.31
   2   9  13    3.24    0.76
  -2   9 -13    2.46    0.96
  -3  -9 -13    7.45    1.93
   3  -9  13    5.01    1.36
  -3   9 -13    5.32    1.33
   3   9  13    5.47    1.02
  -3 -10  13    7.97    1.32
   3 -10 -13    6.70    1.44
   3  10 -13    5.78    1.44
  -3  10  13    7.17    1.36
   2 -10 -13   12.56    1.90
  -2 -10  13   16.17    1.63
   2  10 -13   16.36    1.99
  -2  10  13   15.47    1.68
  -1 -10  13   16.71    1.60
   1 -10 -13   19.18    1.93
   1 -10 -13   18.55    1.74
   1  10 -13   16.78    1.91
  -1  10  13   16.36    1.56
   0 -10  13   20.45    1.65
   0 -10 -13   18.60    1.87
   0  10 -13   17.01    1.78
   0  10  13   20.34    1.65
   1 -10  13    7.78    1.14
  -1 -10 -13    6.61    1.31
   1  10  13    9.71    1.10
  -1  10 -13    7.74    1.42
  -2 -10 -13   36.87    3.19
   2 -10  13   33.89    2.78
   2  10  13   29.41    2.41
  -2  10 -13   29.02    2.98
  -3 -10 -13    6.10    1.80
   3 -10  13    2.86    1.26
   3  10  13    4.68    0.98
  -3  10 -13    4.69    1.29
  -2 -11  13    5.12    0.99
   2 -11 -13    4.72    1.23
   2  11 -13    8.20    1.50
  -2  11  13    6.52    1.15
   1 -11 -13   28.05    2.32
  -1 -11  13   23.97    2.13
  -1  11  13   27.69    2.20
   1  11 -13   30.27    2.51
   0 -11  13    9.01    1.11
   0 -11 -13    9.18    1.47
   0  11  13    8.72    1.14
   0  11 -13   10.31    1.56
  -1 -11 -13   20.28    2.28
   1 -11  13   23.16    2.04
   1  11  13   22.22    1.86
   2 -11  13   12.73    1.79
  -2 -11 -13   12.31    1.91
  -2  11 -13   10.74    1.80
   2  11  13   11.84    1.40
  -2 -12  13   36.02    2.91
   2  12 -13   36.11    3.28
  -2  12  13   39.23    3.02
   1 -12 -13    0.78    0.94
  -1 -12  13    0.90    0.61
   1  12 -13    0.66    1.04
  -1  12  13    2.16    0.75
   0 -12  13   25.97    2.03
   0 -12 -13   24.16    2.37
   0  12 -13   25.34    2.28
   1 -12  13    2.29    0.85
  -1 -12 -13    0.72    1.11
   1  12  13    1.31    0.69
  -2 -12 -13   20.01    2.83
   2 -12  13   23.16    2.35
   2  12  13   25.02    2.14
  -2  12 -13   26.60    2.63
  -2 -13  13    7.45    1.24
  -2  13  13    7.82    1.36
   2  13 -13    5.36    1.53
  -1 -13  13    2.98    0.84
   1 -13 -13    3.70    1.10
   1  13 -13    3.57    1.32
  -1  13  13    4.60    0.94
   0 -13 -13   41.97    3.49
   0  13 -13   44.16    3.43
  -1 -13 -13    2.32    1.22
   1 -13  13    1.18    0.85
   1  13  13    1.64    0.77
  -2 -13 -13    6.50    1.75
   2 -13  13    4.99    1.27
   2  13  13    8.16    1.35
   1 -14 -13    7.50    1.45
  -1 -14  13    8.49    1.32
  -1  14  13    9.47    1.41
   1  14 -13    6.50    1.56
   0 -14 -13    2.32    1.20
   0  14 -13    3.08    1.28
   1 -14  13   13.02    1.87
  -1 -14 -13   14.11    2.18
   1  14  13   11.89    1.55
  -4   0  14   25.12    2.44
   4   0 -14   21.63    2.48
  -3   0  14    0.03    0.64
  -3   0  14   -0.27    0.71
   3   0 -14   -0.08    0.75
   2   0 -14   12.17    1.65
  -2   0  14   19.69    1.55
  -2   0  14   19.06    1.55
  -1   0  14   -0.26    0.29
  -1   0  14   -0.66    0.44
   1   0 -14   -0.69    0.63
   0   0 -14   25.45    2.01
   0   0  14   25.69    1.81
   0   0  14   27.40    2.00
   0   0 -14   29.99    2.48
   1   0  14   -0.06    0.42
  -1   0 -14   -1.29    0.63
  -1   0 -14   -0.24    0.56
  -2   0 -14   37.68    3.12
   2   0  14   32.73    2.49
  -2   0 -14   33.50    2.88
   3   0  14    0.01    0.84
   3   0  14   -0.15    0.54
  -3   0 -14   -0.29    0.77
  -4   0 -14   17.95    2.28
   4   0  14   13.06    2.29
   4  -1 -14    1.09    1.01
  -4  -1  14    1.07    1.08
  -4   1  14    1.66    1.10
   4   1 -14    1.33    0.99
  -3  -1  14   13.17    1.44
  -3  -1  14   11.92    1.50
   3  -1 -14    9.48    1.52
  -3   1  14   10.55    1.50
   3   1 -14   10.90    1.56
  -2  -1  14    1.91    0.68
  -2  -1  14    1.66    0.60
   2  -1 -14    1.38    0.71
  -2   1  14    1.45    0.59
   2   1 -14    0.67    0.72
  -2   1  14    1.26    0.64
   1  -1 -14    4.54    1.01
  -1  -1  14    6.52    1.00
  -1  -1  14    8.21    0.80
   1   1 -14    5.20    1.05
  -1   1  14    6.67    0.98
  -1   1  14    9.71    0.87
   0  -1 -14    7.94    1.20
   0  -1 -14    4.62    0.82
   0  -1  14    5.77    0.88
   0   1  14    6.32    0.67
   0   1 -14    7.31    1.24
   0   1  14    6.36    0.88
   0   1 -14    6.70    0.79
  -1  -1 -14   14.99    1.52
   1  -1  14   17.15    1.41
   1  -1  14   17.51    1.40
   1   1  14   14.06    1.38
  -2  -1 -14    1.52    0.83
   2  -1  14    1.23    0.53
   2  -1  14    0.25    0.57
  -2  -1 -14    0.83    0.79
   2   1  14    1.55    0.57
  -2   1 -14    1.37    0.80
   3  -1  14    5.94    1.30
  -3  -1 -14   10.62    1.68
   3  -1  14    8.54    1.15
  -3  -1 -14    5.66    1.21
  -3   1 -14    7.92    1.57
   3   1  14    7.41    1.12
   4  -1  14    4.45    1.42
  -4  -1 -14    3.00    1.24
   4   1  14    5.75    1.50
  -4   1 -14    3.60    1.25
  -4  -2  14    8.50    1.56
   4  -2 -14    7.08    1.38
  -4   2  14    7.51    1.46
   4   2 -14    6.66    1.35
  -3  -2  14    9.58    1.29
  -3  -2  14    6.01    1.10
   3  -2 -14    5.67    1.11
   3   2 -14    3.51    0.99
  -3   2  14    8.68    1.38
  -2  -2  14   38.79    2.67
   2  -2 -14   38.68    3.10
  -2  -2  14   37.88    2.70
  -2   2  14   34.74    2.69
  -2   2  14   34.33    2.67
   2   2 -14   35.90    3.11
  -1  -2  14   40.18    2.49
  -1  -2  14   34.65    2.58
   1  -2 -14   38.59    3.04
  -1   2  14   33.33    2.46
   1   2 -14   31.68    3.01
   0  -2  14  202.30   13.17
   0  -2 -14  238.46   15.73
   0  -2 -14  202.90   13.89
   0   2  14  209.04   13.17
   0   2 -14  203.44   13.10
   0   2 -14  226.95   15.78
   1  -2  14   17.18    1.45
   1  -2  14   15.18    1.44
  -1  -2 -14   13.72    1.84
  -1  -2 -14   20.77    1.70
   1   2  14   19.60    1.49
  -1   2 -14   18.07    1.90
   2  -2  14   15.95    1.86
  -2  -2 -14   22.92    2.25
  -2  -2 -14   25.65    2.20
   2  -2  14   22.33    1.79
   2   2  14   24.31    1.77
  -2   2 -14   21.61    2.23
  -3  -2 -14   16.88    2.35
   3  -2  14   17.08    1.92
  -3  -2 -14   16.39    1.97
   3   2  14   14.19    1.51
  -3   2 -14   15.81    2.04
  -4  -2 -14    3.86    1.24
   4  -2  14    1.97    1.29
  -4   2 -14    3.57    1.23
  -4  -3  14   10.74    1.67
   4  -3 -14   10.43    1.76
  -4   3  14    7.34    1.63
  -3  -3  14    5.66    0.99
   3  -3 -14    6.17    1.13
  -3  -3  14    5.65    1.06
   3   3 -14    3.99    1.00
  -3   3  14    5.95    1.14
   2  -3 -14   26.83    2.78
  -2  -3  14   38.16    2.52
  -2  -3  14   32.79    2.43
  -2   3  14   30.46    2.44
  -2   3  14   39.05    2.56
  -1  -3  14    5.43    0.87
   1  -3 -14    3.44    0.95
   1   3 -14    6.26    1.03
  -1   3  14    7.62    0.81
  -1   3  14    7.29    1.02
   1   3 -14    8.13    1.01
   0  -3 -14   83.10    5.59
   0  -3  14   64.84    4.67
   0  -3 -14   67.36    4.88
   0   3 -14   70.69    5.65
   0   3 -14   76.42    4.62
   0   3  14   68.52    4.68
  -1  -3 -14   11.89    1.40
   1  -3  14   12.84    1.18
   1  -3  14   15.59    1.25
  -1   3 -14    7.36    1.48
   1   3  14    9.59    1.10
   2  -3  14   75.55    5.21
  -2  -3 -14   70.36    5.29
  -2  -3 -14   74.36    5.81
   2  -3  14   78.30    4.83
   2   3  14   71.22    4.81
  -2   3 -14   72.92    5.85
   3  -3  14    3.06    1.03
  -3  -3 -14    4.08    1.38
  -3  -3 -14    4.62    1.08
  -3   3 -14    3.85    1.13
   3   3  14    4.93    0.87
   4  -3  14    6.15    1.55
  -4  -3 -14    5.98    1.89
  -4   3 -14    4.64    1.35
   4   3  14    4.26    1.00
  -4  -4  14   11.25    1.63
   3  -4 -14   17.39    1.98
  -3  -4  14   17.53    1.79
   3   4 -14   16.74    1.96
  -3   4  14   18.80    1.95
   3   4 -14   18.45    1.99
   2  -4 -14    8.95    1.40
  -2  -4  14   11.20    1.29
  -2   4  14   13.05    1.27
  -2   4  14    7.01    1.08
   2   4 -14   11.53    1.40
   2   4 -14    6.52    1.35
   1  -4 -14   76.14    5.24
  -1  -4  14   65.58    4.42
   1   4 -14   66.07    4.41
   1   4 -14   61.17    5.20
  -1   4  14   64.95    4.36
   0  -4 -14   56.88    4.07
   0  -4  14   45.77    3.41
   0  -4 -14   52.33    3.58
   0   4 -14   51.78    3.36
   0   4  14   47.89    3.41
   0   4 -14   47.59    4.17
   1  -4  14   27.29    2.58
  -1  -4 -14   35.18    2.78
   1  -4  14   33.05    2.51
  -1  -4 -14   38.56    3.14
   1   4  14   42.53    2.56
  -1   4 -14   39.23    3.16
  -2  -4 -14   15.39    1.84
  -2  -4 -14   13.58    1.74
   2  -4  14   14.37    1.56
   2  -4  14   13.79    1.32
   2   4  14   13.23    1.35
  -2   4 -14   15.18    1.81
  -3  -4 -14   14.57    2.26
  -3  -4 -14   13.51    1.82
   3  -4  14   11.03    1.78
   3   4  14   12.76    1.44
  -3   4 -14   13.93    1.90
   4   4  14    6.15    1.11
  -3  -5  14    8.89    1.41
   3  -5 -14    8.33    1.57
  -3   5  14    9.97    1.57
   3   5 -14   11.85    1.74
  -2  -5  14    7.91    1.15
   2  -5 -14    8.04    1.33
   2   5 -14    6.52    1.17
  -2   5  14    6.86    1.09
   2   5 -14    5.63    1.08
  -1  -5  14   11.65    1.25
   1  -5 -14    7.71    1.46
  -1   5  14   11.93    1.22
  -1   5  14   13.02    1.14
   1   5 -14   16.24    1.40
   1   5 -14   12.78    1.55
   0  -5 -14    1.26    0.60
   0  -5 -14    1.59    0.77
   0  -5  14    0.75    0.50
   0   5 -14    0.52    0.82
   0   5  14    1.34    0.55
   0   5 -14    0.87    0.58
  -1  -5 -14   20.71    2.03
   1  -5  14   21.48    1.78
   1  -5  14   23.73    1.75
  -1   5 -14   21.63    2.21
   1   5  14   19.19    1.67
  -2  -5 -14    4.51    1.01
  -2  -5 -14    4.14    1.20
   2  -5  14    4.57    0.74
   2  -5  14    3.29    0.90
  -2   5 -14    4.58    1.08
   2   5  14    4.42    0.79
  -3  -5 -14    9.60    1.69
   3  -5  14    5.59    1.25
   3   5  14    8.36    1.26
  -3   5 -14    5.63    1.27
  -3  -6  14    8.59    1.39
   3  -6 -14    5.95    1.25
  -3   6  14    6.36    1.27
   3   6 -14    7.08    1.35
  -2  -6  14    7.21    1.16
   2  -6 -14    5.72    1.10
   2   6 -14    4.53    1.00
   2   6 -14    6.81    1.18
  -2   6  14    6.99    1.09
   1  -6 -14    4.40    1.05
  -1  -6  14    6.73    1.04
   1   6 -14    9.59    1.41
  -1   6  14    6.95    0.89
   1   6 -14    9.55    1.32
  -1   6  14    8.24    1.09
   0  -6 -14    2.84    0.85
   0  -6 -14    4.04    0.79
   0  -6  14    2.43    0.61
   0   6  14    2.85    0.64
   0   6 -14    3.36    0.72
   0   6 -14    1.84    0.88
  -1  -6 -14    7.47    1.55
   1  -6  14   13.64    1.22
  -1  -6 -14   13.26    1.57
   1  -6  14   13.55    1.26
   1   6  14   11.64    1.23
  -1   6 -14   11.39    1.64
   2  -6  14   14.36    1.55
  -2  -6 -14   10.36    1.89
  -2   6 -14   12.48    1.75
   2   6  14   12.21    1.32
  -3  -6 -14   13.40    2.24
   3  -6  14   10.40    1.73
   3   6  14    9.53    1.34
  -3   6 -14   10.07    1.79
  -3  -7  14    7.00    1.21
   3  -7 -14    7.83    1.61
   3   7 -14    9.00    1.51
  -3   7  14    9.35    1.59
   2  -7 -14    3.66    1.03
  -2  -7  14    4.17    0.86
  -2   7  14    5.60    0.96
   2   7 -14    4.12    1.12
  -1  -7  14    4.76    0.81
   1  -7 -14    3.38    0.96
   1   7 -14    5.91    1.11
  -1   7  14    5.13    0.80
   1   7 -14    6.48    1.03
  -1   7  14    4.45    0.81
   0  -7  14    6.05    0.92
   0  -7 -14    8.25    1.30
   0  -7 -14    6.47    1.16
   0   7  14    6.27    0.97
   0   7 -14    5.20    1.12
   0   7 -14    6.37    0.95
   1  -7  14    9.93    1.07
  -1  -7 -14   11.08    1.51
  -1  -7 -14    5.69    1.20
   1  -7  14   10.48    1.17
  -1   7 -14   10.25    1.53
   1   7  14    9.21    1.08
  -2  -7 -14   10.69    1.85
   2  -7  14    9.09    1.36
  -2   7 -14    8.74    1.57
   2   7  14    6.95    1.10
  -3  -7 -14    5.82    1.62
   3  -7  14    3.15    1.16
   3   7  14    5.09    0.95
  -3   7 -14    3.56    1.17
   3  -8 -14    7.38    1.39
  -3  -8  14    7.41    1.20
  -3   8  14    6.36    1.32
   3   8 -14    6.55    1.49
   2  -8 -14   43.56    3.36
  -2  -8  14   37.31    2.86
   2   8 -14   34.77    3.06
  -2   8  14   35.16    2.87
   1  -8 -14    9.89    1.55
  -1  -8  14   13.10    1.33
  -1   8  14   11.42    1.25
   1   8 -14   13.69    1.60
  -1   8  14   14.18    1.35
   0  -8  14   98.20    6.18
   0  -8 -14  110.21    7.31
   0  -8 -14   94.47    6.53
   0   8 -14   87.58    6.17
   0   8  14   93.32    6.13
   0   8 -14   90.41    7.37
   1  -8  14   15.90    1.55
  -1  -8 -14   15.50    1.85
   1  -8  14   13.44    1.36
  -1   8 -14   16.64    1.88
   1   8  14   15.93    1.44
  -2  -8 -14   15.98    2.31
   2  -8  14   15.11    1.91
   2   8  14   20.61    1.68
  -2   8 -14   17.81    2.11
  -3  -8 -14    4.70    1.74
   3  -8  14    7.24    1.39
  -3   8 -14    4.49    1.31
   3   8  14    7.22    1.24
  -3  -9  14    7.87    1.29
   3  -9 -14    6.40    1.43
  -3   9  14    9.49    1.49
   3   9 -14    7.44    1.54
  -2  -9  14    5.45    0.96
   2  -9 -14    4.51    1.16
   2   9 -14    7.50    1.35
  -2   9  14    6.21    1.10
  -1  -9  14   16.30    1.58
   1  -9 -14   10.67    1.83
  -1   9  14   18.37    1.52
   1   9 -14   22.51    1.90
   0  -9 -14   17.17    1.71
   0  -9  14   17.15    1.49
   0   9 -14   14.45    1.58
   0   9 -14   16.72    1.89
   0   9  14   13.86    1.41
   1  -9  14   35.21    2.50
  -1  -9 -14   31.27    2.70
   1  -9  14   26.68    2.31
   1   9  14   29.76    2.30
  -1   9 -14   29.23    2.83
   2  -9  14   14.54    1.69
  -2  -9 -14   11.24    1.86
   2   9  14    8.83    1.28
  -2   9 -14   10.97    1.79
   3  -9  14    8.29    1.53
  -3  -9 -14   11.00    2.03
   3   9  14    8.16    1.40
  -3   9 -14    7.26    1.51
  -3  10  14   17.48    2.31
  -2 -10  14    0.80    0.70
   2 -10 -14    0.41    1.00
  -2  10  14    1.21    0.78
   2  10 -14    0.65    1.16
  -1 -10  14   56.95    4.18
   1 -10 -14   70.95    4.95
  -1  10  14   58.48    4.18
   1  10 -14   58.16    4.33
   0 -10  14    0.48    0.49
   0 -10 -14    0.26    0.79
   0  10 -14   -0.27    0.82
   0  10  14    0.38    0.53
   1 -10  14   31.36    2.79
  -1 -10 -14   32.44    3.06
   1  10  14   40.61    2.70
  -1  10 -14   39.85    3.31
  -2 -10 -14    4.13    1.48
   2 -10  14    3.15    1.00
   2  10  14    3.26    0.83
  -2  10 -14    3.06    1.10
  -2 -11  14    9.25    1.43
   2 -11 -14    9.13    1.82
  -2  11  14    9.47    1.50
   2  11 -14    9.55    1.64
  -1 -11  14    0.55    0.61
   1  11 -14    0.72    1.03
  -1  11  14    0.68    0.65
   0 -11  14    9.99    1.20
   0 -11 -14    8.92    1.63
   0  11  14    9.99    1.23
   0  11 -14    6.33    1.22
  -1 -11 -14    1.18    1.10
   1 -11  14    1.93    0.79
   1  11  14    0.63    0.65
  -2 -11 -14    9.89    1.86
   2 -11  14   10.45    1.63
   2  11  14    8.10    1.36
  -2  11 -14   10.49    1.84
  -2 -12  14    1.52    0.80
  -2  12  14    1.65    0.94
   2  12 -14    0.32    1.31
  -1 -12  14    1.84    0.75
  -1  12  14    1.39    0.74
   1  12 -14    1.78    1.24
   0 -12 -14    0.69    0.98
   0 -12  14    0.35    0.57
   0  12 -14    1.24    0.98
   1 -12  14    3.33    0.96
  -1 -12 -14    2.42    1.29
   1  12  14    3.96    0.88
  -2 -12 -14   -0.05    1.42
   2 -12  14    2.67    1.01
  -2  12 -14    2.10    1.09
   2  12  14    2.97    0.91
  -1 -13  14   -0.76    0.59
   1  13 -14    0.09    1.15
  -1  13  14   -0.35    0.63
   0 -13 -14    9.91    1.56
   0  13 -14    8.59    1.50
  -1 -13 -14   -0.48    1.13
   1  13  14   -0.30    0.68
   0 -14 -14    0.20    1.19
   0  14 -14    1.52    1.20
  -3   0  15    4.16    1.00
  -3   0  15    4.19    0.95
   3   0 -15    4.75    1.08
  -2   0  15   -0.23    0.46
   2   0 -15    0.09    0.73
  -2   0  15    0.23    0.60
  -1   0  15  135.82    8.50
  -1   0  15  156.58    8.45
   1   0 -15  111.62   10.03
   0   0  15    0.04    0.48
   0   0 -15    1.04    0.77
   1   0  15  222.69   13.73
  -1   0 -15  222.14   14.57
   2   0  15   -0.28    0.50
  -2   0 -15    0.04    0.83
  -2   0 -15   -0.62    0.76
   3   0  15    8.77    1.50
  -3   0 -15    5.32    1.23
   3   0  15    4.18    0.88
  -4   0 -15    0.23    1.10
  -3  -1  15   12.59    1.48
   3  -1 -15    7.38    1.55
  -3  -1  15   12.18    1.46
  -3   1  15   11.53    1.50
   3   1 -15    7.69    1.51
   2  -1 -15   22.05    2.20
  -2  -1  15   26.42    2.00
  -2  -1  15   24.47    1.91
   2   1 -15   21.01    2.25
  -2   1  15   21.31    1.96
  -2   1  15   24.83    1.94
  -1  -1  15   10.39    0.94
  -1  -1  15    6.63    1.13
   1   1 -15    7.89    1.41
  -1   1  15    8.48    1.14
  -1   1  15   11.54    1.00
   0  -1  15    0.82    0.51
   0  -1 -15    1.58    0.79
   0   1 -15    1.08    0.79
   0   1  15    0.52    0.47
   1  -1  15   25.45    1.91
  -1  -1 -15   20.78    2.02
   1  -1  15   26.57    1.90
   1   1  15   21.82    1.91
  -2  -1 -15   28.04    2.48
   2  -1  15   28.44    2.18
  -2  -1 -15   27.16    2.70
   2  -1  15   27.58    2.32
  -2   1 -15   27.46    2.72
   2   1  15   27.07    2.14
  -3  -1 -15   12.21    2.18
   3  -1  15   17.86    1.91
   3  -1  15   16.56    1.55
  -3  -1 -15   16.04    2.05
  -3   1 -15   12.79    2.00
   3   1  15   12.89    1.52
  -4  -1 -15    4.09    1.31
  -4   1 -15    5.36    1.43
  -3  -2  15   46.25    3.28
  -3  -2  15   46.28    3.29
   3  -2 -15   44.87    3.70
  -3   2  15   44.76    3.37
   3   2 -15   39.18    3.67
   2  -2 -15   12.37    1.50
  -2  -2  15   10.02    1.37
  -2  -2  15   11.95    1.23
   2   2 -15    9.94    1.55
  -2   2  15    9.25    1.33
  -2   2  15   11.53    1.26
  -1  -2  15    2.08    0.69
   1  -2 -15    2.17    0.88
  -1   2  15    5.22    0.68
  -1   2  15    3.82    0.75
   1   2 -15    4.00    0.96
   0  -2 -15   20.95    2.02
   0  -2  15   17.05    1.59
   0   2 -15   21.22    2.08
   0   2  15   18.19    1.59
   1  -2  15   10.62    1.02
   1  -2  15   10.96    1.09
  -1  -2 -15    8.29    1.24
  -1  -2 -15    6.20    1.25
  -1   2 -15    5.08    1.20
   1   2  15    8.19    1.05
   2  -2  15    5.32    0.88
  -2  -2 -15    6.05    1.21
   2  -2  15    6.61    1.16
  -2  -2 -15    8.40    1.47
   2   2  15    8.25    1.11
  -2   2 -15    7.33    1.52
  -3  -2 -15   29.94    2.89
  -3  -2 -15   33.08    2.98
   3  -2  15   23.81    2.53
  -3   2 -15   29.46    2.94
   3   2  15   28.40    2.29
  -3  -3  15    1.72    0.82
   3  -3 -15    1.64    0.94
  -3  -3  15    1.92    0.84
   3   3 -15    2.25    0.96
  -3   3  15    0.84    0.82
  -2  -3  15    0.92    0.64
   2  -3 -15    0.20    0.76
  -2   3  15   -1.08    0.56
  -2   3  15   -0.21    0.51
   2   3 -15    0.15    0.75
   1  -3 -15   29.77    2.73
  -1  -3  15   28.39    2.35
   1   3 -15   33.04    2.31
  -1   3  15   28.17    2.20
  -1   3  15   40.24    2.43
   1   3 -15   27.98    2.73
   0  -3 -15    2.80    0.88
   0  -3  15    2.15    0.64
   0   3  15    2.61    0.64
   0   3 -15    3.49    1.01
  -1  -3 -15   16.90    1.70
  -1  -3 -15   20.36    2.03
   1  -3  15   12.70    1.38
   1  -3  15   15.53    1.47
   1   3  15   20.75    1.54
  -1   3 -15   15.16    1.94
  -2  -3 -15   -0.33    0.81
  -2  -3 -15    0.90    0.91
   2  -3  15    1.17    0.63
   2  -3  15    0.90    0.52
   2   3  15    0.69    0.57
  -2   3 -15    1.45    0.93
   3  -3  15    1.92    0.92
  -3  -3 -15    2.40    0.99
  -3  -3 -15    2.11    1.27
  -3   3 -15    0.36    0.95
   3   3  15    1.58    0.72
  -3  -4  15   20.04    1.93
   3  -4 -15   22.50    2.17
  -3   4  15   18.08    2.01
   3   4 -15   16.21    2.14
   3   4 -15   20.15    2.09
  -2  -4  15    0.45    0.63
   2  -4 -15    0.21    0.79
  -2   4  15   -0.72    0.59
   2   4 -15    0.51    0.81
  -2   4  15    0.08    0.55
   2   4 -15   -0.46    0.71
   1  -4 -15   20.56    2.12
  -1  -4  15   19.03    1.76
  -1   4  15   23.96    1.81
   1   4 -15   21.13    1.80
   1   4 -15   20.68    2.12
  -1   4  15   19.33    1.61
   0  -4 -15    7.19    1.29
   0  -4 -15    5.89    0.99
   0  -4  15    5.69    0.88
   0   4 -15    6.32    1.25
   0   4  15    5.28    0.93
  -1  -4 -15   17.91    2.00
   1  -4  15   17.55    1.49
  -1  -4 -15   17.16    1.70
   1  -4  15   16.01    1.47
   1   4  15   15.97    1.46
  -1   4 -15   13.76    1.94
  -2  -4 -15   -0.41    0.81
  -2  -4 -15    0.78    0.92
   2  -4  15    0.21    0.66
   2  -4  15    0.77    0.51
  -2   4 -15    0.44    0.84
   2   4  15    0.23    0.56
  -3  -4 -15   13.45    1.92
  -3  -4 -15   13.86    2.07
   3  -4  15   10.91    1.79
  -3   4 -15   12.27    2.02
   3   4  15   15.92    1.59
   3  -5 -15   17.41    2.16
  -3  -5  15   22.65    1.99
   3   5 -15   16.53    2.12
  -3   5  15   22.72    2.13
  -2  -5  15    2.04    0.78
   2  -5 -15    3.48    0.97
   2   5 -15    1.29    0.84
  -2   5  15    1.95    0.71
   2   5 -15    2.15    0.92
  -1  -5  15   21.60    1.89
   1  -5 -15   16.10    2.19
  -1   5  15   22.36    1.78
  -1   5  15   26.84    1.93
   1   5 -15   23.85    2.28
   1   5 -15   28.85    1.99
   0  -5  15    0.11    0.47
   0  -5 -15    0.68    0.76
   0  -5 -15    0.18    0.59
   0   5  15    0.15    0.49
   0   5 -15    0.54    0.85
  -1  -5 -15   33.62    2.63
   1  -5  15   32.01    2.34
   1  -5  15   32.53    2.44
  -1  -5 -15   31.25    2.95
   1   5  15   30.24    2.32
  -1   5 -15   29.50    2.94
   2  -5  15    0.58    0.70
  -2  -5 -15    2.16    0.93
  -2  -5 -15    1.03    1.06
   2  -5  15    1.21    0.55
   2   5  15    1.65    0.66
  -2   5 -15    1.73    0.93
  -3  -5 -15   33.83    3.14
   3  -5  15   30.52    2.73
  -3   5 -15   27.86    3.00
   3   5  15   27.62    2.36
   3  -6 -15    2.83    1.12
  -3  -6  15    3.19    0.93
   3   6 -15    3.28    1.16
  -3   6  15    3.52    1.14
  -2  -6  15   14.75    1.59
   2  -6 -15   13.58    1.76
   2   6 -15   12.00    1.70
  -2   6  15   16.07    1.55
   2   6 -15   15.72    1.82
  -1  -6  15   75.23    4.96
   1  -6 -15   67.53    5.79
   1   6 -15   85.20    5.03
  -1   6  15   71.15    4.86
  -1   6  15   80.83    4.91
   1   6 -15   69.38    5.83
   0  -6  15   51.91    3.70
   0  -6 -15   56.00    3.91
   0  -6 -15   66.33    4.43
   0   6 -15   53.52    3.68
   0   6 -15   46.29    4.46
   0   6  15   51.83    3.70
   1  -6  15   90.09    5.89
  -1  -6 -15   83.51    6.68
   1  -6  15   86.99    5.57
  -1  -6 -15   85.75    6.05
   1   6  15   85.16    5.55
  -1   6 -15   82.23    6.72
  -2  -6 -15   22.75    2.43
   2  -6  15   22.61    2.05
  -2   6 -15   20.34    2.38
   2   6  15   20.95    1.84
  -3  -6 -15    0.95    1.39
   3  -6  15    1.11    0.98
   3   6  15    2.85    0.88
  -3   6 -15    2.38    1.15
  -3  -7  15    0.55    0.80
   3  -7 -15    1.00    1.00
  -3   7  15    1.26    0.95
   3   7 -15    1.30    1.13
   2  -7 -15   30.31    2.93
  -2  -7  15   37.10    2.62
  -2   7  15   31.68    2.58
   2   7 -15   30.14    2.66
   1  -7 -15    7.41    1.23
  -1  -7  15    6.73    1.00
   1   7 -15    6.46    1.14
   1   7 -15    4.79    1.18
  -1   7  15    4.97    0.89
  -1   7  15    7.06    1.09
   0  -7 -15    1.30    0.73
   0  -7 -15    2.07    0.84
   0  -7  15    0.80    0.51
   0   7 -15    1.89    0.74
   0   7  15    1.09    0.60
   0   7 -15   -0.05    0.85
  -1  -7 -15    2.94    1.02
  -1  -7 -15    5.03    1.08
   1  -7  15    2.08    0.69
   1  -7  15    3.27    0.70
  -1   7 -15    3.66    1.05
   1   7  15    2.10    0.67
   2  -7  15   31.69    2.68
  -2  -7 -15   32.88    3.05
  -2   7 -15   28.60    3.02
   2   7  15   31.58    2.41
  -3  -7 -15    1.21    1.48
   3  -7  15    0.03    0.95
  -3   7 -15    1.82    1.09
   3   7  15    1.33    0.79
  -3  -8  15   11.10    1.68
   3  -8 -15    8.60    1.81
  -3   8  15    8.92    1.53
   3   8 -15   12.05    1.89
  -2  -8  15   16.05    1.71
   2  -8 -15   15.98    1.99
   2   8 -15   15.98    1.91
  -2   8  15   15.79    1.69
   1  -8 -15    2.20    0.99
  -1  -8  15    2.28    0.70
  -1   8  15    2.25    0.71
   1   8 -15    1.48    0.97
  -1   8  15    2.10    0.62
   0  -8  15   42.92    2.93
   0  -8 -15   41.51    3.12
   0   8  15   40.34    2.88
   0   8 -15   33.81    3.49
   0   8 -15   41.99    2.96
   1  -8  15    1.93    0.59
  -1  -8 -15    1.37    1.01
   1  -8  15    1.52    0.68
   1   8  15    1.69    0.65
  -1   8 -15    2.02    0.97
   2  -8  15   12.14    1.73
  -2  -8 -15   11.58    2.17
  -2   8 -15   12.37    1.93
   2   8  15   14.94    1.52
   3  -8  15    7.48    1.45
  -3  -8 -15    7.24    1.88
  -3   8 -15    5.46    1.43
   3   8  15    6.19    1.09
   3  -9 -15    3.63    1.30
  -3   9  15    0.95    1.04
   2  -9 -15    5.90    1.31
  -2  -9  15    6.15    1.06
   2   9 -15    5.72    1.28
  -2   9  15    4.16    1.02
   1  -9 -15    7.76    1.34
  -1  -9  15    6.94    1.08
  -1   9  15    6.66    1.02
   1   9 -15    6.24    1.30
   0  -9  15    1.69    0.63
   0  -9 -15    1.23    0.85
   0   9 -15    1.89    0.95
   0   9  15    2.02    0.72
   0   9 -15    2.91    0.85
  -1  -9 -15    2.57    1.14
   1  -9  15    2.01    0.77
   1   9  15    4.07    0.82
  -1   9 -15    3.45    1.07
  -2  -9 -15    5.28    1.52
   2  -9  15    3.48    1.05
   2   9  15    2.64    0.82
  -2   9 -15    3.11    1.14
   3  -9  15    2.00    1.16
  -3   9 -15    1.62    1.23
  -2 -10  15   11.89    1.54
   2 -10 -15   14.90    1.96
  -2  10  15    8.95    1.53
   2  10 -15   10.83    1.86
  -1 -10  15   18.33    1.71
   1 -10 -15   14.06    2.07
  -1  10  15   16.74    1.65
   1  10 -15   19.93    2.02
   0 -10 -15   -0.98    0.85
   0 -10  15    0.33    0.55
   0  10 -15   -0.72    0.80
   0  10  15    0.25    0.58
  -1 -10 -15   13.93    2.02
  -1  10 -15   15.13    2.05
   1  10  15   17.57    1.64
  -2 -10 -15    6.04    1.64
   2 -10  15    6.56    1.26
  -2  10 -15    7.09    1.41
   2  10  15    6.97    1.11
  -2 -11  15    2.34    0.88
   2 -11 -15    1.76    1.21
   2  11 -15    0.56    1.13
  -2  11  15    1.34    0.93
  -1 -11  15    6.04    1.01
   1  11 -15    6.68    1.32
  -1  11  15    4.32    0.94
   0 -11 -15    0.01    0.93
   0 -11  15   -0.40    0.52
   0  11 -15   -0.05    0.86
   0  11  15   -0.10    0.60
  -1 -11 -15    9.77    1.63
   1  11  15    9.67    1.37
  -2 -11 -15    6.23    1.62
   2 -11  15    4.97    1.17
   2  11  15    3.92    0.93
  -2  11 -15    2.36    1.18
  -2 -12  15   10.30    1.71
  -2  12  15   14.26    1.84
   2  12 -15    9.11    1.82
  -1 -12  15    4.51    0.90
  -1  12  15    3.27    0.91
   1  12 -15    2.17    1.26
   0 -12 -15   71.99    5.42
   0 -12  15   76.25    5.01
   0  12 -15   73.55    5.15
  -1 -12 -15    4.13    1.36
   1  12  15    2.35    0.85
   2  12  15    9.59    1.65
  -1 -13  15    5.83    1.10
   1  13 -15    6.04    1.54
   0 -13 -15    0.54    1.09
   0  13 -15    0.17    1.10
  -1 -13 -15    2.64    1.38
   1  13  15    3.33    0.96
  -3   0  16   -0.16    0.73
   3   0 -16    0.43    0.89
  -3   0  16   -0.20    0.78
  -2   0  16   58.61    4.47
  -2   0  16   69.99    4.47
   2   0 -16   70.72    5.32
   1   0 -16   -0.06    0.77
  -1   0  16   -0.34    0.53
  -1   0  16   -0.06    0.34
   0   0 -16   18.38    1.91
   0   0  16   14.79    1.49
  -1   0 -16    0.19    0.64
  -1   0 -16    0.29    0.86
   1   0  16    0.71    0.52
  -2   0 -16   32.84    3.44
   2   0  16   42.89    2.86
   3   0  16    0.14    0.66
   3   0  16    0.33    0.89
  -3   0 -16    0.41    0.96
   3  -1 -16    1.50    0.94
  -3  -1  16    2.44    0.87
  -3  -1  16    4.95    1.03
  -3   1  16    3.74    0.95
   3   1 -16    1.34    0.96
  -2  -1  16    1.01    0.56
  -2  -1  16    0.87    0.68
   2  -1 -16    0.87    0.83
  -2   1  16   -0.24    0.61
  -2   1  16    0.84    0.59
   2   1 -16    1.01    0.88
  -1  -1  16   12.03    1.39
   1  -1 -16    9.05    1.57
  -1  -1  16   11.43    1.07
  -1   1  16   12.43    1.09
  -1   1  16   12.11    1.34
   1   1 -16   10.89    1.58
   0  -1 -16   40.32    3.39
   0  -1  16   37.79    2.80
   0   1 -16   41.62    3.43
   0   1  16   37.61    2.76
  -1  -1 -16   10.05    1.28
   1  -1  16    8.14    0.98
   1  -1  16   10.47    1.15
  -1  -1 -16   11.41    1.69
   1   1  16    9.75    1.21
  -1   1 -16    7.07    1.54
  -2  -1 -16    1.31    0.99
   2  -1  16    3.22    0.74
  -2  -1 -16    1.93    1.01
   2  -1  16    3.09    0.77
   2   1  16    2.96    0.76
  -2   1 -16    2.93    1.08
   3  -1  16    7.84    1.30
   3  -1  16   13.24    1.63
  -3  -1 -16    9.86    1.85
   3   1  16    7.20    1.17
  -3   1 -16    8.36    1.56
  -3  -2  16   11.15    1.58
  -3  -2  16   12.32    1.53
   3  -2 -16   12.02    1.79
  -3   2  16   14.99    1.68
   3   2 -16   11.40    1.77
   2  -2 -16   26.80    2.51
  -2  -2  16   33.42    2.17
   2   2 -16   20.49    2.52
  -2   2  16   25.67    2.23
   1  -2 -16    5.82    1.22
  -1  -2  16    8.50    1.21
  -1   2  16   11.70    1.19
   1   2 -16    5.87    1.15
  -1   2  16    8.33    0.91
   0  -2  16   89.08    6.04
   0  -2 -16  100.31    7.21
   0   2  16   89.18    6.02
   0   2 -16   97.30    7.30
  -1  -2 -16    8.18    1.55
   1  -2  16    4.48    0.81
  -1  -2 -16    3.95    0.90
   1  -2  16    5.36    0.93
  -1   2 -16    4.49    1.13
   1   2  16    5.83    0.91
  -2  -2 -16   44.79    4.47
  -2  -2 -16   54.14    4.08
   2  -2  16   59.24    3.96
   2  -2  16   57.06    3.71
   2   2  16   53.92    3.73
  -2   2 -16   52.21    4.56
  -3  -2 -16    6.60    1.54
  -3  -2 -16    7.39    1.45
   3  -2  16    6.31    1.22
   3   2  16    6.31    1.05
  -3   2 -16    7.24    1.47
   3  -3 -16    1.43    0.99
  -3  -3  16    2.44    0.87
   3   3 -16   -0.70    0.88
  -3   3  16    1.37    0.92
   2  -3 -16   34.92    2.91
  -2  -3  16   36.25    2.60
  -2   3  16   35.99    2.50
   2   3 -16   24.55    2.83
  -2   3  16   27.09    2.45
  -1  -3  16    5.09    0.92
   1  -3 -16    5.04    1.15
  -1   3  16    5.09    0.76
   1   3 -16    7.00    1.02
  -1   3  16    7.04    1.12
   1   3 -16    4.55    1.05
   0  -3 -16    9.48    1.53
   0  -3  16    8.51    1.13
   0   3 -16   10.06    1.66
   0   3  16    8.38    1.11
  -1  -3 -16    4.44    0.89
   1  -3  16    3.15    0.67
   1  -3  16    3.23    0.70
  -1  -3 -16    5.29    1.16
  -1   3 -16    1.03    0.94
   1   3  16    3.96    0.79
  -2  -3 -16   32.49    2.66
   2  -3  16   29.08    2.22
  -2  -3 -16   23.75    2.78
   2  -3  16   29.13    2.40
  -2   3 -16   25.70    2.83
   2   3  16   32.18    2.30
  -3  -3 -16    2.84    1.30
  -3  -3 -16    2.84    1.18
   3  -3  16    2.34    0.98
  -3   3 -16    2.09    1.14
   3   3  16    1.66    0.78
   3  -4 -16    4.31    1.22
  -3  -4  16    6.62    1.18
   3   4 -16    3.00    1.15
  -3   4  16    6.18    1.24
   3   4 -16    6.87    1.33
   2  -4 -16   42.81    3.51
  -2  -4  16   44.80    3.08
  -2   4  16   34.66    2.95
  -2   4  16   41.73    3.02
   2   4 -16   39.67    3.08
  -1  -4  16   14.48    1.76
   1   4 -16   25.83    1.88
   1   4 -16   23.42    2.21
  -1   4  16   19.88    1.78
  -1   4  16   22.04    1.69
   0  -4 -16   58.17    4.28
   0  -4  16   48.01    3.58
   0   4  16   48.10    3.55
   0   4 -16   54.51    4.44
   1  -4  16   46.23    3.07
   1  -4  16   48.24    3.00
  -1  -4 -16   38.52    3.66
  -1  -4 -16   39.65    3.21
   1   4  16   34.57    2.91
   2  -4  16   38.68    2.57
   2  -4  16   32.23    2.73
  -2  -4 -16   28.59    3.16
  -2  -4 -16   34.19    2.95
   2   4  16   38.26    2.61
  -2   4 -16   31.60    3.24
  -3  -4 -16   12.12    2.09
   3  -4  16   16.44    1.87
  -3  -4 -16   16.83    2.37
  -3   4 -16   11.14    2.08
   3   4  16   10.58    1.51
   3  -5 -16    6.77    1.38
  -3  -5  16    8.75    1.48
  -3   5  16    7.77    1.41
   3   5 -16    7.78    1.49
   2  -5 -16    6.85    1.25
  -2  -5  16    7.63    1.13
   2   5 -16    3.74    1.02
  -2   5  16    5.96    1.02
   2   5 -16    4.74    1.12
   1  -5 -16    7.74    1.52
  -1  -5  16    7.57    1.17
  -1   5  16    9.91    1.19
   1   5 -16    8.07    1.29
   1   5 -16    7.84    1.51
  -1   5  16    8.50    1.00
   0  -5  16   33.25    2.77
   0  -5 -16   44.83    3.33
   0   5  16   37.98    2.78
   0   5 -16   35.84    3.46
  -1  -5 -16    8.46    1.62
  -1  -5 -16    3.17    0.95
   1  -5  16    2.93    0.72
   1  -5  16    3.71    0.72
  -1   5 -16    4.04    1.12
   1   5  16    4.82    0.83
   2  -5  16    2.07    0.83
  -2  -5 -16    3.18    1.19
   2  -5  16    2.18    0.64
  -2  -5 -16    1.03    0.97
   2   5  16    4.20    0.85
  -2   5 -16    1.67    1.01
   3  -5  16    9.24    1.61
  -3  -5 -16    6.57    1.69
  -3   5 -16    7.16    1.52
   3   5  16    7.87    1.33
   3  -6 -16   15.83    2.08
  -3  -6  16   15.02    1.80
  -3   6  16   17.51    2.03
   3   6 -16   14.50    1.95
   2  -6 -16   40.21    3.29
  -2  -6  16   37.04    2.86
  -2   6  16   32.42    2.77
   2   6 -16   36.51    2.88
   1  -6 -16    5.71    1.23
  -1  -6  16    4.92    0.94
  -1   6  16    4.69    0.79
   1   6 -16    5.66    1.17
  -1   6  16    6.89    1.10
   1   6 -16    5.08    1.07
   0  -6 -16    1.57    0.85
   0  -6  16    0.34    0.52
   0   6  16   -0.33    0.55
   0   6 -16    0.01    0.90
   1  -6  16    2.16    0.72
   1  -6  16    2.44    0.67
  -1  -6 -16    4.37    1.11
  -1  -6 -16    3.57    1.02
   1   6  16    3.72    0.78
  -1   6 -16    2.62    1.08
   2  -6  16   13.56    1.76
  -2  -6 -16   18.32    2.26
   2   6  16   22.91    1.80
  -2   6 -16   18.09    2.30
  -3  -6 -16    9.84    1.80
   3  -6  16    5.06    1.24
   3   6  16    8.31    1.37
  -3   6 -16    7.55    1.57
  -3  -7  16    1.87    0.94
   3  -7 -16    0.19    1.05
  -3   7  16    2.41    1.05
   3   7 -16    0.07    1.10
  -2  -7  16    1.66    0.83
   2  -7 -16    1.19    1.04
  -2   7  16    1.08    0.75
   2   7 -16    1.40    1.01
   1  -7 -16   15.70    1.95
  -1  -7  16   14.97    1.62
  -1   7  16   16.66    1.54
  -1   7  16   11.20    1.34
   1   7 -16   17.14    1.65
   1   7 -16   14.52    1.99
   0  -7 -16    1.18    0.89
   0  -7  16   -0.07    0.51
   0   7 -16    0.79    0.95
   0   7  16    0.55    0.61
  -1  -7 -16   16.43    1.91
  -1  -7 -16   11.43    1.70
   1  -7  16    7.84    1.20
  -1   7 -16   11.09    1.87
   1   7  16   11.24    1.29
   2  -7  16    5.70    1.08
  -2  -7 -16    5.61    1.49
  -2   7 -16    4.05    1.24
   2   7  16    4.01    0.89
   3  -7  16    1.31    1.04
  -3  -7 -16    2.78    1.52
   3   7  16    1.12    0.83
  -3   7 -16    0.67    1.13
   3  -8 -16    8.12    1.54
  -3  -8  16    6.41    1.33
   3   8 -16    6.14    1.52
  -3   8  16    7.47    1.42
  -2  -8  16   12.29    1.58
   2  -8 -16    7.29    1.53
  -2   8  16   14.12    1.53
   2   8 -16   16.08    1.81
  -1  -8  16   13.80    1.54
   1  -8 -16   12.11    1.87
  -1   8  16   13.84    1.46
   1   8 -16   14.03    1.67
  -1   8  16   11.84    1.34
   0  -8  16   43.07    3.01
   0   8 -16   36.21    3.61
   0   8  16   41.96    2.99
  -1  -8 -16   10.92    1.86
   1  -8  16    9.09    1.20
  -1   8 -16   11.38    1.82
   1   8  16   10.74    1.29
  -2  -8 -16   27.05    2.98
   2  -8  16   28.50    2.43
   2   8  16   26.23    2.21
  -2   8 -16   23.17    2.82
   3  -8  16    5.62    1.35
  -3  -8 -16    7.48    1.90
  -3   8 -16    5.34    1.48
  -2  -9  16    3.87    0.97
   2  -9 -16    3.05    1.18
   2   9 -16    4.69    1.28
  -2   9  16    3.47    0.97
   1  -9 -16   18.25    2.16
  -1  -9  16   16.05    1.74
   1   9 -16   18.05    1.94
   0  -9  16    0.32    0.60
   0  -9 -16   -0.23    0.87
   0   9  16    0.00    0.57
   0   9 -16   -0.63    0.91
  -1  -9 -16    5.94    1.40
   1   9  16    9.90    1.31
  -1   9 -16    8.10    1.46
   2  -9  16    4.57    1.10
  -2  -9 -16    5.79    1.60
   2   9  16    4.87    1.00
  -2   9 -16    4.11    1.29
   2 -10 -16    4.80    1.40
  -2 -10  16    6.50    1.20
  -2  10  16    4.69    1.07
   2  10 -16    5.85    1.39
  -1 -10  16   38.01    3.05
   1  10 -16   43.29    3.23
   0 -10 -16    0.61    0.98
   0 -10  16    0.61    0.62
   0  10  16    0.35    0.67
  -1 -10 -16   53.68    4.23
   1  10  16   54.09    3.73
  -1  10 -16   50.47    4.55
  -2 -10 -16    2.08    1.42
   2 -10  16    2.98    1.07
  -2  10 -16    3.08    1.25
   2  10  16    4.17    0.96
   2 -11 -16    7.30    1.53
  -2 -11  16    4.24    1.13
   2  11 -16    6.75    1.52
  -2  11  16    8.32    1.35
  -1 -11  16   -0.19    0.63
   1  11 -16   -0.28    1.07
   0 -11  16   23.55    2.02
   0 -11 -16   21.54    2.36
   0  11  16   20.56    2.00
  -1 -11 -16    0.44    1.15
   1  11  16   -0.29    0.69
  -2 -11 -16    2.95    1.61
   2 -11  16    2.56    1.04
  -2  11 -16    3.55    1.32
   2  11  16    3.50    0.95
  -1 -12  16   14.61    1.72
   1  12 -16   18.78    2.32
   0 -12 -16    0.25    1.11
   0 -12  16    0.07    0.62
  -1 -12 -16    5.48    1.53
   1  12  16   10.80    1.48
   0 -13 -16    1.22    1.16
   3   0 -17    8.01    1.52
  -3   0  17   12.60    1.56
  -3   0  17   16.29    1.75
  -2   0  17    0.40    0.73
  -2   0  17   -0.64    0.50
   2   0 -17   -0.74    0.85
  -1   0  17   34.50    2.35
  -1   0  17   34.99    2.58
   1   0 -17   30.29    2.95
   0   0  17   -0.34    0.52
   0   0 -17    0.17    0.85
  -1   0 -17   34.94    3.31
   1   0  17   36.54    2.65
   2   0  17    0.64    0.65
  -2   0 -17   -1.24    0.92
   3   0  17   33.13    2.72
  -3   0 -17   31.68    3.16
   3   0  17   24.18    2.36
  -3  -1  17    8.55    1.36
   3  -1 -17    8.37    1.65
  -3  -1  17    9.74    1.57
   3   1 -17    8.22    1.67
  -3   1  17    6.41    1.20
  -2  -1  17    1.71    0.63
  -2  -1  17    2.11    0.82
   2  -1 -17    0.23    0.89
  -2   1  17    0.28    0.77
   2   1 -17    0.27    0.90
  -2   1  17    1.79    0.65
  -1  -1  17   26.49    2.07
   1  -1 -17   19.70    2.36
  -1  -1  17   25.19    1.79
  -1   1  17   23.19    1.78
   1   1 -17   20.53    2.33
  -1   1  17   27.08    2.06
   0  -1 -17   52.69    4.22
   0  -1  17   51.94    3.53
   0   1  17   45.58    3.45
   0   1 -17   52.38    4.25
   1  -1  17   13.13    1.38
  -1  -1 -17   19.82    2.06
   1  -1  17   10.42    1.27
  -1  -1 -17   18.19    1.61
   1   1  17   13.62    1.44
  -1   1 -17   15.30    2.03
  -2  -1 -17    3.72    1.09
   2  -1  17    3.30    0.81
  -2  -1 -17    1.04    1.07
   2  -1  17    2.59    0.72
   2   1  17    3.03    0.80
  -2   1 -17    1.21    1.08
  -3  -1 -17    7.82    1.57
   3  -1  17    7.14    1.30
   3  -1  17    8.04    1.39
   3   1  17    7.00    1.15
  -3   1 -17    5.88    1.47
   3  -2 -17   30.98    2.93
  -3  -2  17   34.19    2.72
  -3  -2  17   31.91    2.52
   3   2 -17   27.24    2.94
  -3   2  17   28.78    2.57
  -2  -2  17   18.51    1.51
   2  -2 -17   10.92    1.88
  -2  -2  17   19.50    1.84
  -2   2  17   10.54    1.61
  -2   2  17   20.35    1.63
  -1  -2  17   67.29    4.21
   1  -2 -17   55.86    4.87
   1   2 -17   56.01    4.82
  -1   2  17   59.55    3.98
   1   2 -17   63.18    4.02
   0  -2  17    0.80    0.59
   0  -2 -17    1.34    0.92
   0   2 -17    1.66    1.00
   0   2  17    1.00    0.60
   1  -2  17   39.54    2.77
  -1  -2 -17   39.96    2.97
   1  -2  17   33.78    2.84
  -1   2 -17   38.04    3.48
   1   2  17   38.93    2.82
  -2  -2 -17   24.44    3.11
   2  -2  17   38.34    2.68
  -2  -2 -17   35.22    2.89
   2  -2  17   35.49    2.50
   2   2  17   29.64    2.52
  -2   2 -17   31.53    3.23
  -3  -2 -17   16.74    2.46
  -3  -2 -17   22.13    2.64
   3  -2  17   15.32    1.98
   3   2  17   20.44    1.94
  -3   2 -17   18.10    2.49
   3  -3 -17   19.21    2.18
  -3  -3  17   18.06    1.97
  -3   3  17   19.05    1.97
   3   3 -17   13.49    2.11
  -2  -3  17    0.99    0.83
   2  -3 -17    1.45    1.01
  -2   3  17    1.98    0.84
  -2   3  17    2.65    0.76
   2   3 -17    0.33    0.84
   2   3 -17    1.88    0.85
   1  -3 -17   11.08    1.84
  -1  -3  17   11.29    1.57
   1   3 -17   21.47    1.62
   1   3 -17   17.38    1.97
  -1   3  17   17.57    1.60
  -1   3  17   16.16    1.39
   0  -3 -17    6.77    1.23
   0  -3  17    5.47    0.93
   0   3 -17    6.32    1.31
   0   3  17    6.33    1.05
   1  -3  17   33.76    2.31
  -1  -3 -17   28.81    2.46
  -1  -3 -17   32.54    3.00
   1   3  17   23.73    2.27
   2  -3  17    1.12    0.72
  -2  -3 -17   -0.29    0.97
  -2  -3 -17    2.73    1.08
   2  -3  17    0.63    0.56
   2   3  17    0.90    0.70
  -2   3 -17    1.49    1.08
  -3  -3 -17   14.17    2.21
   3  -3  17   10.36    1.68
  -3  -3 -17    9.02    1.75
   3   3  17   12.28    1.58
  -3   3 -17   10.37    2.14
   3  -4 -17    7.32    1.46
  -3  -4  17   14.59    1.73
  -3   4  17   12.18    1.72
   3   4 -17    6.45    1.44
   3   4 -17   10.35    1.55
   2  -4 -17   38.75    3.29
  -2  -4  17   33.83    2.85
   2   4 -17   38.09    2.89
  -2   4  17   32.05    2.75
  -2   4  17   39.39    2.84
   1  -4 -17   37.61    3.67
  -1  -4  17   43.32    3.15
  -1   4  17   37.74    3.02
   1   4 -17   46.59    3.08
  -1   4  17   53.35    3.14
   1   4 -17   38.20    3.62
   0  -4 -17   23.93    2.29
   0  -4  17   20.43    1.85
   0   4  17   20.69    1.84
   0   4 -17   20.47    2.48
   1  -4  17   33.51    2.47
  -1  -4 -17   33.05    2.69
  -1   4 -17   29.39    3.15
   1   4  17   34.16    2.55
  -2  -4 -17   22.49    2.29
   2  -4  17   19.61    1.80
   2  -4  17   18.62    1.94
  -2   4 -17   21.14    2.54
   2   4  17   23.80    1.95
   3  -4  17   16.87    1.92
  -3  -4 -17   16.52    2.39
  -3   4 -17    9.18    1.86
   3   4  17   13.31    1.62
  -3  -5  17    1.09    0.95
   3  -5 -17    0.76    1.12
  -3   5  17    1.36    0.92
   3   5 -17    3.42    1.24
  -2  -5  17    3.15    0.95
   2  -5 -17    2.92    1.17
  -2   5  17    3.94    0.89
   2   5 -17    1.81    0.94
   2   5 -17    3.07    1.02
   1  -5 -17   14.05    1.97
  -1  -5  17   13.75    1.58
   1   5 -17   14.89    1.97
  -1   5  17   20.06    1.67
   1   5 -17   14.84    1.55
   0  -5  17    3.52    0.79
   0  -5 -17    4.73    1.13
   0   5 -17    5.48    1.30
   0   5  17    3.79    0.83
  -1  -5 -17    8.14    1.53
   1  -5  17    6.71    1.08
  -1   5 -17    8.18    1.52
   1   5  17   10.60    1.26
   2  -5  17    4.12    0.94
  -2  -5 -17    1.21    1.09
  -2  -5 -17    4.22    1.26
   2  -5  17    3.73    0.76
   2   5  17    5.62    0.99
  -2   5 -17    4.44    1.30
   3  -5  17    2.17    1.03
  -3  -5 -17    1.90    1.50
   3   5  17    2.12    0.92
  -3   5 -17    2.52    1.29
   3  -6 -17    3.57    1.30
  -3  -6  17    6.76    1.26
  -3   6  17    5.38    1.27
   3   6 -17    6.43    1.38
  -2  -6  17   11.78    1.56
   2  -6 -17    5.04    1.38
   2   6 -17   10.76    1.56
   2   6 -17    7.37    1.55
  -2   6  17    8.45    1.31
  -1  -6  17   19.59    2.08
  -1   6  17   23.58    2.05
   1   6 -17   25.71    2.60
   1   6 -17   28.68    2.16
   0  -6 -17    1.97    0.98
   0  -6  17    1.72    0.71
   0   6  17    2.88    0.80
   0   6 -17    1.93    1.05
  -1  -6 -17   33.59    2.78
  -1  -6 -17   40.20    3.20
   1   6  17   30.99    2.50
  -1   6 -17   24.22    3.10
   2  -6  17   19.64    1.88
  -2  -6 -17   15.78    2.22
   2   6  17   16.65    1.77
  -2   6 -17   13.88    2.26
   3  -6  17   16.20    2.02
  -3  -6 -17   16.23    2.49
   3   6  17   12.41    1.66
  -3   6 -17   10.51    1.96
  -3  -7  17    4.71    1.25
  -3   7  17    6.96    1.42
   3   7 -17    6.46    1.49
  -2  -7  17    7.60    1.28
   2  -7 -17    8.17    1.47
   2   7 -17    6.92    1.30
  -2   7  17    6.15    1.12
   1  -7 -17    0.20    0.98
  -1  -7  17    0.76    0.72
  -1   7  17    2.73    0.75
   1   7 -17    3.60    1.17
   1   7 -17    2.50    0.91
   0  -7  17   32.02    2.58
   0  -7 -17   40.89    3.13
   0   7 -17   28.40    3.18
   0   7  17   31.87    2.61
   1  -7  17    3.72    0.82
  -1  -7 -17    5.37    1.24
  -1   7 -17    3.54    1.23
   1   7  17    4.55    0.94
   2  -7  17    3.26    0.98
  -2  -7 -17    1.98    1.28
   2   7  17    5.42    1.04
  -2   7 -17    2.70    1.27
  -3  -7 -17    2.98    1.61
   3  -7  17    3.34    1.18
  -2  -8  17    7.95    1.31
   2  -8 -17    8.17    1.55
  -2   8  17    8.67    1.49
   2   8 -17   11.90    1.69
  -1  -8  17   41.42    3.22
   1  -8 -17   43.39    3.78
   1   8 -17   43.77    3.23
   0  -8 -17   16.22    1.85
   0  -8  17    9.48    1.35
   0   8  17   12.14    1.47
   0   8 -17    7.31    1.55
  -1  -8 -17   18.06    2.25
   1  -8  17   16.41    1.75
   1   8  17   24.92    1.93
  -1   8 -17   21.75    2.52
   2  -8  17   15.75    1.85
  -2  -8 -17   15.85    2.39
   2   8  17   11.58    1.61
  -2   8 -17   12.07    2.23
  -2  -9  17    2.35    0.93
   2  -9 -17    1.41    1.21
  -2   9  17    2.27    0.95
   2   9 -17    2.88    1.24
   1  -9 -17    6.24    1.43
  -1  -9  17    8.01    1.34
   1   9 -17   11.21    1.71
   0  -9  17    6.96    1.14
   0   9  17    7.44    1.16
   0   9 -17    6.46    1.45
  -1  -9 -17   12.84    2.10
   1   9  17   10.41    1.42
  -1   9 -17   10.93    2.06
  -2  -9 -17    3.62    1.51
   2  -9  17    3.57    1.07
  -2   9 -17    4.81    1.39
   2   9  17    3.24    0.96
  -2 -10  17   28.76    2.70
   2 -10 -17   36.67    3.27
  -2  10  17   28.14    2.70
   2  10 -17   29.94    2.91
  -1 -10  17    1.73    0.80
   1 -10 -17    0.23    1.14
   1  10 -17    3.44    1.23
   0 -10  17   21.43    1.99
   0  10  17   20.28    2.00
  -1 -10 -17    2.63    1.35
  -1  10 -17    4.11    1.33
   1  10  17    5.49    1.03
   2 -10  17   11.45    1.80
  -2 -10 -17   13.88    2.54
  -2  10 -17   14.35    2.37
   2  10  17   16.87    1.80
  -1 -11  17    5.65    1.15
   1  11 -17    8.72    1.57
   0 -11  17    0.04    0.68
   0  11  17    0.83    0.80
  -1 -11 -17    9.93    1.73
   1  11  17    5.29    1.13
  -1 -12  17    1.84    0.83
   1  12 -17    1.29    1.23
   0 -12  17   17.60    1.84
  -1 -12 -17    2.90    1.43
   1  12  17    2.16    0.92
  -3   0  18   -0.62    0.89
   3   0 -18   -0.62    1.00
  -3   0  18    0.86    0.79
   2   0 -18   50.77    4.74
  -2   0  18   54.11    4.04
  -2   0  18   65.94    3.96
  -1   0  18    0.31    0.67
   1   0 -18   -0.06    0.80
   0   0  18  161.37   10.33
   0   0 -18  168.58   12.38
  -1   0 -18    1.52    1.03
   1   0  18    0.79    0.62
  -2   0 -18   35.27    3.96
   2   0  18   44.41    3.36
   2   0  18   51.29    3.28
   3   0  18    0.73    0.87
  -3   0 -18   -0.32    1.18
   3   0  18   -0.30    0.72
  -3  -1  18    9.45    1.37
  -3  -1  18    7.81    1.37
   3  -1 -18    8.20    1.54
   3   1 -18    6.74    1.48
  -3   1  18    8.80    1.42
   2  -1 -18   24.20    2.57
  -2  -1  18   26.78    2.01
  -2  -1  18   22.36    2.18
  -2   1  18   27.35    2.04
  -2   1  18   24.28    2.23
   2   1 -18   21.32    2.55
   1  -1 -18   13.81    1.95
  -1  -1  18   14.32    1.66
   1   1 -18   18.40    2.00
  -1   1  18   17.71    1.72
   0  -1  18   13.78    1.48
   0  -1 -18   14.87    1.95
   0   1 -18   12.76    2.02
   0   1  18   13.55    1.47
  -1  -1 -18   36.41    3.22
   1  -1  18   37.41    2.49
   1   1  18   31.56    2.50
  -1   1 -18   24.26    3.10
   2  -1  18   22.33    1.92
   2  -1  18   21.82    1.91
  -2  -1 -18   20.29    2.17
   2   1  18   20.33    1.98
  -2   1 -18   16.32    2.53
  -3  -1 -18    3.73    1.45
   3  -1  18    4.85    1.15
   3  -1  18    3.46    0.90
  -3   1 -18    3.58    1.33
   3   1  18    3.47    0.98
   3   1  18    5.24    1.17
  -3  -2  18    1.38    1.01
   3  -2 -18    0.08    1.09
  -3  -2  18    1.43    0.79
  -3   2  18    1.09    0.82
   3   2 -18    0.13    1.06
  -2  -2  18    6.53    1.18
   2  -2 -18    4.86    1.27
  -2  -2  18    6.45    1.05
   2   2 -18    4.31    1.18
  -2   2  18    4.69    1.08
  -2   2  18    8.53    1.12
  -1  -2  18   18.90    1.74
   1  -2 -18   11.70    1.96
   1   2 -18   14.67    1.91
  -1   2  18   18.95    1.67
   0  -2  18   22.84    1.98
   0  -2 -18   24.22    2.48
   0   2  18   21.79    1.92
   0   2 -18   25.26    2.62
   1  -2  18    7.52    1.25
  -1  -2 -18   17.22    2.01
  -1   2 -18    7.13    1.47
   1   2  18    8.13    1.25
  -2  -2 -18    9.64    1.75
   2  -2  18   13.39    1.36
   2  -2  18   10.63    1.33
  -2  -2 -18    4.82    1.48
  -2   2 -18    9.00    1.69
   2   2  18   10.32    1.51
   3  -2  18    1.84    0.90
  -3  -2 -18    1.54    1.32
  -3  -2 -18   -0.21    1.20
   3   2  18    1.23    0.84
  -3   2 -18    1.30    1.19
  -3  -3  18    0.92    1.04
   3  -3 -18   -0.17    1.09
   3   3 -18    0.70    1.11
   3   3 -18    1.58    1.04
  -3   3  18    0.19    0.86
   2  -3 -18    0.11    1.06
  -2  -3  18    1.53    0.89
  -2   3  18    3.36    0.86
   2   3 -18    1.99    0.92
  -2   3  18    3.75    0.95
   2   3 -18    0.28    0.91
  -1  -3  18    0.92    0.74
   1  -3 -18    0.01    0.95
   1   3 -18    1.21    0.94
  -1   3  18    2.26    0.74
   0  -3 -18   24.63    2.43
   0  -3  18   21.30    1.92
   0   3 -18   24.38    2.59
   0   3  18   19.80    1.92
  -1  -3 -18    1.70    0.85
   1  -3  18    2.47    0.72
  -1  -3 -18    2.53    1.16
  -1   3 -18    0.84    1.05
   1   3  18    2.24    0.79
  -2  -3 -18    1.54    1.12
   2  -3  18    2.66    0.72
   2  -3  18    2.46    0.79
  -2  -3 -18   -0.71    1.00
  -2   3 -18    1.14    1.15
   2   3  18    1.48    0.80
   3  -3  18    0.59    0.86
  -3  -3 -18   -0.22    1.21
  -3  -3 -18   -0.33    1.29
   3   3  18    0.22    0.81
  -3   3 -18    0.56    1.23
  -3  -4  18    9.47    1.46
   3  -4 -18    3.76    1.33
   3   4 -18    8.06    1.43
  -3   4  18    8.07    1.34
   2  -4 -18    8.26    1.77
  -2  -4  18   11.67    1.63
  -2   4  18   10.18    1.39
   2   4 -18   10.88    1.75
   2   4 -18   14.04    1.68
  -2   4  18   14.34    1.58
  -1  -4  18    7.46    1.31
   1  -4 -18    6.58    1.41
   1   4 -18    7.52    1.34
  -1   4  18   11.25    1.35
   1   4 -18    7.33    1.17
   0  -4 -18   27.18    2.57
   0  -4  18   22.16    2.06
   0   4 -18   27.69    2.78
   0   4  18   21.67    2.06
  -1  -4 -18   10.27    1.86
  -1  -4 -18    4.04    1.01
   1  -4  18    3.76    0.79
   1   4  18    5.22    0.99
  -1   4 -18    4.01    1.30
  -2  -4 -18   14.38    1.99
   2  -4  18   16.23    1.55
   2  -4  18   16.16    1.72
  -2   4 -18   12.05    2.27
   2   4  18   14.29    1.69
   3  -4  18   22.43    2.17
  -3  -4 -18   16.99    2.53
   3   4  18   15.75    1.90
  -3   4 -18   18.15    2.68
  -3  -5  18    0.87    0.99
   3   5 -18    0.68    1.12
  -3   5  18    0.15    0.94
   2  -5 -18   31.01    2.90
  -2  -5  18   33.08    2.57
   2   5 -18   32.16    2.48
  -2   5  18   27.58    2.35
   2   5 -18   19.99    2.64
   1  -5 -18    6.47    1.42
  -1  -5  18    7.97    1.34
   1   5 -18    6.20    1.32
   1   5 -18    9.67    1.33
  -1   5  18    8.06    1.27
   0  -5  18   -0.26    0.59
   0  -5 -18    1.02    0.97
   0   5 -18    1.58    1.08
   0   5  18    0.58    0.66
   1  -5  18    8.19    1.19
  -1  -5 -18    8.56    1.56
  -1  -5 -18   15.99    2.04
   1   5  18    8.10    1.22
  -1   5 -18    4.74    1.45
   2  -5  18   25.93    2.19
   2  -5  18   28.36    2.42
  -2  -5 -18   27.93    2.80
   2   5  18   31.74    2.42
  -2   5 -18   24.66    3.04
  -3  -5 -18   -1.06    1.39
   3  -5  18    0.11    0.92
  -3   5 -18   -0.22    1.18
   3   5  18    0.48    0.87
   2  -6 -18   27.74    2.74
  -2  -6  18   27.13    2.37
   2   6 -18   17.87    2.48
  -2   6  18   25.66    2.26
   2   6 -18   27.01    2.29
  -1  -6  18   34.83    2.78
   1  -6 -18   30.51    3.23
   1   6 -18   39.72    2.74
   1   6 -18   30.81    3.25
  -1   6  18   37.55    2.70
   0  -6  18   81.10    5.78
   0   6  18   92.09    5.80
   0   6 -18   89.44    7.02
   1  -6  18   24.57    2.06
  -1  -6 -18   25.16    2.42
   1   6  18   25.63    2.16
  -1   6 -18   21.39    2.78
   2  -6  18   16.78    1.86
  -2  -6 -18   19.53    2.43
   2   6  18   20.96    1.97
  -2   6 -18   16.57    2.53
   2  -7 -18    0.97    1.23
  -2  -7  18    1.65    0.93
  -2   7  18    1.97    0.90
   2   7 -18    2.24    1.13
  -1  -7  18   13.51    1.70
   1  -7 -18    8.85    1.95
   1   7 -18   13.40    1.68
  -1   7  18   14.93    1.54
   1   7 -18   13.79    2.09
   0  -7  18    2.21    0.78
   0  -7 -18    3.97    1.14
   0   7 -18    2.94    1.20
   0   7  18    2.42    0.88
   1  -7  18   10.54    1.42
  -1  -7 -18   20.41    2.27
  -1  -7 -18   13.33    1.96
   1   7  18   11.83    1.53
  -1   7 -18    9.92    1.85
  -2  -7 -18   -0.97    1.16
   2  -7  18    0.80    0.86
   2   7  18    2.20    0.89
  -2   7 -18   -0.09    1.18
   2  -8 -18    1.02    1.32
  -2  -8  18    2.90    1.02
   2   8 -18    4.40    1.23
  -2   8  18    4.24    1.03
   1  -8 -18   23.64    2.64
  -1  -8  18   23.15    2.20
   1   8 -18   23.32    2.27
   0  -8  18    0.14    0.61
   0  -8 -18   -0.30    0.99
   0   8  18    0.89    0.79
   0   8 -18    1.76    1.18
   1  -8  18   13.27    1.47
  -1  -8 -18   10.88    1.96
  -1   8 -18   11.29    2.22
   1   8  18   15.07    1.66
  -2  -8 -18    6.89    1.64
   2  -8  18    5.68    1.17
  -2   8 -18    5.12    1.57
   2   8  18    6.05    1.15
  -2  -9  18    0.86    0.91
   2  -9 -18    0.46    1.30
   2   9 -18    2.75    1.24
  -2   9  18    0.07    0.84
  -1  -9  18    5.48    1.14
   1  -9 -18    5.57    1.37
   1   9 -18    7.57    1.37
   0  -9  18    2.76    0.86
   0   9  18    4.08    1.02
   0   9 -18    2.30    1.24
  -1  -9 -18   11.44    1.74
   1   9  18    9.94    1.48
  -1   9 -18    9.42    1.81
  -2  -9 -18    0.60    1.49
  -2   9 -18    0.96    1.27
   2   9  18    2.01    0.96
  -1 -10  18    1.41    0.87
   1  10 -18    2.96    1.23
   0 -10  18   24.31    2.27
   0  10  18   26.23    2.34
  -1 -10 -18    5.98    1.55
   1  10  18    5.84    1.14
  -1  10 -18    4.06    1.46
  -1 -11  18    1.59    0.83
   1  11 -18    1.66    1.24
   0 -11  18    4.47    1.01
   0  11  18    5.65    1.16
  -1 -11 -18    1.06    1.33
   1  11  18    0.74    0.88
  -3   0  19   11.90    1.85
   3   0 -19    9.46    1.78
  -3   0  19   14.26    1.60
  -2   0  19   -0.27    0.75
  -2   0  19    0.46    0.59
   2   0 -19   -0.87    0.94
   1   0 -19    2.54    1.07
  -1   0  19    4.07    0.96
   0   0  19    1.51    0.68
   0   0 -19    3.11    1.16
  -1   0 -19    3.52    1.21
   1   0  19    1.53    0.69
   2   0  19    0.55    0.69
   2   0  19    0.12    0.64
  -2   0 -19   -1.82    1.00
   3   0  19   18.86    2.00
  -3   0 -19   12.59    2.54
   3   0  19   15.28    1.84
  -3  -1  19    3.95    0.97
  -3  -1  19    2.17    1.15
   3  -1 -19    2.74    1.30
   3   1 -19    3.29    1.34
  -3   1  19    4.57    1.02
  -2  -1  19    8.42    1.30
  -2  -1  19    7.58    1.08
   2  -1 -19    6.54    1.48
  -2   1  19    6.88    1.22
   2   1 -19    4.81    1.35
  -2   1  19    9.71    1.16
   1  -1 -19    7.03    1.37
  -1  -1  19   12.68    1.54
   1   1 -19    9.35    1.69
  -1   1  19   10.14    1.40
   0  -1  19    1.76    0.72
   0  -1 -19    3.19    1.13
   0   1 -19    3.16    1.18
   0   1  19    2.01    0.72
   1  -1  19   11.21    1.38
  -1  -1 -19   10.99    2.00
   1   1  19    9.92    1.39
  -1   1 -19   14.14    2.10
   2  -1  19    5.74    0.96
  -2  -1 -19    0.85    1.19
   2  -1  19    6.91    1.12
  -2   1 -19    2.65    1.36
   2   1  19    8.25    1.37
  -3  -1 -19    0.86    1.34
   3  -1  19    3.10    1.01
   3  -1  19    0.05    0.71
   3   1  19    2.85    1.05
   3   1  19    0.84    0.85
  -3   1 -19    0.48    1.31
  -3  -2  19    5.16    1.02
  -3  -2  19    3.82    1.22
   3  -2 -19    3.70    1.38
   3   2 -19    1.76    1.24
  -3   2  19    5.82    1.12
  -2  -2  19    0.59    0.91
   2  -2 -19    1.36    1.17
   2   2 -19    1.81    1.07
  -2   2  19    2.86    0.97
  -2   2  19    3.09    0.79
   1  -2 -19   44.17    4.17
  -1  -2  19   48.90    3.62
  -1   2  19   52.52    3.58
   1   2 -19   52.82    4.22
   0  -2  19    7.48    1.23
   0  -2 -19    6.94    1.38
   0   2 -19    9.84    1.93
   0   2  19    7.42    1.22
  -1  -2 -19   78.31    5.92
   1  -2  19   75.72    4.78
  -1   2 -19   64.81    5.87
   1   2  19   66.20    4.79
  -2  -2 -19    1.15    1.10
  -2  -2 -19   -2.33    0.97
   2  -2  19    1.07    0.66
   2  -2  19    1.59    0.71
   2   2  19    1.56    0.88
  -2   2 -19   -0.54    1.15
   3  -2  19    9.41    1.64
  -3  -2 -19    7.13    1.77
   3   2  19    7.34    1.27
  -3   2 -19    6.39    1.71
  -3  -3  19   39.11    3.23
   3   3 -19   35.90    3.02
  -3   3  19   34.71    3.00
  -2  -3  19    8.70    1.47
   2  -3 -19    9.19    1.91
  -2   3  19   12.87    1.63
   2   3 -19    7.91    1.69
  -2   3  19   10.48    1.40
   2   3 -19   11.30    1.58
   1  -3 -19   49.69    4.59
  -1  -3  19   59.30    4.01
   1   3 -19   46.99    4.56
  -1   3  19   67.73    3.95
   0  -3  19    4.80    0.93
   0  -3 -19    9.01    1.73
   0   3 -19    6.78    1.47
   0   3  19    4.68    0.95
   1  -3  19   25.53    2.26
  -1   3 -19   31.66    3.12
   1   3  19   29.86    2.39
   2  -3  19    8.14    1.27
  -2  -3 -19    7.43    1.42
   2  -3  19    7.15    1.28
   2   3  19    8.53    1.28
  -2   3 -19    3.38    1.47
  -3  -3 -19   33.20    3.23
  -3  -3 -19   27.75    3.44
   3  -3  19   33.23    2.83
  -2  -4  19    1.39    0.95
   2  -4 -19   -0.20    1.14
  -2   4  19    2.08    0.80
  -2   4  19    3.15    0.95
   2   4 -19    1.77    1.01
   2   4 -19    2.32    1.03
   1  -4 -19   21.05    2.66
  -1  -4  19   22.71    2.24
  -1   4  19   33.34    2.31
   1   4 -19   25.65    2.69
   0  -4  19   38.03    2.97
   0  -4 -19   45.02    3.60
   0   4  19   36.72    2.92
   0   4 -19   38.28    3.72
   1  -4  19   31.12    2.31
   1   4  19   27.52    2.41
  -1   4 -19   23.49    2.97
   2  -4  19    3.78    0.86
  -2  -4 -19    2.89    1.23
   2  -4  19    4.89    0.97
   2   4  19    4.39    1.04
  -2   4 -19    2.80    1.44
   2  -5 -19   10.11    2.02
  -2  -5  19   10.71    1.58
  -2   5  19   11.13    1.49
   2   5 -19   10.77    1.65
   2   5 -19    8.71    1.52
   1  -5 -19    1.11    1.13
  -1  -5  19    1.46    0.82
  -1   5  19    3.34    0.87
   1   5 -19    2.59    1.13
   0  -5  19    8.26    1.32
   0  -5 -19    9.61    1.79
   0   5 -19    5.85    1.47
   0   5  19    7.54    1.29
   1  -5  19    5.65    0.95
  -1  -5 -19   13.37    2.03
  -1   5 -19    3.00    1.36
   1   5  19    4.49    1.02
  -2  -5 -19    5.94    1.42
   2  -5  19    7.62    1.21
   2  -5  19    5.44    1.20
  -2   5 -19    5.89    1.63
   2   5  19    7.17    1.24
  -2  -6  19    1.32    0.97
   2  -6 -19    2.81    1.35
   2   6 -19    1.69    1.03
  -2   6  19    1.86    0.84
   2   6 -19    0.91    1.03
   1  -6 -19    0.25    1.08
  -1  -6  19   -0.18    0.69
  -1   6  19   -0.04    0.67
   1   6 -19   -0.17    1.03
   0  -6  19    0.51    0.63
   0  -6 -19    1.34    1.11
   0   6  19    0.90    0.76
   0   6 -19   -0.14    1.08
   1  -6  19    0.45    0.62
  -1  -6 -19    3.81    1.31
   1   6  19   -0.95    0.69
  -1   6 -19    0.07    1.15
  -2  -6 -19    2.07    1.23
   2   6  19    0.69    0.86
  -2   6 -19    0.40    1.24
  -2  -7  19    4.17    1.18
   2  -7 -19    1.93    1.38
   2   7 -19    3.57    1.17
  -2   7  19    3.01    1.03
  -1  -7  19    6.29    1.23
   1  -7 -19    6.34    1.48
  -1   7  19   10.82    1.42
   1   7 -19    6.57    1.49
   0  -7  19    3.32    0.89
   0  -7 -19    4.59    1.27
   0   7  19    3.91    0.98
   0   7 -19    4.94    1.40
   1  -7  19    2.75    0.79
  -1  -7 -19   11.59    2.21
  -1   7 -19    2.86    1.37
   1   7  19    5.76    1.12
  -2  -7 -19    8.14    1.69
   2   7  19    5.68    1.17
  -2   7 -19    4.69    1.58
  -2  -8  19    1.90    1.01
   2  -8 -19    1.78    1.45
   2   8 -19    3.19    1.24
  -1  -8  19   34.25    2.78
   1  -8 -19   29.49    3.14
   0  -8 -19   13.60    2.05
   0  -8  19   10.14    1.50
   0   8  19    9.89    1.51
   0   8 -19   10.06    1.82
   1  -8  19   41.95    3.12
   1   8  19   45.93    3.27
  -1   8 -19   36.28    4.04
  -2  -8 -19    5.23    1.62
  -2   8 -19    3.09    1.53
   2   8  19    3.48    1.06
  -1  -9  19    6.29    1.20
   1  -9 -19    5.83    1.47
   0  -9  19   14.38    1.71
   0   9 -19   11.93    2.24
   0   9  19   12.91    1.74
  -1   9 -19    4.19    1.47
   1   9  19    4.72    1.13
  -1 -10  19    2.46    0.99
   0 -10  19   44.67    3.37
   0  10  19   41.29    3.35
   1  10  19    0.77    0.92
  -1  10 -19    1.52    1.37
  -2   0  20    9.15    1.65
  -2   0  20   15.12    1.40
   2   0 -20    8.42    1.65
  -1   0  20    0.35    0.76
   1   0 -20    0.44    0.96
   0   0  20   25.60    2.31
   0   0 -20   30.33    3.00
  -1   0 -20    3.31    1.26
   1   0  20   -0.05    0.62
   2   0  20   39.69    3.15
   2   0  20   41.74    3.09
  -2  -1  20   22.55    2.18
   2  -1 -20   17.45    2.46
  -2  -1  20   21.36    1.80
   2   1 -20   14.52    2.37
  -2   1  20   25.07    2.17
  -2   1  20   20.73    1.83
   1  -1 -20   16.33    2.28
  -1  -1  20   27.93    2.20
   1   1 -20   18.91    2.40
  -1   1  20   23.56    2.06
   0  -1  20   38.90    2.87
   0  -1 -20   40.67    3.61
   0   1  20   32.75    2.78
   0   1 -20   38.81    3.62
  -1  -1 -20   21.31    2.43
   1  -1  20   12.97    1.59
   1   1  20   11.11    1.58
  -1   1 -20   19.71    2.42
  -2  -1 -20    6.14    1.64
   2  -1  20    9.36    1.42
   2   1  20   13.46    1.55
  -2   1 -20    6.76    1.76
   2  -2 -20   11.27    1.99
  -2  -2  20   10.73    1.75
   2   2 -20   10.79    1.57
   2   2 -20    9.13    1.84
  -2   2  20   15.14    1.73
  -2   2  20    9.81    1.34
   1  -2 -20    2.83    1.17
  -1  -2  20    2.81    0.95
  -1   2  20    3.75    0.95
   1   2 -20    3.55    1.17
   0  -2  20   12.12    1.56
   0  -2 -20   12.64    2.10
   0   2 -20   13.36    2.23
   0   2  20   12.64    1.52
  -1  -2 -20   13.76    2.06
   1  -2  20    9.25    1.35
  -1   2 -20    6.03    1.60
   1   2  20   10.50    1.43
   2  -2  20    4.54    0.90
  -2  -2 -20    1.70    1.37
  -2  -2 -20    6.74    1.35
   2   2  20    6.64    1.14
  -2   2 -20    3.21    1.50
  -2  -3  20    3.01    1.07
   2  -3 -20    3.24    1.31
   2   3 -20    3.79    1.14
   2   3 -20    5.20    1.09
  -2   3  20    5.97    1.16
   1  -3 -20   -0.01    1.01
  -1  -3  20    0.99    0.82
   1   3 -20    2.97    1.11
  -1   3  20    2.32    0.80
   0  -3 -20    0.63    1.12
   0  -3  20   -1.30    0.60
   0   3  20    0.19    0.65
   0   3 -20    0.71    1.19
   1  -3  20    5.03    0.92
  -1  -3 -20    5.92    1.41
   1   3  20    3.26    0.92
  -1   3 -20    3.35    1.34
   2  -3  20    9.82    1.34
  -2  -3 -20    7.85    1.43
   2   3  20    6.36    1.21
  -2   3 -20    4.36    1.62
  -2  -4  20    9.65    1.51
   2  -4 -20    7.32    1.66
   2   4 -20    6.26    1.41
   2   4 -20   12.73    1.52
   1  -4 -20    3.43    1.23
  -1  -4  20    4.76    1.04
   1   4 -20    3.60    1.23
  -1   4  20    5.57    1.01
   0  -4 -20   13.54    2.06
   0  -4  20   10.79    1.52
   0   4 -20   11.30    1.89
   0   4  20   11.52    1.54
   1  -4  20    2.60    0.80
  -1  -4 -20    7.04    1.50
   1   4  20    3.93    1.00
  -1   4 -20    4.89    1.44
  -2  -4 -20   10.56    1.68
   2  -4  20   11.37    1.41
   2   4  20   12.12    1.67
  -2   4 -20    5.74    1.67
   2  -5 -20   16.90    2.42
  -2  -5  20   16.83    2.05
   2   5 -20   18.67    1.87
   2   5 -20   13.30    2.12
  -1  -5  20    1.17    0.80
   1  -5 -20   -0.28    1.12
  -1   5  20    0.67    0.78
   1   5 -20    1.95    1.14
   0  -5  20   54.44    4.18
   0  -5 -20   67.57    5.04
   0   5  20   58.29    4.18
   0   5 -20   58.66    5.15
   1  -5  20    1.04    0.67
  -1  -5 -20    4.08    1.36
   1   5  20    0.87    0.86
  -1   5 -20    0.68    1.21
  -2  -5 -20    2.82    1.43
  -2  -5 -20    9.24    1.55
   2   5  20    9.58    1.38
  -2   5 -20    6.49    1.76
   2  -6 -20    1.93    1.44
  -2  -6  20    4.75    1.21
   2   6 -20    6.70    1.34
   2   6 -20    6.74    1.28
  -1  -6  20    3.43    1.01
   1  -6 -20    3.57    1.29
  -1   6  20    4.31    0.97
   1   6 -20    3.89    1.33
   0  -6  20   32.98    2.73
   0  -6 -20   41.25    3.41
   0   6  20   34.31    2.72
   0   6 -20   27.84    3.39
  -1  -6 -20   15.19    2.31
   1  -6  20   11.83    1.42
  -1   6 -20    7.18    1.78
   1   6  20    8.11    1.38
  -2  -6 -20   18.23    2.24
   2   6  20   13.68    1.90
  -2   6 -20   14.37    2.63
   2  -7 -20    2.32    1.46
   2   7 -20    2.41    1.12
  -1  -7  20   20.46    2.25
   1  -7 -20   18.90    2.58
  -1   7  20   27.38    2.12
   1   7 -20   19.41    2.63
   0  -7  20    3.56    0.90
   0  -7 -20    1.95    1.19
   0   7  20    1.69    0.91
   0   7 -20    2.75    1.29
   1  -7  20   15.25    1.76
  -1   7 -20   15.90    2.63
   1   7  20   19.98    2.00
  -2  -7 -20    3.15    1.44
  -2   7 -20    2.35    1.52
  -1  -8  20    2.74    1.01
   1  -8 -20    3.62    1.35
   0  -8  20    0.30    0.68
   0  -8 -20    0.52    1.17
   0   8  20    0.44    0.80
   0   8 -20   -1.24    1.15
   1  -8  20    9.43    1.35
   1   8  20    6.61    1.31
  -1   8 -20    8.11    1.82
   1  -9 -20    0.80    1.24
  -1  -9  20   -0.14    0.81
   0  -9  20    3.06    1.00
   0   9 -20    4.60    1.47
   0   9  20    4.46    1.11
   1   9  20   -1.11    0.85
  -1   9 -20    0.98    1.39
  -2   0  21   -0.76    0.79
   2   0 -21   -0.65    1.04
   1   0 -21   39.64    4.08
  -1   0  21   56.48    3.59
   0   0  21    1.17    0.74
   0   0 -21    0.83    1.20
   1   0  21   24.62    2.35
  -1   0 -21   35.51    3.29
   2   0  21    0.05    0.73
  -2   0 -21   -1.31    1.18
   2  -1 -21    2.09    1.19
  -2  -1  21    1.27    0.92
   2   1 -21    1.72    1.13
  -2   1  21    2.26    0.98
  -1  -1  21   20.38    1.92
   1  -1 -21   15.67    2.22
  -1   1  21   17.67    1.85
   1   1 -21   13.60    2.25
   0  -1  21   10.80    1.58
   0  -1 -21   14.78    2.29
   0   1  21   12.18    1.61
   0   1 -21   15.01    2.33
   1  -1  21    9.72    1.50
  -1  -1 -21   19.26    2.41
   1   1  21   11.05    1.60
  -1   1 -21   17.23    2.37
   2  -1  21    3.05    0.85
  -2  -1 -21    0.09    1.22
   2   1  21    2.68    0.91
  -2   1 -21    0.07    1.28
   2  -2 -21    5.60    1.49
  -2  -2  21    6.63    1.30
  -2   2  21    9.33    1.50
   2   2 -21    3.73    1.27
  -1  -2  21    3.38    0.98
   1  -2 -21    6.61    1.37
  -1   2  21    5.32    1.05
   1   2 -21    4.83    1.31
   0  -2  21    1.26    0.80
   0  -2 -21    3.62    1.36
   0   2 -21    4.13    1.40
   0   2  21    1.28    0.81
   1  -2  21    9.74    1.41
  -1  -2 -21   13.28    2.22
  -1   2 -21   11.08    2.16
   1   2  21    9.34    1.57
  -2  -2 -21    1.79    1.33
   2  -2  21    4.71    0.98
   2   2  21    4.44    1.04
  -2   2 -21    2.95    1.51
   2  -3 -21    1.38    1.27
  -2  -3  21    0.81    0.97
  -2   3  21    4.03    1.05
   2   3 -21    0.81    1.08
   1  -3 -21   27.44    2.98
  -1  -3  21   29.67    2.62
  -1   3  21   33.28    2.54
   1   3 -21   28.44    3.05
   0  -3  21    5.40    1.06
   0  -3 -21    5.50    1.50
   0   3 -21    6.13    1.52
   0   3  21    5.48    1.06
  -1  -3 -21   43.25    3.72
  -1   3 -21   33.60    3.68
   1   3  21   34.65    2.90
  -2  -3 -21    3.43    1.40
   2  -3  21    2.03    0.78
  -2   3 -21    0.70    1.40
   2   3  21    4.28    1.10
  -2  -4  21    5.79    1.30
   2  -4 -21    3.64    1.43
   2   4 -21    5.60    1.34
  -1  -4  21    7.26    1.28
   1  -4 -21    7.55    1.51
  -1   4  21    9.98    1.46
   1   4 -21    7.18    1.52
   0  -4 -21    0.67    1.19
   0  -4  21    0.76    0.73
   0   4 -21    0.88    1.17
   0   4  21    0.98    0.77
  -1  -4 -21   15.77    2.29
   1  -4  21   12.40    1.54
   1   4  21    9.69    1.71
  -1   4 -21   13.37    2.37
   2  -4  21   10.02    1.35
  -2  -4 -21    4.91    1.50
  -2   4 -21    3.24    1.59
   2   4  21   10.12    1.71
  -2  -5  21    7.89    1.53
   2  -5 -21    7.12    1.76
   2   5 -21    7.98    1.48
   1  -5 -21    0.37    1.17
  -1  -5  21   -0.04    0.76
  -1   5  21    1.67    0.89
   1   5 -21    2.10    1.20
   0  -5 -21   18.33    2.48
   0  -5  21   19.11    1.88
   0   5 -21   18.44    2.55
   0   5  21   15.52    1.80
   1  -5  21    0.88    0.70
  -1  -5 -21    1.37    1.28
   1   5  21    0.61    0.85
  -1   5 -21    1.76    1.33
  -2  -5 -21    4.63    1.48
   2   5  21    9.52    1.58
  -1  -6  21   26.01    2.43
   1  -6 -21   23.23    2.77
   1   6 -21   17.82    2.75
  -1   6  21   27.52    2.24
   0  -6 -21    7.25    1.49
   0  -6  21    4.48    0.99
   0   6 -21    6.73    1.51
   0   6  21    4.38    1.07
  -1  -6 -21   23.00    2.67
   1   6  21   16.17    2.06
  -1   6 -21   14.75    2.72
   1  -7 -21    4.03    1.38
  -1  -7  21    2.22    1.03
  -1   7  21    3.17    0.97
   1   7 -21    4.14    1.39
   0  -7 -21    0.59    1.24
   0  -7  21    1.43    0.79
   0   7  21    0.42    0.90
   0   7 -21    1.12    1.22
   1  -7  21    2.18    0.83
  -1   7 -21    3.41    1.54
   1   7  21    3.59    1.12
   1  -8 -21    0.98    1.24
  -1  -8  21    0.48    0.98
   0  -8 -21    3.32    1.38
   0  -8  21    1.63    0.86
   0   8  21    2.11    0.95
   0   8 -21    2.45    1.36
   1  -8  21    5.08    1.02
   1   8  21    6.01    1.33
  -1   8 -21    5.74    1.76
  -2   0  22    1.71    1.03
   2   0 -22    2.22    1.25
  -1   0  22    1.01    0.86
   1   0 -22    0.67    1.12
   0   0  22    2.39    0.89
   0   0 -22    1.95    1.32
   1   0  22    0.08    0.72
  -1   0 -22    2.88    1.36
   2   0  22    5.28    1.10
  -2   0 -22    4.35    1.57
  -2  -1  22    6.11    1.26
   2  -1 -22    5.11    1.53
   2   1 -22    6.47    1.44
  -2   1  22    3.63    1.12
  -1  -1  22    0.88    0.86
   1  -1 -22    2.44    1.16
  -1   1  22    2.67    0.95
   1   1 -22    3.39    1.24
   0  -1 -22   35.34    3.41
   0  -1  22   31.35    2.66
   0   1  22   28.66    2.59
   0   1 -22   34.34    3.40
   1  -1  22    4.44    0.98
  -1  -1 -22    4.18    1.45
  -1   1 -22    6.12    1.58
   1   1  22    4.48    1.01
   2  -1  22    9.62    1.41
  -2  -1 -22    6.85    1.72
  -2   1 -22    5.60    1.78
   2   1  22   11.18    1.60
  -2  -2  22    3.18    1.16
  -2   2  22    5.50    1.18
   2   2 -22    2.34    1.24
  -1  -2  22    5.11    1.09
   1  -2 -22    2.82    1.24
   1   2 -22    1.56    1.22
  -1   2  22    2.64    0.94
   0  -2 -22   58.21    4.75
   0  -2  22   52.39    3.80
   0   2  22   49.74    3.80
   0   2 -22   51.82    4.77
   1  -2  22    2.87    0.86
  -1  -2 -22    3.92    1.43
   1   2  22    2.88    0.96
  -1   2 -22    2.40    1.39
  -2  -2 -22    5.15    1.54
   2  -2  22    2.72    0.89
   2   2  22    1.99    0.99
  -1  -3  22    3.25    1.02
   1  -3 -22    1.63    1.22
   1   3 -22    3.05    1.31
  -1   3  22    1.46    0.89
   0  -3 -22    6.63    1.64
   0  -3  22    6.20    1.12
   0   3  22    6.43    1.13
   0   3 -22    7.02    1.67
  -1  -3 -22    4.38    1.40
   1  -3  22    1.97    0.80
   1   3  22    1.61    0.91
  -1   3 -22    4.07    1.44
   1  -4 -22    8.49    1.65
  -1  -4  22    9.68    1.65
  -1   4  22   13.63    1.64
   1   4 -22   10.62    2.13
   0  -4  22    6.17    1.16
   0  -4 -22   13.26    2.25
   0   4  22    8.73    1.47
   0   4 -22    9.33    1.76
   1  -4  22    9.17    1.41
  -1  -4 -22   10.60    2.20
   1   4  22    7.75    1.34
  -1   4 -22   11.48    2.33
  -1  -5  22   16.59    1.92
   1  -5 -22   13.08    2.30
  -1   5  22   17.61    1.82
   1   5 -22   12.76    2.36
   0  -5  22    6.72    1.20
   0  -5 -22    6.79    1.62
   0   5 -22    8.10    1.68
   0   5  22    6.29    1.14
   1  -5  22    5.34    1.11
  -1  -5 -22   13.25    2.22
  -1   5 -22    9.51    1.90
   1   5  22    7.88    1.33
   1  -6 -22    2.52    1.38
  -1  -6  22    1.60    0.98
   1   6 -22    0.34    1.25
  -1   6  22    1.13    0.90
   0  -6 -22   -0.84    1.24
   0  -6  22    0.47    0.76
   0   6  22    0.04    0.82
   0   6 -22    0.61    1.28
  -1  -6 -22    1.71    1.34
   1  -6  22    0.68    0.69
   1   6  22    0.49    0.93
  -1   6 -22    0.80    1.47
   0  -7 -22    3.51    1.46
   0  -7  22    1.86    0.88
   0   7  22    4.01    1.11
   0   7 -22    5.77    1.56
   1   0 -23   17.30    2.54
  -1   0  23   21.88    2.08
   0   0 -23    1.16    1.35
   0   0  23   -0.09    0.77
   1   0  23   32.07    2.68
  -1   0 -23   34.11    3.54
   1  -1 -23   25.12    2.97
  -1  -1  23   30.67    2.59
   1   1 -23   24.51    2.99
  -1   1  23   30.86    2.56
   0  -1  23    9.14    1.50
   0  -1 -23    6.96    1.72
   0   1  23   10.02    1.51
   0   1 -23   11.58    2.35
   1  -1  23   19.91    2.09
  -1  -1 -23   23.47    2.91
   1   1  23   20.18    2.11
  -1   1 -23   23.99    2.91
   1  -2 -23    0.14    1.19
  -1  -2  23    1.14    0.94
  -1   2  23    0.07    0.85
   1   2 -23    0.30    1.22
   0  -2 -23    6.61    1.67
   0  -2  23    6.38    1.20
   0   2 -23    8.74    1.80
   0   2  23    9.99    1.57
  -1  -2 -23    2.00    1.33
   1  -2  23    0.56    0.77
  -1   2 -23    2.11    1.39
   1   2  23   -0.80    0.75
   1  -3 -23    6.39    1.55
  -1  -3  23    5.47    1.19
   1   3 -23    5.12    1.52
  -1   3  23    5.70    1.14
   0  -3  23    6.47    1.18
   0  -3 -23    8.75    1.76
   0   3  23    6.75    1.16
   0   3 -23    7.49    1.70
  -1  -3 -23   12.11    2.26
   1  -3  23    8.77    1.48
  -1   3 -23    8.44    1.84
   1   3  23    7.68    1.32
   1  -4 -23    2.62    1.37
  -1   4  23    1.86    0.92
   1   4 -23    5.10    1.47
   0  -4  23    6.72    1.22
   0   4  23    6.34    1.19
   0   4 -23    7.59    1.76
  -1  -4 -23    6.27    1.57
   1  -4  23    4.80    1.00
   0  -5  23    6.50    1.17
   0  -5 -23    4.68    1.60
   0   5 -23    5.73    1.61
   0   5  23    4.07    1.10
   0   0 -24    0.60    1.40
   0   0  24   -0.21    0.81
   0  -1 -24   13.67    2.78
   0   1  24   13.64    1.92
   0   0   0    0.00    0.00
;
_shelx_hkl_checksum              14850
_shelx_res_file
;
TITL 16114z in P2(1)/n
CELL 0.71073   3.9233  13.5536  18.6723  90.000  90.002  90.000
ZERR    4.00   0.0009   0.0031   0.0042   0.000   0.003   0.000
LATT  1
SYMM -x+1/2, y+1/2, -z+1/2
SFAC C  H  N O BR
UNIT 36 20 4 8 8
TEMP -100
SIZE 0.030 0.120 0.500
L.S. 8
ACTA
LIST 4
CONF
BOND $H
FMAP 2
PLAN 5
EQIV $2 0.5+X, 0.5-Y, 0.5+Z
MPLA C11 C12 C13 C14 C15 C16
MPLA C11_$2 C12_$2 C13_$2 C14_$2 C15_$2 C16_$2
EQIV $3 1/2 + X, 3/2 - Y, 1/2 + Z
RTAB N..C N11 C17
RTAB C..C C17 C19_$3
RTAB N..C N11 C19_$3
RTAB NC.C N11 C17 C19_$3
EQIV $4 1/2 + X, 3/2 - Y, -1/2 + Z
RTAB C..O C18 O11
RTAB C.BR C18 BR16_$4
RTAB O.BR O11 BR16_$4
RTAB COBR C18 O11 BR16_$4
TWIN -1 0 0 0 -1 0 0 0 1
WGHT    0.038500
BASF   0.32770
FVAR       0.13345
C11   1    0.531236    0.592957    0.687973    11.00000    0.02145    0.01921 =
         0.01532   -0.00012   -0.00021   -0.00497
C12   1    0.665285    0.560543    0.622819    11.00000    0.01687    0.01657 =
         0.02455   -0.00218   -0.00016   -0.00212
BR12  5    0.853191    0.433062    0.615970    11.00000    0.02804    0.01584 =
         0.03104   -0.00255    0.00115    0.00238
C13   1    0.660552    0.621089    0.563448    11.00000    0.02080    0.02087 =
         0.02313   -0.00341    0.00310   -0.00184
AFIX  43
H13A  2    0.750409    0.598255    0.519207    11.00000   -1.20000
AFIX   0
C14   1    0.524562    0.715327    0.568350    11.00000    0.02292    0.01757 =
         0.01600   -0.00072    0.00078   -0.00253
C15   1    0.390007    0.750088    0.632838    11.00000    0.01955    0.01845 =
         0.01747   -0.00220   -0.00193   -0.00191
AFIX  43
H15A  2    0.297102    0.814673    0.635954    11.00000   -1.20000
AFIX   0
C16   1    0.394368    0.688744    0.692189    11.00000    0.01955    0.02099 =
         0.01381   -0.00597    0.00013   -0.00486
BR16  5    0.218588    0.733124    0.780279    11.00000    0.02964    0.02670 =
         0.01950   -0.00694    0.00484   -0.00182
N11   3    0.530722    0.532089    0.747416    11.00000    0.03102    0.01976 =
         0.02129   -0.00136    0.00110   -0.00289
C17   1    0.528178    0.480030    0.796826    11.00000    0.06523    0.02816 =
         0.02717   -0.00248   -0.00350   -0.00782
C18   1    0.525467    0.775952    0.501064    11.00000    0.02721    0.01721 =
         0.01868   -0.00214   -0.00149   -0.00306
O11   4    0.671226    0.750120    0.447319    11.00000    0.04827    0.02346 =
         0.02450    0.00185    0.00867    0.00222
O12   4    0.346657    0.859022    0.506812    11.00000    0.03911    0.02187 =
         0.02010    0.00158    0.00008    0.00551
C19   1    0.313514    0.914989    0.440754    11.00000    0.03875    0.02694 =
         0.02601    0.00706   -0.00262    0.00423
AFIX 137
H19A  2    0.179401    0.974713    0.449764    11.00000   -1.50000
H19B  2    0.198430    0.874506    0.404610    11.00000   -1.50000
H19C  2    0.540369    0.933475    0.423362    11.00000   -1.50000
AFIX   0
HKLF 4 1 1 0 0 0 1 0 0 0 1
REM  16114z in P2(1)/n
REM R1 =  0.0287 for    2132 Fo > 4sig(Fo)  and  0.0322 for all    2277 data
REM    129 parameters refined using      0 restraints
END
WGHT      0.0385      0.0000
REM Highest difference peak  0.849,  deepest hole -0.653,  1-sigma level  0.109
Q1    1   0.8447  0.4358  0.6618  11.00000  0.05    0.85
Q2    1   0.1976  0.7335  0.8250  11.00000  0.05    0.75
Q3    1  -0.0152  0.7311  0.7805  11.00000  0.05    0.72
Q4    1   0.8480  0.4312  0.5605  11.00000  0.05    0.71
Q5    1   1.0874  0.4267  0.6202  11.00000  0.05    0.70
;
_shelx_res_checksum              26906
_shelxl_version_number           2014/6
loop_
_space_group_symop_operation_xyz
'x, y, z'
'-x+1/2, y+1/2, -z+1/2'
'-x, -y, -z'
'x-1/2, -y-1/2, z-1/2'
loop_
_atom_site_type_symbol
_atom_site_label
_atom_site_fract_x
_atom_site_fract_y
_atom_site_fract_z
_atom_site_U_iso_or_equiv
_atom_site_adp_type
_atom_site_calc_flag
_atom_site_occupancy
C C11 0.5312(10) 0.5930(3) 0.6880(2) 0.0187(7) Uani d 1
C C12 0.6653(9) 0.5605(2) 0.6228(2) 0.0193(7) Uani d 1
Br Br12 0.85319(11) 0.43306(2) 0.61597(2) 0.02497(11) Uani d 1
C C13 0.6606(10) 0.6211(2) 0.5634(2) 0.0216(8) Uani d 1
H H13A 0.7504 0.5983 0.5192 0.026 Uiso calc 1
C C14 0.5246(10) 0.7153(2) 0.56835(19) 0.0188(8) Uani d 1
C C15 0.3900(9) 0.7501(2) 0.63284(19) 0.0185(8) Uani d 1
H H15A 0.2971 0.8147 0.6360 0.022 Uiso calc 1
C C16 0.3944(9) 0.6887(3) 0.69219(18) 0.0181(7) Uani d 1
Br Br16 0.21859(11) 0.73312(2) 0.78028(2) 0.02528(11) Uani d 1
N N11 0.5307(9) 0.5321(2) 0.74742(17) 0.0240(7) Uani d 1
C C17 0.5282(15) 0.4800(3) 0.7968(2) 0.0402(11) Uani d 1
C C18 0.5255(11) 0.7760(2) 0.5011(2) 0.0210(8) Uani d 1
O O11 0.6712(9) 0.75012(19) 0.44732(15) 0.0321(7) Uani d 1
O O12 0.3467(8) 0.85902(17) 0.50681(14) 0.0270(6) Uani d 1
C C19 0.3135(13) 0.9150(3) 0.4408(2) 0.0306(9) Uani d 1
H H19A 0.1794 0.9747 0.4498 0.046 Uiso calc 1
H H19B 0.1984 0.8745 0.4046 0.046 Uiso calc 1
H H19C 0.5404 0.9335 0.4234 0.046 Uiso calc 1
loop_
_atom_site_aniso_label
_atom_site_aniso_U_11
_atom_site_aniso_U_22
_atom_site_aniso_U_33
_atom_site_aniso_U_12
_atom_site_aniso_U_13
_atom_site_aniso_U_23
C11 0.0214(19) 0.0192(16) 0.0153(18) -0.0050(15) -0.0002(15) -0.0001(14)
C12 0.0169(19) 0.0166(15) 0.0246(19) -0.0021(13) -0.0002(18) -0.0022(13)
Br12 0.0280(2) 0.01584(15) 0.0310(2) 0.00238(13) 0.0011(2) -0.00255(14)
C13 0.021(2) 0.0209(16) 0.0231(19) -0.0018(15) 0.0031(16) -0.0034(14)
C14 0.023(2) 0.0176(16) 0.0160(18) -0.0025(14) 0.0008(15) -0.0007(14)
C15 0.020(2) 0.0185(15) 0.0175(19) -0.0019(13) -0.0019(15) -0.0022(13)
C16 0.0196(19) 0.0210(16) 0.0138(16) -0.0049(14) 0.0001(14) -0.0060(13)
Br16 0.0296(2) 0.02670(18) 0.01950(19) -0.00182(15) 0.00484(19) -0.00694(13)
N11 0.0310(19) 0.0198(15) 0.0213(17) -0.0029(13) 0.0011(14) -0.0014(13)
C17 0.065(3) 0.028(2) 0.027(2) -0.008(2) -0.003(2) -0.0025(19)
C18 0.027(2) 0.0172(17) 0.0187(19) -0.0031(14) -0.0015(16) -0.0021(14)
O11 0.048(2) 0.0235(12) 0.0245(15) 0.0022(14) 0.0087(16) 0.0019(10)
O12 0.0391(17) 0.0219(12) 0.0201(13) 0.0055(12) 0.0001(13) 0.0016(10)
C19 0.039(3) 0.0269(18) 0.026(2) 0.0042(19) -0.003(2) 0.0071(15)
loop_
_atom_type_symbol
_atom_type_description
_atom_type_scat_dispersion_real
_atom_type_scat_dispersion_imag
_atom_type_scat_source
C C 0.0033 0.0016 'International Tables Vol C Tables 4.2.6.8 and 6.1.1.4'
H H 0.0000 0.0000 'International Tables Vol C Tables 4.2.6.8 and 6.1.1.4'
N N 0.0061 0.0033 'International Tables Vol C Tables 4.2.6.8 and 6.1.1.4'
O O 0.0106 0.0060 'International Tables Vol C Tables 4.2.6.8 and 6.1.1.4'
Br Br -0.2901 2.4595 'International Tables Vol C Tables 4.2.6.8 and 6.1.1.4'
loop_
_geom_angle_atom_site_label_1
_geom_angle_atom_site_label_2
_geom_angle_atom_site_label_3
_geom_angle
N11 C11 C12 120.8(3)
N11 C11 C16 120.3(3)
C12 C11 C16 118.9(3)
C13 C12 C11 120.5(3)
C13 C12 Br12 119.8(3)
C11 C12 Br12 119.7(3)
C12 C13 C14 120.0(3)
C12 C13 H13A 120.0
C14 C13 H13A 120.0
C13 C14 C15 120.9(3)
C13 C14 C18 116.6(3)
C15 C14 C18 122.5(3)
C16 C15 C14 118.8(3)
C16 C15 H15A 120.6
C14 C15 H15A 120.6
C15 C16 C11 120.9(3)
C15 C16 Br16 120.2(3)
C11 C16 Br16 118.9(3)
C17 N11 C11 179.1(4)
O11 C18 O12 124.2(4)
O11 C18 C14 122.6(3)
O12 C18 C14 113.2(3)
C18 O12 C19 114.8(3)
O12 C19 H19A 109.5
O12 C19 H19B 109.5
H19A C19 H19B 109.5
O12 C19 H19C 109.5
H19A C19 H19C 109.5
H19B C19 H19C 109.5
loop_
_geom_bond_atom_site_label_1
_geom_bond_atom_site_label_2
_geom_bond_distance
C11 N11 1.383(5)
C11 C12 1.396(5)
C11 C16 1.407(5)
C12 C13 1.379(5)
C12 Br12 1.883(3)
C13 C14 1.387(5)
C13 H13A 0.9500
C14 C15 1.397(5)
C14 C18 1.501(5)
C15 C16 1.386(5)
C15 H15A 0.9500
C16 Br16 1.882(3)
N11 C17 1.162(5)
C18 O11 1.207(5)
C18 O12 1.331(4)
O12 C19 1.454(4)
C19 H19A 0.9800
C19 H19B 0.9800
C19 H19C 0.9800
loop_
_geom_torsion_atom_site_label_1
_geom_torsion_atom_site_label_2
_geom_torsion_atom_site_label_3
_geom_torsion_atom_site_label_4
_geom_torsion
N11 C11 C12 C13 179.1(3)
C16 C11 C12 C13 -0.6(6)
N11 C11 C12 Br12 -0.8(5)
C16 C11 C12 Br12 179.5(3)
C11 C12 C13 C14 0.6(6)
Br12 C12 C13 C14 -179.5(3)
C12 C13 C14 C15 -0.3(6)
C12 C13 C14 C18 -179.3(4)
C13 C14 C15 C16 0.0(6)
C18 C14 C15 C16 179.0(3)
C14 C15 C16 C11 -0.1(6)
C14 C15 C16 Br16 179.5(3)
N11 C11 C16 C15 -179.3(4)
C12 C11 C16 C15 0.4(5)
N11 C11 C16 Br16 1.1(5)
C12 C11 C16 Br16 -179.2(3)
C13 C14 C18 O11 -8.6(6)
C15 C14 C18 O11 172.4(4)
C13 C14 C18 O12 170.5(3)
C15 C14 C18 O12 -8.5(6)
O11 C18 O12 C19 4.8(6)
C14 C18 O12 C19 -174.2(4)

_cod_database_fobs_code 2242387
