#------------------------------------------------------------------------------
#$Date: 2019-04-26 05:36:32 +0300 (Fri, 26 Apr 2019) $
#$Revision: 214794 $
#$URL: file:///home/coder/svn-repositories/cod/cif/2/24/29/2242919.cif $
#------------------------------------------------------------------------------
#
# This file is available in the Crystallography Open Database (COD),
# http://www.crystallography.net/. The original data for this entry
# were provided by IUCr Journals, http://journals.iucr.org/.
#
# The file may be used within the scientific community so long as
# proper attribution is given to the journal article from which the
# data were obtained.
#
data_2242919
loop_
_publ_author_name
'Cruz, Lorenzo M.'
'Moore, Raakiyah Y.'
'Gutierrez, Marcela Torres'
'Herath, Apsara K.'
'Lovely, Carl J.'
'Yousufuddin, Muhammed'
_publ_section_title
;
 Crystal structures of
 4-{(<i>E</i>)-3-[(imino-\l^5^-azanylidene)amino]prop-1-enyl}-<i>N</i>,<i>N</i>-dimethylimidazole-1-sulfonamide
 and
 2-[(imino-\l^5^-azanylidene)amino]-4-{(<i>E</i>)-3-[(imino-\l^5^-azanylidene)amino]prop-1-enyl}-<i>N</i>,<i>N</i>-dimethylimidazole-1-sulfonamide
;
_journal_coeditor_code           ZL2753
_journal_issue                   5
_journal_name_full               'Acta Crystallographica Section E'
_journal_page_first              695
_journal_page_last               699
_journal_paper_doi               10.1107/S205698901900519X
_journal_volume                  75
_journal_year                    2019
_chemical_formula_iupac          'C8 H12 N6 O2 S'
_chemical_formula_moiety         'C8 H12 N6 O2 S'
_chemical_formula_sum            'C8 H12 N6 O2 S'
_chemical_formula_weight         256.30
_chemical_name_systematic
4-{(<i>E</i>)-3-[(Imino-\l^5^-azanylidene)amino]prop-1-enyl}-<i>N</i>,<i>N</i>-dimethylimidazole-1-sulfonamide
_space_group_crystal_system      triclinic
_space_group_IT_number           2
_space_group_name_Hall           '-P 1'
_space_group_name_H-M_alt        'P -1'
_symmetry_space_group_name_Hall  '-P 1'
_symmetry_space_group_name_H-M   'P -1'
_atom_sites_solution_hydrogens   geom
_atom_sites_solution_primary     direct
_audit_creation_method           SHELXL-2017/1
_cell_angle_alpha                74.636(5)
_cell_angle_beta                 83.418(5)
_cell_angle_gamma                80.255(5)
_cell_formula_units_Z            2
_cell_length_a                   5.4252(15)
_cell_length_b                   9.830(3)
_cell_length_c                   11.137(3)
_cell_measurement_reflns_used    4940
_cell_measurement_temperature    100(2)
_cell_measurement_theta_max      33.32
_cell_measurement_theta_min      3.23
_cell_volume                     562.9(3)
_computing_cell_refinement
;
SAINT (Bruker, 2016)
;
_computing_data_collection
;
APEX3 (Bruker, 2016)
;
_computing_data_reduction
;
SAINT (Bruker, 2016)
;
_computing_molecular_graphics
;
Mercury (Macrae <i>et al.</i>,  2008)
;
_computing_publication_material
;
SHELXTL (Sheldrick, 2008)
;
_computing_structure_refinement
;
SHELXL2017 (Sheldrick, 2015b)
;
_computing_structure_solution
;
SHELXT2014 (Sheldrick, 2015a)
;
_diffrn_ambient_temperature      100(2)
_diffrn_measured_fraction_theta_full 0.995
_diffrn_measured_fraction_theta_max 0.978
_diffrn_measurement_device_type  'Bruker D8 Quest'
_diffrn_measurement_method       '\f and \w scans'
_diffrn_radiation_type           MoK\a
_diffrn_radiation_wavelength     0.71073
_diffrn_reflns_av_R_equivalents  0.0326
_diffrn_reflns_av_unetI/netI     0.0481
_diffrn_reflns_limit_h_max       8
_diffrn_reflns_limit_h_min       -8
_diffrn_reflns_limit_k_max       15
_diffrn_reflns_limit_k_min       -15
_diffrn_reflns_limit_l_max       17
_diffrn_reflns_limit_l_min       -17
_diffrn_reflns_number            9314
_diffrn_reflns_theta_full        25.242
_diffrn_reflns_theta_max         33.377
_diffrn_reflns_theta_min         3.226
_diffrn_standards_decay_%        0
_diffrn_standards_interval_count 0
_diffrn_standards_interval_time  0
_diffrn_standards_number         0
_exptl_absorpt_coefficient_mu    0.289
_exptl_absorpt_correction_T_max  0.746
_exptl_absorpt_correction_T_min  0.616
_exptl_absorpt_correction_type   multi-scan
_exptl_absorpt_process_details
;
(SADABS; Bruker, 2016)
;
_exptl_crystal_colour            colourless
_exptl_crystal_density_diffrn    1.512
_exptl_crystal_description       prism
_exptl_crystal_F_000             268
_exptl_crystal_size_max          0.250
_exptl_crystal_size_mid          0.200
_exptl_crystal_size_min          0.050
_refine_diff_density_max         0.416
_refine_diff_density_min         -0.481
_refine_ls_extinction_coef       0.035(6)
_refine_ls_extinction_expression Fc^*^=kFc[1+0.001xFc^2^\l^3^/sin(2\q)]^-1/4^
_refine_ls_extinction_method
;
SHELXL2017 (Sheldrick, 2015b)
;
_refine_ls_goodness_of_fit_ref   1.009
_refine_ls_hydrogen_treatment    constr
_refine_ls_matrix_type           full
_refine_ls_number_parameters     157
_refine_ls_number_reflns         4292
_refine_ls_number_restraints     0
_refine_ls_restrained_S_all      1.009
_refine_ls_R_factor_all          0.0534
_refine_ls_R_factor_gt           0.0387
_refine_ls_shift/su_max          0.001
_refine_ls_shift/su_mean         0.000
_refine_ls_structure_factor_coef Fsqd
_refine_ls_weighting_details
'w=1/[\s^2^(Fo^2^)+(0.0486P)^2^+0.2224P] where P=(Fo^2^+2Fc^2^)/3'
_refine_ls_weighting_scheme      calc
_refine_ls_wR_factor_gt          0.0968
_refine_ls_wR_factor_ref         0.1040
_reflns_number_gt                3477
_reflns_number_total             4292
_reflns_threshold_expression     'I > 2\s(I)'
_cod_data_source_file            zl2753sup1.cif
_cod_data_source_block           compound_1
_cod_original_cell_volume        563.0(3)
_cod_database_code               2242919
_shelx_space_group_comment
;
The symmetry employed for this shelxl refinement is uniquely defined
by the following loop, which should always be used as a source of
symmetry information in preference to the above space-group names.
They are only intended as comments.
;
_shelx_estimated_absorpt_t_min   0.931
_shelx_estimated_absorpt_t_max   0.986
_shelx_hkl_file
;
  -1   0   0 2360.86   82.89
   1   0   0 2330.47   82.79
   1   0   0 2370.86   82.79
  -2   0   0  353.16   12.90
   2   0   0  347.77   12.60
   2   0   0  327.77   12.50
  -3   0   0   39.50    2.90
   3   0   0   32.90    2.50
   3   0   0   38.00    2.30
  -4   0   0   37.20    3.50
   4   0   0   38.60    2.90
   4   0   0   40.00    3.10
  -5   0   0  310.77   13.30
   5   0   0  302.77   12.30
  -6   0   0  468.25   19.80
   6   0   0  471.15   19.00
  -7   0   0  460.45   20.70
   7   0   0  475.75   19.60
  -8   0   0    4.50    5.90
   8   0   0   -5.50    4.70
   8  -1   0   64.49    8.90
  -8   1   0   63.99    8.20
   7  -1   0    9.50    3.70
  -7   1   0    2.70    4.50
   6  -1   0  177.38    9.00
  -6   1   0  179.78    9.90
   5  -1   0  113.99    6.20
   5  -1   0  122.39    6.30
  -5   1   0  125.49    7.20
   4  -1   0    1.20    1.50
   4  -1   0    2.50    1.50
  -4   1   0    1.40    1.70
   3  -1   0   81.99    3.90
   3  -1   0   72.49    3.80
  -3   1   0   83.09    4.40
   2  -1   0  342.57   13.70
   2  -1   0  357.96   13.50
  -2   1   0  397.96   13.90
   1  -1   0  521.55   19.80
   1  -1   0  582.94   19.70
  -1   1   0  560.14   20.00
  -1  -1   0  329.17   11.80
  -1  -1   0  316.77   11.60
  -1  -1   0  329.77   11.70
   1   1   0  325.27   11.80
  -2  -1   0  215.78    8.30
   2   1   0  214.78    8.20
   2   1   0  209.28    8.00
  -3  -1   0   63.49    3.70
   3   1   0   58.79    4.10
   3   1   0   66.09    3.40
  -4  -1   0  115.99    6.10
   4   1   0  114.49    5.60
   4   1   0  114.19    5.30
  -5  -1   0   30.40    3.60
   5   1   0   31.70    3.30
   5   1   0   24.50    3.30
  -6  -1   0    1.70    3.20
   6   1   0    3.70    2.60
  -7  -1   0   46.70    7.10
   7   1   0   45.80    6.30
  -8  -1   0   -1.00    5.70
   8   1   0   -5.30    4.40
  -8   2   0  226.38   15.30
   7  -2   0  116.09    8.30
   6  -2   0  180.78    9.10
  -6   2   0  177.58   10.00
   5  -2   0  135.19    7.00
   5  -2   0  133.39    6.80
  -5   2   0  142.99    7.80
   4  -2   0   81.39    4.40
   4  -2   0   82.49    4.60
  -4   2   0   79.19    5.30
   3  -2   0  143.59    5.80
   3  -2   0  129.79    5.90
  -3   2   0  134.39    6.40
   2  -2   0   76.99    3.60
  -2   2   0   76.69    3.90
   0  -2   0  785.02   28.20
   0   2   0  835.12   28.20
   0   2   0  755.92   28.00
  -1  -2   0 1286.37   46.40
  -1  -2   0 1315.17   46.40
   1   2   0 1328.87   46.40
  -2  -2   0  253.57    9.70
   2   2   0  253.77    9.70
  -3  -2   0  538.95   20.00
   3   2   0  532.85   19.90
  -4  -2   0    3.90    1.30
  -4  -2   0    3.10    1.00
  -4  -2   0    4.80    1.80
   4   2   0    3.00    1.50
  -5  -2   0    0.80    2.40
  -5  -2   0    3.90    1.50
  -5  -2   0    1.10    1.80
   5   2   0    3.10    2.10
  -6  -2   0  194.88   10.20
   6   2   0  188.38    9.50
  -7  -2   0   52.39    7.40
   7   2   0   63.29    6.40
  -8  -2   0   -2.30    5.40
   8   2   0    1.00    4.60
  -7   3   0  260.97   14.20
   6  -3   0   10.60    3.20
  -6   3   0    6.10    3.70
   5  -3   0   31.10    4.20
   5  -3   0   32.90    4.00
   4  -3   0    1.00    1.80
   4  -3   0   -0.10    1.60
  -4   3   0    0.70    2.10
   3  -3   0   16.50    2.20
   3  -3   0   20.20    2.60
  -3   3   0   27.80    3.20
   2  -3   0 2664.03   93.79
  -2   3   0 2622.14   93.89
   1  -3   0 2609.94   92.49
  -1   3   0 2694.13   92.59
  -1   3   0 2539.05   91.99
   0  -3   0  576.24   20.80
   0   3   0  541.75   20.40
   0   3   0  599.04   20.70
  -1  -3   0 3864.81  133.59
   1   3   0 3723.63  133.59
  -2  -3   0 1337.97   47.90
  -2  -3   0 1336.97   47.80
   2   3   0 1346.97   47.90
  -3  -3   0    4.00    1.10
  -3  -3   0    4.70    1.40
   3   3   0    5.30    1.40
  -4  -3   0   13.50    2.30
   4   3   0   16.50    2.10
  -5  -3   0    1.10    1.70
  -5  -3   0    2.70    2.50
   5   3   0    2.70    2.10
  -6  -3   0   19.80    3.90
   6   3   0   16.50    3.30
  -7  -3   0  217.88   12.40
   7   3   0  216.48   11.50
  -8  -3   0   96.99   10.80
   8   3   0  138.29   10.00
  -7   4   0  125.49   10.70
   6  -4   0   49.00    6.90
  -6   4   0   36.30    5.40
   5  -4   0    7.80    3.40
   5  -4   0    3.90    2.40
  -5   4   0    4.60    2.90
   4  -4   0   91.99    5.10
   4  -4   0  101.89    5.90
  -4   4   0  113.99    6.60
   3  -4   0   51.39    3.70
  -3   4   0   50.49    4.00
   2  -4   0 1563.64   55.99
  -2   4   0 1552.34   56.09
   1  -4   0  383.46   14.40
  -1   4   0  392.26   14.50
  -1   4   0  360.36   13.70
   0  -4   0  491.35   17.60
   0   4   0  467.45   17.40
   0   4   0  455.55   17.00
  -1  -4   0  297.77   11.70
  -1  -4   0  333.77   12.00
   1   4   0  308.77   11.70
  -2  -4   0 1127.39   40.20
  -2  -4   0 1132.39   40.30
   2   4   0 1105.69   40.30
  -3  -4   0    5.60    1.30
  -3  -4   0    4.60    1.50
   3   4   0    4.40    1.40
  -4  -4   0  423.96   16.20
  -4  -4   0  392.26   15.30
   4   4   0  405.96   16.00
  -5  -4   0   37.40    4.50
  -5  -4   0   29.30    3.50
   5   4   0   34.40    3.90
  -6  -4   0   48.80    5.90
   6   4   0   60.29    5.70
  -7  -4   0   69.49    8.20
   7   4   0   66.79    7.30
  -8  -4   0   42.10    7.00
  -7   5   0   -1.50    5.70
   6  -5   0   19.80    4.60
  -6   5   0    3.60    4.40
   5  -5   0   13.80    3.30
  -5   5   0    9.70    3.60
   4  -5   0  187.18    8.10
  -4   5   0  197.68    9.80
   3  -5   0  382.86   15.10
  -3   5   0  364.06   15.50
   2  -5   0  115.19    5.70
  -2   5   0  110.29    5.80
   1  -5   0  153.38    6.70
  -1   5   0  155.58    6.70
  -1   5   0  136.09    5.80
   0  -5   0  153.88    6.50
   0   5   0  143.69    5.90
   0   5   0  150.68    6.40
  -1  -5   0 1091.09   39.80
  -1  -5   0 1134.99   40.00
   1   5   0 1095.69   39.60
  -2  -5   0  961.80   35.10
  -2  -5   0  982.10   35.10
   2   5   0  961.60   35.10
  -3  -5   0  408.26   15.70
  -3  -5   0  395.16   15.40
   3   5   0  417.06   15.80
  -4  -5   0    2.10    1.80
  -4  -5   0    6.70    2.10
   4   5   0    6.10    1.90
  -5  -5   0   23.00    2.70
  -5  -5   0   29.00    4.20
   5   5   0   25.50    3.20
  -6  -5   0  101.19    7.50
   6   5   0   92.39    6.90
  -7  -5   0  126.19    9.80
   7   5   0  126.09    9.20
  -7   6   0   35.60    7.30
   6  -6   0   77.19    8.20
  -6   6   0   60.89    8.30
   5  -6   0   72.69    6.90
  -5   6   0   66.89    7.00
   4  -6   0  173.48    8.90
  -4   6   0  165.88    9.30
  -3   6   0   59.19    5.10
   2  -6   0    0.70    1.80
  -2   6   0   -1.70    1.80
   1  -6   0  204.28    9.10
  -1   6   0  225.78    9.30
  -1   6   0  204.68    8.20
   0  -6   0 1108.29   40.80
   0   6   0 1109.59   40.00
   0   6   0 1144.89   40.70
  -1  -6   0  298.67   11.90
  -1  -6   0  310.07   12.20
   1   6   0  301.87   11.70
  -2  -6   0    0.30    1.40
  -2  -6   0   -0.70    1.50
   2   6   0   -0.20    1.20
  -3  -6   0 1226.28   44.00
  -3  -6   0 1198.78   43.80
   3   6   0 1209.68   44.10
  -4  -6   0   12.40    2.30
  -4  -6   0    8.40    2.40
   4   6   0    7.80    2.10
  -5  -6   0    2.30    2.40
  -5  -6   0   -1.30    2.70
   5   6   0   -0.10    2.20
  -6  -6   0  199.88   10.50
   6   6   0  180.38   10.10
  -7  -6   0   19.10    5.50
   7   6   0   12.20    4.40
  -8  -6   0    4.40    5.80
   6  -7   0  149.99   11.40
  -6   7   0  147.89   11.20
   5  -7   0  218.08   11.90
  -5   7   0  221.78   12.10
   4  -7   0  183.88    9.60
  -4   7   0  171.78    9.70
   3  -7   0    1.50    2.50
  -3   7   0    0.70    2.50
   2  -7   0   70.19    4.90
  -2   7   0   48.20    6.40
   1  -7   0  137.99    6.90
  -1   7   0  138.69    5.80
  -1   7   0  131.59    6.90
   0  -7   0 1314.87   47.80
   0   7   0 1283.07   46.70
   0   7   0 1329.97   47.60
  -1  -7   0  650.43   25.20
   1   7   0  690.93   25.10
   1   7   0  662.33   24.60
  -2  -7   0  138.79    6.70
  -2  -7   0  136.79    6.70
   2   7   0  138.09    6.40
  -3  -7   0    4.50    2.10
  -3  -7   0   -0.80    1.80
   3   7   0    2.00    1.80
  -4  -7   0   12.00    2.50
  -4  -7   0    8.60    2.60
   4   7   0   12.90    2.50
  -5  -7   0   33.10    4.70
  -5  -7   0   40.40    5.10
   5   7   0   37.20    4.80
  -6  -7   0  128.59    8.50
   6   7   0  117.29    8.30
  -7  -7   0  190.98   12.10
   7   7   0  203.58   11.80
   6  -8   0   88.29   10.10
  -6   8   0   76.79   10.30
   5  -8   0  413.96   17.50
  -5   8   0  293.27   20.90
   4  -8   0   42.80    6.50
  -4   8   0   34.40    5.00
   3  -8   0   25.20    3.90
  -3   8   0   29.50    4.20
   2  -8   0  106.99    6.80
  -2   8   0  114.59    6.80
   1  -8   0  279.47   12.10
  -1   8   0  265.37   11.90
  -1   8   0  270.57   10.60
   0  -8   0  190.98    9.30
   0   8   0  172.68    7.50
   0   8   0  176.38    8.30
  -1  -8   0  232.88   10.50
   1   8   0  244.48    9.90
   1   8   0  239.78   10.20
  -2  -8   0 1314.27   48.90
  -2  -8   0 1367.96   48.70
   2   8   0 1330.57   48.50
  -3  -8   0    7.30    2.60
  -3  -8   0    5.80    2.40
   3   8   0    9.20    2.20
  -4  -8   0    7.20    2.80
  -4  -8   0    3.20    3.00
   4   8   0    8.20    2.60
  -5  -8   0   65.59    6.20
  -5  -8   0   74.49    7.80
   5   8   0   74.19    5.80
  -6  -8   0   -3.60    4.00
   6   8   0   11.50    3.70
   7   8   0   66.79    8.60
  -5   9   0   19.90    5.70
   4  -9   0   18.20    4.60
  -4   9   0   10.90    4.20
   3  -9   0    2.10    3.50
  -3   9   0    3.40    3.30
   2  -9   0   36.30    5.10
  -2   9   0   38.50    5.00
   1  -9   0  377.66   16.50
  -1   9   0  404.76   16.40
   0  -9   0   42.90    4.30
   0   9   0   45.10    4.30
   0   9   0   41.50    3.60
  -1  -9   0  133.19    7.20
   1   9   0  133.59    6.60
   1   9   0  135.29    7.00
  -2  -9   0    7.30    2.60
   2   9   0    2.40    2.60
   2   9   0    0.40    2.20
  -3  -9   0   36.60    4.80
  -3  -9   0   40.90    5.00
   3   9   0   46.60    4.50
  -4  -9   0   27.10    3.70
  -4  -9   0   37.30    5.20
   4   9   0   20.80    3.50
  -5  -9   0    3.90    3.90
  -5  -9   0    3.00    3.80
   5   9   0    0.40    2.90
  -6  -9   0   29.50    9.10
   6   9   0   22.00    5.60
   7   9   0    6.80    5.30
   5 -10   0    1.10    5.70
  -5  10   0   -0.70    5.50
   4 -10   0   36.00    7.70
   3 -10   0  137.69    9.60
  -3  10   0  121.09    8.70
   2 -10   0  149.49    9.00
  -2  10   0  130.79    8.40
   1 -10   0   44.30    5.60
  -1  10   0   44.60    5.30
   0 -10   0    3.40    2.90
   0  10   0    1.90    2.10
   0  10   0    3.30    3.00
  -1 -10   0  130.99    8.00
   1  10   0  139.59    7.80
   1  10   0  140.09    7.00
  -2 -10   0   10.50    3.20
   2  10   0   12.50    2.80
  -3 -10   0    6.10    3.20
  -3 -10   0   10.10    3.70
   3  10   0    2.80    2.80
  -4 -10   0   31.30    4.50
  -4 -10   0   22.10    4.40
   4  10   0   17.80    3.60
   5  10   0    2.50    3.60
   6  10   0    0.40    4.10
   4 -11   0   77.49   10.60
  -4  11   0   43.60    6.80
  -3  11   0    5.00    4.30
   2 -11   0   24.20    4.90
  -2  11   0   14.60    4.20
   1 -11   0    2.10    3.60
  -1  11   0    1.60    3.80
   0 -11   0  207.28   11.30
   0  11   0  216.78   10.90
  -1 -11   0   18.50    3.90
   1  11   0   20.60    3.90
   1  11   0   11.70    3.00
  -2 -11   0  388.86   17.40
   2  11   0  409.66   17.10
   2  11   0  412.96   16.70
  -3 -11   0  171.88   10.00
   3  11   0  181.48    9.70
   3  11   0  186.38   10.30
  -4 -11   0   52.29    6.60
   4  11   0   47.10    6.50
   6  11   0   -1.50    4.70
   3 -12   0   15.30    6.10
  -3  12   0    0.90    5.00
   2 -12   0    9.20    5.00
  -2  12   0   -2.20    4.30
   1 -12   0   24.70    5.30
  -1  12   0   35.00    5.10
   0 -12   0    5.60    4.20
   0  12   0   11.50    4.30
  -1 -12   0   23.00    4.60
   1  12   0   24.90    4.60
  -2 -12   0   48.50    6.60
   2  12   0   41.40    5.50
   2  12   0   57.79    6.30
  -3 -12   0   16.70    4.60
   3  12   0   14.40    4.40
  -4 -12   0    1.20    4.60
   4  12   0    3.80    4.50
   5  12   0   10.50    4.70
   2 -13   0  128.89   11.20
  -2  13   0  123.49   10.60
   1 -13   0   26.30    6.20
  -1  13   0   27.90    5.60
   0 -13   0   34.90    6.10
   0  13   0   54.19    6.30
   1  13   0  137.69   10.20
  -2 -13   0   43.80    6.40
  -3 -13   0  144.89   11.30
   3  13   0  158.18   10.60
   4  13   0   52.59    6.50
   1 -14   0    2.60    6.30
  -1  14   0    5.00    5.70
   0 -14   0   73.89    9.80
  -1 -14   0  142.09   11.60
  -2 -14   0   20.80    5.90
  -3 -14   0   -1.00    5.60
  -2 -14   1    7.90    6.10
  -1 -14   1    4.90    5.90
   0  14  -1    0.80    6.10
   0 -14   1   -1.30    6.20
   4  13  -1   14.90    5.30
  -4 -13   1   34.60    7.80
   2  13  -1   27.30    6.00
   1  13  -1   47.70    6.20
  -1 -13   1   45.40    6.40
   0  13  -1    2.50    5.00
   0 -13   1    3.20    5.20
   1 -13   1   25.10    6.00
  -2  13  -1    2.10    5.40
   2 -13   1   10.60    6.10
   5  12  -1   -2.50    4.60
   4  12  -1   68.79    8.30
  -4 -12   1   80.59    8.50
   3  12  -1    5.40    3.90
   3  12  -1    0.80    4.70
  -3 -12   1   -0.60    4.20
   2  12  -1    3.10    4.30
  -2 -12   1    6.90    4.40
   1  12  -1   70.09    7.60
  -1 -12   1   68.09    7.50
   0  12  -1   -6.10    4.20
   0 -12   1    0.20    4.20
  -1  12  -1  321.37   15.30
   1 -12   1  267.97   19.20
  -2  12  -1   80.69    8.50
   2 -12   1   74.69    9.00
  -3  12  -1   12.40    5.70
   3 -12   1   13.40    6.10
   6  11  -1    8.30    5.20
   5  11  -1   -2.30    4.60
   4  11  -1   72.39    7.20
  -4 -11   1   66.49    7.30
  -4 -11   1   62.89    7.90
   3  11  -1  167.68   10.10
   3  11  -1  135.89    8.90
  -3 -11   1  153.08    9.30
   2  11  -1   43.10    5.20
   2  11  -1   42.40    4.40
  -2 -11   1   42.00    5.90
   1  11  -1    6.90    3.90
  -1 -11   1   13.00    3.90
   0  11  -1  281.07   13.20
   0 -11   1  267.87   13.50
  -1  11  -1   25.50    4.50
   1 -11   1   21.80    4.60
  -2  11  -1    6.90    4.00
   2 -11   1   -5.10    4.00
   3 -11   1   48.80    6.70
  -4  11  -1    9.60    5.40
   4 -11   1   13.00    6.30
   6  10  -1    2.20    4.40
   5  10  -1   43.80    5.30
  -5 -10   1   48.20    7.30
   4  10  -1   17.20    3.70
  -4 -10   1   13.60    3.90
  -4 -10   1   13.30    4.40
   3  10  -1  238.38   11.30
  -3 -10   1  237.68   11.70
  -3 -10   1  243.98   11.70
   2  10  -1  202.78    9.60
   2  10  -1  213.88   10.50
  -2 -10   1  189.28   10.20
   1  10  -1   14.90    2.70
   1  10  -1   24.20    3.60
  -1 -10   1   15.40    3.50
   0  10  -1  480.95   19.20
   0 -10   1  443.46   19.20
  -1  10  -1  109.19    7.50
   1 -10   1   99.89    7.50
  -2  10  -1    2.40    3.60
   2 -10   1    1.80    3.60
  -3  10  -1  120.79    8.80
   3 -10   1  128.09    9.30
  -4  10  -1   76.39    8.70
   4 -10   1   90.79    9.40
  -5  10  -1   33.80    6.80
   5 -10   1   12.10    6.30
   7   9  -1    5.10    5.20
   6   9  -1   11.10    4.20
  -6  -9   1    4.50    4.90
   5   9  -1   71.89    6.50
  -5  -9   1   60.09    6.70
   4   9  -1   68.59    5.80
  -4  -9   1   74.79    6.50
  -4  -9   1   74.39    6.30
   3   9  -1  134.79    7.20
  -3  -9   1  123.89    7.60
  -3  -9   1  118.79    7.30
   2   9  -1  281.47   12.40
  -2  -9   1  303.27   12.90
   1   9  -1  832.92   31.00
  -1  -9   1  855.21   32.10
   0   9  -1    8.50    2.80
   0   9  -1    7.70    1.90
   0  -9   1    7.50    2.80
  -1   9  -1    5.30    2.90
   1  -9   1   13.70    3.00
  -2   9  -1    9.10    3.30
   2  -9   1    8.30    3.40
  -3   9  -1    2.60    3.50
   3  -9   1    5.20    3.60
  -4   9  -1   69.19    7.30
   4  -9   1   77.89    8.60
  -5   9  -1   60.59    9.00
   5  -9   1   51.29    7.10
   7   8  -1   48.50    6.20
  -7  -8   1   39.70    8.70
   6   8  -1   52.59    6.70
  -6  -8   1   60.39    7.50
   5   8  -1   53.49    5.60
  -5  -8   1   57.69    5.90
   4   8  -1  169.68    8.50
  -4  -8   1  167.08    8.50
  -4  -8   1  168.58    8.60
   3   8  -1   -4.40    1.90
  -3  -8   1    3.80    2.60
  -3  -8   1    2.90    2.30
   2   8  -1   71.89    4.70
  -2  -8   1   67.49    4.90
  -2  -8   1   78.99    5.20
   1   8  -1  720.53   27.40
   1   8  -1  754.02   26.70
  -1  -8   1  694.73   30.20
   0   8  -1   43.60    4.10
   0   8  -1   41.60    3.10
   0  -8   1   45.30    4.30
   1  -8   1   20.40    3.20
  -2   8  -1   36.40    4.80
   2  -8   1   25.20    3.60
  -3   8  -1    8.20    4.20
   3  -8   1    7.40    3.30
  -4   8  -1    2.20    3.40
   4  -8   1    4.00    4.00
   5  -8   1   24.50    5.40
  -6   8  -1   11.50    6.00
   6  -8   1    3.60    5.50
   7   7  -1   43.90    5.90
  -7  -7   1   33.40    6.20
   6   7  -1   35.10    4.70
  -6  -7   1   33.10    4.90
   5   7  -1   20.80    3.30
  -5  -7   1   16.60    3.70
   4   7  -1  129.09    7.00
  -4  -7   1  134.79    6.90
  -3  -7   1   62.99    4.70
  -3  -7   1   64.89    4.50
   2   7  -1  678.43   25.10
  -2  -7   1  672.83   25.30
  -2  -7   1  668.53   25.40
   1   7  -1   55.79    3.60
   1   7  -1   61.99    4.30
  -1  -7   1   59.59    4.10
   0   7  -1    9.70    1.50
   0   7  -1   11.50    2.10
   0  -7   1    8.80    2.00
  -1   7  -1   50.49    4.00
   1  -7   1   44.70    4.10
  -2   7  -1  131.39    7.20
   2  -7   1  123.69    6.90
  -3   7  -1   27.90    3.70
   3  -7   1   25.70    3.70
  -4   7  -1   17.10    3.90
   4  -7   1    7.20    3.40
  -5   7  -1    7.00    4.10
   5  -7   1   11.70    4.40
  -6   7  -1    8.70    5.50
   6  -7   1    2.30    5.20
   7   6  -1    4.00    4.20
  -7  -6   1    6.40    5.40
   6   6  -1    3.50    3.20
  -6  -6   1    4.00    3.80
   5   6  -1   34.20    4.60
  -5  -6   1   42.40    4.90
   4   6  -1   -0.30    1.80
  -4  -6   1    1.40    2.10
  -4  -6   1    6.60    2.40
   2   6  -1   24.50    2.60
  -2  -6   1   20.70    2.80
  -2  -6   1   28.00    3.00
   1   6  -1  867.41   31.10
  -1  -6   1  869.21   31.60
  -1  -6   1  840.12   31.50
   0   6  -1  455.25   17.20
   0   6  -1  487.55   18.10
   0  -6   1  470.75   18.10
  -1   6  -1   -0.80    1.50
   1  -6   1    1.30    1.60
  -2   6  -1   69.89    4.70
   2  -6   1   64.59    4.70
  -3   6  -1   11.30    2.70
   3  -6   1    6.00    2.50
  -4   6  -1  317.67   14.50
   4  -6   1  317.87   13.90
  -5   6  -1  252.57   13.00
   5  -6   1  243.78   12.10
  -6   6  -1   47.10    6.70
   6  -6   1   44.90    6.00
  -7   6  -1   42.00    7.50
   7   5  -1    5.80    5.80
  -7  -5   1    1.30    4.80
   6   5  -1    9.40    3.20
  -6  -5   1    7.40    3.90
   5   5  -1    3.70    2.30
  -5  -5   1    3.20    2.90
   4   5  -1  321.37   13.10
  -4  -5   1  321.27   13.20
  -4  -5   1  306.77   12.30
   3   5  -1  670.03   25.40
  -3  -5   1  670.23   25.50
  -3  -5   1  709.83   25.20
   2   5  -1  736.53   26.90
  -2  -5   1  716.53   27.00
  -2  -5   1  745.63   26.90
   1   5  -1   51.09    2.90
  -1  -5   1   51.49    3.20
  -1  -5   1   55.89    3.30
   0   5  -1  668.13   27.00
   0   5  -1  793.82   27.70
   0  -5   1  792.32   27.70
  -1   5  -1 1111.49   39.70
   1  -5   1 1065.69   39.60
  -2   5  -1   58.09    4.30
   2  -5   1   55.69    3.80
  -3   5  -1  212.18   12.50
   3  -5   1  195.18    9.10
  -4   5  -1   36.70    4.60
   4  -5   1   37.90    4.50
   4  -5   1   27.80    3.30
  -5   5  -1    3.50    3.40
   5  -5   1   -2.00    3.10
  -6   5  -1  205.58   12.10
   6  -5   1  197.28   11.10
  -7   5  -1   86.79   10.30
   8   4  -1   16.30    5.40
  -8  -4   1    8.70    6.00
   7   4  -1   17.30    4.30
  -7  -4   1   18.20    4.80
   6   4  -1   41.10    5.50
  -6  -4   1   60.29    6.20
   5   4  -1   47.40    4.50
  -5  -4   1   47.20    4.70
  -4  -4   1   28.50    3.50
  -4  -4   1   29.10    2.60
   3   4  -1  122.59    5.80
  -3  -4   1  118.69    5.80
  -3  -4   1  120.99    5.30
   2   4  -1 1281.67   46.50
  -2  -4   1 1277.67   46.70
  -2  -4   1 1338.37   46.50
   1   4  -1 1155.68   41.50
  -1  -4   1 1152.88   41.80
  -1  -4   1 1186.98   41.80
   0   4  -1 1505.05   55.99
   0   4  -1 1635.94   56.69
   0  -4   1 1620.54   56.69
  -1   4  -1 1019.60   36.00
   1  -4   1  955.50   35.80
  -2   4  -1  143.39    6.60
   2  -4   1  131.49    6.30
  -3   4  -1  692.43   26.40
   3  -4   1  694.83   26.00
   3  -4   1  689.83   24.90
  -4   4  -1  494.25   19.40
   4  -4   1  481.05   18.80
   4  -4   1  452.05   17.70
  -5   4  -1   96.69    7.10
   5  -4   1   96.49    5.70
   5  -4   1   97.39    6.60
  -6   4  -1  206.98   11.70
   6  -4   1  223.98   11.30
  -7   4  -1   59.99    8.90
   8   3  -1   66.09    9.00
  -8  -3   1   53.79    7.70
   7   3  -1    2.80    3.70
  -7  -3   1    3.70    4.30
   6   3  -1    6.40    2.90
  -6  -3   1    3.70    3.30
   5   3  -1  819.22   31.20
  -5  -3   1  833.12   31.40
   4   3  -1   58.79    4.20
  -4  -3   1   66.69    4.50
   3   3  -1   12.80    1.70
  -3  -3   1   12.90    2.10
   2   3  -1  807.32   30.10
  -2  -3   1  845.42   29.80
  -2  -3   1  843.62   30.20
   1   3  -1    9.00    1.30
  -1  -3   1    8.90    1.30
   0   3  -1    5.80    0.80
   0   3  -1    6.10    1.10
   0  -3   1    5.80    0.90
  -1   3  -1  120.29    5.30
   1  -3   1  122.19    5.20
  -2   3  -1 1890.81   68.39
   2  -3   1 1930.51   68.19
  -3   3  -1   34.60    3.40
   3  -3   1   29.90    2.90
   3  -3   1   32.00    2.30
  -4   3  -1    2.70    2.20
   4  -3   1   -1.80    1.80
   4  -3   1    1.80    1.50
  -5   3  -1   18.80    3.30
   5  -3   1   23.40    2.80
   5  -3   1   18.10    3.50
  -6   3  -1   19.50    4.30
   6  -3   1   19.90    3.50
   6  -3   1   23.00    3.90
  -7   3  -1   11.80    5.10
   8   2  -1   98.29    9.80
  -8  -2   1   98.49   10.60
   7   2  -1  281.47   13.60
  -7  -2   1  289.57   14.80
   6   2  -1  150.18    8.60
  -6  -2   1  158.88    9.10
   5   2  -1   31.70    3.90
  -5  -2   1   27.90    4.10
   4   2  -1   -0.10    1.50
  -4  -2   1   -1.00    1.10
  -4  -2   1   -1.20    1.60
   3   2  -1  163.58    7.10
  -3  -2   1  171.88    7.30
   2   2  -1 2234.58   79.79
  -2  -2   1 2270.17   79.89
  -1  -2   1 9999.00  347.27
  -1  -2   1 9780.92  347.07
   0   2  -1 1963.20   72.49
   0  -2   1 2125.79   72.89
   0  -2   1 2103.49   72.89
  -1   2  -1 1529.85   54.09
   1  -2   1 1505.35   53.89
  -2   2  -1  301.97   11.80
   2  -2   1  304.17   11.60
   2  -2   1  299.07   11.00
  -3   2  -1   45.30    3.30
   3  -2   1   43.40    3.10
   3  -2   1   43.40    2.60
  -4   2  -1   96.59    5.80
   4  -2   1   89.89    5.10
   4  -2   1   88.79    4.70
  -5   2  -1  616.14   24.10
   5  -2   1  606.54   22.90
   5  -2   1  598.74   23.20
  -6   2  -1   82.39    7.20
   6  -2   1   95.09    6.30
   6  -2   1   76.49    6.50
  -7   2  -1    7.90    7.40
  -8   2  -1   28.30    7.10
   8   1  -1    7.10    4.80
  -8  -1   1    6.90    5.80
   7   1  -1   80.29    7.00
  -7  -1   1   66.39    7.80
   6   1  -1  687.93   26.30
  -6  -1   1  664.03   27.00
   5   1  -1   23.90    3.00
  -5  -1   1   22.20    3.20
  -5  -1   1   17.70    2.40
  -5  -1   1   23.30    2.70
   4   1  -1   75.79    4.40
  -4  -1   1   79.09    3.50
  -4  -1   1   76.59    3.80
  -4  -1   1   74.99    4.90
   3   1  -1  388.76   15.30
  -3  -1   1  431.16   14.60
  -3  -1   1  410.76   15.60
  -3  -1   1  394.96   14.70
   2   1  -1    0.30    0.70
  -2  -1   1    0.60    0.50
  -2  -1   1    0.10    0.80
   1   1  -1  281.57   10.50
  -1  -1   1  290.87   10.60
   0  -1   1   43.70    1.90
   0  -1   1   44.70    1.90
  -1   1  -1 1235.28   46.00
   1  -1   1 1328.87   45.50
   1  -1   1 1318.27   45.90
  -2   1  -1    3.40    1.10
   2  -1   1    3.10    0.90
   2  -1   1    3.10    0.80
  -3   1  -1   66.89    3.90
   3  -1   1   65.49    3.60
   3  -1   1   67.49    3.40
  -4   1  -1    9.40    2.10
   4  -1   1    7.40    1.80
   4  -1   1    7.20    1.60
  -5   1  -1  140.79    7.70
   5  -1   1  133.19    6.70
   5  -1   1  128.09    6.90
  -6   1  -1    6.60    3.40
   6  -1   1    6.30    3.00
   6  -1   1    6.70    2.80
  -7   1  -1   23.10    5.20
   7  -1   1   15.50    3.90
  -8   1  -1    8.30    6.00
   8   0  -1   39.60    5.70
  -8   0   1   24.70    6.30
   7   0  -1   60.19    6.80
  -7   0   1   74.49    7.50
   6   0  -1  100.29    6.70
  -6   0   1  103.89    7.40
   5   0  -1   19.90    2.50
   5   0  -1   30.20    4.00
  -5   0   1   21.80    3.20
   4   0  -1   21.00    2.70
   4   0  -1   20.50    2.30
  -4   0   1   18.60    2.50
   3   0  -1  151.08    6.10
   3   0  -1  128.89    5.60
  -3   0   1  147.59    6.50
   2   0  -1 1091.59   39.80
  -2   0   1 1161.38   40.40
   1   0  -1   88.89    3.50
  -1   0   1   87.19    3.60
  -1   0  -1 1825.52   62.99
   1   0   1 1741.83   62.99
   1   0   1 1791.42   62.89
  -2   0  -1  366.36   13.70
  -3   0  -1  276.77   10.90
   3   0   1  266.47   10.50
   3   0   1  273.97   10.50
  -4   0  -1    5.00    1.90
   4   0   1    5.40    1.70
   4   0   1    4.80    1.60
  -5   0  -1    6.20    2.40
   5   0   1   11.30    2.30
   5   0   1    4.00    2.20
  -6   0  -1   38.20    5.50
   6   0   1   37.60    5.20
   6   0   1   33.80    4.80
  -7   0  -1    5.80    4.40
   7   0   1   -3.70    3.40
  -8   0  -1   29.70    6.70
   8   0   1   36.90    6.90
   8  -1  -1   46.50    6.10
  -8   1   1   52.09    7.80
   7  -1  -1  132.99    8.90
  -7   1   1  135.69    9.80
   6  -1  -1   41.30    4.30
  -6   1   1   50.29    5.90
   5  -1  -1   20.80    2.90
  -5   1   1   20.60    3.20
   4  -1  -1   60.59    4.00
   4  -1  -1   68.59    3.80
  -4   1   1   66.49    4.60
   3  -1  -1  133.49    5.90
   3  -1  -1  152.88    6.20
  -3   1   1  146.89    6.60
   2  -1  -1  402.16   15.10
  -2   1   1  432.26   15.60
   1  -1  -1 4304.47  149.79
  -1   1   1 4238.58  149.99
  -1   1   1 4247.88  149.79
  -1  -1  -1   49.80    2.10
   1   1   1   52.69    2.20
   1   1   1   50.99    2.20
  -2  -1  -1  292.57   11.20
   2   1   1  285.47   10.90
   2   1   1  304.77   11.00
  -3  -1  -1    5.00    1.40
   3   1   1    6.30    1.30
   3   1   1    6.10    1.20
  -4  -1  -1  307.27   12.70
   4   1   1  302.67   12.30
   4   1   1  321.77   12.20
  -5  -1  -1  306.47   12.90
   5   1   1  289.77   12.20
  -6  -1  -1  467.15   19.70
   6   1   1  474.35   18.90
  -7  -1  -1   28.80    5.00
   7   1   1   18.10    3.80
  -8  -1  -1   10.30    6.00
   8   1   1   11.70    4.70
   7  -2  -1   -3.80    3.80
  -7   2   1    4.40    5.60
   6  -2  -1   77.59    6.20
  -6   2   1   78.39    7.00
   5  -2  -1   44.20    4.20
  -5   2   1   44.20    5.00
   4  -2  -1    0.60    1.60
   4  -2  -1    1.70    1.60
  -4   2   1    2.70    2.00
   3  -2  -1   38.20    2.60
   3  -2  -1   40.80    2.70
  -3   2   1   40.50    3.30
   2  -2  -1    1.90    0.80
   2  -2  -1    2.40    0.90
  -2   2   1    3.90    1.20
   1  -2  -1   25.00    1.60
  -1   2   1   24.60    1.40
  -1   2   1   24.50    2.00
   0  -2  -1  358.66   13.10
   0   2   1  362.46   13.00
  -1  -2  -1 2284.77   80.29
  -1  -2  -1 2283.17   80.09
   1   2   1 2263.47   80.29
  -2  -2  -1  562.64   21.00
  -2  -2  -1  587.64   21.30
   2   2   1  595.04   21.10
  -3  -2  -1  167.48    7.20
  -3  -2  -1  167.88    6.60
   3   2   1  173.98    7.10
  -4  -2  -1  155.48    7.20
   4   2   1  149.88    6.90
  -5  -2  -1    8.10    1.70
  -5  -2  -1    8.60    2.10
   5   2   1    9.50    2.20
  -6  -2  -1   90.89    7.00
   6   2   1  110.39    6.60
  -7  -2  -1  139.39    9.60
   7   2   1  129.59    8.60
  -8  -2  -1   19.20    6.00
   8   2   1   29.00    5.30
   7  -3  -1   -2.40    4.30
  -7   3   1    2.20    4.80
   6  -3  -1   -2.00    3.00
  -6   3   1   -1.30    3.40
   5  -3  -1   75.29    5.30
   5  -3  -1   87.89    6.80
  -5   3   1   75.09    6.10
   4  -3  -1   14.70    2.30
   4  -3  -1   21.40    3.10
  -4   3   1   16.20    2.80
   3  -3  -1    0.90    1.30
   3  -3  -1    3.90    1.30
  -3   3   1    0.00    1.50
   2  -3  -1 2409.66   87.99
   2  -3  -1 2586.84   87.79
  -2   3   1 2453.65   88.29
   1  -3  -1  670.53   23.90
  -1   3   1  663.53   23.90
  -1   3   1  639.34   23.60
   0  -3  -1  115.39    4.70
   0   3   1  107.59    4.40
  -1  -3  -1 2434.56   83.59
  -1  -3  -1 2339.27   83.19
   1   3   1 2314.47   83.39
  -2  -3  -1  271.97   10.10
  -2  -3  -1  232.88   10.90
   2   3   1  295.97   10.30
  -3  -3  -1  451.45   17.10
  -3  -3  -1  477.35   17.40
   3   3   1  459.35   17.40
  -4  -3  -1  208.98    8.70
  -4  -3  -1  182.08    8.10
   4   3   1  202.08    8.60
  -5  -3  -1  382.76   16.30
   5   3   1  414.76   16.10
  -6  -3  -1   22.50    4.10
   6   3   1   32.60    3.80
  -7  -3  -1   80.99    8.10
   7   3   1   80.29    7.10
  -8  -3  -1   74.69   10.30
   8   3   1  110.79    9.70
  -7   4   1  116.59   10.30
   6  -4  -1   60.19    6.30
  -6   4   1   61.49    7.10
   5  -4  -1  113.09    6.40
   5  -4  -1  114.89    6.70
  -5   4   1   99.79    7.30
   4  -4  -1  129.99    6.30
   4  -4  -1  128.39    6.60
  -4   4   1  136.79    7.40
   3  -4  -1  272.17   11.00
  -3   4   1  268.27   11.40
   2  -4  -1  280.07   11.20
  -2   4   1  287.27   11.40
   1  -4  -1  382.26   14.90
  -1   4   1  407.56   14.90
   0  -4  -1  567.04   20.80
  -1  -4  -1  756.92   26.80
  -1  -4  -1  700.23   26.50
   1   4   1  763.32   26.70
  -2  -4  -1 1464.65   53.99
  -2  -4  -1 1576.54   54.19
   2   4   1 1514.95   54.19
  -3  -4  -1  638.14   23.50
  -3  -4  -1  640.14   23.60
   3   4   1  648.14   23.80
  -4  -4  -1    1.70    1.80
  -4  -4  -1    1.00    1.50
   4   4   1    1.90    1.50
  -5  -4  -1   65.19    5.20
   5   4   1   73.09    5.00
  -6  -4  -1   23.70    4.00
   6   4   1   22.00    3.40
  -7  -4  -1    1.60    4.30
   7   4   1   -3.00    3.40
  -8  -4  -1   36.70    6.70
  -7   5   1   59.49    8.80
  -6   5   1   60.19    7.50
   5  -5  -1    7.60    3.10
   5  -5  -1    7.50    2.70
  -5   5   1    2.10    3.20
   4  -5  -1    3.20    2.40
   4  -5  -1    2.50    2.10
  -4   5   1    2.90    2.40
   3  -5  -1 1487.35   51.09
   3  -5  -1 1411.16   51.79
  -3   5   1 1383.56   52.09
   2  -5  -1    2.20    1.50
  -2   5   1    0.30    1.50
  -2   5   1    1.20    1.10
   1  -5  -1  187.48    8.20
  -1   5   1  206.58    8.20
  -1   5   1  187.88    7.60
   0  -5  -1  516.05   19.20
   0   5   1  523.55   18.90
   0   5   1  494.35   18.60
  -1  -5  -1  168.08    6.90
  -1  -5  -1  174.38    7.30
   1   5   1  173.38    7.00
  -2  -5  -1   27.10    2.60
  -2  -5  -1   28.60    2.20
   2   5   1   29.80    2.40
  -3  -5  -1   50.89    3.40
  -3  -5  -1   54.39    3.40
   3   5   1   52.99    3.50
  -4  -5  -1  482.75   18.40
  -4  -5  -1  488.25   18.70
  -5  -5  -1   40.60    4.20
  -5  -5  -1   55.29    4.90
   5   5   1   51.29    4.50
  -6  -5  -1    7.50    3.40
   6   5   1    2.40    2.70
  -7  -5  -1    3.10    4.50
   7   5   1    2.40    3.70
  -8  -5  -1   14.30    6.10
   8   5   1   20.00    5.30
  -7   6   1   55.79    8.00
  -6   6   1  224.18   13.10
   5  -6  -1  202.88   10.20
  -5   6   1  178.38   10.50
   4  -6  -1  270.27   11.90
  -4   6   1  259.17   12.30
   3  -6  -1   50.79    4.70
   3  -6  -1   42.70    3.40
  -3   6   1   51.89    4.30
   2  -6  -1    4.80    2.00
  -2   6   1    9.50    2.10
  -2   6   1    8.20    1.50
   1  -6  -1  189.38    8.40
  -1   6   1  184.28    7.60
  -1   6   1  194.68    8.30
   0  -6  -1  794.92   29.50
   0   6   1  782.92   28.80
   0   6   1  811.12   29.10
  -1  -6  -1 1290.67   47.10
   1   6   1 1272.97   46.70
   1   6   1 1346.97   46.80
  -2  -6  -1  297.67   12.20
  -2  -6  -1  321.97   11.90
   2   6   1  299.37   12.00
  -3  -6  -1    9.60    1.90
  -3  -6  -1    4.30    1.70
   3   6   1    4.90    1.60
  -4  -6  -1    0.70    2.00
  -4  -6  -1   -0.70    1.90
   4   6   1    0.10    1.70
  -5  -6  -1    1.50    2.80
  -5  -6  -1    0.20    2.40
   5   6   1    4.20    2.30
  -6  -6  -1    1.50    3.60
   6   6   1   -0.40    2.70
  -7  -6  -1    8.70    5.00
   8   6   1    2.60    5.40
  -6   7   1    1.20    4.90
   5  -7  -1    3.30    4.00
  -5   7   1    0.10    3.70
   4  -7  -1  314.17   13.80
  -4   7   1  291.47   13.90
   3  -7  -1   14.40    2.10
   3  -7  -1   20.30    3.30
  -3   7   1   20.00    3.10
  -2   7   1   18.20    2.00
  -2   7   1   19.00    2.80
   1  -7  -1   51.79    4.10
  -1   7   1   46.30    3.20
  -1   7   1   52.19    3.90
   0  -7  -1   20.60    3.00
   0   7   1   21.10    2.70
   0   7   1   21.00    2.30
  -1  -7  -1   15.80    2.20
   1   7   1    8.90    1.60
   1   7   1    9.20    1.60
  -2  -7  -1  285.07   12.10
  -2  -7  -1  304.87   11.80
   2   7   1  299.97   11.90
  -3  -7  -1    6.00    2.10
  -3  -7  -1    4.50    2.00
   3   7   1    3.70    1.80
  -4  -7  -1    8.90    2.60
  -4  -7  -1   13.30    2.50
   4   7   1    6.50    2.20
  -5  -7  -1   62.49    5.10
   5   7   1   59.19    5.00
  -6  -7  -1    6.70    3.80
   6   7   1    3.90    3.00
  -7  -7  -1   47.00    6.30
   7   7   1   36.90    5.40
  -6   8   1   -1.70    5.40
   5  -8  -1  190.38   11.30
  -5   8   1  179.28   11.40
   4  -8  -1   91.39    7.60
  -4   8   1   84.19    7.20
   3  -8  -1    3.80    2.90
  -3   8   1    1.00    2.70
   2  -8  -1    1.70    2.40
  -2   8   1   -1.30    2.30
  -2   8   1   -0.50    1.70
   1  -8  -1   30.30    3.90
  -1   8   1   25.00    3.10
  -1   8   1   21.60    2.30
   0   8   1   13.40    1.90
   0   8   1   12.40    2.30
  -1  -8  -1   96.39    5.60
   1   8   1   92.69    5.00
   1   8   1   94.69    5.00
  -2  -8  -1   95.09    5.90
   2   8   1  106.79    5.60
  -3  -8  -1    1.00    2.30
  -3  -8  -1   -1.10    2.30
   3   8   1    0.10    1.80
  -4  -8  -1  112.49    8.30
  -4  -8  -1  123.59    6.90
   4   8   1  120.79    6.80
  -5  -8  -1  207.68   10.00
  -5  -8  -1  215.48   10.00
   5   8   1  198.48   10.20
  -6  -8  -1   89.09    7.80
   6   8   1   94.39    7.30
   7   8   1   20.10    4.80
   5  -9  -1   -1.20    5.30
  -5   9   1    5.40    4.80
   4  -9  -1   86.39    8.40
  -4   9   1   73.49    7.00
   3  -9  -1   15.10    3.90
  -3   9   1   19.50    3.60
   2  -9  -1    4.30    2.90
  -2   9   1    2.40    2.60
   1  -9  -1    3.40    2.50
  -1   9   1    1.90    1.90
  -1   9   1    6.10    3.30
   0  -9  -1   12.60    2.80
   0   9   1   18.30    2.90
   0   9   1   13.60    2.10
  -1  -9  -1  985.20   36.50
   1   9   1  997.50   35.90
   1   9   1  929.71   35.50
  -2  -9  -1   85.69    5.80
   2   9   1   91.69    5.50
   2   9   1   86.79    5.80
  -3  -9  -1   68.09    5.50
  -3  -9  -1   73.49    5.50
   3   9   1   69.09    5.40
  -4  -9  -1  194.78    9.50
  -4  -9  -1  182.88    9.60
   4   9   1  192.38    9.60
  -5  -9  -1   18.20    4.00
  -5  -9  -1   19.80    4.10
   5   9   1   14.00    3.40
   7   9   1  114.49   10.50
   5 -10  -1    0.00    5.50
  -5  10   1    5.60    5.30
   4 -10  -1   32.80    5.80
  -4  10   1   30.90    5.50
   3 -10  -1   13.50    4.40
  -3  10   1    7.10    3.80
   2 -10  -1   63.09    6.50
  -2  10   1   57.59    5.80
   1 -10  -1   18.90    3.70
  -1  10   1   30.00    4.00
   0 -10  -1   38.80    4.90
   0  10   1   24.00    2.90
  -1 -10  -1    3.60    2.70
   1  10   1    1.30    2.40
   1  10   1    3.30    2.10
  -2 -10  -1   20.80    3.70
   2  10   1   28.50    4.10
   2  10   1   19.10    3.00
  -3 -10  -1   60.39    5.90
   3  10   1   60.89    5.40
  -4 -10  -1   99.49    7.20
   4  10   1  100.89    7.30
  -5 -10  -1  123.29    8.60
   5  10   1  135.79    8.70
   6  10   1   60.89    7.90
   4 -11  -1   69.19    9.80
  -4  11   1   63.89    8.80
   3 -11  -1  127.89   10.40
  -3  11   1  134.19    9.30
   2 -11  -1   50.99    6.10
  -2  11   1   56.39    6.40
   1 -11  -1    1.90    3.60
  -1  11   1    6.30    3.30
   0 -11  -1  292.57   13.80
   0  11   1  290.97   13.20
  -1 -11  -1   13.00    3.50
   1  11   1   14.20    3.30
   1  11   1    9.30    2.80
  -2 -11  -1  128.39    8.10
   2  11   1  117.09    8.50
   2  11   1  143.59    7.70
  -3 -11  -1  434.56   19.20
   3  11   1  481.15   18.80
   3  11   1  456.75   18.90
  -4 -11  -1   63.59    7.00
   4  11   1   76.89    7.00
  -5 -11  -1   55.59    6.20
   5  11   1   45.60    6.00
   6  11   1    2.40    4.80
   3 -12  -1   61.69    9.40
  -3  12   1   55.49    7.80
   2 -12  -1   51.59    8.90
  -2  12   1   51.59    7.30
   1 -12  -1  135.29   10.00
  -1  12   1  147.39    8.80
   0 -12  -1   18.30    4.40
   0  12   1   11.10    4.10
  -1 -12  -1    4.80    3.80
   1  12   1    0.10    4.00
  -2 -12  -1    4.80    3.90
   2  12   1    1.30    3.30
  -3 -12  -1   20.70    4.40
   3  12   1   18.00    4.10
  -4 -12  -1   84.29    8.10
   4  12   1  106.09    8.30
  -5 -12  -1   54.39    8.50
   5  12   1   85.49    9.00
   2 -13  -1    5.20    5.70
   1 -13  -1  158.78   11.40
  -1  13   1  174.58   10.80
   0 -13  -1   -6.10    5.00
   0  13   1   -2.40    4.80
  -1 -13  -1    5.30    5.00
  -2 -13  -1   91.99    8.40
  -3 -13  -1    9.40    5.10
   3  13   1   21.40    4.90
   4  13   1   21.90    6.40
   5  13   1   -1.80    4.50
   1 -14  -1   -2.10    5.90
   0 -14  -1    8.60    5.70
  -1 -14  -1   17.90    5.90
  -2 -14  -1   -6.10    5.10
  -3 -14  -1    1.20    5.60
   1  14  -2  140.69   12.50
  -1 -14   2  141.19   12.50
  -3 -13   2   -4.20    5.50
   2  13  -2   75.19    9.60
  -2 -13   2   67.99    9.20
   1  13  -2  131.79   10.60
  -1 -13   2  128.69   10.90
   0  13  -2   88.39   10.30
   0 -13   2   78.69   10.20
  -1  13  -2   -3.30    5.50
   1 -13   2    9.70    5.80
  -2  13  -2   45.20    7.30
   2 -13   2   50.89    7.90
   5  12  -2    0.10    4.30
   4  12  -2   -7.40    4.40
   3  12  -2   68.49    8.40
   3  12  -2   72.49    9.20
  -3 -12   2   83.79    8.50
   2  12  -2   42.80    5.60
  -2 -12   2   43.60    6.00
   1  12  -2  164.18   10.50
  -1 -12   2  149.88   10.20
   0  12  -2  114.89    9.30
   0 -12   2   95.59    9.10
  -1  12  -2    5.30    4.80
   1 -12   2   -2.90    4.70
  -2  12  -2   12.10    5.30
   2 -12   2    4.10    5.30
  -3  12  -2    8.00    5.50
   3 -12   2    8.00    6.30
   5  11  -2    2.70    4.30
  -5 -11   2    3.80    6.10
   4  11  -2   19.80    4.30
  -4 -11   2   10.40    5.20
  -4 -11   2   17.60    5.10
   3  11  -2  323.17   14.50
   3  11  -2  313.47   15.20
  -3 -11   2  313.77   14.80
   2  11  -2  215.18   11.80
   2  11  -2  227.98   10.70
  -2 -11   2  212.18   11.60
   1  11  -2   58.09    6.50
  -1 -11   2   50.29    6.70
   0  11  -2  110.89    8.20
   0 -11   2  116.29    8.50
  -1  11  -2    6.00    4.10
   1 -11   2   12.70    4.30
  -2  11  -2    0.40    4.50
   2 -11   2    1.80    4.50
  -3  11  -2   -3.40    4.60
   3 -11   2   12.00    5.40
  -4  11  -2   61.89    9.60
   4 -11   2   54.49    7.80
   6  10  -2   10.30    4.80
  -6 -10   2    3.10    9.90
   5  10  -2   27.30    4.70
  -5 -10   2   35.30    5.60
   4  10  -2    9.50    3.50
  -4 -10   2   12.20    4.40
  -4 -10   2   10.20    4.10
   3  10  -2    6.70    3.10
  -3 -10   2   -0.20    3.40
  -3 -10   2    3.30    3.90
   2  10  -2  262.27   11.60
   2  10  -2  258.67   12.80
  -2 -10   2  250.77   12.30
   1  10  -2   40.20    5.30
   1  10  -2   35.20    4.80
  -1 -10   2   44.30    5.40
   0  10  -2   26.60    4.30
   0 -10   2   27.20    4.20
  -1  10  -2   56.19    6.30
   1 -10   2   44.40    5.20
  -2  10  -2  141.59    9.10
   2 -10   2  119.29    8.80
  -3  10  -2   50.79    7.20
   3 -10   2   61.79    7.70
  -4  10  -2   -4.00    4.60
   4 -10   2    2.00    5.30
   6   9  -2   23.90    4.90
  -6  -9   2   21.60    5.70
   5   9  -2   -4.10    3.20
  -5  -9   2    3.40    4.20
   4   9  -2   85.29    6.50
  -4  -9   2   88.99    6.90
  -4  -9   2   90.99    6.70
   3   9  -2   77.59    5.80
  -3  -9   2   86.09    6.20
  -3  -9   2   76.09    6.20
   2   9  -2  183.48    9.00
  -2  -9   2  186.78    9.30
  -2  -9   2  183.98    9.40
   1   9  -2  185.08    9.40
   1   9  -2  175.98    8.20
  -1  -9   2  192.28    9.50
   0   9  -2   75.19    6.00
   0  -9   2   74.69    5.70
  -1   9  -2   93.39    6.80
   1  -9   2   87.39    6.60
  -2   9  -2   55.39    6.30
   2  -9   2   60.49    6.00
  -3   9  -2   12.70    4.10
   3  -9   2   10.60    4.00
  -4   9  -2    5.00    4.60
   4  -9   2    1.20    4.60
  -5   9  -2   -1.30    5.20
   5  -9   2   -0.50    5.50
   7   8  -2   27.60    5.90
  -7  -8   2    6.20    5.60
  -6  -8   2   67.89    7.50
   5   8  -2   21.20    3.60
  -5  -8   2   24.20    4.40
   4   8  -2    5.40    2.70
  -4  -8   2    3.10    3.00
  -4  -8   2    2.80    2.70
   3   8  -2    0.00    2.10
  -3  -8   2   -2.60    2.40
  -3  -8   2    2.30    2.70
   2   8  -2  368.26   14.40
  -2  -8   2  346.37   16.80
  -2  -8   2  360.16   14.90
   1   8  -2  127.89    6.30
   1   8  -2  139.19    7.50
  -1  -8   2  133.49    7.30
   0   8  -2   37.80    2.90
   0   8  -2   36.60    4.80
   0  -8   2   39.50    4.40
  -1   8  -2  296.47   12.80
   1  -8   2  281.27   12.70
  -2   8  -2  145.49    8.50
   2  -8   2  153.68    8.40
  -3   8  -2  138.09    8.70
   3  -8   2  139.59    8.50
  -4   8  -2  244.78   13.00
   4  -8   2  246.88   12.70
  -5   8  -2   61.79    8.50
   5  -8   2   65.39    8.70
  -6   8  -2    7.10    6.30
   6  -8   2   -0.50    5.10
   7   7  -2  123.89   10.20
  -7  -7   2  105.99   11.30
   6   7  -2   82.29    7.30
  -6  -7   2   83.09    7.80
   5   7  -2   25.50    3.90
  -5  -7   2   23.30    4.10
   4   7  -2   32.10    4.20
  -4  -7   2   27.30    4.00
  -4  -7   2   28.10    4.30
   3   7  -2  403.26   17.70
  -3  -7   2  452.05   16.90
  -3  -7   2  428.86   17.20
   2   7  -2  360.66   14.00
  -2  -7   2  358.56   14.30
  -2  -7   2  343.27   14.50
   1   7  -2  514.95   19.20
  -1  -7   2  514.85   20.00
  -1  -7   2  509.75   19.90
   0   7  -2  515.35   19.70
   0   7  -2  499.65   18.40
   0  -7   2  494.05   19.60
  -1   7  -2  524.45   20.60
   1  -7   2  510.05   20.50
  -2   7  -2    3.50    2.40
   2  -7   2    2.00    2.40
  -3   7  -2   13.00    3.10
   3  -7   2   11.60    3.00
  -4   7  -2   20.10    4.30
   4  -7   2   23.60    4.10
  -5   7  -2  201.58   11.80
   5  -7   2  190.78   11.30
  -6   7  -2  124.79   10.90
   6  -7   2   82.09   12.80
   7   6  -2  233.38   13.20
  -7  -6   2  231.38   15.00
   6   6  -2  149.19    9.30
  -6  -6   2  156.28    9.70
   5   6  -2   26.90    3.80
  -5  -6   2   34.50    4.20
   4   6  -2   12.20    2.40
  -4  -6   2   12.10    2.60
  -4  -6   2   14.90    2.30
   3   6  -2  448.26   17.90
  -3  -6   2  461.25   18.30
  -3  -6   2  481.85   17.70
   2   6  -2  232.98    9.50
  -2  -6   2  219.78    9.80
  -2  -6   2  232.48    9.50
   1   6  -2  635.24   22.80
  -1  -6   2  608.64   23.30
  -1  -6   2  618.34   23.40
   0   6  -2 1121.49   40.90
   0   6  -2 1075.59   39.70
   0  -6   2 1149.39   40.80
  -1   6  -2   80.79    5.00
   1  -6   2   76.29    4.80
  -2   6  -2   90.89    6.70
  -3   6  -2  247.58   11.40
   3  -6   2  243.58   11.10
  -4   6  -2  140.79    8.60
   4  -6   2  140.99    8.20
  -5   6  -2   49.10    6.00
   5  -6   2   55.09    6.30
  -6   6  -2   82.39    8.90
   6  -6   2   60.49    8.30
   7   5  -2   75.29    8.20
  -7  -5   2   60.39    8.70
   6   5  -2  153.18    9.00
  -6  -5   2  152.98    9.40
   5   5  -2   21.50    3.20
  -5  -5   2   27.00    3.70
   4   5  -2   37.10    3.80
  -4  -5   2   35.80    3.30
   3   5  -2  571.74   21.80
  -3  -5   2  563.94   22.00
  -3  -5   2  599.44   21.40
   2   5  -2   28.40    2.70
  -2  -5   2   32.60    2.90
  -2  -5   2   32.10    2.60
   1   5  -2   49.99    2.90
  -1  -5   2   52.89    3.30
  -1  -5   2   51.39    3.30
   0   5  -2 1012.10   38.60
   0   5  -2 1139.59   39.80
   0  -5   2 1114.09   39.50
  -1   5  -2  206.48    9.10
   1  -5   2  210.68    9.00
  -2   5  -2   31.80    3.40
   2  -5   2   29.00    3.20
  -3   5  -2  217.88   10.30
  -4   5  -2   -3.10    2.80
   4  -5   2    0.30    2.60
  -5   5  -2    2.10    3.10
   5  -5   2    2.40    3.40
  -6   5  -2   12.00    4.50
   6  -5   2    7.30    4.50
  -7   5  -2   81.59   10.60
  -8  -4   2  126.29   11.80
  -7  -4   2  138.79   10.60
   6   4  -2   21.40    3.70
  -6  -4   2   20.30    4.10
   5   4  -2    9.20    2.70
  -5  -4   2    9.70    2.80
   4   4  -2  269.67   11.30
  -4  -4   2  266.97   11.60
  -4  -4   2  261.47   10.20
   3   4  -2  239.58   10.10
  -3  -4   2  241.38   10.30
  -3  -4   2  254.77    9.50
   2   4  -2  974.90   35.40
  -2  -4   2  985.60   35.20
  -2  -4   2  975.80   35.60
   1   4  -2 1495.15   53.19
  -1  -4   2 1494.75   53.69
  -1  -4   2 1500.65   53.39
   0   4  -2   17.30    1.40
   0   4  -2   23.00    2.20
   0  -4   2   20.50    2.00
  -1   4  -2   11.20    1.80
   1  -4   2    8.30    1.50
  -2   4  -2    0.50    1.60
   2  -4   2   -0.20    1.30
  -3   4  -2  106.79    6.00
   3  -4   2  108.09    5.80
  -4   4  -2   74.59    5.80
   4  -4   2   78.69    5.90
   4  -4   2   80.29    4.20
  -5   4  -2   27.90    4.40
   5  -4   2   30.80    4.00
  -6   4  -2    5.30    4.20
   6  -4   2    1.10    3.80
  -7   4  -2   27.90    6.20
   8   3  -2  145.59   10.90
  -8  -3   2  102.39   11.30
   7   3  -2  153.58    9.90
  -7  -3   2  174.18   11.00
   6   3  -2   -0.40    2.90
  -6  -3   2    0.40    3.10
   5   3  -2   70.09    5.30
  -5  -3   2   72.59    5.30
   4   3  -2  177.78    9.60
  -4  -3   2  176.28    8.40
   3   3  -2   14.60    1.90
  -3  -3   2   12.90    1.70
  -3  -3   2   14.90    2.10
   2   3  -2  302.97   11.50
  -2  -3   2  290.47   11.70
  -2  -3   2  301.17   11.10
   1   3  -2 1074.89   39.20
  -1  -3   2 1148.29   39.30
  -1  -3   2 1080.59   39.50
   0   3  -2   41.80    2.00
   0  -3   2   46.90    2.50
   0  -3   2   47.40    2.60
  -1   3  -2   33.00    2.50
   1  -3   2   29.90    2.30
  -2   3  -2 1086.29   39.00
   2  -3   2 1050.69   38.80
  -3   3  -2  118.19    6.10
   3  -3   2  115.59    5.90
  -4   3  -2   10.70    2.50
   4  -3   2    8.70    2.30
   4  -3   2    9.90    1.70
  -5   3  -2   54.69    5.70
   5  -3   2   59.79    5.20
   5  -3   2   53.79    4.40
  -6   3  -2    2.50    3.50
   6  -3   2    0.20    3.40
  -7   3  -2   62.49    8.60
   8   2  -2   33.80    5.90
  -8  -2   2   31.40    6.60
   7   2  -2   33.50    5.00
  -7  -2   2   43.30    5.80
   6   2  -2   18.40    3.60
  -6  -2   2   22.90    3.90
   5   2  -2   87.99    5.60
  -5  -2   2   89.89    5.90
   4   2  -2   14.40    2.10
  -4  -2   2   14.50    2.30
   3   2  -2   29.80    2.60
  -3  -2   2   26.20    2.80
   2   2  -2  330.07   12.80
  -2  -2   2  348.87   12.20
  -2  -2   2  334.27   13.00
   1   2  -2   18.60    1.50
  -1  -2   2   20.50    1.70
  -1  -2   2   21.50    1.40
   0  -2   2   27.10    1.80
   0  -2   2   25.50    1.90
  -1   2  -2 1080.59   38.20
   1  -2   2 1041.40   38.00
  -2   2  -2  243.78    9.90
   2  -2   2  247.68    8.90
   2  -2   2  235.28    9.60
  -3   2  -2  154.68    7.30
   3  -2   2  159.18    6.30
   3  -2   2  151.88    6.90
  -4   2  -2   30.40    3.80
   4  -2   2   23.80    3.20
   4  -2   2   27.30    2.80
  -5   2  -2    3.60    2.70
   5  -2   2    8.10    2.20
   5  -2   2    3.20    2.50
  -6   2  -2   40.60    5.10
   6  -2   2   39.00    5.40
   6  -2   2   42.90    5.80
   8   1  -2   18.80    5.40
  -8  -1   2   12.50    6.30
   7   1  -2    1.20    3.90
  -7  -1   2    4.90    4.50
   6   1  -2   32.60    4.10
  -6  -1   2   31.60    4.50
   5   1  -2    6.80    2.20
  -5  -1   2    3.90    2.60
   4   1  -2   30.60    3.10
  -4  -1   2   33.80    3.30
   3   1  -2    4.60    1.30
  -3  -1   2    5.50    1.50
   2   1  -2   34.40    2.30
  -2  -1   2   36.20    2.40
   1   1  -2  209.68    7.70
  -1  -1   2  198.18    8.30
  -1  -1   2  215.78    7.50
   0   1  -2   69.59    2.90
   0  -1   2   79.19    3.30
   0  -1   2   79.89    3.20
   1  -1   2 2742.93   97.19
  -2   1  -2  768.82   28.30
   2  -1   2  755.42   28.10
   2  -1   2  801.62   27.60
  -3   1  -2  137.79    6.50
   3  -1   2  143.09    6.20
   3  -1   2  138.09    5.80
  -4   1  -2  507.55   20.10
   4  -1   2  517.15   19.20
   4  -1   2  520.55   19.70
  -5   1  -2   64.09    5.50
   5  -1   2   70.09    5.10
   5  -1   2   68.19    4.60
  -6   1  -2   86.19    7.00
   6  -1   2   86.89    6.30
   6  -1   2   88.89    6.70
  -7   1  -2   53.99    7.70
   7  -1   2   52.19    6.70
  -8   1  -2   76.29   10.50
   8   0  -2    5.90    5.10
  -8   0   2   -1.80    5.80
   7   0  -2  331.87   15.30
  -7   0   2  322.27   15.90
   6   0  -2    7.00    3.10
  -6   0   2    6.20    3.40
   5   0  -2   81.09    5.50
  -5   0   2   81.99    5.80
   4   0  -2   81.99    4.70
  -4   0   2   77.49    4.90
   3   0  -2   42.40    3.00
  -3   0   2   43.00    3.20
   2   0  -2  481.05   17.70
  -2   0   2  479.05   17.90
   1   0  -2 1557.04   58.59
  -1   0   2 1757.12   58.79
   1   0   2  359.26   12.70
   1   0   2  345.77   12.90
  -2   0  -2   47.50    2.60
   2   0   2   45.40    2.50
   2   0   2   42.30    2.50
  -3   0  -2  126.79    5.90
   3   0   2  130.99    5.40
   3   0   2  124.99    5.60
  -4   0  -2   21.70    3.20
   4   0   2   21.90    3.00
   4   0   2   21.70    2.30
  -5   0  -2  283.57   12.40
   5   0   2  279.07   11.90
   5   0   2  278.97   11.60
  -6   0  -2  335.37   14.90
   6   0   2  327.07   14.00
   6   0   2  310.17   13.70
  -7   0  -2  140.59    9.90
   7   0   2  138.09    8.60
  -8   0  -2    9.90    6.10
  -8   1   2    4.30    5.80
   7  -1  -2   32.70    4.90
   6  -1  -2   80.89    6.40
  -6   1   2   68.99    6.40
   5  -1  -2  242.98   10.70
  -5   1   2  244.58   11.40
   4  -1  -2  106.99    5.50
   4  -1  -2  103.29    4.70
  -4   1   2   99.89    5.70
   3  -1  -2   33.10    2.60
   3  -1  -2   27.90    2.00
  -3   1   2   31.80    2.90
   2  -1  -2    1.40    0.80
   2  -1  -2    2.50    0.60
  -2   1   2    1.80    1.00
   1  -1  -2  385.76   14.80
  -1   1   2  418.06   15.40
  -1   1   2  443.96   15.20
   0  -1  -2 3779.52  137.29
   0  -1  -2 4073.19  137.19
   0   1   2 3870.01  137.29
   1   1   2 2060.59   73.99
   1   1   2 2133.49   73.89
   2   1   2  284.77   10.50
   2   1   2  276.27   10.60
  -3  -1  -2  575.24   20.80
   3   1   2  554.54   20.50
   3   1   2  542.05   20.60
  -4  -1  -2    3.10    1.90
   4   1   2    1.20    1.50
   4   1   2    4.70    1.60
  -5  -1  -2   59.89    6.00
   5   1   2   64.79    4.60
   5   1   2   67.39    4.80
  -6  -1  -2   60.09    6.00
   6   1   2   56.89    5.40
   6   1   2   58.09    5.80
  -7  -1  -2   42.00    5.90
   7   1   2   47.40    6.10
  -8  -1  -2    2.40    5.60
   8   1   2   -6.30    6.60
   7  -2  -2   12.20    4.30
  -7   2   2   15.00    4.90
   6  -2  -2  220.78   10.70
  -6   2   2  211.08   11.30
   5  -2  -2  432.56   16.80
   5  -2  -2  414.96   16.70
  -5   2   2  403.56   17.40
   4  -2  -2   53.19    3.60
   4  -2  -2   59.79    4.20
   3  -2  -2  123.59    5.40
   3  -2  -2  133.19    5.80
  -3   2   2  124.69    6.10
   2  -2  -2   75.09    3.70
   2  -2  -2   76.69    3.50
  -2   2   2   86.49    4.10
   1  -2  -2 5255.17  179.38
  -1   2   2 4949.30  179.58
   0  -2  -2 2141.49   77.09
   0   2   2 2215.38   77.09
   0   2   2 2202.68   76.89
  -1  -2  -2  776.32   30.00
  -1  -2  -2  855.41   30.50
  -1  -2  -2  897.01   30.30
   1   2   2  829.82   30.60
   1   2   2  904.91   30.10
  -2  -2  -2  581.74   21.90
   2   2   2  623.84   22.10
   2   2   2  614.44   22.00
  -3  -2  -2   99.89    4.60
   3   2   2   93.89    4.60
   3   2   2   97.59    4.60
  -4  -2  -2    5.80    1.90
   4   2   2    9.00    1.90
   4   2   2    5.90    1.60
  -5  -2  -2  117.19    6.80
   5   2   2  127.39    6.50
   5   2   2  124.19    7.40
  -6  -2  -2  245.18    9.80
  -6  -2  -2  234.28   10.50
  -6  -2  -2  224.38   11.40
   6   2   2  228.98   10.70
  -7  -2  -2    3.60    4.40
   7   2   2    0.60    3.20
  -8  -2  -2   -4.00    5.40
   8   2   2    0.70    4.50
   7  -3  -2   42.80    5.40
  -7   3   2   44.40    6.60
   6  -3  -2   20.70    3.90
  -6   3   2   25.30    4.40
   5  -3  -2   19.60    3.00
   5  -3  -2   14.00    2.70
  -5   3   2   10.90    3.10
   4  -3  -2  157.68    7.50
   4  -3  -2  158.58    7.30
  -4   3   2  172.48    8.30
   3  -3  -2  246.88   10.20
   3  -3  -2  261.07   10.10
  -3   3   2  257.67   10.70
   2  -3  -2    3.90    1.20
  -2   3   2    5.20    1.30
   1  -3  -2  274.17   10.40
  -1   3   2  277.57   10.40
  -1   3   2  268.67   10.30
   0  -3  -2  175.58    6.80
   0   3   2  168.58    6.40
  -1  -3  -2  336.07   13.00
  -1  -3  -2  367.56   13.50
   1   3   2  374.06   13.00
   1   3   2  383.56   13.50
  -2  -3  -2  358.56   13.70
  -2  -3  -2  389.26   14.10
   2   3   2  377.76   14.00
  -3  -3  -2  121.59    5.10
  -3  -3  -2  124.49    5.50
  -3  -3  -2  123.99    5.50
   3   3   2  127.19    5.60
  -4  -3  -2  101.69    5.40
  -4  -3  -2  104.89    5.20
  -4  -3  -2   99.49    4.60
   4   3   2  100.79    5.20
  -5  -3  -2   45.40    4.10
  -5  -3  -2   48.30    4.50
  -5  -3  -2   51.09    3.30
   5   3   2   46.00    4.10
  -6  -3  -2  141.79    8.40
  -6  -3  -2  136.19    7.40
  -6  -3  -2  126.99    6.60
   6   3   2  140.29    7.80
  -7  -3  -2   56.49    7.70
   7   3   2   53.49    6.70
  -8  -3  -2   18.10    6.20
   8   3   2   25.90    5.00
  -7   4   2  154.08   11.00
   6  -4  -2  218.38   10.90
  -6   4   2  220.88   11.90
   5  -4  -2   46.30    4.90
   5  -4  -2   43.60    4.80
  -5   4   2   38.10    4.90
   4  -4  -2   15.00    2.40
   4  -4  -2   10.90    2.30
  -4   4   2   15.80    2.80
   3  -4  -2   55.79    3.50
   3  -4  -2   59.99    3.80
  -3   4   2   53.29    4.10
   2  -4  -2 1441.46   51.99
  -2   4   2 1464.05   52.29
  -2   4   2 1444.86   51.79
   1  -4  -2  859.51   31.10
  -1   4   2  852.81   30.80
  -1   4   2  857.41   31.00
   0  -4  -2  396.56   14.70
   0   4   2  377.86   14.40
   0   4   2  397.16   14.30
  -1  -4  -2  736.93   26.60
   1   4   2  724.03   26.40
  -2  -4  -2  467.55   17.60
  -2  -4  -2  490.35   18.10
   2   4   2  504.75   18.10
  -3  -4  -2  179.38    7.70
  -3  -4  -2  193.18    7.60
   3   4   2  188.38    7.90
  -4  -4  -2    0.40    1.50
  -4  -4  -2   -1.40    1.70
   4   4   2    1.70    1.40
  -5  -4  -2   99.39    5.50
  -5  -4  -2   93.69    5.80
   5   4   2   89.29    5.70
  -6  -4  -2   27.10    4.10
   6   4   2   29.10    3.70
  -7  -4  -2   32.60    5.50
   7   4   2   31.30    4.40
  -8  -4  -2    2.60    6.00
   8   4   2   14.60    4.70
  -7   5   2   37.50    6.40
   6  -5  -2    6.40    4.80
  -6   5   2    2.50    4.00
   5  -5  -2    4.10    2.90
  -5   5   2    4.80    3.10
   4  -5  -2   21.90    2.90
   4  -5  -2   17.60    2.80
  -4   5   2   17.10    3.00
   3  -5  -2   12.00    2.30
   3  -5  -2    9.40    1.70
  -3   5   2   11.10    2.40
   2  -5  -2  146.89    6.60
  -2   5   2  139.99    6.10
  -2   5   2  139.69    6.70
   1  -5  -2    3.30    1.40
  -1   5   2    4.50    1.30
  -1   5   2    2.40    1.10
   0  -5  -2  603.34   22.00
   0   5   2  573.54   21.50
   0   5   2  596.94   21.60
  -1  -5  -2  489.75   18.60
   1   5   2  515.55   18.40
   1   5   2  487.75   18.00
  -2  -5  -2  347.47   13.50
  -2  -5  -2  370.46   14.00
   2   5   2  372.66   13.90
  -3  -5  -2    2.60    1.50
  -3  -5  -2   -0.30    1.40
   3   5   2    2.20    1.20
  -4  -5  -2   52.89    3.80
  -4  -5  -2   52.89    3.90
  -5  -5  -2  153.68    7.80
   5   5   2  152.98    7.80
  -6  -5  -2  214.28   10.70
   6   5   2  214.38   10.50
  -7  -5  -2  287.27   14.60
   7   5   2  307.27   14.30
  -8  -5  -2   42.90    9.60
   8   5   2   47.50    6.30
  -7   6   2   -3.80    5.50
  -6   6   2    7.30    4.70
   5  -6  -2   43.00    5.60
   5  -6  -2   33.40    4.40
  -5   6   2   23.40    4.30
   4  -6  -2   61.79    5.50
   4  -6  -2   74.29    5.20
  -4   6   2   62.49    5.40
   3  -6  -2   88.79    5.80
   3  -6  -2  104.19    5.10
  -3   6   2  101.59    6.00
   2  -6  -2   98.39    5.50
  -2   6   2   92.59    5.30
  -2   6   2   98.09    4.80
   1  -6  -2  169.98    7.80
  -1   6   2  181.58    7.30
  -1   6   2  172.68    7.60
   0  -6  -2  248.08   10.30
   0   6   2  252.37    9.80
   0   6   2  246.08    9.70
  -1  -6  -2   16.20    2.40
   1   6   2   13.80    1.70
   1   6   2   15.70    1.70
  -2  -6  -2   36.70    3.20
  -2  -6  -2   38.40    2.60
   2   6   2   39.90    3.00
  -3  -6  -2  274.67   10.70
  -3  -6  -2  264.87   11.10
   3   6   2  269.57   11.10
  -4  -6  -2  153.38    7.50
  -4  -6  -2  154.58    7.30
   4   6   2  169.38    7.70
  -5  -6  -2  200.18    9.20
  -5  -6  -2  200.88    9.20
   5   6   2  188.08    9.30
  -6  -6  -2   48.60    6.10
  -6  -6  -2   18.90    5.10
   6   6   2   32.40    4.10
  -7  -6  -2    2.40    4.70
   7   6   2    8.50    4.50
   8   6   2   21.80    5.60
  -6   7   2   17.70    5.40
   5  -7  -2  117.99    8.30
  -5   7   2  111.79    8.70
   4  -7  -2   48.00    4.90
   4  -7  -2   37.30    5.60
  -4   7   2   38.40    5.30
   3  -7  -2    3.70    2.50
   3  -7  -2   -0.40    1.90
  -3   7   2   -0.70    2.40
   2  -7  -2   73.49    5.30
  -2   7   2   68.69    4.30
  -2   7   2   70.69    4.80
   1  -7  -2  374.26   14.80
  -1   7   2  350.16   14.40
  -1   7   2  372.56   14.00
   0  -7  -2  655.03   24.20
   0   7   2  651.53   23.50
   0   7   2  610.44   23.60
  -1  -7  -2  682.53   26.20
   1   7   2  711.23   25.70
  -2  -7  -2   83.19    4.90
  -2  -7  -2   84.89    4.30
   2   7   2   82.09    4.60
  -3  -7  -2   55.89    4.40
  -3  -7  -2   58.59    4.00
   3   7   2   57.19    4.10
  -4  -7  -2  181.48    8.10
  -4  -7  -2  174.48    8.40
   4   7   2  177.18    8.40
  -5  -7  -2  306.87   12.80
   5   7   2  294.77   13.10
  -6  -7  -2  410.36   17.00
   6   7   2  392.76   17.20
   7   7   2   78.29    8.00
  -6   8   2   25.30    6.00
   5  -8  -2  186.58   11.40
  -5   8   2  188.18   11.40
   4  -8  -2   13.10    4.10
  -4   8   2   18.40    3.80
   3  -8  -2   22.10    3.50
   3  -8  -2   18.30    2.60
  -3   8   2   11.60    3.30
   2  -8  -2  220.18   10.40
  -2   8   2  225.88   10.40
  -2   8   2  210.28    9.20
   1  -8  -2   78.69    5.40
  -1   8   2   75.39    4.80
  -1   8   2   81.89    4.60
   0  -8  -2  338.07   15.40
   0   8   2  346.87   13.40
   0   8   2  346.87   13.70
  -1  -8  -2   29.90    3.70
   1   8   2   27.80    3.00
   1   8   2   27.40    2.80
  -2  -8  -2  130.89    6.70
   2   8   2  121.29    6.10
   2   8   2  116.09    5.90
  -3  -8  -2   26.70    3.60
  -3  -8  -2   26.30    3.60
   3   8   2   25.70    3.00
  -4  -8  -2   84.09    6.00
  -4  -8  -2   93.09    5.70
   4   8   2   86.79    5.70
  -5  -8  -2  188.08    9.30
  -5  -8  -2  179.48    9.00
   5   8   2  182.18    9.40
   6   8   2    3.90    3.30
   7   8   2    3.60    4.40
   5  -9  -2   40.60    6.30
  -5   9   2   28.80    5.50
   4  -9  -2   93.19    8.40
  -4   9   2   98.99    7.90
   3  -9  -2  199.28   10.40
  -3   9   2  182.98   10.00
   2  -9  -2   73.69    6.20
  -2   9   2   76.59    5.00
  -2   9   2   77.39    5.90
   1  -9  -2  117.59    6.90
  -1   9   2  105.99    5.70
  -1   9   2  104.79    6.20
   0  -9  -2  217.08   10.10
   0   9   2  211.28    9.00
   0   9   2  209.78    9.30
  -1  -9  -2   96.09    6.00
   1   9   2   93.89    5.20
   1   9   2   87.69    5.20
  -2  -9  -2  115.39    6.50
   2   9   2   99.19    5.60
  -3  -9  -2  157.88    8.40
  -3  -9  -2  162.98    8.10
   3   9   2  181.48    8.40
  -4  -9  -2   45.80    5.20
  -4  -9  -2   37.00    5.20
   4   9   2   36.70    4.60
  -5  -9  -2   40.70    5.70
   5   9   2   33.40    4.20
   6   9   2   33.40    5.20
   7   9   2   36.80    5.90
   5 -10  -2   -4.50    5.60
  -5  10   2    4.70    5.10
   4 -10  -2    7.40    5.20
  -4  10   2   10.70    4.50
   3 -10  -2  165.88   10.60
  -3  10   2  173.68   10.00
   2 -10  -2  102.79    7.60
  -2  10   2   93.09    6.80
   1 -10  -2  103.49    7.30
  -1  10   2  107.69    6.10
  -1  10   2  105.39    6.70
   0 -10  -2    3.80    2.70
   0  10   2    2.50    2.10
   0  10   2    0.70    2.40
  -1 -10  -2   86.49    6.30
   1  10   2   74.19    5.20
   1  10   2   86.69    5.40
  -2 -10  -2   -0.10    2.60
   2  10   2    2.10    2.30
   2  10   2    3.60    2.30
  -3 -10  -2   14.60    3.50
   3  10   2   15.00    3.00
   3  10   2   14.10    3.20
  -4 -10  -2  161.58    9.40
   4  10   2  168.68    9.10
  -5 -10  -2    8.40    4.10
   5  10   2   10.80    3.60
   6  10   2   77.69    8.10
   7  10   2   28.90    5.80
   4 -11  -2    5.70    5.90
  -4  11   2   10.90    5.10
   3 -11  -2    4.50    5.00
  -3  11   2   12.10    4.30
   2 -11  -2  131.89    9.00
  -2  11   2  112.69    8.00
   1 -11  -2   62.19    6.70
  -1  11   2   63.39    5.90
   0 -11  -2    5.50    3.30
   0  11   2    5.80    3.10
   0  11   2   11.20    2.70
  -1 -11  -2   26.00    3.90
   1  11   2   22.80    3.10
   1  11   2   27.00    3.60
  -2 -11  -2    6.10    3.30
   2  11   2    3.60    2.90
   2  11   2    5.30    2.80
  -3 -11  -2    1.90    3.30
   3  11   2   -0.40    3.00
  -4 -11  -2    8.20    3.80
   4  11   2   -2.50    3.20
  -5 -11  -2   10.10    4.60
   5  11   2    2.70    3.70
   6  11   2    6.10    4.50
   3 -12  -2    4.90    5.70
   2 -12  -2    1.10    6.60
  -2  12   2    4.50    4.00
   1 -12  -2    0.30    4.20
  -1  12   2   14.90    3.90
   0 -12  -2   43.60    6.50
   0  12   2   45.70    6.30
  -1 -12  -2   13.30    4.00
   1  12   2   19.70    3.40
  -2 -12  -2   22.00    4.20
   2  12   2   14.90    3.50
  -3 -12  -2   17.60    4.50
   3  12   2   25.00    4.30
  -4 -12  -2   46.60    5.70
   4  12   2   44.70    5.60
  -5 -12  -2   32.70    6.00
   5  12   2   39.50    5.80
  -3  13   2    6.50    5.50
   2 -13  -2   25.10    6.00
  -2  13   2   19.00    5.00
   1 -13  -2   29.10    5.90
  -1  13   2   23.80    5.10
  -1 -13  -2   17.20    4.80
  -2 -13  -2   48.50    6.00
   2  13   2   52.49    6.80
  -3 -13  -2   46.50    5.80
   3  13   2   44.80    5.60
   4  13   2   41.80    7.40
  -5 -13  -2   37.40    6.20
   5  13   2   24.60    5.70
   1 -14  -2   16.70    6.20
   0 -14  -2   50.69    7.20
  -1 -14  -2   26.10    6.00
  -2 -14  -2   19.70    5.40
  -3 -14  -2   13.70    5.60
   3  14   2   10.90    5.40
  -4 -14  -2    8.60    5.90
   4  14   2    4.90    4.80
   3  13  -3    6.90    6.00
  -3 -13   3    6.60    6.20
   2  13  -3   11.40    6.10
  -2 -13   3    1.80    5.70
   1  13  -3   -0.40    5.60
  -1 -13   3   -1.20    5.50
   0  13  -3   10.00    6.00
   0 -13   3    1.00    5.80
  -1  13  -3   59.59    7.90
   1 -13   3   49.99    7.90
   3  12  -3   10.00    5.40
  -3 -12   3    9.00    5.30
   2  12  -3    4.00    4.60
  -2 -12   3   -4.60    4.60
   1  12  -3   49.10    6.30
  -1 -12   3   58.49    8.00
   0  12  -3   15.40    5.20
   1 -12   3  109.79    9.70
  -2  12  -3   22.10    6.00
   2 -12   3   17.90    6.00
   5  11  -3    3.60    4.50
  -5 -11   3    5.20    8.60
   4  11  -3   13.80    4.40
  -4 -11   3    7.70    5.30
   3  11  -3   11.30    4.30
  -3 -11   3    9.90    4.40
   2  11  -3   15.10    4.40
  -2 -11   3   14.40    4.40
   1  11  -3   57.69    7.30
  -1 -11   3   71.79    7.20
   0  11  -3    0.70    4.00
   0 -11   3    1.90    4.00
  -1  11  -3    0.90    4.40
   1 -11   3   -1.20    4.20
  -2  11  -3   20.40    5.50
   2 -11   3   19.30    5.30
  -3  11  -3   11.10    5.40
   3 -11   3   11.00    5.70
   6  10  -3   -1.10    4.70
  -6 -10   3   -3.40    5.40
  -5 -10   3    5.30    5.20
   4  10  -3  192.28   10.20
  -4 -10   3  168.38   10.80
   3  10  -3  133.89    8.10
  -3 -10   3  122.79    8.60
  -3 -10   3  125.09    8.50
   2  10  -3  159.78    9.70
   2  10  -3  148.99    8.50
  -2 -10   3  160.78    9.40
   1  10  -3    0.00    3.20
  -1 -10   3    2.20    3.20
   0  10  -3  168.58    9.70
   0 -10   3  160.08    9.50
  -1  10  -3  120.79    8.50
   1 -10   3  111.99    8.30
  -2  10  -3  197.48   11.20
   2 -10   3  176.18   10.90
  -3  10  -3  309.97   15.80
  -4  10  -3   20.20    5.80
   4 -10   3    9.30    5.90
   6   9  -3    9.40    4.60
   5   9  -3   32.30    4.80
  -5  -9   3   45.70    6.80
   4   9  -3   17.80    3.40
  -4  -9   3   18.20    4.10
   3   9  -3  121.69    7.30
  -3  -9   3  128.69    7.80
  -3  -9   3  119.19    8.00
   2   9  -3  230.48   11.00
  -2  -9   3  233.28   11.00
  -2  -9   3  228.78   11.20
   1   9  -3   34.40    4.10
   1   9  -3   31.60    4.10
  -1  -9   3   45.90    5.20
   0   9  -3   16.70    3.30
   0  -9   3   18.10    3.50
  -1   9  -3   14.30    3.70
   1  -9   3   12.90    3.60
  -2   9  -3    2.40    3.70
   2  -9   3    6.40    3.40
  -3   9  -3   50.09    7.10
   3  -9   3   49.40    5.70
  -4   9  -3   30.00    6.90
  -5   9  -3   23.40    6.40
   5  -9   3   20.90    6.20
  -7  -8   3    4.50    5.40
   6   8  -3   26.30    5.00
  -6  -8   3   36.60    5.90
   5   8  -3  128.19    8.20
  -5  -8   3  123.29    8.50
   4   8  -3   68.79    5.80
  -4  -8   3   68.59    6.20
   3   8  -3  229.58   10.10
  -3  -8   3  211.58   10.10
  -3  -8   3  215.08   10.70
   2   8  -3   24.30    2.90
  -2  -8   3   24.40    3.40
   1   8  -3  357.76   14.90
   1   8  -3  411.36   16.50
  -1  -8   3  390.86   16.00
   0   8  -3  134.69    7.40
   0  -8   3  127.89    7.40
  -1   8  -3   30.00    4.40
   1  -8   3   30.00    4.50
  -2   8  -3  283.07   13.30
   2  -8   3  280.87   13.10
  -3   8  -3   41.40    5.90
   3  -8   3   33.90    4.70
  -4   8  -3   15.40    4.70
   4  -8   3    9.20    4.50
  -5   8  -3    7.10    4.90
   5  -8   3   -2.60    5.00
   7   7  -3   24.10    5.50
  -7  -7   3   14.80    5.70
   6   7  -3  132.89    9.90
  -6  -7   3  118.59    9.20
   5   7  -3   88.89    6.80
  -5  -7   3   84.59    7.20
   4   7  -3  127.79    7.30
  -4  -7   3  136.99    7.20
  -4  -7   3  129.99    7.60
   3   7  -3   28.00    3.20
  -3  -7   3   32.30    4.20
  -3  -7   3   28.80    3.70
   2   7  -3   -0.70    1.80
  -2  -7   3   -3.00    3.30
  -2  -7   3    0.50    2.00
   1   7  -3    9.70    1.90
  -1  -7   3    6.60    2.30
  -1  -7   3   11.00    2.30
   0   7  -3   62.39    4.70
   0  -7   3   57.39    5.10
  -1   7  -3   50.79    4.50
   1  -7   3   44.10    4.40
  -2   7  -3   -3.10    2.40
   2  -7   3   -0.40    2.30
  -3   7  -3   74.99    6.50
   3  -7   3   74.29    5.80
  -4   7  -3    7.10    4.00
   4  -7   3    8.50    3.80
  -5   7  -3    0.20    4.60
   5  -7   3    0.70    4.30
  -6   7  -3   15.20    6.20
   6  -7   3    1.40    5.30
   7   6  -3    4.30    4.80
  -7  -6   3    1.10    5.30
   6   6  -3   52.89    6.70
  -6  -6   3   51.09    6.10
   5   6  -3   47.00    5.20
  -5  -6   3   54.09    5.80
   4   6  -3  165.68    8.30
  -4  -6   3  175.68    8.80
  -4  -6   3  163.78    7.60
   3   6  -3   42.90    4.10
  -3  -6   3   37.80    3.50
   2   6  -3   46.10    3.60
  -2  -6   3   54.39    4.00
  -2  -6   3   46.20    3.60
   1   6  -3    3.10    1.40
  -1  -6   3    4.20    1.70
  -1  -6   3    2.80    1.80
   0   6  -3   27.20    3.30
   0  -6   3   33.20    3.30
  -1   6  -3  295.07   12.50
   1  -6   3  286.57   12.30
  -2   6  -3   23.70    3.50
   2  -6   3   26.20    3.60
  -3   6  -3   12.10    3.30
   3  -6   3   13.20    2.90
  -4   6  -3  153.28    9.00
   4  -6   3  150.68    8.80
  -5   6  -3   24.10    4.70
   5  -6   3   20.60    4.50
  -6   6  -3   54.19    7.50
   6  -6   3   67.89    8.80
   7   5  -3   23.60    5.30
  -7  -5   3   28.20    6.90
   6   5  -3    7.00    3.50
  -6  -5   3    0.60    4.00
   5   5  -3   32.80    4.10
  -5  -5   3   39.20    5.30
   4   5  -3    8.10    2.30
  -4  -5   3   14.80    2.50
  -4  -5   3   10.40    2.70
   3   5  -3   17.80    2.40
  -3  -5   3   18.10    2.70
  -3  -5   3   18.10    2.50
   2   5  -3   12.90    1.90
  -2  -5   3   11.50    2.10
  -2  -5   3   14.50    1.90
   1   5  -3  118.49    5.10
  -1  -5   3  107.09    5.60
  -1  -5   3  115.99    5.50
   0   5  -3   43.90    3.50
   0   5  -3   38.30    2.30
   0  -5   3   45.70    3.30
  -1   5  -3  141.29    6.80
   1  -5   3  126.69    6.40
  -2   5  -3  155.38    7.80
   2  -5   3  147.79    7.40
  -3   5  -3   38.30    4.10
   3  -5   3   30.60    3.90
  -4   5  -3   55.29    5.50
   4  -5   3   56.49    5.30
  -5   5  -3  280.37   14.00
   5  -5   3  276.97   13.40
   6  -5   3  108.49    9.20
  -7   5  -3   39.80    7.10
   7   4  -3    8.80    4.40
   6   4  -3    4.00    3.30
  -6  -4   3    1.70    3.90
   5   4  -3   -0.70    2.30
  -5  -4   3    0.30    2.90
   4   4  -3  585.74   22.50
  -4  -4   3  583.04   22.80
   3   4  -3   42.50    3.50
  -3  -4   3   41.00    3.70
  -3  -4   3   40.70    2.70
   2   4  -3   41.60    2.90
  -2  -4   3   41.10    2.60
  -2  -4   3   41.30    3.20
   1   4  -3  333.97   12.40
  -1  -4   3  331.97   12.60
  -1  -4   3  321.87   12.90
   0   4  -3   76.69    3.60
   0  -4   3   94.49    4.50
   0  -4   3   91.59    4.50
  -1   4  -3  134.59    6.30
   1  -4   3  128.39    6.10
  -2   4  -3  261.67   11.40
   2  -4   3  270.47   11.10
  -3   4  -3  393.16   17.50
   3  -4   3  400.46   16.10
  -4   4  -3  150.28    8.40
   4  -4   3  151.18    8.00
  -5   4  -3  195.28   10.50
   5  -4   3  192.08   10.10
  -6   4  -3  140.79    9.80
   6  -4   3  141.39    9.40
  -7   4  -3    4.90    5.70
   7   3  -3   -0.50    4.50
  -7  -3   3  -10.30    4.90
   6   3  -3    5.80    3.20
  -6  -3   3    3.40    3.50
   5   3  -3   82.19    5.90
  -5  -3   3   88.49    6.10
   4   3  -3   74.89    4.80
   3   3  -3  160.28    7.40
  -3  -3   3  175.48    7.80
  -3  -3   3  168.98    6.40
   2   3  -3  188.68    7.80
  -2  -3   3  194.58    8.20
  -2  -3   3  192.38    7.40
   1   3  -3    8.00    1.20
  -1  -3   3    9.00    1.20
  -1  -3   3   12.30    1.80
   0  -3   3  141.29    6.20
   0  -3   3  144.99    6.10
  -1   3  -3  533.75   20.40
   1  -3   3  552.54   20.30
  -2   3  -3  590.04   23.00
   2  -3   3  620.04   22.70
  -3   3  -3  239.18   10.50
   3  -3   3  232.38   10.20
  -4   3  -3  282.77   12.20
   4  -3   3  257.67   10.40
  -5   3  -3   73.89    6.50
   5  -3   3   83.79    6.20
  -6   3  -3   24.20    4.80
   6  -3   3   19.60    4.30
  -7   3  -3   17.60    5.90
  -8  -2   3   46.50    7.40
   7   2  -3   60.19    7.70
  -7  -2   3   58.99    8.60
   6   2  -3   16.10    3.50
  -6  -2   3   13.90    3.80
   5   2  -3  354.16   15.40
  -5  -2   3  385.16   15.80
  -4  -2   3  162.88    8.00
   3   2  -3  790.12   28.50
  -3  -2   3  757.52   28.70
   2   2  -3 2150.08   78.49
  -2  -2   3 2281.97   77.89
  -2  -2   3 2204.48   78.79
   1   2  -3   64.39    3.20
  -1  -2   3   67.39    3.40
  -1  -2   3   70.19    3.00
   0   2  -3  160.98    6.40
   0  -2   3  180.98    7.00
   0  -2   3  179.08    6.90
  -1   2  -3   39.90    2.70
   1  -2   3   41.40    2.50
  -2   2  -3  258.67   10.80
   2  -2   3  270.87   10.70
  -3   2  -3 1096.59   40.20
   3  -2   3 1057.89   40.00
   3  -2   3 1128.39   39.40
   4  -2   3  684.73   25.00
   4  -2   3  686.93   26.00
  -5   2  -3  307.27   13.70
   5  -2   3  290.57   12.10
   5  -2   3  303.27   13.10
  -6   2  -3    6.70    3.70
   6  -2   3    9.90    3.60
  -8  -1   3    7.00    6.10
   7   1  -3    2.50    4.10
  -7  -1   3    2.00    5.80
   6   1  -3  253.37   11.80
  -6  -1   3  233.78   12.20
   5   1  -3   71.99    5.40
  -5  -1   3   75.29    5.50
   4   1  -3   96.29    5.50
  -4  -1   3  101.29    5.90
   3   1  -3  314.37   12.20
  -3  -1   3  305.87   12.50
   2   1  -3   23.90    2.10
  -2  -1   3   23.10    2.10
   1   1  -3    2.60    0.80
  -1  -1   3    1.60    0.80
  -1  -1   3    2.70    0.60
   0  -1   3  302.17   11.30
   0  -1   3  301.17   11.20
   0  -1   3  302.17   11.00
  -1   1  -3 1037.50   38.90
   1  -1   3 1131.69   38.90
  -2   1  -3   51.69    3.20
   2  -1   3   46.70    3.00
   2  -1   3   51.49    2.30
  -3   1  -3  255.27   10.40
   3  -1   3  241.58   10.20
   3  -1   3  248.08    9.50
  -4   1  -3  101.79    5.90
   4  -1   3   93.09    4.70
   4  -1   3   94.09    5.40
  -5   1  -3   29.50    4.40
   5  -1   3   27.80    2.90
   5  -1   3   22.90    3.70
  -6   1  -3   44.90    6.20
   6  -1   3   56.39    5.30
   6  -1   3   59.69    6.10
  -7   1  -3    1.60    4.80
  -8   1  -3   28.90    7.00
  -8   0   3   25.50    6.60
   7   0  -3   53.19    5.90
   6   0  -3  427.86   18.50
  -6   0   3  458.15   19.20
   5   0  -3  285.57   12.20
  -5   0   3  277.07   12.60
   4   0  -3  209.28    9.30
  -4   0   3  222.08    9.90
   3   0  -3  382.56   14.80
  -3   0   3  390.56   15.20
   2   0  -3  140.89    5.80
  -2   0   3  130.59    5.90
   1   0  -3 1196.48   46.50
  -1   0   3 1386.26   46.20
  -1   0   3 1345.27   46.70
   0   0   3   30.00    1.70
   0   0   3   30.80    1.60
   0   0   3   31.60    1.70
   1   0   3  391.96   14.00
   1   0   3  387.56   14.40
  -2   0  -3  519.85   20.30
   2   0   3  587.34   20.40
   2   0   3  551.94   20.20
  -3   0  -3   12.20    1.90
   3   0   3   12.50    1.40
   3   0   3   10.20    1.70
  -4   0  -3  256.97   11.10
   4   0   3  261.17   10.90
   4   0   3  256.57   10.30
  -5   0  -3    4.60    2.70
   5   0   3    0.80    2.20
   5   0   3    9.00    2.20
  -6   0  -3   79.09    6.70
   6   0   3   76.99    6.30
   6   0   3   69.89    5.80
  -7   0  -3   48.70    7.40
   7   0   3   56.99    6.50
  -8   0  -3    2.50    5.80
   7  -1  -3   59.39    7.40
  -7   1   3   59.79    7.90
   6  -1  -3    5.50    3.10
  -6   1   3   -0.90    3.20
   5  -1  -3   80.09    5.60
  -5   1   3   75.29    5.80
   4  -1  -3  652.83   24.60
   3  -1  -3    4.30    1.40
  -3   1   3    3.90    1.50
   2  -1  -3  619.94   23.20
   2  -1  -3  669.43   23.90
  -2   1   3  673.83   24.10
   1  -1  -3  938.61   36.40
  -1   1   3 1076.49   36.90
  -1   1   3 1079.19   36.80
   0   1   3   39.50    1.90
   0   1   3   37.30    1.90
   0   1   3   39.80    1.90
   1   1   3   16.80    1.20
   1   1   3   15.70    1.40
  -2  -1  -3 1451.25   53.99
   2   1   3 1573.34   54.19
   2   1   3 1539.25   54.29
  -3  -1  -3  259.87   10.10
   3   1   3  251.07   10.10
   3   1   3  248.38    9.80
  -4  -1  -3  876.21   31.70
   4   1   3  854.11   31.30
   4   1   3  834.52   31.50
   5   1   3 1013.60   36.80
   5   1   3  985.40   37.00
  -6  -1  -3  266.57   12.90
   6   1   3  270.27   12.10
   6   1   3  280.67   12.50
  -7  -1  -3    3.60    4.40
   7   1   3    0.50    3.30
  -8  -1  -3   -3.50    5.60
   8   1   3   -7.70    6.60
   7  -2  -3  113.89    8.80
  -7   2   3   95.99    8.80
   6  -2  -3   85.69    6.70
  -6   2   3   75.19    7.10
   5  -2  -3   37.60    4.60
  -5   2   3   49.30    4.90
   4  -2  -3   71.19    4.00
   4  -2  -3   77.79    4.80
  -4   2   3   78.39    5.00
   3  -2  -3    5.50    1.50
  -3   2   3    5.80    1.60
   2  -2  -3   30.00    1.90
  -2   2   3   30.50    2.30
   1  -2  -3  609.84   23.20
  -1   2   3  666.23   23.50
  -1   2   3  670.03   23.50
   0  -2  -3  210.28    8.60
   0   2   3  240.28    8.70
   0   2   3  238.78    8.40
  -1  -2  -3  209.08    7.80
  -1  -2  -3  215.18    8.20
  -1  -2  -3  230.58    8.50
   1   2   3  219.88    8.30
  -2  -2  -3  133.39    5.60
   2   2   3  146.19    5.80
   2   2   3  146.19    6.00
  -3  -2  -3  218.88    8.80
   3   2   3  211.58    8.60
   3   2   3  214.68    8.80
  -4  -2  -3   82.89    4.80
   4   2   3   77.49    4.50
   4   2   3   79.39    4.70
  -5  -2  -3  455.35   18.50
   5   2   3  469.65   18.30
  -6  -2  -3  110.69    7.50
   6   2   3  113.89    6.90
  -7  -2  -3    5.10    4.40
   7   2   3    3.00    3.40
  -8  -2  -3   27.60    6.40
   8   2   3   39.50    5.90
   7  -3  -3   10.60    4.50
  -7   3   3    6.60    4.90
   6  -3  -3   13.50    3.60
  -6   3   3   13.80    4.00
   5  -3  -3   15.00    3.00
  -5   3   3   10.90    3.10
   4  -3  -3  111.49    6.20
   4  -3  -3  115.69    5.60
  -4   3   3  119.69    6.60
   3  -3  -3   45.30    3.10
   3  -3  -3   53.09    3.40
  -3   3   3   51.39    3.70
   2  -3  -3  346.77   13.10
  -2   3   3  344.37   13.20
  -2   3   3  353.16   13.60
   1  -3  -3  827.22   30.20
  -1   3   3  851.81   30.30
  -1   3   3  840.22   30.30
   0  -3  -3 1582.04   57.29
   0   3   3 1625.24   56.89
   0   3   3 1627.34   57.19
  -1  -3  -3    2.30    0.90
   1   3   3    1.10    0.70
  -2  -3  -3   65.99    3.00
  -2  -3  -3   68.09    3.40
  -2  -3  -3   61.19    2.80
   2   3   3   66.99    3.30
  -3  -3  -3  477.85   18.00
  -3  -3  -3  479.85   17.50
  -3  -3  -3  462.55   17.60
   3   3   3  489.85   17.90
  -4  -3  -3  866.51   32.50
  -4  -3  -3  927.31   32.60
  -4  -3  -3  891.91   32.00
   4   3   3  852.51   32.40
  -5  -3  -3  997.50   36.60
  -5  -3  -3 1036.50   36.90
  -5  -3  -3  937.01   35.90
   5   3   3  996.80   36.70
  -6  -3  -3  165.28    8.00
  -6  -3  -3  165.88    9.70
  -6  -3  -3  188.78    9.60
   6   3   3  174.18    8.80
  -7  -3  -3   54.19    7.80
   7   3   3   59.69    6.50
  -8  -3  -3    4.00    5.90
   8   3   3   17.10    5.00
   7  -4  -3    5.80    4.90
  -7   4   3    1.20    5.30
   6  -4  -3   17.10    3.80
  -6   4   3   14.50    4.30
   5  -4  -3   15.70    3.20
  -5   4   3   13.10    3.40
   4  -4  -3  119.79    6.10
   4  -4  -3  100.29    5.80
  -4   4   3  120.89    6.70
   3  -4  -3  453.25   18.10
   3  -4  -3  502.95   18.20
  -3   4   3  483.55   18.90
   2  -4  -3 1167.68   42.00
  -2   4   3 1165.78   41.90
  -2   4   3 1158.88   42.20
   1  -4  -3    1.50    1.10
  -1   4   3    0.30    0.90
  -1   4   3    1.00    1.00
   0  -4  -3  280.87   11.00
   0   4   3  286.77   10.90
   0   4   3  290.97   10.60
  -1  -4  -3    1.70    1.00
   1   4   3    1.00    0.80
  -2  -4  -3    1.50    0.70
  -2  -4  -3    2.70    1.00
   2   4   3    1.10    1.00
  -3  -4  -3 1090.39   40.50
  -3  -4  -3 1155.68   41.00
   3   4   3 1148.99   41.00
  -4  -4  -3  866.61   31.10
  -4  -4  -3  844.02   30.80
  -4  -4  -3  832.42   31.30
   4   4   3  851.31   31.40
  -5  -4  -3   16.60    2.20
  -5  -4  -3   19.70    2.90
  -5  -4  -3   12.90    2.60
   5   4   3   18.60    2.60
  -6  -4  -3   -1.40    3.10
   6   4   3    1.20    2.60
  -7  -4  -3    5.70    4.80
   7   4   3    7.40    3.60
   8   4   3   38.30    5.90
  -7   5   3   19.50    5.90
   6  -5  -3    7.90    4.00
  -6   5   3    0.80    4.10
   5  -5  -3  120.09    7.50
   5  -5  -3  115.49    9.50
  -5   5   3  121.09    8.10
   4  -5  -3   58.99    4.80
   4  -5  -3   65.59    4.80
  -4   5   3   62.29    5.30
   3  -5  -3  780.52   29.40
   3  -5  -3  813.52   29.60
  -3   5   3  803.82   30.20
   2  -5  -3  564.74   21.10
  -2   5   3  558.64   21.20
  -2   5   3  553.04   20.80
   1  -5  -3  261.07   10.60
  -1   5   3  258.87   10.40
  -1   5   3  271.57   10.30
   0  -5  -3  145.09    6.10
   0   5   3  144.39    5.70
   0   5   3  112.19    6.10
  -1  -5  -3   36.30    2.70
   1   5   3   38.40    2.50
  -2  -5  -3  167.18    6.50
  -2  -5  -3  167.78    7.30
   2   5   3  175.48    7.20
  -3  -5  -3 1061.09   38.90
  -3  -5  -3 1063.89   38.40
   3   5   3 1087.79   39.00
  -4  -5  -3 1445.86   53.49
  -4  -5  -3 1517.35   53.19
  -5  -5  -3   76.19    5.00
  -5  -5  -3   70.69    5.20
   5   5   3   72.39    5.00
  -6  -5  -3   10.00    3.20
  -6  -5  -3   22.40    3.90
   6   5   3   12.30    3.10
  -7  -5  -3   19.60    4.80
   7   5   3   16.30    4.10
   8   5   3   -0.10    4.70
  -6   6   3    8.00    4.60
   5  -6  -3   65.89    6.30
   5  -6  -3   57.19    6.40
  -5   6   3   50.79    6.20
   4  -6  -3   78.69    6.20
   4  -6  -3   77.09    5.80
  -4   6   3   76.69    6.10
   3  -6  -3  475.35   19.30
   3  -6  -3  509.85   19.70
  -3   6   3  532.95   20.20
   2  -6  -3  728.43   27.40
  -2   6   3  742.63   27.00
  -2   6   3  719.23   27.40
   1  -6  -3  116.39    5.90
  -1   6   3  116.29    5.60
  -1   6   3  121.49    5.50
   0  -6  -3    5.70    1.60
   0   6   3    7.90    1.30
   0   6   3    6.20    1.30
  -1  -6  -3   87.79    4.80
   1   6   3   95.29    4.50
  -2  -6  -3  231.98    9.70
  -2  -6  -3  222.68    8.70
   2   6   3  240.08    9.60
  -3  -6  -3  378.96   15.00
  -3  -6  -3  379.26   14.20
   3   6   3  374.36   14.90
  -4  -6  -3  127.19    6.20
  -4  -6  -3  125.99    6.70
   4   6   3  135.29    6.70
  -5  -6  -3   38.60    4.60
  -5  -6  -3   43.20    4.60
   5   6   3   40.40    4.30
  -6  -6  -3   39.80    5.70
  -6  -6  -3   49.00    5.80
   6   6   3   40.40    5.40
   7   6   3   14.70    4.20
   8   6   3    4.40    4.90
  -6   7   3   42.00    6.60
   5  -7  -3   67.69    7.10
  -5   7   3   66.39    6.80
   4  -7  -3  704.53   27.00
  -4   7   3  686.23   27.50
   3  -7  -3   62.19    5.10
   3  -7  -3   67.59    4.80
  -3   7   3   52.49    5.00
   2  -7  -3   -1.10    2.10
  -2   7   3    2.30    2.00
  -2   7   3    0.60    1.80
   1  -7  -3  102.89    5.70
  -1   7   3   91.69    5.00
  -1   7   3  101.69    5.10
   0  -7  -3   88.69    5.10
   0   7   3   96.29    4.60
   0   7   3   89.19    4.50
  -1  -7  -3    9.90    2.10
   1   7   3   12.50    1.80
   1   7   3   11.20    1.50
  -2  -7  -3  536.35   20.70
   2   7   3  538.55   20.40
   2   7   3  543.15   19.80
  -3  -7  -3  502.85   18.70
  -3  -7  -3  498.95   19.50
   3   7   3  508.15   20.40
  -4  -7  -3   36.00    3.70
  -4  -7  -3   33.90    4.30
   4   7   3   41.80    3.90
  -5  -7  -3    2.70    2.80
  -5  -7  -3    1.00    3.00
   5   7   3    1.30    2.30
  -6  -7  -3   18.10    4.00
   6   7   3   14.90    3.60
   7   7   3   58.19    7.50
  -6   8   3   39.00    7.00
   5  -8  -3   45.30    5.90
  -5   8   3   41.00    5.90
   4  -8  -3  261.67   12.50
  -4   8   3  246.78   12.50
   3  -8  -3  289.67   12.90
  -3   8   3  273.77   12.80
   2  -8  -3    5.30    2.60
  -2   8   3    1.80    2.00
   1  -8  -3   45.80    4.20
  -1   8   3   37.20    3.60
  -1   8   3   43.60    3.70
   0  -8  -3   10.30    2.60
   0   8   3    7.50    1.70
   0   8   3    8.20    1.70
  -1  -8  -3   71.59    4.70
   1   8   3   64.49    4.10
  -2  -8  -3  112.89    6.40
   2   8   3  121.89    6.00
   2   8   3  111.99    5.20
  -3  -8  -3   43.20    3.70
  -3  -8  -3   46.60    5.00
   3   8   3   43.60    4.00
  -4  -8  -3   26.80    4.00
  -4  -8  -3   32.80    3.80
   4   8   3   32.80    4.10
  -5  -8  -3  328.47   14.10
   5   8   3  317.17   14.20
  -6  -8  -3   37.60    4.90
   6   8   3   33.80    4.50
   7   8   3    1.00    4.20
   5  -9  -3  160.48   11.60
  -5   9   3  148.39   10.70
   4  -9  -3    9.70    4.50
  -4   9   3    3.40    3.80
   3  -9  -3    9.90    3.20
   3  -9  -3    5.90    3.60
  -3   9   3    9.90    3.30
   2  -9  -3   24.90    3.80
  -2   9   3   22.40    3.00
  -2   9   3   17.60    3.20
   1  -9  -3  587.94   22.70
  -1   9   3  570.74   21.60
  -1   9   3  547.25   21.90
   0  -9  -3  241.18   10.90
   0   9   3  231.58    9.90
   0   9   3  230.68    9.90
  -1  -9  -3   10.30    2.70
   1   9   3   12.80    2.20
   1   9   3   10.30    2.00
  -2  -9  -3   79.79    5.60
   2   9   3   72.99    4.40
   2   9   3   77.69    5.00
  -3  -9  -3   34.50    4.50
   3   9   3   32.10    3.80
  -4  -9  -3   10.70    3.20
   4   9   3    7.90    2.80
  -5  -9  -3   63.39    6.20
   5   9   3   57.49    6.00
  -6  -9  -3  303.67   14.60
   6   9   3  326.27   15.20
   7   9   3   63.79    8.90
   5 -10  -3   29.40    7.00
  -5  10   3   38.40    6.50
   4 -10  -3   24.60    5.70
  -4  10   3   17.50    4.60
   3 -10  -3   17.60    4.60
  -3  10   3   19.90    4.00
   2 -10  -3   17.20    3.90
  -2  10   3   16.50    3.40
  -2  10   3   13.70    3.80
   1 -10  -3   41.10    5.40
  -1  10   3   45.90    4.50
  -1  10   3   48.10    5.00
   0 -10  -3   21.50    3.50
   0  10   3   22.30    3.00
   0  10   3   28.90    3.90
  -1 -10  -3    3.10    2.60
   1  10   3    6.30    2.30
   1  10   3    4.00    2.20
  -2 -10  -3    3.20    2.70
   2  10   3    1.60    2.20
   2  10   3    0.50    2.20
  -3 -10  -3   63.29    5.90
   3  10   3   62.09    5.30
  -4 -10  -3  187.88   10.20
   4  10   3  189.28    9.90
  -5 -10  -3   66.19    6.90
   5  10   3   55.79    6.50
  -6 -10  -3   97.89   11.60
   6  10   3   88.29    8.40
   7  10   3   82.19   10.00
   4 -11  -3   21.50    6.20
  -4  11   3   25.00    5.60
   3 -11  -3   53.89    6.70
  -3  11   3   51.09    6.80
   2 -11  -3  388.06   17.30
  -2  11   3  354.56   16.20
   1 -11  -3   62.19    6.50
  -1  11   3   57.59    5.80
   0 -11  -3   52.39    5.80
   0  11   3   39.30    4.50
   0  11   3   35.60    4.70
  -1 -11  -3   22.40    3.90
   1  11   3   25.00    3.20
   1  11   3   21.20    3.10
  -2 -11  -3  117.09    7.80
   2  11   3  124.09    7.20
  -3 -11  -3  171.78    9.70
   3  11   3  175.38    9.30
  -4 -11  -3   86.69    7.70
   4  11   3   82.69    7.00
  -5 -11  -3  100.69    8.50
   5  11   3   90.99    8.20
   6  11   3   64.79    8.40
   3 -12  -3   36.80    6.90
  -3  12   3   32.50    5.80
   2 -12  -3  208.78   12.40
  -2  12   3  189.48   11.00
   1 -12  -3   77.89    7.80
  -1  12   3   72.89    7.20
   0 -12  -3    8.90    4.20
   0  12   3    5.90    3.20
  -1 -12  -3    1.10    3.30
   1  12   3    1.50    2.80
  -2 -12  -3   11.70    4.10
   2  12   3   12.10    3.30
  -3 -12  -3   63.19    7.10
   3  12   3   55.59    6.50
  -4 -12  -3  147.69   10.00
   4  12   3  142.29    9.60
  -5 -12  -3  100.09    9.40
   5  12   3  108.89    9.10
   6  12   3   15.40    5.30
   3 -13  -3  130.49   12.60
  -3  13   3  155.88   11.10
   2 -13  -3   62.29    9.10
  -2  13   3   54.19    8.00
   1 -13  -3  171.38   11.60
   0 -13  -3    2.90    8.20
  -1 -13  -3    5.00    4.40
   1  13   3    4.20    3.60
  -2 -13  -3  132.89    9.30
   2  13   3  117.69    8.30
  -3 -13  -3   30.10    5.60
   3  13   3   26.50    4.90
   4  13   3   33.90    6.70
  -5 -13  -3   79.99    9.80
   5  13   3   78.99    9.60
   1 -14  -3   -4.40    5.70
   0 -14  -3   42.70    6.70
  -1 -14  -3    5.40    5.20
  -2 -14  -3   -0.20    5.10
   2  14   3    1.70    5.00
  -3 -14  -3   10.20    5.40
  -4 -14  -3    4.90    5.60
   4  14   3    0.30    4.50
  -1 -15  -3   56.59    7.80
  -2 -15  -3    3.10    6.10
   2  13  -4   37.40    6.70
  -2 -13   4   35.90    7.10
   1  13  -4    8.10    6.10
  -1 -13   4   -0.50    6.10
   0 -13   4   42.00    7.50
   3  12  -4   20.90    6.50
  -3 -12   4   22.40    6.20
   2  12  -4   72.69    8.60
  -2 -12   4   70.39    9.30
   1  12  -4   38.40    6.80
   0  12  -4  115.49   13.90
   0 -12   4  163.48   11.10
  -1  12  -4  106.29   10.50
   1 -12   4   97.29   10.10
  -2  12  -4   28.00    6.80
   2 -12   4    1.80    6.00
   5  11  -4   -0.60    4.30
  -5 -11   4    0.20    5.20
   4  11  -4    9.20    4.50
  -3 -11   4   88.89    8.90
   2  11  -4    8.30    4.50
  -2 -11   4    9.60    4.60
   1  11  -4   32.50    5.00
  -1 -11   4   29.20    5.20
   0  11  -4   -1.90    4.30
   0 -11   4   -1.10    4.30
  -1  11  -4   56.89    8.10
   1 -11   4   46.00    7.20
  -2  11  -4   -3.60    5.00
   2 -11   4   -0.50    4.80
  -3  11  -4   -5.00    5.30
   3 -11   4   -2.70    5.50
   5  10  -4    0.60    4.10
  -5 -10   4   -3.70    6.60
   4  10  -4   21.80    4.20
  -4 -10   4   20.80    5.40
   3  10  -4   83.89    7.10
  -3 -10   4   86.59    8.00
  -3 -10   4   90.99    7.90
   2  10  -4   43.30    6.70
  -2 -10   4   46.40    5.40
   1  10  -4  169.78   10.10
  -1 -10   4  178.98   10.10
   0  10  -4    4.20    3.90
   0 -10   4   10.20    3.90
  -1  10  -4   18.50    4.40
   1 -10   4   27.90    4.70
  -2  10  -4    3.50    4.20
   2 -10   4    3.20    4.10
  -3  10  -4    4.20    4.90
   3 -10   4    6.60    4.80
  -4  10  -4    2.90    5.60
   4 -10   4   -4.50    5.90
  -6  -9   4   12.80    5.40
   5   9  -4    5.90    3.90
  -5  -9   4    2.80    4.70
   4   9  -4   11.60    3.50
  -4  -9   4   15.40    4.20
   3   9  -4   -2.90    2.70
  -3  -9   4    0.10    3.40
  -3  -9   4    4.00    3.40
  -2  -9   4   11.90    3.50
  -2  -9   4    4.40    3.30
   1   9  -4   -0.80    3.00
  -1  -9   4   -0.70    3.00
   0   9  -4   45.80    5.30
   0  -9   4   43.90    5.50
  -1   9  -4   68.89    6.70
   1  -9   4   62.49    6.10
  -2   9  -4  130.59    9.10
   2  -9   4  124.99    8.50
  -3   9  -4    7.00    4.50
   3  -9   4    3.20    4.10
  -4   9  -4   16.40    5.20
   4  -9   4   14.50    5.10
  -5   9  -4   48.20    7.80
   5  -9   4   38.30    7.20
   6   8  -4   -5.80    4.20
  -6  -8   4   -0.20    5.30
   5   8  -4   -1.30    3.40
  -5  -8   4   -4.30    4.10
   4   8  -4   11.10    3.30
  -4  -8   4   17.20    3.80
   3   8  -4   24.70    3.20
  -3  -8   4   22.60    3.90
  -3  -8   4   19.10    3.30
   2   8  -4   28.40    3.30
  -2  -8   4   42.40    4.80
  -2  -8   4   33.40    4.70
   1   8  -4    4.70    2.20
   1   8  -4    4.10    3.00
  -1  -8   4    3.80    2.70
   0   8  -4   59.79    5.30
   0  -8   4   62.99    5.40
  -1   8  -4    2.70    2.90
   1  -8   4    4.50    2.80
  -2   8  -4  155.58    9.30
   2  -8   4  151.38    8.80
  -3   8  -4   99.39    8.00
   3  -8   4   96.09    7.50
  -4   8  -4   25.10    5.10
   4  -8   4   23.30    5.00
  -5   8  -4   35.20    6.80
   5  -8   4   36.30    6.30
   7   7  -4   -2.90    5.40
  -7  -7   4    2.60    5.50
   6   7  -4   44.80    5.60
  -6  -7   4   41.70    6.10
   5   7  -4   25.80    4.00
  -5  -7   4   27.60    4.60
   4   7  -4    1.00    2.60
  -4  -7   4    2.90    3.10
   3   7  -4   13.70    2.70
  -3  -7   4   11.40    2.60
  -3  -7   4   15.30    3.10
   2   7  -4  116.19    6.10
  -2  -7   4  114.79    6.40
  -2  -7   4  116.29    6.80
   1   7  -4   59.89    3.80
  -1  -7   4   46.00    4.50
  -1  -7   4   52.89    4.50
   0   7  -4  221.58   10.60
   0  -7   4  237.38   10.60
  -1   7  -4  148.39    8.20
   1  -7   4  142.89    7.70
  -2   7  -4   30.70    4.30
   2  -7   4   21.20    3.40
  -3   7  -4  100.79    7.50
   3  -7   4  105.09    7.20
  -4   7  -4  219.18   11.90
   4  -7   4  217.48   11.70
  -5   7  -4  231.38   13.40
   5  -7   4  237.68   13.10
  -6   7  -4   14.20    6.50
   6  -7   4   15.40    5.80
   7   6  -4   52.49    6.90
  -7  -6   4   34.00    6.80
   6   6  -4   83.59    7.80
  -6  -6   4   93.19    8.70
   5   6  -4  156.28    8.80
  -5  -6   4  149.99    9.10
   4   6  -4   77.19    5.80
  -4  -6   4   88.79    6.10
   3   6  -4   32.20    3.90
  -3  -6   4   33.20    4.10
  -3  -6   4   33.50    3.40
   2   6  -4  152.58    7.00
  -2  -6   4  147.79    7.00
   1   6  -4  260.27   10.40
  -1  -6   4  269.77   11.10
  -1  -6   4  250.97   11.20
   0   6  -4  153.58    8.20
   0  -6   4  187.38    8.10
  -1   6  -4  481.45   20.30
  -2   6  -4  130.39    7.50
   2  -6   4  121.79    6.90
  -3   6  -4  140.09    8.30
   3  -6   4  136.79    7.90
  -4   6  -4  326.57   15.10
   4  -6   4  313.07   14.60
  -5   6  -4   12.40    4.80
   5  -6   4   14.40    4.40
  -6   6  -4    2.00    5.30
   6  -6   4    4.90    5.60
   7   5  -4   39.60    6.00
  -7  -5   4   36.00    6.50
   6   5  -4   11.50    4.10
  -6  -5   4   11.20    4.30
   5   5  -4  243.48   11.50
  -5  -5   4  241.68   12.00
   4   5  -4   33.70    4.30
  -4  -5   4   39.30    4.60
   3   5  -4   48.90    4.00
  -3  -5   4   47.70    3.40
  -3  -5   4   52.59    4.30
   2   5  -4   30.40    3.00
  -2  -5   4   32.70    3.50
  -2  -5   4   29.90    2.90
   1   5  -4  114.89    5.40
  -1  -5   4  122.19    5.70
  -1  -5   4  120.09    6.00
   0   5  -4  517.05   19.80
   0  -5   4  492.25   19.30
  -1   5  -4   65.99    4.50
   1  -5   4   70.19    4.50
  -2   5  -4  101.39    8.90
  -3   5  -4    6.70    2.70
   3  -5   4   11.30    2.60
  -4   5  -4  124.29    8.20
   4  -5   4  126.79    7.70
  -5   5  -4    4.60    4.20
   5  -5   4    8.20    3.70
  -6   5  -4    8.20    5.60
   6  -5   4    9.60    4.80
  -7   5  -4   79.39   11.40
   7   4  -4   81.69    9.00
  -7  -4   4   93.69    9.70
   6   4  -4   75.39    7.50
  -6  -4   4   99.49    8.10
   5   4  -4  135.79    7.90
  -5  -4   4  138.79    8.40
   4   4  -4  386.86   16.00
  -4  -4   4  400.56   16.40
   3   4  -4  416.16   15.90
  -3  -4   4  394.86   14.90
  -3  -4   4  397.16   16.20
   2   4  -4  513.65   19.30
  -2  -4   4  519.65   19.00
  -2  -4   4  508.15   19.80
   1   4  -4  245.18    9.40
  -1  -4   4  245.68    9.70
  -1  -4   4  233.08   10.00
   0   4  -4   13.20    1.60
   0  -4   4   21.40    2.30
   0  -4   4   15.20    2.40
  -1   4  -4    1.00    1.50
   1  -4   4    2.30    1.30
  -2   4  -4  681.43   27.30
   2  -4   4  755.22   27.20
  -3   4  -4 1024.10   37.90
   3  -4   4  987.30   37.60
  -4   4  -4   -0.10    2.80
   4  -4   4    1.40    2.60
  -5   4  -4    5.90    3.50
   5  -4   4    4.50    3.40
  -6   4  -4   10.60    4.80
   6  -4   4   17.90    4.50
  -7   4  -4   19.40    6.60
   7   3  -4   14.10    4.90
  -7  -3   4   19.00    5.30
   6   3  -4  126.59    8.30
  -6  -3   4  127.89    8.80
   5   3  -4    0.30    2.60
  -5  -3   4   -3.10    2.70
   4   3  -4  229.58   10.20
  -4  -3   4  229.38   10.60
   3   3  -4  117.29    6.00
  -3  -3   4  125.39    6.30
   2   3  -4   57.89    3.60
  -2  -3   4   66.09    3.90
   1   3  -4   78.79    3.80
  -1  -3   4   85.69    4.40
  -1  -3   4   82.69    3.90
   0   3  -4    0.90    0.70
   0  -3   4    0.30    1.00
   0  -3   4    0.40    1.10
  -1   3  -4   16.60    2.30
   1  -3   4   14.30    2.20
  -2   3  -4    1.80    1.60
   2  -3   4    0.20    1.50
  -3   3  -4  126.09    7.10
   3  -3   4  141.79    6.80
  -4   3  -4  150.48    8.10
   4  -3   4  137.69    7.60
  -5   3  -4  174.48    9.80
   5  -3   4  165.28    9.30
  -6   3  -4   19.00    4.50
   6  -3   4   16.40    4.10
  -7   3  -4   18.50    5.90
   7  -3   4   13.30    5.30
   7   2  -4  120.89    9.70
  -7  -2   4  127.99    9.80
   6   2  -4  147.99    8.70
  -6  -2   4  141.19    9.30
   5   2  -4   58.29    5.40
  -5  -2   4   75.19    5.90
   4   2  -4   12.90    2.40
  -4  -2   4   12.20    2.50
   3   2  -4  218.68    9.10
  -3  -2   4  210.88    9.50
   2   2  -4  788.92   28.60
  -2  -2   4  792.52   27.80
  -2  -2   4  763.62   28.80
   1   2  -4   39.70    2.40
  -1  -2   4   36.20    2.40
  -1  -2   4   37.90    2.60
   0   2  -4   12.00    1.30
   0  -2   4   14.20    1.60
   0  -2   4   16.70    1.70
  -1   2  -4  122.49    5.70
   1  -2   4  125.59    5.60
  -2   2  -4   45.60    3.60
   2  -2   4   53.09    3.40
  -3   2  -4   43.00    3.70
   3  -2   4   31.00    3.30
  -4   2  -4   38.60    4.40
   4  -2   4   33.70    2.90
   4  -2   4   41.50    5.10
  -5   2  -4   19.00    3.70
   5  -2   4   24.40    3.60
   5  -2   4   26.50    2.60
  -6   2  -4  178.68   10.50
   6  -2   4  177.08   10.00
  -7   2  -4   22.70    6.10
   7  -2   4   18.00    5.20
   7   1  -4    3.90    4.60
  -7  -1   4    2.90    4.30
   6   1  -4   18.90    3.90
  -6  -1   4   13.90    3.90
   5   1  -4  307.27   13.30
  -5  -1   4  309.07   13.80
   4   1  -4   43.20    4.00
  -4  -1   4   45.10    4.40
   3   1  -4  578.74   21.70
  -3  -1   4  574.44   22.00
   2   1  -4  116.69    5.40
  -2  -1   4  119.99    5.60
   1   1  -4 1032.10   37.80
  -1  -1   4 1087.89   37.50
  -1  -1   4 1046.50   38.10
   0  -1   4  792.72   28.30
   0  -1   4  746.73   28.10
   0  -1   4  798.32   28.10
  -1   1  -4  274.27   10.80
   1  -1   4  279.27   10.10
   1  -1   4  275.47   10.70
  -2   1  -4   85.09    4.90
   2  -1   4   99.89    4.70
   2  -1   4   97.79    3.90
  -3   1  -4 1481.65   52.49
   3  -1   4 1454.65   51.39
   3  -1   4 1398.16   52.29
  -4   1  -4 1098.89   39.90
   4  -1   4 1026.30   39.50
   4  -1   4 1095.99   38.70
  -5   1  -4   42.00    4.80
   5  -1   4   46.30    4.00
   5  -1   4   53.99    5.00
  -6   1  -4   78.99    7.40
   6  -1   4   86.29    7.10
   6  -1   4  102.29    7.70
  -7   1  -4   36.20    6.00
   7  -1   4   41.60    5.70
  -8   1  -4   28.00    6.60
  -7   0   4   11.40    4.80
   6   0  -4   10.30    3.60
  -6   0   4   10.70    3.60
   5   0  -4   25.50    3.40
  -5   0   4   18.10    3.20
   4   0  -4    2.10    1.90
  -4   0   4   -0.90    2.00
   3   0  -4   27.10    2.90
  -3   0   4   27.70    3.00
   2   0  -4  582.44   21.70
  -2   0   4  590.64   21.90
  -1   0   4   22.00    1.90
  -1   0   4   22.40    1.40
  -1   0   4   20.20    1.70
   0   0   4   68.29    3.10
   0   0   4   64.19    3.20
  -1   0  -4   71.29    3.60
   1   0   4   75.09    3.60
   1   0   4   77.79    3.20
   2   0   4   56.99    2.80
   2   0   4   58.49    3.20
  -3   0  -4  161.58    7.30
   3   0   4  171.58    6.70
   3   0   4  162.38    7.30
  -4   0  -4  326.57   13.30
   4   0   4  318.27   13.20
   4   0   4  311.17   12.40
  -5   0  -4  195.28    9.50
   5   0   4  189.18    8.40
   5   0   4  184.08    9.80
  -6   0  -4   30.20    4.70
   6   0   4   26.80    4.20
   6   0   4   24.00    3.40
  -7   0  -4  149.88   10.60
   7   0   4  137.69   10.20
   7   0   4  173.18    9.60
  -8   0  -4   -0.50    5.70
  -7   1   4  108.59    9.60
   6  -1  -4    1.00    3.20
  -6   1   4    0.70    3.50
   5  -1  -4   34.30    4.50
  -5   1   4   31.70    4.00
   4  -1  -4   87.99    6.40
  -4   1   4   92.59    5.60
   3  -1  -4   11.60    1.80
  -3   1   4   14.60    2.10
   2  -1  -4 1734.83   59.79
  -2   1   4 1609.94   59.79
  -1   1   4 3105.19  107.99
  -1   1   4 3004.50  107.89
   0   1   4  269.07   10.10
   0   1   4  268.87   10.00
   1   1   4  259.27    9.60
   1   1   4  254.67    9.90
   2   1   4  429.56   15.40
   2   1   4  406.66   15.80
  -3  -1  -4  423.36   16.00
   3   1   4  421.96   16.10
   3   1   4  410.76   15.70
  -4  -1  -4  438.96   16.90
   4   1   4  422.66   16.30
   4   1   4  422.26   16.70
   5   1   4  547.35   20.90
   5   1   4  546.85   21.50
  -6  -1  -4  129.99    8.20
   6   1   4  127.89    7.90
   6   1   4  124.39    7.30
  -7  -1  -4   88.09    8.40
   7   1   4  106.79    9.00
   7   1   4   90.99    7.60
  -8  -1  -4   -3.10    5.50
  -7   2   4    7.70    4.80
   6  -2  -4   17.00    3.70
  -6   2   4   13.00    4.00
   5  -2  -4  183.48    9.00
  -5   2   4  180.18    9.50
   4  -2  -4  358.76   16.70
  -4   2   4  425.26   16.30
   3  -2  -4  716.43   27.30
   3  -2  -4  788.62   28.30
  -3   2   4  786.62   28.60
   2  -2  -4  200.48    8.30
  -2   2   4  231.48    9.00
  -2   2   4  233.68    9.10
   1  -2  -4   69.59    3.30
  -1   2   4   78.49    3.60
  -1   2   4   79.49    3.60
   0  -2  -4  552.94   20.10
   0  -2  -4  564.14   20.40
   0   2   4  565.74   20.20
   0   2   4  558.84   20.40
   1   2   4  135.99    5.80
   1   2   4  142.69    5.70
  -2  -2  -4 1408.66   50.39
   2   2   4 1419.76   50.59
   2   2   4 1427.16   50.89
  -3  -2  -4  209.18    8.50
   3   2   4  210.18    8.50
   3   2   4  205.28    8.80
  -4  -2  -4   22.10    3.20
   4   2   4   21.60    2.60
   4   2   4   23.40    3.10
  -5  -2  -4   42.20    4.70
   5   2   4   50.39    4.70
   5   2   4   30.40    4.90
  -6  -2  -4  159.38    9.10
   6   2   4  175.38    9.40
   6   2   4  173.38    8.80
  -7  -2  -4    5.50    6.80
  -7  -2  -4    8.70    4.80
   7   2   4    5.70    3.70
  -8  -2  -4   -0.50    5.70
   8   2   4   -1.40    6.60
  -7   3   4   18.00    5.30
   6  -3  -4   47.50    6.40
  -6   3   4   46.80    6.70
   5  -3  -4   97.19    6.50
  -5   3   4   89.39    6.80
   4  -3  -4  117.89    6.80
   4  -3  -4  115.29    5.50
  -4   3   4  125.39    7.00
   3  -3  -4  927.71   32.80
   3  -3  -4  893.01   32.20
  -3   3   4  858.71   33.10
   2  -3  -4  118.59    5.40
  -2   3   4  129.29    5.80
  -2   3   4  128.29    5.70
   1  -3  -4    1.10    1.00
  -1   3   4    1.70    0.90
  -1   3   4    0.10    0.90
   0  -3  -4  403.36   16.10
   0   3   4  452.35   16.20
   0   3   4  450.75   15.70
  -1  -3  -4  108.29    4.60
  -1  -3  -4  110.69    4.90
   1   3   4  114.59    4.80
  -2  -3  -4  996.40   34.90
  -2  -3  -4  945.41   35.30
  -2  -3  -4  930.61   34.60
   2   3   4 1027.10   35.20
  -3  -3  -4  666.93   24.40
   3   3   4  674.63   24.80
  -4  -3  -4   44.20    3.60
   4   3   4   41.50    3.70
   4   3   4   36.50    3.20
  -5  -3  -4    1.90    2.50
   5   3   4    2.80    2.10
  -6  -3  -4   87.99    5.60
  -6  -3  -4   88.89    6.70
  -6  -3  -4   69.49    6.70
   6   3   4   71.39    5.90
  -7  -3  -4   14.90    4.90
   7   3   4   13.30    3.70
  -8  -3  -4   10.00   10.10
   8   3   4   10.90    4.80
   7  -4  -4    7.60    6.10
  -7   4   4   16.90    5.70
   6  -4  -4  113.19    8.20
  -6   4   4  110.39    8.90
   5  -4  -4   54.19    5.60
  -5   4   4   43.50    5.20
   4  -4  -4  241.78   10.00
  -4   4   4  240.88   11.10
   3  -4  -4  922.71   33.50
   3  -4  -4  923.81   33.90
  -3   4   4  919.31   34.40
   2  -4  -4  835.12   30.70
  -2   4   4  859.91   31.10
  -2   4   4  840.22   30.90
   1  -4  -4  352.86   13.50
  -1   4   4  355.36   13.50
  -1   4   4  357.56   13.50
   0  -4  -4   12.60    1.90
   0   4   4   14.70    1.70
   0   4   4   13.40    1.20
  -1  -4  -4   90.39    4.40
   1   4   4   92.79    4.20
  -2  -4  -4   46.20    3.10
   2   4   4   48.90    2.90
  -3  -4  -4  119.89    5.60
  -3  -4  -4   99.89    5.00
  -3  -4  -4  115.69    5.10
   3   4   4  121.09    5.50
  -4  -4  -4  190.98    8.70
  -4  -4  -4  201.58    8.40
  -4  -4  -4  193.08    8.10
   4   4   4  194.88    8.60
  -5  -4  -4   19.70    3.20
  -5  -4  -4   25.00    3.10
  -5  -4  -4   21.50    3.10
   5   4   4   21.80    2.90
  -6  -4  -4  235.28   11.00
  -6  -4  -4  216.78    9.80
  -6  -4  -4  222.48   10.80
   6   4   4  206.18   10.40
  -7  -4  -4   35.30    5.40
   7   4   4   42.60    4.90
   8   4   4    9.50    4.80
  -7   5   4   13.70    6.00
   6  -5  -4   21.30    4.40
   5  -5  -4   51.89    6.10
  -5   5   4   49.90    6.00
   4  -5  -4   91.69    5.90
   4  -5  -4   88.19    5.50
  -4   5   4   83.49    6.10
   3  -5  -4   18.10    2.40
   3  -5  -4   15.40    2.40
  -3   5   4   15.80    2.70
   2  -5  -4   25.80    2.90
  -2   5   4   31.20    2.80
  -2   5   4   24.80    2.90
   1  -5  -4    4.70    1.50
  -1   5   4    7.00    1.40
  -1   5   4    8.20    1.40
   0  -5  -4  256.47   10.40
   0   5   4  263.67   10.30
   0   5   4  257.17    9.70
  -1  -5  -4  196.88    8.30
   1   5   4  194.08    8.00
  -2  -5  -4   18.70    2.40
   2   5   4   21.30    2.20
  -3  -5  -4  122.89    6.00
  -3  -5  -4  118.89    5.20
   3   5   4  128.29    6.00
  -4  -5  -4    1.50    2.00
  -4  -5  -4    4.10    1.80
  -5  -5  -4    7.80    3.10
  -5  -5  -4    7.60    2.60
   5   5   4    9.40    2.40
  -6  -5  -4  317.87   13.50
  -6  -5  -4  309.77   13.60
   6   5   4  287.87   13.50
  -7  -5  -4  146.79   10.30
   7   5   4  137.59    9.00
   8   5   4    4.50    4.80
   6  -6  -4    9.90    4.70
  -6   6   4    8.30    4.50
   5  -6  -4  113.89    7.80
  -5   6   4  104.69    7.80
   4  -6  -4  203.78    9.70
  -4   6   4  203.88   10.40
   3  -6  -4   13.20    2.60
  -3   6   4   18.10    3.00
   2  -6  -4  295.77   12.40
  -2   6   4  305.57   12.10
  -2   6   4  298.77   12.40
   1  -6  -4   25.10    3.10
  -1   6   4   30.90    2.70
  -1   6   4   27.20    2.70
   0  -6  -4   79.79    4.60
   0   6   4   84.19    3.80
   0   6   4   78.69    4.20
  -1  -6  -4  110.99    5.60
   1   6   4  108.79    4.30
   1   6   4  109.89    5.20
  -2  -6  -4   19.80    2.40
   2   6   4   17.50    2.40
  -3  -6  -4   66.69    3.40
  -3  -6  -4   63.59    4.40
   3   6   4   70.89    4.20
  -4  -6  -4   29.50    3.80
  -4  -6  -4   28.10    3.20
   4   6   4   31.70    3.50
  -5  -6  -4  115.99    6.90
  -5  -6  -4  117.69    6.40
   5   6   4  114.59    6.70
  -6  -6  -4   54.19    7.40
  -6  -6  -4   60.39    6.00
   6   6   4   54.99    5.60
   7   6   4   43.00    5.30
   8   6   4   96.49    9.80
  -6   7   4   -0.30    4.70
   5  -7  -4   -6.40    3.90
  -5   7   4    2.10    4.10
   4  -7  -4   10.50    3.10
   4  -7  -4    8.70    3.50
  -4   7   4    8.70    3.40
  -3   7   4    1.00    2.30
   2  -7  -4  292.17   12.40
  -2   7   4  288.77   12.20
  -2   7   4  290.37   11.90
   1  -7  -4  715.03   27.10
  -1   7   4  740.43   26.80
  -1   7   4  705.63   26.70
   0  -7  -4   31.60    3.20
   0   7   4   26.90    2.80
   0   7   4   26.00    2.40
  -1  -7  -4  145.79    7.00
   1   7   4  146.39    5.80
   1   7   4  145.99    6.60
  -2  -7  -4  149.09    7.20
   2   7   4  150.68    6.90
  -3  -7  -4    3.70    2.30
  -3  -7  -4    0.60    1.50
   3   7   4    3.30    2.10
  -4  -7  -4  152.28    7.90
  -4  -7  -4  151.28    6.90
   4   7   4  160.68    7.80
  -5  -7  -4  699.43   26.90
   5   7   4  690.83   26.90
  -6  -7  -4  242.38   11.80
   6   7   4  227.48   11.50
   7   7   4   24.20    4.70
  -6   8   4   11.30    5.50
  -5   8   4    6.60    4.30
   4  -8  -4    2.20    3.70
   4  -8  -4    1.30    3.40
  -4   8   4   -1.60    3.20
   3  -8  -4   63.49    6.10
  -3   8   4   70.59    5.80
   2  -8  -4   86.89    6.00
  -2   8   4   73.39    5.50
  -2   8   4   84.89    5.30
   1  -8  -4  122.59    6.90
  -1   8   4  127.79    6.20
  -1   8   4  120.69    6.20
   0   8   4  150.88    6.70
   0   8   4  156.08    7.10
  -1  -8  -4   22.60    4.30
   1   8   4   30.10    3.10
   1   8   4   29.10    2.50
  -2  -8  -4   75.49    7.00
   2   8   4   64.69    4.40
  -3  -8  -4    7.60    2.60
   3   8   4    3.00    1.80
  -4  -8  -4  164.58    8.50
   4   8   4  151.58    8.00
  -5  -8  -4  310.77   13.70
   5   8   4  299.07   13.60
  -6  -8  -4   34.70    5.10
   6   8   4   37.90    4.70
   7   8   4   24.60    5.00
  -5   9   4   68.19    9.00
   4  -9  -4  172.38   10.70
  -4   9   4  155.28   10.00
   3  -9  -4  197.88   10.50
  -3   9   4  178.58   10.20
   2  -9  -4   72.19    6.20
  -2   9   4   83.29    6.00
  -2   9   4   75.79    5.60
   1  -9  -4   60.89    5.30
  -1   9   4   64.29    4.60
  -1   9   4   61.49    4.60
   0  -9  -4  553.54   21.60
   0   9   4  538.45   20.50
   0   9   4  540.45   20.80
  -1  -9  -4  406.26   16.10
   1   9   4  366.36   14.60
   1   9   4  390.56   16.00
  -2  -9  -4   49.00    4.90
   2   9   4   55.69    4.30
  -3  -9  -4  108.19    6.80
   3   9   4  120.09    6.50
  -4  -9  -4  103.09    6.80
   4   9   4   94.39    6.30
  -5  -9  -4  140.39    8.80
   5   9   4  141.99    8.50
  -6  -9  -4  148.79   10.10
   6   9   4  180.68   10.20
   7   9   4   26.40    5.50
  -5  10   4    3.20    5.30
   4 -10  -4   12.90    5.50
  -4  10   4   14.30    4.80
   3 -10  -4  218.48   11.60
  -3  10   4  199.18   10.90
   2 -10  -4   91.09    7.50
  -2  10   4  101.09    6.70
  -2  10   4   98.09    6.90
   1 -10  -4   41.10    5.50
  -1  10   4   45.70    4.40
   0 -10  -4   44.70    4.90
   0  10   4   49.10    4.20
   0  10   4   52.19    4.40
  -1 -10  -4   42.10    5.00
   1  10   4   35.40    3.50
   1  10   4   40.80    4.00
  -2 -10  -4   90.89    6.60
   2  10   4   94.79    5.90
  -3 -10  -4  105.79    7.50
   3  10   4  106.69    6.60
  -4 -10  -4  210.78   10.80
   4  10   4  214.38   10.50
  -5 -10  -4   17.10    4.20
   5  10   4   13.70    3.70
  -6 -10  -4    8.50    4.70
   6  10   4   -0.80    3.80
   7  10   4    5.40    4.90
   4 -11  -4   68.89   10.20
  -4  11   4   86.39    9.30
   3 -11  -4   85.39    8.90
  -3  11   4   78.39    7.90
   2 -11  -4  118.19    8.90
  -2  11   4  119.29    8.10
   1 -11  -4   82.39    7.60
  -1  11   4   79.59    6.30
  -1  11   4  101.99    6.30
   0 -11  -4    8.80    3.20
   0  11   4   13.70    2.80
   0  11   4   10.70    2.70
  -1 -11  -4    9.30    3.30
   1  11   4    7.30    2.60
  -2 -11  -4   56.09    6.10
   2  11   4   57.09    5.30
  -3 -11  -4   22.80    4.20
   3  11   4   23.30    3.60
  -4 -11  -4  107.49    8.20
   4  11   4  108.59    7.70
  -5 -11  -4   40.10    5.20
   5  11   4   32.90    4.90
  -6 -11  -4   28.20    5.60
   6  11   4   18.60    5.00
   3 -12  -4   -0.20    5.40
  -3  12   4    1.00    4.50
   2 -12  -4   28.80    5.60
  -2  12   4   34.20    5.10
   1 -12  -4  162.08   10.20
  -1  12   4  152.98   10.40
   0 -12  -4   19.90    4.40
   0  12   4   14.30    3.40
  -1 -12  -4  276.77   13.30
   1  12   4  244.88   11.70
  -2 -12  -4    2.30    3.80
   2  12   4   10.10    3.40
  -3 -12  -4    3.10    4.10
   3  12   4    0.80    3.40
  -4 -12  -4   37.80    5.50
   4  12   4   38.40    5.10
  -5 -12  -4   -2.10    4.90
   5  12   4   -1.70    4.20
  -6 -12  -4   12.20    7.60
   6  12   4   28.20    5.60
   2 -13  -4    1.40    5.60
   1 -13  -4    1.10    4.90
   0 -13  -4    4.50    6.00
  -1 -13  -4   -1.10    4.20
   1  13   4    5.50    3.50
  -2 -13  -4    6.10    4.50
   2  13   4    1.10    3.60
  -3 -13  -4    6.10    4.70
   3  13   4   11.70    4.10
  -4 -13  -4    5.50    7.00
   4  13   4   -0.20    4.30
  -5 -13  -4   54.69    7.10
   5  13   4   52.09    6.60
   1 -14  -4   14.50    6.50
   0 -14  -4   87.39    9.60
  -1 -14  -4    0.70    5.20
  -2 -14  -4   18.30    5.40
   2  14   4   17.10    4.40
  -3 -14  -4   66.19    9.10
   3  14   4   62.99    7.80
  -4 -14  -4   38.50    6.90
   4  14   4   23.50    5.50
  -1 -15  -4   33.20    7.10
  -2 -15  -4    0.40    6.10
   3  12  -5    7.50    6.50
   2  12  -5    6.80    5.60
  -2 -12   5   -0.70    6.60
   1  12  -5   20.00    6.00
  -1 -12   5   15.40    6.00
   0  12  -5   43.80    6.70
   0 -12   5   26.70    6.50
  -1  12  -5    5.60    6.20
   1 -12   5    2.70    5.90
  -4 -11   5    1.20    5.40
   2  11  -5   -6.30    4.40
  -2 -11   5   -0.70    4.80
   1  11  -5    0.30    4.30
  -1 -11   5   -1.30    4.80
   0  11  -5   -1.10    4.80
   0 -11   5    8.10    4.90
  -1  11  -5   11.90    5.50
   1 -11   5    1.30    5.00
  -2  11  -5   -2.10    5.40
   2 -11   5    4.40    5.30
  -3  11  -5   66.89   10.20
   3 -11   5   61.59    8.10
   5  10  -5   17.20    4.70
  -5 -10   5   17.80    5.70
   4  10  -5  118.09    8.80
  -4 -10   5  130.09   11.20
   3  10  -5   10.00    4.20
  -3 -10   5   14.30    5.90
  -3 -10   5   14.30    4.80
   2  10  -5  123.29    9.20
  -2 -10   5  115.09    9.00
   1  10  -5   74.29    7.20
  -1 -10   5   55.09    7.30
   0  10  -5    5.80    3.90
   0 -10   5    6.40    3.90
  -1  10  -5   -0.10    4.10
   1 -10   5   -1.00    4.20
  -2  10  -5  204.18   14.10
  -3  10  -5  139.09   11.30
   3 -10   5  136.19   11.00
  -4  10  -5    3.50    5.90
   4 -10   5   10.30    6.20
   5   9  -5   -1.60    4.50
  -5  -9   5   12.20    5.70
   4   9  -5  152.28    9.30
  -4  -9   5  152.98   10.10
   3   9  -5   58.89    6.00
  -3  -9   5   52.89    6.50
  -3  -9   5   60.39    7.00
   2   9  -5   82.79    6.30
  -2  -9   5   74.09    6.80
  -2  -9   5   71.19    6.80
   1   9  -5   47.90    6.20
  -1  -9   5   48.00    5.80
   0   9  -5   23.70    4.20
   0  -9   5   25.80    4.30
  -1   9  -5    1.10    3.60
   1  -9   5    5.90    3.50
  -2   9  -5  206.78   12.00
   2  -9   5  198.48   11.40
  -3   9  -5  326.67   17.20
   3  -9   5  310.97   17.20
  -4   9  -5   57.89    7.50
   4  -9   5   67.89    9.00
   6   8  -5   35.50    5.80
  -6  -8   5   17.90    5.70
   5   8  -5  100.29    8.50
  -5  -8   5  102.29    8.60
   4   8  -5  101.39    7.30
  -4  -8   5  104.49    8.00
   3   8  -5  404.06   16.80
  -3  -8   5  415.36   17.80
   2   8  -5  165.08    9.00
  -2  -8   5  176.68    9.00
  -2  -8   5  172.08    9.40
   1   8  -5   91.69    7.00
   1   8  -5   86.69    5.70
  -1  -8   5   80.49    6.10
   0   8  -5   -1.70    2.70
   0  -8   5   -1.00    2.70
  -1   8  -5   83.29    6.70
   1  -8   5   80.79    6.40
  -2   8  -5  384.76   17.50
   2  -8   5  384.16   17.00
  -3   8  -5  212.88   12.00
   3  -8   5  194.98   11.40
  -4   8  -5    9.10    8.20
  -5   8  -5   11.70    5.90
   5  -8   5   15.50    6.00
   6   7  -5  118.39    9.80
  -6  -7   5  120.49   10.50
   5   7  -5  180.28   10.40
  -5  -7   5  186.48   10.90
   4   7  -5   16.40    3.40
  -4  -7   5   17.90    3.90
   3   7  -5   92.29    5.90
  -3  -7   5   87.79    5.70
  -3  -7   5   81.09    6.20
   2   7  -5   16.40    2.70
  -2  -7   5   20.20    2.90
  -2  -7   5   17.20    3.20
   1   7  -5   61.19    4.40
  -1  -7   5   63.89    5.10
  -1  -7   5   65.99    5.50
   0   7  -5   48.40    4.70
   0  -7   5   57.39    4.90
  -1   7  -5  152.08    8.50
   1  -7   5  138.69    7.90
  -2   7  -5   31.30    4.30
   2  -7   5   28.10    3.90
  -3   7  -5   20.60    4.50
   3  -7   5   22.30    4.10
  -4   7  -5    2.70    4.00
   4  -7   5    3.80    3.90
  -5   7  -5    1.20    4.80
   5  -7   5    5.30    5.00
  -6   7  -5   -3.90    6.40
   7   6  -5   -2.50    5.50
  -7  -6   5    1.40    6.00
   6   6  -5  105.39    8.80
  -6  -6   5  110.29   13.60
   5   6  -5  215.68   11.00
  -5  -6   5  199.78   11.20
   4   6  -5  355.76   14.90
  -4  -6   5  337.17   15.30
   3   6  -5  124.49    6.70
  -3  -6   5  107.39    6.00
  -3  -6   5  125.69    7.10
   2   6  -5   71.19    4.80
  -2  -6   5   73.09    4.70
  -2  -6   5   83.89    5.30
   1   6  -5  125.29    6.00
  -1  -6   5  126.49    6.50
  -1  -6   5  127.09    6.70
   0   6  -5    0.10    2.20
   0  -6   5   -0.20    1.90
  -1   6  -5  910.91   34.90
   1  -6   5  927.41   34.60
  -2   6  -5  323.87   14.50
   2  -6   5  327.67   14.10
  -3   6  -5    8.70    3.20
   3  -6   5    0.50    2.90
  -4   6  -5   85.29    7.90
   4  -6   5   88.09    7.20
  -5   6  -5    2.80    4.60
   5  -6   5    0.80    4.20
  -6   6  -5   59.09    9.20
   6  -6   5   79.89    9.50
   7   5  -5   33.40    6.20
  -7  -5   5   32.50    6.70
   6   5  -5   58.79    6.70
  -6  -5   5   46.20    6.30
   5   5  -5  118.59    7.90
  -5  -5   5  121.59    8.10
   4   5  -5  253.17   11.30
  -4  -5   5  244.08   11.60
   3   5  -5   67.59    4.70
  -3  -5   5   55.09    3.70
  -3  -5   5   70.79    4.90
   2   5  -5  697.03   26.10
  -2  -5   5  694.13   27.80
  -2  -5   5  718.83   26.00
   1   5  -5   57.49    3.50
  -1  -5   5   48.50    4.10
  -1  -5   5   57.99    3.80
   0  -5   5   -1.40    1.60
   0  -5   5    1.90    1.80
  -1   5  -5   29.50    3.90
   1  -5   5   42.10    3.70
  -2   5  -5  117.19    7.00
   2  -5   5  119.39    6.70
  -3   5  -5  170.68    9.30
   3  -5   5  173.58    8.80
  -4   5  -5  397.46   17.10
   4  -5   5  364.66   16.50
  -5   5  -5   87.49    8.30
   5  -5   5   85.89    7.50
  -6   5  -5   74.99    8.80
   6  -5   5   55.99    9.50
   7   4  -5   75.59    9.50
  -7  -4   5   76.79   10.00
   6   4  -5    1.10    3.70
  -6  -4   5   13.50    4.60
   5   4  -5    1.10    2.90
  -5  -4   5   -0.80    3.10
   4   4  -5   35.30    4.40
  -4  -4   5   31.30    4.60
  -3  -4   5   80.09    3.90
  -3  -4   5   89.89    5.40
   2   4  -5  217.48    9.30
  -2  -4   5  231.78    9.90
  -2  -4   5  219.28    8.90
   1   4  -5  134.39    5.80
  -1  -4   5  126.99    6.40
  -1  -4   5  138.29    6.00
   0  -4   5  220.38    9.30
   0  -4   5  224.18    9.60
  -1   4  -5    1.80    1.70
   1  -4   5   -0.20    1.40
  -2   4  -5   22.40    3.30
   2  -4   5   20.20    2.80
  -3   4  -5   26.60    3.60
   3  -4   5   19.30    3.00
  -4   4  -5   20.10    3.60
   4  -4   5   16.90    3.20
  -5   4  -5  388.56   17.40
   5  -4   5  363.36   16.60
  -6   4  -5  125.89   10.50
   6  -4   5  126.39    9.30
  -7   4  -5    7.70    6.60
   7  -4   5   -0.90    5.10
   7   3  -5    3.10    4.70
  -7  -3   5   10.80    5.40
   6   3  -5  113.19    8.50
  -6  -3   5  124.89    9.10
   5   3  -5   73.69    6.10
  -5  -3   5   83.09    6.60
   4   3  -5  245.78   11.10
  -4  -3   5  256.37   11.70
   3   3  -5 1095.89   40.10
   2   3  -5  625.84   24.20
  -2  -3   5  672.23   24.80
  -2  -3   5  661.53   23.70
   1   3  -5  239.58    9.50
  -1  -3   5  245.38    9.60
  -1  -3   5  244.88   10.10
   0   3  -5  109.99    4.90
   0  -3   5  131.09    5.70
   0  -3   5  125.09    5.80
  -1   3  -5   77.59    4.80
   1  -3   5   90.79    4.70
  -2   3  -5  829.22   34.50
   2  -3   5 1023.90   34.50
   3  -3   5  684.63   29.20
  -4   3  -5  338.67   14.90
   4  -3   5  338.07   14.50
  -5   3  -5  362.46   16.10
   5  -3   5  341.47   15.50
  -6   3  -5   64.49    8.20
   6  -3   5   67.39    7.30
  -7   3  -5    0.90    6.10
   7   2  -5    5.40    4.70
  -7  -2   5    8.80    5.20
   6   2  -5    1.10    3.60
  -6  -2   5   -4.30    3.60
   5   2  -5   20.00    3.40
  -5  -2   5   15.60    3.50
   4   2  -5  265.87   11.50
  -4  -2   5  261.17   11.90
   3   2  -5 1068.99   39.40
  -3  -2   5 1086.19   39.90
   2   2  -5  335.37   13.10
  -2  -2   5  326.77   13.40
  -2  -2   5  344.47   12.40
   1   2  -5  227.88    8.90
  -1  -2   5  221.88    8.70
  -1  -2   5  223.08    9.30
   0   2  -5   35.80    2.20
   0  -2   5   40.60    2.70
   0  -2   5   39.30    2.60
  -1   2  -5    8.80    1.80
   1  -2   5    3.90    1.30
  -2   2  -5  681.23   27.10
   2  -2   5  763.82   27.10
  -3   2  -5  363.26   15.30
   3  -2   5  383.86   15.20
  -4   2  -5  365.86   15.00
   4  -2   5  358.66   14.80
   4  -2   5  329.97   13.10
  -5   2  -5  137.89    8.40
   5  -2   5  129.79    7.90
  -6   2  -5    5.70    4.40
   6  -2   5    6.40    3.80
  -7   2  -5   -3.70    5.20
   7  -2   5   13.10    5.10
   7   1  -5    1.20    4.40
  -7  -1   5   -7.50    4.70
   6   1  -5    2.20    3.50
  -6  -1   5   -4.20    3.50
   5   1  -5    7.40    2.70
  -5  -1   5    6.40    2.90
   4   1  -5  373.86   15.00
  -4  -1   5  357.36   15.20
   3   1  -5 1338.07   48.40
  -3  -1   5 1332.67   48.80
   2   1  -5 1174.98   43.90
  -2  -1   5 1261.77   44.30
   1   1  -5    2.10    1.00
  -1  -1   5    2.20    1.50
  -1  -1   5    2.50    1.20
   0  -1   5   30.20    2.30
   0  -1   5   31.50    2.00
   0  -1   5   30.90    2.20
  -1   1  -5  192.08    8.60
   1  -1   5  210.78    7.80
   1  -1   5  215.68    8.50
  -2   1  -5   -0.20    1.60
   2  -1   5    0.40    0.70
   2  -1   5   -0.90    1.20
  -3   1  -5 1075.89   39.80
   3  -1   5 1049.89   38.60
   3  -1   5 1117.79   39.80
  -4   1  -5 1210.48   43.40
   4  -1   5 1119.49   41.80
  -5   1  -5   51.29    5.70
   5  -1   5   52.49    5.30
   5  -1   5   55.69    4.30
  -6   1  -5    5.70    3.80
   6  -1   5    8.80    3.70
  -7   1  -5   16.80    5.50
   7  -1   5    1.50    4.80
   7   0  -5   -1.90    4.50
  -7   0   5   -0.50    4.70
   6   0  -5  157.18    9.10
  -6   0   5  142.19    9.20
   5   0  -5  516.35   20.50
  -5   0   5  506.15   21.00
   4   0  -5  659.63   24.50
  -4   0   5  618.34   24.80
   3   0  -5  513.95   19.90
  -3   0   5  528.55   20.20
   2   0  -5    1.50    1.20
  -2   0   5    3.10    1.40
  -1   0   5   84.19    3.70
  -1   0   5   84.39    4.10
  -1   0   5   82.89    3.90
   0   0   5    4.60    0.90
   0   0   5    5.90    1.10
   0   0   5    6.00    1.10
  -1   0  -5 1319.47   55.39
   1   0   5 1701.13   55.09
   1   0   5 1635.54   55.49
   2   0   5   79.99    4.20
   2   0   5   82.09    3.60
  -3   0  -5  195.78    8.40
   3   0   5  187.58    7.50
   3   0   5  181.38    8.30
  -4   0  -5  434.46   17.20
   4   0   5  428.16   16.30
   4   0   5  428.26   17.30
  -5   0  -5   18.60    3.50
   5   0   5   18.10    2.50
   5   0   5   23.00    3.30
  -6   0  -5   78.19    7.20
   6   0   5   77.89    6.00
   6   0   5   76.89    6.70
  -7   0  -5   51.09    6.50
   7   0   5   41.60    6.10
  -8   0  -5    2.80    5.60
   7  -1  -5   -8.30    4.50
  -7   1   5   -0.60    4.60
   6  -1  -5    4.50    3.40
  -6   1   5    0.80    3.70
   5  -1  -5  379.06   15.70
  -5   1   5  369.56   16.20
   4  -1  -5  902.41   33.00
  -4   1   5  865.21   33.40
   3  -1  -5   54.29    3.70
  -3   1   5   46.70    3.80
   2  -1  -5  219.18    9.10
  -2   1   5  224.28    9.30
   1  -1  -5   15.90    1.20
   1  -1  -5   16.70    1.50
  -1   1   5   19.30    1.80
  -1   1   5   17.90    1.90
   0   1   5   47.80    2.70
   0   1   5   50.29    2.60
   0   1   5   45.30    2.50
  -1  -1  -5   28.80    2.30
   1   1   5   32.30    2.30
   1   1   5   33.00    2.00
   2   1   5 1310.77   47.80
   2   1   5 1341.17   47.30
  -3  -1  -5  191.48    8.10
   3   1   5  192.38    8.30
   3   1   5  187.58    7.70
  -4  -1  -5  135.69    6.90
   4   1   5  132.99    6.80
   4   1   5  134.89    6.30
  -5  -1  -5    0.70    2.70
   5   1   5    3.80    2.60
   5   1   5   -1.50    1.90
  -6  -1  -5   57.99    6.50
   6   1   5   71.59    6.60
   6   1   5   71.59    5.80
  -7  -1  -5   10.60    5.10
   7   1   5   12.30    4.10
   7   1   5    3.50    4.70
  -8  -1  -5    7.10    6.00
   7  -2  -5   65.59    8.50
  -7   2   5   63.79    8.30
   6  -2  -5  131.49    8.80
  -6   2   5  135.89    9.30
   5  -2  -5  165.68    8.70
  -5   2   5  157.58    9.00
   4  -2  -5  884.01   33.00
  -4   2   5  879.11   33.40
   3  -2  -5  100.19    5.30
  -3   2   5  101.59    5.50
  -2   2   5  369.66   14.30
  -2   2   5  372.26   14.40
  -1   2   5  406.76   15.00
  -1   2   5  390.76   15.00
   0  -2  -5  219.08    8.50
   0  -2  -5  209.08    8.10
   0   2   5  218.58    8.50
  -1  -2  -5   46.20    2.60
   1   2   5   52.09    2.70
   1   2   5   53.59    3.00
   2   2   5  724.53   27.20
   2   2   5  752.42   26.90
  -3  -2  -5  923.61   32.80
   3   2   5  889.61   33.20
   3   2   5  894.71   32.80
  -4  -2  -5  262.87   10.80
   4   2   5  255.27   10.60
   4   2   5  256.37   11.10
  -5  -2  -5  529.25   20.40
   5   2   5  466.95   21.90
   5   2   5  532.95   20.40
  -6  -2  -5  270.77   12.70
   6   2   5  272.77   12.90
   6   2   5  266.37   12.00
  -7  -2  -5   10.80    5.00
   7   2   5   11.80    3.70
  -8  -2  -5    9.80    6.00
   7  -3  -5   43.90    6.20
  -7   3   5   47.80    6.70
   6  -3  -5   32.10    4.60
  -6   3   5   29.30    5.10
   5  -3  -5  100.19    6.80
  -5   3   5   92.89    7.10
   4  -3  -5    4.10    2.10
  -4   3   5    7.20    2.50
   3  -3  -5   10.10    1.60
   3  -3  -5    8.30    1.80
  -3   3   5   10.80    2.10
   2  -3  -5  105.39    4.90
  -2   3   5  110.09    5.30
  -2   3   5  109.89    5.40
   1  -3  -5  695.43   25.10
  -1   3   5  679.23   25.10
  -1   3   5  690.03   25.30
   0  -3  -5 1326.27   49.80
   0   3   5 1460.45   49.50
   0   3   5 1392.86   49.80
  -1  -3  -5   47.50    3.00
  -1  -3  -5   52.59    2.70
   1   3   5   52.09    2.80
  -2  -3  -5   27.70    1.80
   2   3   5   30.90    2.30
  -3  -3  -5   68.59    3.80
   3   3   5   71.19    4.00
   3   3   5   76.89    4.40
  -4  -3  -5   85.39    4.90
   4   3   5   91.39    5.00
   4   3   5   84.89    5.20
  -5  -3  -5  964.40   35.90
   5   3   5  964.90   36.10
   5   3   5  958.80   35.70
  -6  -3  -5  193.88   10.40
  -6  -3  -5  199.28    9.40
  -6  -3  -5  202.88   10.50
   6   3   5  208.38   10.00
  -7  -3  -5    6.70    3.80
  -7  -3  -5    1.80    4.80
  -7  -3  -5    7.80    4.80
   7   3   5    6.90    3.70
   8   3   5    9.70    5.00
   7  -4  -5   28.20    5.70
  -7   4   5   31.10    6.20
   6  -4  -5   50.29    7.00
  -6   4   5   53.09    7.20
   5  -4  -5  228.78   11.00
  -5   4   5  220.08   11.30
   4  -4  -5   90.19    5.80
   4  -4  -5   99.19    5.30
  -4   4   5   90.09    6.30
   3  -4  -5  501.75   18.90
   3  -4  -5  514.85   19.50
  -3   4   5  495.05   19.80
   2  -4  -5   45.70    3.20
  -2   4   5   49.10    3.40
  -2   4   5   41.60    3.30
   1  -4  -5   30.90    2.50
  -1   4   5   27.80    2.20
  -1   4   5   27.90    2.40
   0  -4  -5  103.19    5.00
   0   4   5  111.69    4.90
   0   4   5  103.99    4.30
  -1  -4  -5   65.19    3.60
   1   4   5   68.29    3.60
  -2  -4  -5   26.10    2.60
  -2  -4  -5   27.50    2.10
   2   4   5   31.00    2.40
  -3  -4  -5  399.16   15.80
  -3  -4  -5  428.76   16.60
  -3  -4  -5  431.16   16.00
   3   4   5  443.46   16.40
  -4  -4  -5  249.38   11.10
  -4  -4  -5  263.47   10.50
  -4  -4  -5  268.47   10.60
   4   4   5  261.47   11.00
  -5  -4  -5  259.97   11.40
  -5  -4  -5  244.38   10.90
  -5  -4  -5  252.37   10.50
   5   4   5  246.08   11.00
  -6  -4  -5   46.40    6.10
  -6  -4  -5   51.69    4.90
  -6  -4  -5   49.00    6.10
   6   4   5   46.80    5.20
  -7  -4  -5   76.89    6.70
  -7  -4  -5   72.99    8.30
  -7  -4  -5   66.19    8.10
   7   4   5   57.59    6.80
   8   4   5   68.99    9.00
  -7   5   5   12.40    6.20
   6  -5  -5    1.60    4.10
  -6   5   5   -5.80    4.40
   5  -5  -5   41.00    4.60
  -5   5   5   24.90    4.40
   4  -5  -5   44.00    4.70
  -4   5   5   48.70    5.10
   3  -5  -5  438.36   17.00
   2  -5  -5  560.24   22.00
  -2   5   5  580.44   22.20
  -2   5   5  619.34   22.20
   1  -5  -5 1093.19   40.40
  -1   5   5 1108.69   40.20
  -1   5   5 1144.49   40.50
   0  -5  -5  193.48    8.30
   0   5   5  194.28    7.50
   0   5   5  195.28    8.10
  -1  -5  -5    0.20    1.30
   1   5   5   -0.30    1.10
  -2  -5  -5  146.69    6.70
   2   5   5  142.89    6.50
  -3  -5  -5  520.05   19.30
  -3  -5  -5  472.75   17.90
   3   5   5  499.55   19.00
  -4  -5  -5 1463.45   55.89
  -4  -5  -5 1513.65   54.89
  -4  -5  -5 1560.84   55.29
   4   5   5 1619.94   55.99
  -5  -5  -5  156.88    8.20
  -5  -5  -5  171.08    7.50
  -5  -5  -5  149.59    7.70
   5   5   5  158.68    8.10
  -6  -5  -5   30.20    4.50
   6   5   5   31.00    4.00
  -7  -5  -5   56.89    7.90
   7   5   5   37.30    5.10
   8   5   5   -1.20    5.00
   6  -6  -5   83.09    8.60
  -6   6   5   82.79    9.00
   5  -6  -5   20.40    4.20
  -5   6   5   22.90    4.60
   4  -6  -5  141.39    7.60
   4  -6  -5  138.69    7.80
  -4   6   5  139.79    8.20
   3  -6  -5  355.56   14.90
  -3   6   5  377.96   15.40
   2  -6  -5  624.34   24.70
  -2   6   5  679.73   24.70
  -2   6   5  660.93   24.80
   1  -6  -5  127.79    6.40
  -1   6   5  131.99    6.00
  -1   6   5  128.39    6.20
   0  -6  -5  127.79    6.20
   0   6   5  126.29    5.40
   0   6   5  134.09    6.00
  -1  -6  -5  205.38    9.10
   1   6   5  216.08    8.90
  -2  -6  -5   29.80    3.00
   2   6   5   29.30    2.80
  -3  -6  -5  457.85   17.90
   3   6   5  457.05   17.80
  -4  -6  -5  728.63   28.20
  -4  -6  -5  866.81   31.90
   4   6   5  750.42   29.30
  -5  -6  -5   11.40    3.10
  -5  -6  -5    4.50    3.40
   5   6   5    9.30    2.70
  -6  -6  -5    9.10    3.70
   6   6   5   12.30    3.30
  -7  -6  -5    3.20    4.80
   7   6   5   19.30    4.20
   8   6   5    9.60    5.20
  -6   7   5  105.09    9.70
  -5   7   5  170.28   10.50
   4  -7  -5  250.57   11.20
   4  -7  -5  232.48   11.00
  -4   7   5  217.08   11.60
  -3   7   5   -0.50    2.30
  -3   7   5    5.20    2.70
   2  -7  -5  370.66   15.60
  -2   7   5  395.46   15.60
  -2   7   5  389.96   15.40
  -1   7   5  616.64   23.50
  -1   7   5  628.24   23.30
   0  -7  -5   75.19    4.80
   0   7   5   76.89    3.90
   0   7   5   72.99    4.40
  -1  -7  -5  221.58    9.60
   1   7   5  209.78    9.10
  -2  -7  -5  182.78    8.50
   2   7   5  178.28    8.10
   3   7   5  415.36   16.50
  -4  -7  -5   18.40    3.10
   4   7   5   17.10    2.70
  -5  -7  -5  117.19    7.60
   5   7   5  120.09    7.10
  -6  -7  -5   74.19    6.90
   6   7   5   53.59    6.20
   7   7   5   33.80    5.00
  -6   8   5    8.50    5.90
   5  -8  -5    7.30    8.60
  -5   8   5   14.50    5.70
   4  -8  -5  225.48   11.70
   4  -8  -5  243.18   11.30
  -4   8   5  225.88   12.10
   3  -8  -5  423.76   17.20
  -3   8   5  387.66   16.70
  -3   8   5  411.26   17.20
   2  -8  -5   47.80    5.00
  -2   8   5   42.30    4.20
   1  -8  -5    1.90    2.20
  -1   8   5   -1.00    1.80
  -1   8   5   -1.80    1.70
   0  -8  -5   99.89    6.40
   0   8   5   97.39    5.30
   0   8   5   96.09    4.80
  -1  -8  -5   99.49    5.80
   1   8   5   89.99    5.20
  -2  -8  -5  144.99    7.50
   2   8   5  136.79    7.00
  -3  -8  -5  267.97   12.00
   3   8   5  272.57   11.70
  -4  -8  -5   68.49    5.80
   4   8   5   56.69    4.70
  -5  -8  -5   69.59    6.50
   5   8   5   65.29    5.80
  -6  -8  -5    4.10    4.00
   6   8   5    3.00    3.30
   7   8   5   49.99    6.00
  -5   9   5  143.89   10.70
   4  -9  -5    6.20    4.10
   4  -9  -5    9.50    4.60
  -4   9   5   11.30    4.20
   3  -9  -5  146.89    9.10
  -3   9   5  155.38    9.10
   2  -9  -5   20.60    3.90
  -2   9   5   19.30    3.10
  -2   9   5   21.30    3.50
   1  -9  -5  185.18    9.40
  -1   9   5  180.28    8.50
  -1   9   5  193.08    9.60
   0  -9  -5    8.70    2.70
   0   9   5    6.00    2.00
  -1  -9  -5  129.99    7.50
   1   9   5  149.09    7.00
  -2  -9  -5  285.57   12.80
   2   9   5  298.07   12.30
  -3  -9  -5    3.40    2.90
   3   9   5    5.00    2.30
  -4  -9  -5   18.70    3.80
   4   9   5   16.10    3.00
  -5  -9  -5   32.10    4.70
   5   9   5   37.90    5.10
  -6  -9  -5  107.19    8.70
   6   9   5   99.29    8.60
   7   9   5    9.60    4.80
  -5  10   5    1.40    5.40
   4 -10  -5   31.90    6.10
  -4  10   5   26.40    5.00
   3 -10  -5   25.60    4.80
  -3  10   5   24.60    4.40
   2 -10  -5   64.69    6.80
  -2  10   5   76.89    6.10
  -2  10   5   84.19    6.50
   1 -10  -5   60.39    5.90
  -1  10   5   59.49    5.10
  -1  10   5   62.79    5.10
   0 -10  -5  377.56   16.00
   0  10   5  378.16   15.00
   0  10   5  353.36   14.60
  -1 -10  -5   17.10    3.40
   1  10   5   19.40    2.70
  -2 -10  -5   -1.80    2.70
   2  10   5   -2.30    2.10
  -3 -10  -5   81.99    6.60
   3  10   5   84.39    5.90
  -4 -10  -5   30.10    4.20
   4  10   5   24.80    3.70
  -5 -10  -5   46.90    6.80
   5  10   5   31.70    4.50
  -6 -10  -5  158.78   10.50
   6  10   5  177.58   10.50
   7  10   5   52.09    6.70
   4 -11  -5   -4.90   10.70
  -4  11   5   11.00    5.20
   3 -11  -5   16.20    5.50
  -3  11   5   10.40    4.40
   2 -11  -5  233.58   12.60
  -2  11   5  227.78   11.30
  -2  11   5  217.48   11.50
   1 -11  -5   37.80    5.00
  -1  11   5   39.30    5.50
  -1  11   5   35.40    4.00
   0 -11  -5   11.40    3.60
   0  11   5    7.60    2.80
  -1 -11  -5   38.90    4.80
   1  11   5   39.30    4.60
  -2 -11  -5   63.39    6.20
   2  11   5   57.99    5.40
  -3 -11  -5  102.19    7.70
   3  11   5  106.39    7.00
  -4 -11  -5   33.80    5.00
   4  11   5   42.10    5.80
  -5 -11  -5  126.99    9.40
   5  11   5  126.19   10.00
  -6 -11  -5    2.90    5.10
   6  11   5    0.30    4.20
   3 -12  -5    2.60    5.40
  -3  12   5   12.20    5.10
   2 -12  -5   85.99    9.00
   1 -12  -5   98.89    8.60
  -1  12   5   94.59    7.40
   0 -12  -5   -0.20    3.70
   0  12   5    2.20    3.00
  -1 -12  -5   28.60    4.80
   1  12   5   27.40    3.80
  -2 -12  -5  163.98   10.10
   2  12   5  168.68    9.10
  -3 -12  -5  113.09    8.80
   3  12   5  129.09    8.20
  -4 -12  -5   79.29    8.20
   4  12   5   81.79    7.70
  -5 -12  -5   32.50    6.50
   5  12   5   23.30    4.80
  -6 -12  -5   17.40    6.10
   6  12   5    8.00    5.20
   2 -13  -5  155.88   11.90
   1 -13  -5  143.69   10.50
   0 -13  -5    2.50    7.10
   0  13   5    4.30    3.70
  -1 -13  -5   27.90    5.40
   1  13   5   25.80    4.30
  -2 -13  -5   55.59    7.50
   2  13   5   56.09    6.50
  -3 -13  -5    7.70    6.20
   3  13   5   17.80    4.30
  -4 -13  -5  175.38   11.60
   4  13   5  158.08   10.90
  -5 -13  -5   13.30    6.20
   5  13   5   28.20    5.60
   1 -14  -5   10.70    6.20
   0 -14  -5   30.60    6.40
  -1 -14  -5   43.70    6.40
   1  14   5   33.20    5.20
  -2 -14  -5   32.40    6.10
   2  14   5   18.80    4.60
  -3 -14  -5   22.00    6.00
   3  14   5   18.30    5.00
  -4 -14  -5   10.00    6.00
   4  14   5    2.30    4.60
  -1 -15  -5   58.69    8.00
  -2 -15  -5   10.30    6.20
   2  15   5    0.90    6.00
   2  12  -6   53.09    7.90
  -2 -12   6   33.80    7.20
   1  12  -6    7.80    5.90
  -1 -12   6   -7.60    5.90
   0  12  -6   61.99    8.00
   0 -12   6   47.10    7.40
  -4 -11   6   13.70    5.70
   3  11  -6   38.30    6.90
   2  11  -6    5.60    5.20
  -2 -11   6    0.90    5.00
   1  11  -6    4.00    5.00
  -1 -11   6    1.70    5.30
   0  11  -6    7.20    5.30
   0 -11   6    4.20    5.20
  -1  11  -6  194.08   13.10
   1 -11   6  186.28   12.40
  -2  11  -6   11.10    6.20
   2 -11   6   -3.00    5.80
   4  10  -6  148.39   10.00
  -4 -10   6  134.99   10.60
   2  10  -6    8.90    5.00
  -2 -10   6    4.80    4.50
   1  10  -6   14.90    4.70
  -1 -10   6   20.00    4.70
   0  10  -6   22.50    4.90
   0 -10   6   19.80    4.80
  -1  10  -6   78.89    8.80
   1 -10   6   86.39    8.50
  -2  10  -6   73.39    9.10
   2 -10   6   46.40    6.50
  -3  10  -6    5.40    6.00
   3 -10   6    3.40    5.70
   5   9  -6   -0.30    4.40
  -5  -9   6    1.90    5.30
   4   9  -6   27.70    4.50
  -4  -9   6   20.70    5.70
   3   9  -6    2.50    3.50
  -3  -9   6   -0.80    3.70
  -2  -9   6    0.90    3.70
  -2  -9   6    6.80    3.60
   1   9  -6   46.50    5.70
  -1  -9   6   44.50    6.30
   0   9  -6  170.98   10.20
   0  -9   6  159.88    9.70
  -1   9  -6  121.19    9.20
   1  -9   6  118.99    8.50
  -2   9  -6   52.29    7.90
   2  -9   6   40.60    5.70
  -3   9  -6   25.00    6.00
   3  -9   6   35.30    6.10
  -4   9  -6   36.00    6.80
   4  -9   6   32.50    6.50
   6   8  -6   84.79    9.90
  -6  -8   6   62.69    9.80
   5   8  -6   60.09   10.00
  -5  -8   6   44.70    6.40
   4   8  -6   34.30    4.50
  -4  -8   6   36.50    5.40
   3   8  -6    0.30    3.10
  -3  -8   6    4.30    3.60
   2   8  -6    9.10    2.90
  -2  -8   6    4.40    3.20
  -2  -8   6    7.20    3.40
   1   8  -6    0.10    3.40
  -1  -8   6    1.80    3.00
   0   8  -6   46.70    5.70
   0  -8   6   63.49    5.80
  -1   8  -6    6.40    3.70
   1  -8   6    0.40    3.20
  -2   8  -6   47.40    6.00
   2  -8   6   39.30    5.20
  -3   8  -6    3.90    4.40
   3  -8   6    1.20    4.10
  -4   8  -6   -1.90    5.20
   4  -8   6   -0.80    4.80
  -5   8  -6   10.00    6.20
   5  -8   6   23.20    6.20
   6   7  -6    0.30    5.00
  -6  -7   6    3.20    5.50
   5   7  -6   64.79    7.50
  -5  -7   6   62.89    7.60
   4   7  -6  100.99    7.30
  -4  -7   6   95.59    7.70
   3   7  -6  239.68   11.00
  -3  -7   6  245.18   11.80
   2   7  -6   26.70    3.30
  -2  -7   6   20.80    3.80
  -2  -7   6   20.60    3.50
   1   7  -6   51.29    4.30
  -1  -7   6   46.70    5.10
  -1  -7   6   58.59    5.10
   0   7  -6  102.89    6.90
   0  -7   6   93.99    6.50
  -1   7  -6   27.30    4.20
   1  -7   6   35.00    4.70
  -2   7  -6   28.80    4.40
   2  -7   6   17.20    3.70
  -3   7  -6  453.75   20.40
   3  -7   6  470.35   20.00
  -4   7  -6   50.49    7.60
   4  -7   6   54.79    7.40
  -5   7  -6   87.49   10.10
   5  -7   6   67.59    8.90
   6   6  -6   22.90    5.20
  -6  -6   6   19.60    5.40
   5   6  -6   10.70    3.90
  -5  -6   6    2.60    4.00
   4   6  -6    9.20    3.10
  -4  -6   6    6.30    3.30
   3   6  -6   79.09    5.50
  -3  -6   6   69.09    5.70
   2   6  -6   40.30    4.10
  -2  -6   6   44.40    3.90
  -2  -6   6   34.40    4.50
   1   6  -6   65.59    4.30
  -1  -6   6   75.59    5.40
  -1  -6   6   66.79    4.80
   0   6  -6  296.77   13.30
   0  -6   6  282.97   12.50
  -1   6  -6  112.89    6.90
   1  -6   6  109.49    6.60
  -2   6  -6   11.60    3.40
   2  -6   6    8.10    2.90
  -3   6  -6   12.50    4.10
   3  -6   6    9.20    3.20
  -4   6  -6  113.49    8.90
   4  -6   6  115.49    8.40
  -5   6  -6  126.59   11.20
  -6   6  -6   17.20    6.60
   6  -6   6   15.70    5.90
  -7  -5   6   -0.20    6.10
   6   5  -6   -0.80    4.30
  -6  -5   6    2.40    4.90
   5   5  -6  233.98   11.80
  -5  -5   6  238.58   12.30
   4   5  -6  303.07   13.00
  -4  -5   6  278.07   13.50
   3   5  -6  176.28    8.70
  -3  -5   6  184.38    9.30
   2   5  -6    8.90    2.20
  -2  -5   6    3.40    1.80
  -2  -5   6    7.10    2.30
   1   5  -6  154.88    6.90
  -1  -5   6  161.48    7.80
  -1  -5   6  147.99    7.20
   0  -5   6  177.28    8.40
   0  -5   6  192.98    9.00
  -1   5  -6  106.79    6.50
   1  -5   6  108.49    6.20
  -2   5  -6  429.76   17.60
   2  -5   6  394.06   17.00
  -3   5  -6   74.59    6.50
   3  -5   6   60.19    5.60
  -4   5  -6  367.56   16.80
   4  -5   6  363.66   16.30
  -5   5  -6   52.79    6.80
   5  -5   6   50.39    6.80
  -6   5  -6   23.60    6.50
   6  -5   6   18.90    5.80
   7   4  -6   27.70    6.40
  -7  -4   6   37.70    6.80
  -6  -4   6    3.60    5.10
   5   4  -6  184.68   10.00
  -5  -4   6  180.98   10.10
   4   4  -6  378.16   15.60
  -4  -4   6  361.66   15.90
   3   4  -6   21.10    2.90
  -3  -4   6   23.00    3.20
   2   4  -6   98.89    5.40
  -2  -4   6  104.89    5.90
  -2  -4   6   99.09    4.90
   1   4  -6  229.28    9.30
  -1  -4   6  231.28   10.10
  -1  -4   6  232.08    9.60
   0  -4   6  162.18    7.80
   0  -4   6  171.88    7.70
  -1   4  -6  290.77   12.10
   1  -4   6  258.67   11.60
  -2   4  -6  178.08    8.90
   2  -4   6  154.48    8.00
  -3   4  -6   33.90    5.00
   3  -4   6   37.10    4.50
  -4   4  -6   31.10    4.60
   4  -4   6   19.20    3.60
  -5   4  -6    2.30    4.30
   5  -4   6   -0.90    3.60
  -6   4  -6    3.60    5.80
   6  -4   6   -0.70    4.60
  -7   4  -6   17.40    6.80
   7   3  -6   -5.30    4.90
  -7  -3   6    1.60    5.40
   6   3  -6   52.69    7.00
  -6  -3   6   61.79    7.60
   5   3  -6  125.39    8.00
  -5  -3   6  116.39    8.00
   4   3  -6  482.15   18.90
  -4  -3   6  457.35   19.40
   3   3  -6  109.29    6.00
  -3  -3   6  105.79    6.30
   2   3  -6  124.19    6.00
  -2  -3   6  121.59    6.50
  -2  -3   6  121.59    5.40
   1   3  -6  167.28    7.10
  -1  -3   6  166.28    7.70
  -1  -3   6  167.18    7.10
   0   3  -6   17.70    2.00
   0  -3   6   21.10    2.40
   0  -3   6   19.50    2.70
  -1   3  -6    2.70    1.80
   1  -3   6    2.10    1.60
  -2   3  -6   63.09    5.20
   2  -3   6   76.39    4.80
  -3   3  -6  731.43   29.10
   3  -3   6  764.72   28.70
  -4   3  -6   -5.00    3.00
   4  -3   6    5.30    2.70
  -5   3  -6   -1.40    3.80
   5  -3   6    7.20    3.40
  -6   3  -6   45.10    6.60
   6  -3   6   51.49    7.10
   7  -3   6   24.60    5.80
   7   2  -6   65.79    8.90
  -7  -2   6   70.29    9.50
   6   2  -6  194.48   11.30
  -6  -2   6  208.28   11.90
   5   2  -6   80.39    6.40
  -5  -2   6   87.89    7.10
   4   2  -6    4.60    2.30
  -4  -2   6    2.80    2.50
   3   2  -6  403.76   17.90
  -3  -2   6  407.76   16.60
   2   2  -6  345.97   13.70
  -2  -2   6  344.47   14.00
   1   2  -6   82.09    4.10
  -1  -2   6   82.29    4.50
  -1  -2   6   80.99    4.00
   0   2  -6  137.89    5.80
   0  -2   6  144.19    6.50
   0  -2   6  139.49    6.30
  -1   2  -6   25.50    2.90
   1  -2   6   29.40    2.70
  -2   2  -6   -0.20    2.10
   2  -2   6   -1.60    1.50
  -3   2  -6   89.69    6.10
   3  -2   6  108.79    6.70
  -4   2  -6   -1.00    2.90
   4  -2   6   -0.90    2.40
  -5   2  -6   43.10    5.40
   5  -2   6   41.00    5.40
  -6   2  -6   18.60    5.10
   6  -2   6   24.10    4.80
  -7   2  -6   24.20    6.60
   7   1  -6   -0.40    4.80
  -7  -1   6   -0.30    5.10
   6   1  -6   88.19    8.00
  -6  -1   6   87.39    7.90
   5   1  -6  271.77   12.50
  -5  -1   6  265.87   12.80
   4   1  -6   19.50    2.80
  -4  -1   6   16.70    3.00
   2   1  -6   51.69    3.50
  -2  -1   6   46.90    2.60
  -2  -1   6   48.20    3.60
   1   1  -6  118.69    5.20
  -1  -1   6  111.29    4.90
  -1  -1   6  100.89    5.30
   0  -1   6   48.00    3.20
   0  -1   6   51.19    3.10
   0  -1   6   50.69    2.80
  -1   1  -6   19.20    2.70
   1  -1   6   14.80    2.20
   1  -1   6   11.90    1.50
  -2   1  -6   42.30    3.70
   2  -1   6   41.80    2.30
   2  -1   6   43.90    3.50
   3  -1   6  402.96   16.20
   3  -1   6  401.66   14.90
  -4   1  -6   88.89    6.20
   4  -1   6   89.59    4.50
   4  -1   6   99.79    6.10
  -5   1  -6   23.50    4.00
   5  -1   6   30.50    4.00
  -6   1  -6  169.48   10.50
   6  -1   6  165.68   10.10
   7  -1   6    6.00    5.20
   7   0  -6   63.19    8.70
  -7   0   6   69.39    8.50
   6   0  -6   21.70    4.40
  -6   0   6   18.20    4.20
   5   0  -6   -0.50    2.80
  -5   0   6    2.80    3.20
   4   0  -6   87.59    5.60
  -4   0   6   81.39    5.80
   3   0  -6    1.70    1.80
  -3   0   6    0.00    1.80
   2   0  -6    4.00    1.40
  -2   0   6    4.80    1.70
  -1   0   6   54.49    2.90
  -1   0   6   57.39    3.20
  -1   0   6   58.29    3.50
   0   0   6  285.67   11.00
   0   0   6  274.87   11.00
   0   0   6  286.57   10.80
  -1   0  -6    0.90    1.50
   1   0   6    5.80    1.30
   1   0   6    6.00    1.00
   1   0   6    4.00    1.30
  -2   0  -6    3.60    1.80
   2   0   6    5.90    1.60
   2   0   6    4.70    1.00
  -3   0  -6  234.38   10.80
   3   0   6  262.87    9.90
   3   0   6  265.37   11.00
  -4   0  -6  147.69    7.70
   4   0   6  140.99    6.50
   4   0   6  147.19    7.60
  -5   0  -6  111.09    7.20
   5   0   6  100.69    5.70
   5   0   6  111.49    7.00
  -6   0  -6   64.99    6.80
   6   0   6   55.09    6.60
  -7   0  -6   34.40    6.30
   7   0   6   39.50    6.10
   7  -1  -6   18.30    5.40
  -7   1   6   12.20    5.40
   6  -1  -6   12.70    4.00
  -6   1   6   -1.50    3.90
   5  -1  -6   12.00    3.20
  -5   1   6   17.30    3.40
   4  -1  -6    1.20    2.20
  -4   1   6    0.10    2.30
   3  -1  -6   -1.60    1.80
  -3   1   6   -0.60    1.80
   2  -1  -6 1182.08   44.70
   2  -1  -6 1200.38   43.70
  -2   1   6 1320.67   44.90
   1  -1  -6 2057.29   71.49
   1  -1  -6 1985.80   71.19
  -1   1   6 2054.09   71.99
  -1   1   6 1975.50   71.89
   0   1   6  807.22   30.20
   0   1   6  862.81   30.30
   0   1   6  832.32   30.30
   1   1   6   94.19    4.30
   1   1   6   86.99    4.50
   1   1   6   97.19    4.20
   2   1   6  148.39    6.90
   2   1   6  161.38    6.40
  -3  -1  -6  459.65   17.40
   3   1   6  450.35   16.90
   3   1   6  444.56   17.70
  -4  -1  -6  175.88    8.30
   4   1   6  174.78    7.60
  -5  -1  -6  676.63   25.10
   5   1   6  611.24   25.00
   5   1   6  630.14   24.20
  -6  -1  -6   66.29    6.70
   6   1   6   62.59    5.70
   6   1   6   58.79    6.50
  -7  -1  -6   99.49    9.50
   7   1   6   81.49    8.90
  -8  -1  -6    5.70    5.90
   7  -2  -6    8.80    5.30
  -7   2   6    8.60    5.40
   6  -2  -6   50.19    6.80
  -6   2   6   55.79    7.20
   5  -2  -6   91.99    6.70
  -5   2   6   89.39    6.80
   4  -2  -6  122.19    6.90
  -4   2   6  120.19    7.20
  -3   2   6    8.90    2.10
   2  -2  -6   31.90    2.60
  -2   2   6   38.30    3.20
  -2   2   6   42.20    3.10
   1  -2  -6  303.57   11.30
  -1   2   6  295.17   11.60
  -1   2   6  291.87   11.60
   0  -2  -6   28.20    2.00
   0  -2  -6   29.10    2.30
   0   2   6   29.10    2.20
   0   2   6   27.70    2.00
   1   2   6  591.74   22.50
   1   2   6  640.54   23.00
   1   2   6  628.94   22.70
   2   2   6  788.82   29.70
   2   2   6  819.12   29.20
  -3  -2  -6    0.20    1.60
   3   2   6   -1.40    1.60
   3   2   6    0.30    1.20
  -4  -2  -6   51.69    4.10
   4   2   6   35.10    4.50
   4   2   6   48.10    3.50
  -5  -2  -6   24.00    3.60
   5   2   6   24.40    3.60
  -6  -2  -6   79.39    7.10
   6   2   6   80.19    6.20
   6   2   6   75.69    7.20
  -7  -2  -6  142.09   10.20
   7   2   6  145.49   10.40
   7   2   6  137.09    9.00
  -8  -2  -6   17.60    8.20
   7  -3  -6   49.60    6.40
  -7   3   6   50.39    7.30
   6  -3  -6   88.79    7.70
  -6   3   6   76.59    8.20
   5  -3  -6   40.00    5.40
  -5   3   6   35.00    4.60
   4  -3  -6   10.60    2.50
  -4   3   6   10.90    3.00
   3  -3  -6  466.75   17.30
   3  -3  -6  486.65   20.20
  -3   3   6  460.15   18.60
   2  -3  -6 1089.39   39.20
  -2   3   6 1098.39   39.90
  -2   3   6 1090.29   39.90
   1  -3  -6 1475.65   53.99
  -1   3   6 1519.75   54.19
  -1   3   6 1545.85   54.39
   0  -3  -6  114.99    5.30
   0   3   6  120.29    5.00
   0   3   6  119.09    5.30
  -1  -3  -6  471.95   17.20
  -1  -3  -6  457.45   17.60
   1   3   6  462.95   17.50
   1   3   6  474.55   16.90
  -2  -3  -6  510.85   19.60
   2   3   6  570.64   20.20
   2   3   6  547.75   20.50
  -3  -3  -6   28.60    2.80
   3   3   6   29.80    2.70
   3   3   6   31.70    3.30
  -4  -3  -6  308.67   12.20
   4   3   6  293.87   12.20
   4   3   6  296.87   13.60
  -5  -3  -6   85.89    6.20
   5   3   6   91.89    6.30
   5   3   6   87.19    5.60
  -6  -3  -6  195.98   10.10
   6   3   6  183.98    9.60
  -7  -3  -6   30.80    4.60
  -7  -3  -6   35.90    5.60
  -7  -3  -6   35.00    5.70
   7   3   6   34.50    4.70
   8   3   6    9.00    5.10
  -7   4   6   17.70    6.30
   6  -4  -6   23.00    4.80
  -6   4   6   28.90    6.20
   5  -4  -6   64.29    6.30
  -5   4   6   56.39    6.40
   4  -4  -6  273.87   12.40
  -4   4   6  295.77   12.90
   3  -4  -6  384.16   14.90
   3  -4  -6  394.26   15.70
  -2   4   6  263.27   10.90
  -2   4   6  262.07   10.90
   1  -4  -6  392.26   14.90
  -1   4   6  383.66   14.80
  -1   4   6  397.66   15.20
   0  -4  -6    1.00    1.30
   0   4   6    1.60    1.10
  -1  -4  -6  328.27   13.10
   1   4   6  336.97   12.90
  -2  -4  -6   84.09    4.60
  -2  -4  -6   80.39    4.00
   2   4   6   81.89    4.30
  -3  -4  -6  391.86   14.40
  -3  -4  -6  386.26   14.80
  -3  -4  -6  382.46   15.40
   3   4   6  391.86   15.20
  -4  -4  -6   17.60    2.40
   4   4   6   15.00    2.60
  -5  -4  -6   65.49    5.30
  -5  -4  -6   53.39    4.90
  -5  -4  -6   54.49    4.30
   5   4   6   56.99    4.80
  -6  -4  -6   -2.80    3.70
  -6  -4  -6   -1.70    2.80
  -6  -4  -6    2.80    3.60
   6   4   6   -1.20    2.80
  -7  -4  -6   -2.90    4.60
  -7  -4  -6    0.50    3.70
   7   4   6    0.30    3.80
   8   4   6   -0.70    4.90
   6  -5  -6   81.59    8.20
  -6   5   6   91.99    8.80
   5  -5  -6    0.50    3.60
  -5   5   6   -1.00    3.40
   4  -5  -6   -4.10    2.50
  -4   5   6    2.50    2.60
   3  -5  -6  176.28    8.30
  -3   5   6  192.78    8.90
   2  -5  -6  925.21   34.40
  -2   5   6  956.90   34.70
  -2   5   6  932.31   34.60
   1  -5  -6  288.17   11.40
  -1   5   6  274.27   11.10
  -1   5   6  286.77   11.50
   0  -5  -6  411.36   15.80
   0   5   6  406.76   15.70
  -1  -5  -6   90.39    4.80
   1   5   6   96.89    4.70
  -2  -5  -6  272.77   11.30
   2   5   6  269.67   11.00
  -3  -5  -6   -0.40    1.40
  -3  -5  -6    0.10    1.70
   3   5   6    1.10    1.40
  -4  -5  -6   24.70    2.90
  -4  -5  -6   32.00    3.10
  -4  -5  -6   30.20    3.90
   4   5   6   31.50    3.40
  -5  -5  -6  194.38    8.70
  -5  -5  -6  178.38    8.70
  -5  -5  -6  193.68    9.70
   5   5   6  199.88    9.40
  -6  -5  -6    1.70    3.60
  -6  -5  -6    5.40    3.00
   6   5   6    2.00    2.80
  -7  -5  -6   22.60    5.20
   7   5   6   11.40    4.10
   8   5   6  -10.70    4.70
   6  -6  -6    2.60    5.70
  -6   6   6   14.60    5.10
   5  -6  -6   73.09    7.40
  -5   6   6   72.69    7.30
   4  -6  -6  144.49    8.00
  -4   6   6  139.79    8.50
   3  -6  -6  117.19    6.90
  -3   6   6  134.29    7.20
  -3   6   6  125.49    7.00
   2  -6  -6   82.09    5.20
  -2   6   6   82.49    5.10
  -2   6   6   82.59    5.00
   1  -6  -6    1.20    1.80
  -1   6   6    0.60    1.60
  -1   6   6    0.70    1.40
   0  -6  -6   -0.30    1.70
   0   6   6   -1.40    1.20
   0   6   6   -0.40    1.00
  -1  -6  -6  163.58    7.50
   1   6   6  154.68    7.10
  -2  -6  -6    9.70    2.10
   2   6   6   13.50    1.90
  -3  -6  -6  133.89    7.40
  -4  -6  -6   57.39    4.90
   4   6   6   61.89    4.50
  -5  -6  -6   14.60    3.20
   5   6   6    8.50    2.70
  -6  -6  -6   69.79    7.00
   6   6   6   56.39    6.00
  -7  -6  -6   32.70    5.50
   7   6   6   28.20    5.00
   6  -7  -6    2.20    5.60
  -6   7   6   -8.10    4.80
   5  -7  -6    2.20    4.30
  -5   7   6    1.30    3.90
   4  -7  -6   -4.40    3.90
   4  -7  -6    3.40    3.10
  -4   7   6   10.20    3.50
   3  -7  -6    3.10    3.30
  -3   7   6    1.50    2.60
  -3   7   6    2.60    2.70
   2  -7  -6   80.29    5.80
  -2   7   6   95.19    5.60
  -2   7   6   85.09    5.40
   1  -7  -6   24.00    3.00
  -1   7   6   25.80    3.00
  -1   7   6   30.20    3.40
   0  -7  -6  173.48    8.10
   0   7   6  164.98    6.90
   0   7   6  174.38    7.70
  -1  -7  -6   67.19    4.70
   1   7   6   60.19    4.00
  -3  -7  -6  401.96   16.60
   3   7   6  410.46   16.30
  -4  -7  -6   16.10    3.00
   4   7   6   11.10    2.50
  -5  -7  -6   11.30    3.30
   5   7   6    9.40    2.90
  -6  -7  -6    0.60    3.90
   6   7   6    1.70    3.10
  -7  -7  -6   -0.30    5.30
   7   7   6   -1.30    4.10
   5  -8  -6    2.50    4.90
  -5   8   6   21.60    8.10
   4  -8  -6   46.50    5.60
   4  -8  -6   49.40    6.10
  -4   8   6   45.10    6.20
   3  -8  -6   27.50    3.90
  -3   8   6   20.60    3.80
  -3   8   6   22.90    3.50
   2  -8  -6    9.30    2.90
  -2   8   6   17.20    2.80
  -2   8   6   10.70    4.50
   1  -8  -6   92.89    6.10
  -1   8   6   85.29    5.10
  -1   8   6   93.79    5.60
   0  -8  -6  541.75   20.60
   0   8   6  498.95   19.20
  -1  -8  -6   60.39    4.90
   1   8   6   53.89    4.60
  -2  -8  -6  204.08    9.70
   2   8   6  210.38    9.20
  -3  -8  -6   21.70    3.30
   3   8   6   22.40    2.80
  -4  -8  -6   48.10    5.40
   4   8   6   48.90    4.60
  -5  -8  -6  176.38    9.60
   5   8   6  161.58    9.00
  -6  -8  -6   67.19    7.50
   6   8   6   65.59    6.80
  -7  -8  -6  209.48   12.70
   7   8   6  204.98   12.00
  -5   9   6   20.60    5.50
   4  -9  -6   25.60    4.50
   4  -9  -6   31.60    5.60
  -4   9   6   34.70    5.00
   3  -9  -6   84.99    7.50
  -3   9   6  104.49    7.60
  -3   9   6   97.79    7.10
   2  -9  -6   17.50    3.80
  -2   9   6   17.50    3.10
  -2   9   6   22.00    3.50
   1  -9  -6    4.20    2.80
  -1   9   6    5.40    2.30
  -1   9   6    4.20    2.30
   0  -9  -6  239.08   10.70
   0   9   6  207.68    9.10
   0   9   6  221.28    9.90
  -1  -9  -6  428.56   17.70
   1   9   6  436.66   17.10
  -2  -9  -6  394.96   16.80
   2   9   6  411.26   16.30
  -3  -9  -6    3.20    3.00
   3   9   6   10.50    2.50
  -4  -9  -6   43.70    5.80
   4   9   6   42.20    4.80
  -5  -9  -6   68.29    7.00
   5   9   6   70.79    6.20
  -6  -9  -6    4.90    4.70
  -7  -9  -6  110.79   11.20
   7   9   6  136.49   10.00
   4 -10  -6   72.29    9.30
  -4  10   6   80.99    8.40
   3 -10  -6   40.00    5.50
  -3  10   6   31.80    4.60
  -3  10   6   26.10    4.80
   2 -10  -6    1.60    3.80
  -2  10   6    5.60    3.30
  -2  10   6    1.00    3.00
   1 -10  -6  159.48    9.00
  -1  10   6  141.59    7.80
  -1  10   6  161.08    8.10
   0 -10  -6   88.59    6.70
   0  10   6   87.29    5.70
  -1 -10  -6  397.16   17.20
   1  10   6  413.06   16.50
  -2 -10  -6   55.39    5.60
   2  10   6   58.29    5.00
  -3 -10  -6   17.10    3.70
   3  10   6   12.40    2.90
  -4 -10  -6   11.90    3.90
   4  10   6   11.70    3.20
  -5 -10  -6    5.20    4.40
   5  10   6    7.20    3.40
  -6 -10  -6  187.18   11.50
   6  10   6  151.28   10.50
   7  10   6   56.89    6.80
  -4  11   6   78.09    9.10
   3 -11  -6   76.79    9.10
  -3  11   6   73.69    8.10
   2 -11  -6   18.30    4.80
  -2  11   6   27.70    4.50
  -2  11   6   19.10    4.00
   1 -11  -6   44.90    5.30
  -1  11   6   44.00    5.40
   0 -11  -6  162.08    9.50
   0  11   6  168.38    8.60
  -1 -11  -6  232.58   11.80
   1  11   6  231.08   10.80
  -2 -11  -6   19.10    3.90
   2  11   6   19.20    3.40
  -3 -11  -6   56.79    6.60
   3  11   6   60.39    5.60
  -4 -11  -6   30.90    4.80
   4  11   6   23.70    4.00
  -5 -11  -6    7.50    4.50
  -6 -11  -6   24.00    7.00
   6  11   6   20.40    5.00
   3 -12  -6   -1.70    5.60
   2 -12  -6   87.69    9.50
   1 -12  -6   71.09    7.80
  -1  12   6   65.39    6.70
   0 -12  -6  138.89    9.10
   0  12   6  109.09    7.60
  -1 -12  -6   14.90    4.30
   1  12   6   24.00    3.60
  -2 -12  -6   10.40    4.30
   2  12   6   19.60    3.60
  -3 -12  -6   -1.70    4.20
   3  12   6   -1.50    3.20
  -4 -12  -6   27.80    5.30
   4  12   6   30.40    4.70
  -5 -12  -6   48.70    7.50
   5  12   6   39.70    5.60
  -6 -12  -6   -2.90    5.90
   6  12   6    6.60    5.00
   2 -13  -6    7.20    6.10
   1 -13  -6   58.49    7.20
   0  13   6   95.19    7.60
  -1 -13  -6    2.90    4.80
   1  13   6   -1.10    3.50
  -2 -13  -6   -9.50    5.00
   2  13   6    4.70    3.50
  -3 -13  -6    7.00    5.70
   3  13   6    7.90    4.20
  -4 -13  -6    1.80    5.30
   4  13   6   14.60    4.50
  -5 -13  -6   -6.20    5.70
   5  13   6   -5.70    4.70
   1 -14  -6   48.00    7.40
   0 -14  -6   25.20    6.10
  -1 -14  -6   24.70    5.90
   1  14   6   27.00    4.80
  -2 -14  -6   28.90    6.20
   2  14   6   24.00    6.80
  -3 -14  -6  238.28   14.00
   3  14   6  222.38   12.60
  -4 -14  -6    2.40    6.00
   4  14   6    2.00    4.70
  -1 -15  -6    7.40    6.60
  -2 -15  -6    0.90    6.20
   2  15   6    3.60    4.40
   3  11  -7    5.30    6.60
   2  11  -7    2.20    5.70
   1  11  -7   -0.90    5.30
  -1 -11   7    4.30    5.40
   0  11  -7   40.50    7.20
   0 -11   7   40.80    6.50
  -1  11  -7   45.20    7.60
   1 -11   7   37.20    6.90
  -4 -10   7    6.70    5.70
  -3 -10   7   -1.20    4.80
   2  10  -7   72.09    9.80
  -2 -10   7   88.39    8.80
   1  10  -7    2.70    5.70
  -1 -10   7   -2.00    4.40
   0  10  -7    2.40    4.60
   0 -10   7    4.30    4.70
  -1  10  -7   -3.00    4.80
   1 -10   7    6.00    5.30
  -2  10  -7   -5.70    5.20
   2 -10   7    0.50    5.40
  -3  10  -7   49.99    8.10
   3 -10   7   52.29    7.50
  -5  -9   7   19.80    6.10
   4   9  -7  102.79    8.80
  -4  -9   7  115.69    9.80
  -3  -9   7    8.30    6.30
  -2  -9   7   26.60    5.00
  -2  -9   7   21.70    4.60
   1   9  -7   26.90    5.00
  -1  -9   7   28.30    4.50
   0   9  -7   32.90    5.10
   0  -9   7   38.70    5.10
  -1   9  -7   10.60    5.00
   1  -9   7   16.80    4.60
  -2   9  -7  210.58   13.20
   2  -9   7  191.58   16.80
  -3   9  -7  217.78   13.70
   3  -9   7  231.58   13.40
  -4   9  -7   17.80    7.00
   4  -9   7   12.00    6.20
   5   8  -7   10.20    4.70
  -5  -8   7    8.60    5.40
   4   8  -7   49.20    5.60
   3   8  -7  280.97   13.00
  -3  -8   7  293.47   14.30
  -2  -8   7  128.89    8.60
  -2  -8   7  119.89    7.80
   1   8  -7  118.19    9.00
  -1  -8   7  161.78    8.70
   0   8  -7   18.80    4.20
   0  -8   7   15.00    3.80
  -1   8  -7    0.20    3.90
   1  -8   7   -3.10    3.60
  -2   8  -7  161.08   10.90
   2  -8   7  160.88   10.20
  -3   8  -7   42.30   10.00
  -4   8  -7  166.08   12.50
   4  -8   7  155.68   11.60
   6   7  -7   54.19    7.20
  -6  -7   7   65.69    9.80
   5   7  -7   99.69   10.60
  -5  -7   7   92.29    9.30
   4   7  -7   38.40    4.80
  -4  -7   7   29.90    4.90
   3   7  -7   62.89    5.80
  -3  -7   7   58.09    6.30
   2   7  -7   94.49    6.00
  -2  -7   7   84.59    6.60
  -2  -7   7   89.89    6.30
  -1  -7   7   81.19    6.30
  -1  -7   7   90.59    6.30
   0   7  -7   13.20    3.50
   0  -7   7   10.40    3.20
  -1   7  -7   89.39    7.20
   1  -7   7   88.59    7.00
  -2   7  -7  218.58   12.10
   2  -7   7  222.08   11.50
  -3   7  -7   70.79    8.20
   3  -7   7   61.29    7.10
  -4   7  -7   58.29    8.60
   4  -7   7   71.79    8.20
  -5   7  -7   12.30    6.40
   5  -7   7   -5.70    5.50
   6   6  -7  109.09   10.20
  -6  -6   7   92.29    9.90
   5   6  -7   77.09    8.00
  -5  -6   7   76.39    9.70
   4   6  -7  222.68   10.90
  -4  -6   7  199.48   11.10
   3   6  -7  144.99    7.80
  -3  -6   7  138.79    8.40
  -2  -6   7  220.98   10.90
  -2  -6   7  218.58    9.80
   1   6  -7   21.60    2.70
  -1  -6   7   20.20    3.30
  -1  -6   7   23.60    3.60
   0   6  -7   25.50    4.00
   0  -6   7   23.60    3.30
  -1   6  -7  330.27   14.40
   1  -6   7  301.97   13.90
  -2   6  -7   -1.30    3.40
   2  -6   7    2.60    2.80
  -3   6  -7   84.29    7.90
   3  -6   7   66.59    6.70
  -4   6  -7    6.10    4.30
   4  -6   7   -1.20    3.80
  -5   6  -7    6.70    6.00
   5  -6   7    7.70    4.80
   6   5  -7   72.09    8.60
  -6  -5   7   67.89    8.40
   5   5  -7  107.79    8.30
  -5  -5   7  118.19    8.90
   4   5  -7   68.49    6.50
  -4  -5   7   68.29    6.40
  -3  -5   7   11.40    3.20
   2   5  -7   -2.90    2.10
  -2  -5   7    3.50    2.00
  -2  -5   7    1.90    2.30
   1   5  -7   68.79    4.50
  -1  -5   7   71.59    5.40
  -1  -5   7   73.09    4.90
   0   5  -7    0.90    1.60
   0  -5   7    4.30    2.30
  -1   5  -7  227.68   10.60
   1  -5   7  210.98   10.10
  -2   5  -7   61.59    5.70
   2  -5   7   59.49    5.30
  -3   5  -7   -3.70    3.10
   3  -5   7    2.10    3.00
  -4   5  -7  103.09    8.20
   4  -5   7   95.09    7.70
  -5   5  -7   16.80    6.20
   5  -5   7   24.80    5.20
  -6   5  -7   18.30    7.10
   6  -5   7   11.80    5.60
   6   4  -7   -1.10    4.20
  -6  -4   7   -3.10    4.60
   5   4  -7   64.99    7.20
  -5  -4   7   73.59    7.20
   4   4  -7  263.97   12.20
  -4  -4   7  258.17   12.60
   3   4  -7  411.96   16.50
  -3  -4   7  399.96   17.10
   2   4  -7   92.39    5.40
  -2  -4   7   89.49    4.80
  -2  -4   7   89.29    5.80
   1   4  -7   85.59    4.70
  -1  -4   7   93.09    5.50
  -1  -4   7   81.59    4.80
   0   4  -7   10.70    1.70
   0  -4   7   15.20    2.40
   0  -4   7   16.30    2.30
  -1   4  -7   81.39    5.50
   1  -4   7   73.79    5.60
  -2   4  -7  184.98    9.30
   2  -4   7  157.68    8.60
  -3   4  -7    5.30    3.30
   3  -4   7    3.70    2.60
  -4   4  -7   68.29    6.90
   4  -4   7   66.19    6.20
  -5   4  -7   96.99    9.10
   5  -4   7   90.09    7.90
  -6   4  -7   90.09   10.30
   6  -4   7   80.39    9.50
   7   3  -7   26.80    6.40
  -7  -3   7   24.90    6.80
   6   3  -7   49.30    6.00
  -6  -3   7   31.10    5.60
   5   3  -7    0.30    3.30
  -5  -3   7    2.70    3.60
   4   3  -7   25.40    3.70
  -4  -3   7   22.80    3.70
   3   3  -7  134.89    7.10
  -3  -3   7  132.69    7.60
   2   3  -7  276.57   11.80
  -2  -3   7  299.27   12.50
  -2  -3   7  286.97   11.30
   1   3  -7   45.30    3.40
  -1  -3   7   45.80    3.80
  -1  -3   7   45.20    3.30
   0   3  -7    1.00    1.20
   0  -3   7   -1.10    1.50
   0  -3   7    2.10    1.80
  -1   3  -7   16.70    2.70
   1  -3   7   15.80    2.40
  -2   3  -7  164.78    8.70
   2  -3   7  165.98    8.20
  -3   3  -7  374.96   17.40
   3  -3   7  452.35   17.40
  -4   3  -7  110.09    7.70
   4  -3   7   96.59    7.00
  -5   3  -7   80.99    8.00
   5  -3   7   74.29    6.80
  -6   3  -7   98.69    9.90
   6  -3   7   87.99    9.10
  -7   3  -7    3.80    6.50
   7  -3   7    8.00    5.50
   7   2  -7    3.90    5.40
  -7  -2   7   15.50    6.00
   6   2  -7   -2.80    4.50
  -6  -2   7    0.40    5.10
   5   2  -7    4.70    3.30
  -5  -2   7    9.30    3.50
   4   2  -7   44.90    5.00
  -4  -2   7   56.39    5.50
   3   2  -7  188.98    8.70
  -3  -2   7  175.98    9.00
   2   2  -7  109.69    5.80
  -2  -2   7  108.69    5.00
   1   2  -7    6.10    1.60
  -1  -2   7    4.50    1.50
  -1  -2   7    0.20    1.60
   0   2  -7  299.67   11.00
   0  -2   7  274.67   11.40
   0  -2   7  270.87   11.60
  -1   2  -7   10.10    2.40
   1  -2   7    8.80    1.20
   1  -2   7    7.80    1.90
  -2   2  -7  277.27   12.70
   2  -2   7  309.07   12.50
  -3   2  -7   60.29    5.50
   3  -2   7   62.99    4.80
  -4   2  -7   76.99    6.20
   4  -2   7   68.39    5.70
  -5   2  -7  153.18    9.40
   5  -2   7  132.89    8.60
  -6   2  -7    2.20    5.00
   6  -2   7    5.30    4.30
   7  -2   7   83.69    9.70
   7   1  -7    4.00    5.50
  -7  -1   7   -2.80    5.50
   6   1  -7   -5.60    7.20
   5   1  -7    0.70    3.00
  -5  -1   7    0.70    3.30
   4   1  -7  300.67   13.20
  -4  -1   7  306.67   13.80
   3   1  -7 1443.36   51.29
  -3  -1   7 1362.06   51.49
   2   1  -7  965.20   36.70
  -2  -1   7 1035.00   37.10
   1   1  -7  225.28    9.10
  -1  -1   7  218.38    8.90
  -1  -1   7  215.48    9.50
   0  -1   7   74.49    3.70
   0  -1   7   72.09    4.00
   0  -1   7   72.99    4.30
  -1   1  -7   10.10    2.20
   1  -1   7    9.20    1.80
   1  -1   7    6.50    1.10
  -2   1  -7  972.70   35.60
   2  -1   7  948.81   35.30
   2  -1   7  937.91   34.20
  -3   1  -7  601.84   23.80
   3  -1   7  641.54   23.70
   3  -1   7  585.94   22.10
  -4   1  -7  518.25   19.80
   4  -1   7  456.05   17.90
   4  -1   7  474.85   19.60
  -5   1  -7  168.88    9.60
   5  -1   7  166.48    9.40
  -6   1  -7   -0.60    4.50
   6  -1   7   -3.50    3.70
  -7   1  -7   18.60    6.50
   7  -1   7   18.00    6.00
   7   0  -7   54.09    7.00
  -7   0   7   52.89    7.30
   6   0  -7   82.49    8.90
  -6   0   7   69.59    9.60
   5   0  -7    7.30    3.20
  -5   0   7    5.10    3.30
   4   0  -7  155.88    8.30
  -4   0   7  168.48    8.80
   3   0  -7   79.69    5.10
  -3   0   7   86.39    5.50
   2   0  -7    5.80    1.30
   2   0  -7    7.70    1.80
  -2   0   7    8.10    2.00
  -1   0   7  427.86   16.00
  -1   0   7  432.66   16.40
  -1   0   7  426.06   16.60
   0   0   7  252.37   10.10
   0   0   7  245.78    9.80
   0   0   7  244.18    9.90
   1   0   7  807.02   29.00
   1   0   7  767.82   28.50
   1   0   7  788.82   29.20
  -2   0  -7    3.10    2.20
   2   0   7   -0.20    1.00
   2   0   7    0.80    1.50
  -3   0  -7   -4.20    2.00
   3   0   7    1.00    1.20
   3   0   7   -0.70    2.80
  -4   0  -7   87.69    5.90
   4   0   7   85.89    5.70
   4   0   7   72.79    4.40
  -5   0  -7   43.00    5.40
   5   0   7   32.90    4.00
   5   0   7   41.00    5.30
  -6   0  -7  157.88    9.90
   6   0   7  152.78    9.80
  -7   0  -7   21.40    6.10
   7   0   7   26.00    5.90
   7  -1  -7   19.40    5.70
  -7   1   7   21.30    6.20
   6  -1  -7   -4.60    4.20
   5  -1  -7  154.38    8.80
  -5   1   7  152.68    9.10
   4  -1  -7  461.65   18.90
  -4   1   7  476.85   19.40
   3  -1  -7  561.04   21.70
  -3   1   7  561.74   21.90
  -2   1   7  620.54   23.60
   1  -1  -7   22.90    1.90
   1  -1  -7   26.10    2.40
  -1   1   7   27.40    2.60
  -1   1   7   23.00    2.40
   0   1   7   81.69    4.10
   0   1   7   84.39    4.20
   0   1   7   81.59    4.30
   1   1   7  288.77   11.30
   1   1   7  277.57   11.50
   1   1   7  297.87   11.20
   2   1   7   36.40    3.20
   2   1   7   36.80    2.50
  -3  -1  -7  192.08    9.70
   3   1   7  248.58   10.20
   3   1   7  243.38    9.20
  -4  -1  -7  163.68    8.30
   4   1   7  171.38    7.50
   4   1   7  173.28    8.50
  -5  -1  -7   20.10    3.70
   5   1   7   23.90    2.90
   5   1   7   20.10    3.50
  -6  -1  -7   24.80    4.90
   6   1   7   33.40    4.00
   6   1   7   25.40    4.70
  -7  -1  -7    0.90    5.40
   7   1   7    7.90    5.30
   7  -2  -7   19.30    5.50
  -7   2   7   18.20    6.20
   6  -2  -7    9.50    4.40
  -6   2   7   13.90    7.00
   5  -2  -7  341.77   15.20
  -5   2   7  339.27   15.60
  -4   2   7  361.96   15.50
   3  -2  -7   22.60    3.20
  -3   2   7   25.90    3.70
   2  -2  -7   44.80    2.90
  -2   2   7   43.80    3.60
  -2   2   7   45.70    3.50
  -1   2   7  115.99    5.60
  -1   2   7  124.19    5.70
   0  -2  -7  748.53   26.50
   0  -2  -7  726.33   26.90
   0   2   7  724.73   26.70
   0   2   7  726.13   26.90
   1   2   7  206.58    8.10
   1   2   7  203.88    8.20
   1   2   7  195.28    8.50
   2   2   7   37.90    3.10
   2   2   7   36.70    2.60
   3   2   7   -1.30    1.70
   3   2   7   -0.90    1.20
  -4  -2  -7  758.02   28.90
   4   2   7  790.22   29.60
   4   2   7  771.92   28.70
  -5  -2  -7   20.90    4.00
   5   2   7   14.80    3.40
   5   2   7   24.80    3.10
  -6  -2  -7    3.10    4.10
   6   2   7    1.60    3.90
   6   2   7    3.30    3.10
  -7  -2  -7    3.90    5.60
   7   2   7   -0.20    4.90
   7   2   7   -1.10    4.20
  -7   3   7   -3.50    5.60
   6  -3  -7   16.60    5.80
  -6   3   7   18.50    4.90
   5  -3  -7   59.09    6.10
  -5   3   7   47.10    5.90
   4  -3  -7   49.50    5.10
  -4   3   7   62.19    5.60
   3  -3  -7  251.97   10.70
   3  -3  -7  290.67   11.70
  -3   3   7  272.77   11.90
   2  -3  -7   22.50    2.70
  -2   3   7   21.20    2.90
  -2   3   7   23.90    2.90
  -1   3   7   29.40    2.60
  -1   3   7   25.20    2.60
   0  -3  -7   46.00    2.80
   0  -3  -7   53.49    3.30
   0   3   7   52.29    2.90
   0   3   7   50.49    3.30
  -1  -3  -7  229.88    9.40
  -1  -3  -7  237.68    9.90
   1   3   7  242.88    9.70
   1   3   7  242.98    9.50
   2   3   7    6.30    1.40
   2   3   7    4.00    1.60
  -3  -3  -7    0.00    1.60
   3   3   7    1.10    1.40
   3   3   7    0.20    1.80
  -4  -3  -7    7.10    2.40
   4   3   7    4.50    1.90
   4   3   7    5.30    2.50
  -5  -3  -7    3.20    3.10
   5   3   7    5.80    2.40
   5   3   7    5.20    3.10
  -6  -3  -7  101.69    7.60
   6   3   7   83.49    7.20
   6   3   7   89.09    6.50
  -7  -3  -7   60.39    6.90
  -7  -3  -7   73.09    8.70
   7   3   7   69.49    7.00
  -6   4   7   30.40    5.70
   5  -4  -7   71.29    7.30
  -5   4   7   96.19    7.60
   4  -4  -7   19.50    3.30
  -4   4   7   20.30    3.50
   3  -4  -7   33.30    3.60
   3  -4  -7   46.20    4.30
  -3   4   7   41.20    4.30
   2  -4  -7  117.19    5.70
  -2   4   7  121.59    6.70
  -2   4   7  112.69    6.00
   1  -4  -7   83.79    4.50
  -1   4   7   82.59    4.30
  -1   4   7   82.39    4.60
   0  -4  -7  150.48    6.70
   0   4   7  141.99    6.10
   0   4   7  149.19    6.70
  -1  -4  -7  146.39    6.20
  -1  -4  -7  142.69    6.70
   1   4   7  145.19    5.60
   1   4   7  141.59    6.50
  -2  -4  -7    9.70    2.00
  -2  -4  -7    6.80    1.50
   2   4   7    4.90    1.50
  -3  -4  -7  710.63   26.30
  -3  -4  -7  711.03   27.00
   3   4   7  717.93   26.60
  -4  -4  -7  128.99    7.00
  -4  -4  -7  120.39    6.10
  -4  -4  -7  119.49    6.20
   4   4   7  122.39    7.00
  -5  -4  -7  147.89    7.30
  -5  -4  -7  144.49    7.70
  -5  -4  -7  135.09    8.10
   5   4   7  146.39    7.60
  -6  -4  -7  100.09    8.00
  -6  -4  -7  105.49    6.70
   6   4   7  104.09    7.00
  -7  -4  -7   87.79    7.50
  -7  -4  -7   90.79    9.40
   7   4   7   93.89    7.80
   6  -5  -7    6.40    4.70
  -6   5   7    5.70    5.00
   5  -5  -7   24.90    4.50
  -5   5   7   31.90    4.90
   4  -5  -7   16.00    3.20
  -4   5   7   13.40    3.30
   3  -5  -7  139.89    7.20
  -3   5   7  151.98    7.80
   2  -5  -7    1.70    2.10
  -2   5   7    5.30    1.90
  -2   5   7    6.10    1.90
   1  -5  -7   24.40    3.10
  -1   5   7   23.30    2.80
  -1   5   7   19.90    2.50
   0  -5  -7  130.09    6.40
   0   5   7  138.09    6.30
   0   5   7  127.29    5.50
  -1  -5  -7  220.18    9.60
   1   5   7  229.18    9.50
  -2  -5  -7  957.50   35.50
   2   5   7  960.50   35.20
   3   5   7  118.39    6.10
  -4  -5  -7    4.40    2.20
  -4  -5  -7    8.80    2.70
   4   5   7    9.40    2.30
  -5  -5  -7   68.39    6.00
  -5  -5  -7   59.29    4.90
   5   5   7   81.99    5.50
  -6  -5  -7   18.40    3.40
  -6  -5  -7   14.60    4.20
   6   5   7   19.30    3.50
  -7  -5  -7   40.90    6.20
   7   5   7   57.49    7.00
   6  -6  -7   24.10    5.60
  -6   6   7   30.90    6.10
   5  -6  -7   17.70    4.30
  -5   6   7   20.40    4.60
   4  -6  -7  112.99    7.50
  -4   6   7  120.49    7.90
   3  -6  -7  192.48    9.10
  -3   6   7  179.78    9.30
  -3   6   7  203.98    9.60
   2  -6  -7    1.70    2.40
  -2   6   7    1.70    2.00
  -2   6   7    2.40    2.00
   1  -6  -7  305.87   12.30
  -1   6   7  294.87   11.80
  -1   6   7  298.57   12.90
   0  -6  -7  111.19    6.00
   0   6   7  111.69    4.80
   0   6   7  111.29    5.70
  -1  -6  -7   28.10    3.40
   1   6   7   25.10    2.70
  -2  -6  -7  697.53   26.50
   2   6   7  700.23   26.30
  -3  -6  -7  250.27   10.90
   3   6   7  235.18   10.50
  -4  -6  -7  206.08   10.10
   4   6   7  219.08    9.80
  -5  -6  -7   97.39    7.00
   5   6   7  103.89    6.60
  -6  -6  -7   48.00    6.90
   6   6   7   51.89    5.70
  -7  -6  -7   37.10    5.90
  -6   7   7  117.89   10.70
   5  -7  -7   27.60    4.90
  -5   7   7   28.10    5.20
   4  -7  -7   93.79    7.10
  -4   7   7   87.59    7.40
   3  -7  -7   34.30    4.50
  -3   7   7   23.10    3.50
  -3   7   7   40.00    4.90
   2  -7  -7  179.88    9.30
  -2   7   7  195.18    8.90
  -2   7   7  200.68    9.20
   1  -7  -7  415.46   17.00
  -1   7   7  447.16   17.00
  -1   7   7  414.06   16.30
   0  -7  -7  320.87   13.00
   0   7   7  298.57   11.70
  -2  -7  -7   29.20    4.10
   2   7   7   30.10    3.40
  -3  -7  -7   54.39    4.90
   3   7   7   53.89    4.30
  -4  -7  -7  136.39    7.80
   4   7   7  140.69    7.50
  -5  -7  -7    8.30    3.50
   5   7   7   13.10    3.00
  -6  -7  -7   58.59    7.30
   6   7   7   51.79    6.20
  -7  -7  -7    5.60    5.20
   7   7   7   18.30    4.60
  -5   8   7  102.09    9.50
   4  -8  -7   87.19    7.50
  -4   8   7  104.59    7.80
   3  -8  -7    8.50    3.60
  -3   8   7    2.30    3.20
  -3   8   7    5.20    3.00
   2  -8  -7  106.39    7.00
  -2   8   7  105.49    6.40
  -2   8   7   95.29    6.30
  -1   8   7   41.30    3.70
  -1   8   7   36.40    4.20
   0  -8  -7    3.00    2.30
   0   8   7    3.40    1.50
   0   8   7    1.20    1.70
  -1  -8  -7  376.56   15.50
   1   8   7  363.26   14.90
  -2  -8  -7   19.00    3.20
   2   8   7   13.20    2.40
  -3  -8  -7   22.70    3.50
   3   8   7   16.30    2.70
  -4  -8  -7   11.50    3.40
   4   8   7    6.10    2.40
  -5  -8  -7   -0.30    3.60
   5   8   7    0.70    2.80
  -6  -8  -7   25.90    5.20
   6   8   7   23.90    4.40
  -7  -8  -7   24.00    6.30
   7   8   7   22.00    4.90
  -5   9   7  139.49   11.20
   4  -9  -7    8.70    4.10
  -4   9   7   11.40    4.50
   3  -9  -7   19.50    4.40
  -3   9   7   22.90    4.10
  -3   9   7   29.60    4.40
   2  -9  -7   85.99    6.80
  -2   9   7   85.69    6.30
  -2   9   7   78.49    6.20
   1  -9  -7   39.60    5.10
  -1   9   7   42.30    3.90
  -1   9   7   39.50    4.40
   0  -9  -7  430.86   17.90
   0   9   7  439.56   17.40
  -1  -9  -7  114.39    7.00
   1   9   7  110.19    6.20
  -2  -9  -7   58.79    5.60
   2   9   7   54.29    4.50
  -3  -9  -7   -3.40    3.00
   3   9   7   -1.30    2.00
  -4  -9  -7   49.10    6.20
   4   9   7   54.19    5.30
  -5  -9  -7    9.60    4.00
   5   9   7    4.70    3.10
  -6  -9  -7    5.20    4.90
   6   9   7    9.10    4.20
  -7  -9  -7   12.70    6.30
   7   9   7    7.60    4.90
   4 -10  -7    7.80    4.70
  -4  10   7    9.70    4.90
   3 -10  -7   54.29    7.80
  -3  10   7   66.39    7.10
  -3  10   7   47.50    6.80
   2 -10  -7   16.20    4.30
  -2  10   7   18.60    3.80
  -2  10   7    9.00    3.30
   1 -10  -7   37.40    5.60
  -1  10   7   41.50    5.00
   0 -10  -7   19.30    3.60
   0  10   7   21.20    3.10
  -1 -10  -7   89.09    6.80
   1  10   7   90.99    6.00
  -2 -10  -7   19.30    3.70
   2  10   7   13.30    2.80
  -3 -10  -7    2.20    3.40
   3  10   7    1.70    2.40
  -4 -10  -7   61.49    6.90
   4  10   7   57.59    5.70
  -5 -10  -7   10.50    4.60
   5  10   7    7.90    3.50
  -6 -10  -7  176.58   12.40
   6  10   7  174.58   10.80
  -4  11   7   -4.30    5.20
   3 -11  -7    3.40    5.30
  -3  11   7    4.50    4.50
  -3  11   7    5.10    4.60
   2 -11  -7   34.90    5.50
  -2  11   7   28.80    4.50
   1 -11  -7  110.69    8.40
  -1  11   7  110.39    7.40
   0 -11  -7   26.70    4.30
   0  11   7   18.50    3.50
  -1 -11  -7    1.20    3.40
   1  11   7   -1.00    2.50
  -2 -11  -7   40.30    5.10
   2  11   7   45.50    5.00
  -3 -11  -7   71.99    7.00
   3  11   7   68.49    6.00
  -4 -11  -7   19.40    4.70
   4  11   7   20.50    3.80
  -5 -11  -7  104.29    9.40
   5  11   7   97.99    8.10
  -6 -11  -7    3.00    5.60
   6  11   7   -1.30    4.50
   3 -12  -7    2.10    5.40
   2 -12  -7    7.00    5.40
  -2  12   7    7.40    4.30
   1 -12  -7   37.60    5.60
  -1  12   7   39.40    4.60
   0 -12  -7  113.09    8.70
   0  12   7  101.39    7.50
  -1 -12  -7   24.20    4.70
   1  12   7   32.80    4.10
  -2 -12  -7  222.78   12.40
   2  12   7  225.28   11.00
  -3 -12  -7  151.38   10.40
   3  12   7  150.18    9.10
  -4 -12  -7    0.90    4.90
  -5 -12  -7  124.59   10.30
   5  12   7  130.39    9.50
  -6 -12  -7   32.90    6.80
   2 -13  -7    2.20    5.90
   1 -13  -7   12.00    5.70
  -1  13   7   15.30    4.40
   0 -13  -7   -2.50    4.90
   0  13   7    4.20    3.90
   1  13   7   -0.90    3.30
  -2 -13  -7   35.20    7.30
   2  13   7   43.60    5.10
  -3 -13  -7   83.09    9.10
  -4 -13  -7  273.67   15.00
   4  13   7  271.87   14.20
  -5 -13  -7   -5.40    5.90
   5  13   7    9.60    4.80
   1 -14  -7   37.00    7.40
   0 -14  -7   32.00    6.50
   0  14   7   17.20    5.00
  -1 -14  -7  174.88   12.30
  -2 -14  -7   60.79    9.10
   2  14   7   56.39    7.90
  -3 -14  -7   -2.00    5.70
   3  14   7    3.80    4.40
  -4 -14  -7   99.89   11.10
   4  14   7  103.09   10.10
   1  11  -8  116.39   11.40
  -1 -11   8  106.09   11.40
   0  11  -8   58.79    8.30
   0 -11   8   70.39   10.10
  -3 -10   8  116.99   11.00
   2  10  -8   -0.50    5.80
   1  10  -8   24.60    5.80
  -1 -10   8   22.90    5.70
   0  10  -8    9.00    5.80
   0 -10   8   17.10    5.70
  -1  10  -8   85.19   10.10
   1 -10   8   99.19   10.00
  -2  10  -8   21.90    7.00
   2 -10   8   21.70    6.40
  -4  -9   8   32.80    6.70
  -3  -9   8    9.20    5.10
  -2  -9   8  176.08   11.20
  -1  -9   8   33.40    5.20
   0  -9   8   11.20    4.80
  -1   9  -8   -3.10    4.90
   1  -9   8   -4.00    7.50
  -2   9  -8    5.20    5.80
   2  -9   8   -0.60    4.80
  -3   9  -8   14.00    6.30
   3  -9   8   22.40    6.30
   5   8  -8   10.90    4.90
  -5  -8   8   37.60    6.80
   4   8  -8   83.19    8.50
  -4  -8   8   81.59    9.00
   3   8  -8    7.20    4.00
  -3  -8   8   -2.90    7.10
  -2  -8   8   25.00    4.50
  -2  -8   8   23.50    4.60
   1   8  -8    9.90    4.60
  -1  -8   8    5.80    3.90
   0   8  -8   59.89    6.80
   0  -8   8   67.79    7.30
  -1   8  -8    8.20    4.70
   1  -8   8    8.90    4.10
  -2   8  -8   17.90    8.00
   2  -8   8   16.50    4.70
  -3   8  -8   19.30    6.10
   3  -8   8   16.50    5.50
  -4   8  -8   27.90    7.10
   4  -8   8   35.90    6.70
   5   7  -8    8.70    4.80
  -5  -7   8    6.20    5.20
   4   7  -8   38.00    5.30
  -4  -7   8   39.20    8.70
   3   7  -8   18.10    3.90
  -3  -7   8    9.50    3.90
   2   7  -8   -2.00    2.90
  -2  -7   8    2.40    3.30
  -2  -7   8    1.00    3.30
  -1  -7   8   34.20    4.40
  -1  -7   8   35.60    5.50
   0   7  -8    3.30    3.10
   0  -7   8    6.00    3.40
  -1   7  -8  172.88   10.20
   1  -7   8  154.98    9.50
  -2   7  -8   54.09    7.30
   2  -7   8   43.80    6.40
  -3   7  -8  167.18   11.70
   3  -7   8  161.78   10.70
  -4   7  -8   19.80    6.20
   4  -7   8    8.00    5.30
  -5   7  -8   13.20    7.20
   5  -7   8   14.00    6.60
  -6  -6   8   -2.00    6.00
   5   6  -8   87.19    8.70
  -5  -6   8   90.09    8.90
   4   6  -8   35.80    4.80
  -4  -6   8   34.10    5.00
   3   6  -8    3.30    3.10
  -3  -6   8    0.90    3.50
   2   6  -8  103.59    6.30
  -2  -6   8   93.69    6.10
  -2  -6   8   95.99    7.10
   1   6  -8   19.90    2.80
  -1  -6   8   20.90    3.20
  -1  -6   8   15.40    3.30
   0   6  -8   45.90    5.70
   0  -6   8   44.10    4.90
  -1   6  -8   40.10    5.30
   1  -6   8   42.30    5.40
  -2   6  -8   18.00    4.30
   2  -6   8   11.50    3.60
  -3   6  -8   67.39    8.00
   3  -6   8   73.69    7.20
  -4   6  -8   16.40    7.30
  -5   6  -8   48.10    7.60
   5  -6   8   46.20    6.90
   6   5  -8    5.80    5.50
  -6  -5   8   -0.30    5.70
   5   5  -8  171.78   12.20
  -5  -5   8  162.88   10.80
   4   5  -8   39.30    4.90
  -4  -5   8   35.50    4.90
   3   5  -8   47.10    5.50
  -3  -5   8   36.60    5.10
   2   5  -8    5.70    2.60
  -2  -5   8    4.20    2.40
  -2  -5   8    3.10    2.60
   1   5  -8  102.69    5.70
  -1  -5   8  105.29    6.70
  -1  -5   8   94.79    7.50
   0   5  -8  484.25   21.00
   0  -5   8  531.25   20.20
   0  -5   8  500.95   20.60
  -1   5  -8  142.99    8.40
   1  -5   8  147.39    8.00
  -2   5  -8  688.03   27.90
   2  -5   8  690.33   27.20
  -3   5  -8   50.19    6.70
   3  -5   8   69.39    6.40
  -4   5  -8    8.90    5.00
   4  -5   8   11.70    4.10
  -5   5  -8   45.30    7.00
   5  -5   8   61.99    7.90
  -6   5  -8  117.99   12.40
   6  -5   8  100.39   11.30
   6   4  -8    9.50    5.30
  -6  -4   8   15.20    5.40
   5   4  -8    4.80    4.20
  -5  -4   8    2.90    4.20
   4   4  -8   -4.00    3.20
  -4  -4   8    4.70    3.50
   3   4  -8   43.70    5.00
  -3  -4   8   41.10    5.30
   2   4  -8    1.90    2.40
  -2  -4   8    2.50    2.10
  -2  -4   8    6.90    2.60
   1   4  -8  305.87   12.80
  -1  -4   8  325.27   13.10
  -1  -4   8  339.97   14.10
   0  -4   8  716.03   27.40
   0  -4   8  701.33   27.10
  -1   4  -8   36.60    4.60
   1  -4   8   41.10    4.30
  -2   4  -8   13.40    3.80
   2  -4   8   15.10    3.10
  -3   4  -8   16.20    4.30
   3  -4   8   14.20    3.40
  -4   4  -8    3.40    4.00
   4  -4   8    7.90    3.70
  -5   4  -8   63.89    8.60
   5  -4   8   48.30    7.40
  -6   4  -8  112.89   11.40
   6  -4   8  109.79   10.60
   6   3  -8  117.29   10.40
  -6  -3   8  111.99   10.00
   5   3  -8  145.59    9.30
  -5  -3   8  125.79    9.30
   4   3  -8  359.36   15.40
  -4  -3   8  333.07   15.60
   3   3  -8   94.09    6.00
  -3  -3   8   80.39    6.40
  -2  -3   8  177.38    8.70
  -2  -3   8  162.08    7.40
   1   3  -8  196.78    8.70
  -1  -3   8  206.78    9.50
  -1  -3   8  199.38    8.80
   0   3  -8    8.80    1.80
   0  -3   8   10.90    2.10
   0  -3   8   12.00    2.50
  -1   3  -8 1441.86   50.69
   1  -3   8 1295.17   52.39
  -2   3  -8  315.97   14.10
   2  -3   8  297.97   13.20
  -3   3  -8   23.20    4.20
   3  -3   8   14.90    3.20
  -4   3  -8   49.99    6.80
   4  -3   8   58.09    5.90
  -5   3  -8    6.10    4.90
   5  -3   8   -2.00    3.70
  -6   3  -8   28.10    6.80
   6  -3   8   27.20    5.90
   6   2  -8   22.50    5.20
  -6  -2   8   12.00    5.10
   5   2  -8   23.50    4.40
  -5  -2   8   19.00    4.50
   4   2  -8    5.90    3.10
  -4  -2   8    6.20    3.10
   3   2  -8    2.20    2.30
  -3  -2   8    4.40    2.40
  -2  -2   8  383.16   15.20
  -2  -2   8  427.06   16.70
   1   2  -8  828.42   30.50
  -1  -2   8  825.72   30.40
   0   2  -8   87.89    4.70
   0  -2   8   93.09    5.40
   0  -2   8   97.59    5.20
  -1   2  -8    7.10    2.40
   1  -2   8    8.50    2.10
   2  -2   8  213.28    9.80
  -3   2  -8   86.69    6.80
   3  -2   8   88.39    5.90
  -4   2  -8    7.40    3.70
   4  -2   8    3.30    2.90
  -5   2  -8   87.29    7.90
   5  -2   8   68.29    7.00
  -6   2  -8   64.19    9.60
   6  -2   8   64.39    9.40
  -7   2  -8   16.70    6.10
   7  -2   8   17.50    5.90
   6   1  -8   44.10    6.10
  -6  -1   8   41.80    6.30
   5   1  -8   92.79    7.40
  -5  -1   8   89.89    7.50
   4   1  -8    1.80    2.70
  -4  -1   8   -0.20    2.80
   3   1  -8  110.39    6.50
  -3  -1   8  105.69    6.50
   2   1  -8  425.76   18.20
  -2  -1   8  456.75   18.10
  -2  -1   8  458.05   16.70
   1   1  -8   28.40    3.10
  -1  -1   8   26.20    2.90
  -1  -1   8   26.20    2.90
   0  -1   8  417.76   16.40
   0  -1   8  415.66   16.20
   0  -1   8  415.96   15.80
  -1   1  -8   49.99    4.40
   1  -1   8   45.30    3.70
   1  -1   8   43.70    2.90
  -2   1  -8   12.70    3.00
   2  -1   8   15.20    2.10
   3  -1   8   16.50    2.20
   3  -1   8   14.20    2.90
  -4   1  -8    1.80    3.30
   4  -1   8    0.30    2.80
  -5   1  -8  102.09    7.80
   5  -1   8   83.89    7.10
  -6   1  -8   22.60    5.70
   6  -1   8   29.70    5.30
  -7   1  -8   22.10    6.40
   7  -1   8   18.50    6.00
   6   0  -8   73.69    8.30
  -6   0   8   64.39    8.60
   5   0  -8   -1.50    3.30
  -5   0   8   -0.90    3.60
   4   0  -8   36.40    4.60
  -4   0   8   34.30    4.70
   3   0  -8   13.20    2.50
  -3   0   8   13.40    2.90
  -2   0   8   64.39    5.00
  -1   0   8  189.18    7.90
  -1   0   8  183.98    8.10
  -1   0   8  184.58    8.40
   0   0   8  206.18    8.70
   0   0   8  203.98    8.30
   0   0   8  187.28    8.40
   1   0   8  480.85   19.00
   1   0   8  503.75   18.90
   1   0   8  491.95   18.40
  -2   0  -8  577.24   23.00
   2   0   8  617.64   23.00
   2   0   8  594.94   21.90
   3   0   8  279.07   11.00
   3   0   8  283.37   12.30
  -4   0  -8   85.79    6.10
   4   0   8   83.69    4.60
   4   0   8   93.69    6.20
  -5   0  -8   23.80    4.10
   5   0   8   18.50    3.80
  -6   0  -8    3.10    4.80
   6   0   8    6.00    4.30
   7   0   8   23.50    6.20
   6  -1  -8   17.40    4.70
  -6   1   8   12.90    4.80
   5  -1  -8   46.80    6.10
  -5   1   8   39.90    6.10
   4  -1  -8    3.50    2.70
  -4   1   8    2.00    2.80
   3  -1  -8  134.29    7.20
  -3   1   8  133.19    7.50
  -2   1   8   58.19    4.40
   1  -1  -8    2.20    1.30
   1  -1  -8    3.50    1.60
  -1   1   8    1.50    1.30
  -1   1   8    3.70    1.60
   0   1   8  325.67   12.60
   0   1   8  319.97   12.60
   0   1   8  307.17   12.50
   1   1   8  114.39    5.80
   1   1   8  115.39    5.50
   1   1   8  116.29    5.30
   2   1   8  235.68   10.20
   2   1   8  236.98    9.50
   3   1   8  106.49    6.20
   3   1   8  105.69    5.10
  -4  -1  -8   84.19    5.80
   4   1   8   91.29    4.90
   4   1   8   96.49    6.20
  -5  -1  -8  281.77   12.80
   5   1   8  271.67   13.00
   5   1   8  269.77   11.50
  -6  -1  -8  114.69    8.60
   6   1   8  114.19    9.00
  -7  -1  -8    9.90    6.00
   7   1   8    0.90    6.90
   6  -2  -8   74.99    8.30
  -6   2   8   75.69    8.70
   5  -2  -8   69.69    6.50
  -5   2   8   66.59    7.10
   4  -2  -8    0.70    2.50
  -4   2   8    6.60    3.50
   3  -2  -8    5.50    2.10
  -3   2   8    4.80    2.30
   2  -2  -8  101.69    5.00
  -2   2   8  109.49    5.90
  -2   2   8  115.99    6.00
   1  -2  -8   18.00    2.50
  -1   2   8   16.70    2.30
  -1   2   8   18.60    2.50
   0   2   8 1618.04   57.29
   0   2   8 1579.44   57.39
   1   2   8  556.54   20.80
   1   2   8  561.24   20.70
   1   2   8  552.24   21.20
   2   2   8  357.46   13.90
   2   2   8  358.56   14.50
   3   2   8  307.87   13.00
   3   2   8  299.87   12.00
  -4  -2  -8   -1.10    2.30
   4   2   8    2.40    2.40
   4   2   8    0.10    1.70
  -5  -2  -8   53.69    6.40
   5   2   8   57.99    5.80
   5   2   8   57.19    5.00
  -6  -2  -8  147.99    9.50
   6   2   8  130.39    8.30
   6   2   8  140.49    9.60
   7   2   8  110.89   10.60
   6  -3  -8  229.68   12.40
  -6   3   8  189.98   12.40
   5  -3  -8  138.69    9.20
  -5   3   8  150.08    9.40
   4  -3  -8    4.90    2.80
  -4   3   8    4.30    2.90
   3  -3  -8  224.88   10.20
  -3   3   8  216.98   10.30
   2  -3  -8   25.10    2.80
  -2   3   8   20.70    2.70
  -2   3   8   25.20    3.10
  -1   3   8  358.76   14.00
  -1   3   8  353.06   14.10
   0  -3  -8  673.43   24.60
   0  -3  -8  666.93   24.10
   0   3   8  633.64   24.50
   0   3   8  657.13   24.20
  -1  -3  -8 1369.56   47.60
  -1  -3  -8 1331.57   48.20
   1   3   8 1290.37   47.30
   1   3   8 1306.87   47.80
   2   3   8  366.46   14.70
   2   3   8  361.46   14.20
   3   3   8  121.69    6.70
   3   3   8  125.29    6.10
  -4  -3  -8  252.87   10.90
   4   3   8  253.17   11.50
   4   3   8  260.27   11.70
  -5  -3  -8   41.60    5.50
   5   3   8   39.60    4.60
   5   3   8   35.60    4.50
  -6  -3  -8   29.80    6.80
   6   3   8   24.30    4.50
   6   3   8   24.20    3.90
  -7  -3  -8  269.67   13.50
  -7  -3  -8  306.17   15.30
   7   3   8  296.27   14.10
   6  -4  -8   63.59    8.80
  -6   4   8   88.99    9.10
   5  -4  -8  119.69    9.00
  -5   4   8  136.99    9.20
   4  -4  -8   77.09    6.20
  -4   4   8   78.09    6.40
   3  -4  -8   63.09    5.10
  -3   4   8   61.19    5.10
   2  -4  -8    4.10    2.00
  -2   4   8    2.40    1.80
  -2   4   8    5.00    1.90
   1  -4  -8  339.57   13.60
  -1   4   8  350.36   13.90
  -1   4   8  342.17   13.50
   0  -4  -8  226.28    9.50
   0   4   8  222.78    9.00
   0   4   8  226.78    9.50
  -1  -4  -8 1162.48   40.70
  -1  -4  -8 1103.99   41.20
   1   4   8 1113.09   41.00
  -2  -4  -8  561.04   21.00
  -2  -4  -8  525.75   20.30
   2   4   8  538.75   20.50
  -3  -4  -8   17.30    2.20
  -3  -4  -8   16.10    2.70
  -3  -4  -8   14.30    2.00
   3   4   8   13.40    2.10
  -4  -4  -8    0.70    2.40
  -4  -4  -8   -1.20    2.00
  -4  -4  -8   -4.10    2.50
   4   4   8   -1.70    2.00
  -5  -4  -8    5.70    2.60
  -5  -4  -8    2.20    3.20
   5   4   8    2.60    2.60
  -6  -4  -8    2.50    3.20
  -6  -4  -8    6.70    4.00
   6   4   8    1.70    3.30
  -7  -4  -8   97.39    8.10
  -7  -4  -8  105.49    9.80
   7   4   8   98.39    8.50
   6  -5  -8   83.79    9.40
  -6   5   8   81.29    9.50
   5  -5  -8    0.10    3.80
  -5   5   8    3.20    4.20
   4  -5  -8  135.99    8.20
  -4   5   8  146.89    8.80
   3  -5  -8   60.49    5.10
  -3   5   8   70.59    5.50
   2  -5  -8  579.44   22.30
  -2   5   8  605.64   22.90
  -2   5   8  587.34   22.60
   1  -5  -8  749.33   28.10
  -1   5   8  788.02   28.60
  -1   5   8  732.43   27.90
   0  -5  -8  481.05   19.00
   0   5   8  498.35   19.00
   0   5   8  494.75   18.20
  -1  -5  -8  123.79    6.50
   1   5   8  134.89    5.10
   1   5   8  123.19    6.20
  -2  -5  -8  142.59    7.00
  -2  -5  -8  136.59    7.80
   2   5   8  138.39    6.60
  -3  -5  -8  182.18    8.70
  -3  -5  -8  175.78    7.90
   3   5   8  180.48    8.20
  -4  -5  -8   12.70    2.30
  -4  -5  -8    9.20    2.80
   4   5   8   11.50    2.40
  -5  -5  -8   15.50    2.90
  -5  -5  -8   13.60    3.60
   5   5   8   11.70    3.00
  -6  -5  -8   87.49    6.60
  -6  -5  -8  103.29    8.00
   6   5   8   93.69    7.20
  -7  -5  -8    6.50    4.40
  -7  -5  -8    6.60    5.20
   7   5   8    1.40    4.30
   6  -6  -8   49.30    6.50
  -6   6   8   60.39    7.70
   5  -6  -8   28.90    5.00
  -5   6   8   42.00    5.80
   4  -6  -8   19.10    3.60
  -4   6   8   13.70    3.80
   3  -6  -8    1.40    2.90
  -3   6   8    2.20    2.70
  -3   6   8    2.00    2.80
   2  -6  -8    3.00    2.50
  -2   6   8    7.80    2.50
  -2   6   8    2.70    2.10
   1  -6  -8   25.60    3.50
  -1   6   8   28.80    3.30
  -1   6   8   20.90    2.90
   0  -6  -8  451.85   17.80
   0   6   8  441.96   16.70
   0   6   8  460.45   17.80
  -1  -6  -8   15.20    2.80
  -2  -6  -8   42.30    4.10
   2   6   8   38.80    3.50
  -3  -6  -8   12.10    2.70
   3   6   8   10.80    2.20
  -4  -6  -8  154.38    8.50
   4   6   8  155.18    8.00
  -5  -6  -8   38.20    5.60
   5   6   8   41.00    5.10
  -6  -6  -8   18.90    4.40
   6   6   8   16.10    3.80
  -7  -6  -8   -5.30    5.30
   7   6   8   -2.70    4.50
   5  -7  -8    8.20    7.70
  -5   7   8   10.50    6.80
   4  -7  -8   49.90    6.30
  -4   7   8   48.70    6.40
  -3   7   8   67.19    6.10
  -3   7   8   74.49    6.00
   2  -7  -8  183.48   10.40
  -2   7   8  174.88    8.90
  -2   7   8  171.08    8.50
  -1   7   8  374.36   14.80
  -1   7   8  339.97   14.00
   0  -7  -8  494.25   20.20
   0   7   8  491.25   18.50
   0   7   8  528.65   19.80
  -1  -7  -8  238.68   10.80
   1   7   8  235.38   10.30
  -2  -7  -8  158.28    8.10
   2   7   8  150.38    7.50
  -3  -7  -8  217.38   10.40
   3   7   8  223.08   10.00
  -4  -7  -8    8.70    3.00
   4   7   8    8.50    2.70
  -5  -7  -8   51.09    6.20
   5   7   8   44.90    5.30
  -6  -7  -8   13.50    4.60
   6   7   8   18.00    4.10
   7   7   8   15.70    4.80
   5  -8  -8    0.80    5.00
  -5   8   8    2.20    4.80
   4  -8  -8    0.10    3.80
  -4   8   8   -1.20    4.00
   3  -8  -8   19.70    4.10
  -3   8   8   19.00    3.70
  -3   8   8   21.70    3.90
   2  -8  -8   19.10    3.60
  -2   8   8   18.40    5.10
  -2   8   8   19.90    3.30
   1  -8  -8    8.30    2.90
  -1   8   8    8.80    2.40
  -1   8   8    9.40    2.10
   0  -8  -8  217.08   10.20
   0   8   8  221.38   10.00
  -1  -8  -8    4.20    2.70
   1   8   8    3.20    1.90
  -2  -8  -8   18.60    3.30
   2   8   8   18.90    2.70
  -3  -8  -8  509.45   20.30
   3   8   8  476.95   19.60
  -4  -8  -8  201.88   10.50
   4   8   8  210.08   10.10
  -5  -8  -8   49.50    6.30
   5   8   8   49.50    5.60
  -6  -8  -8   70.69    8.30
   6   8   8   68.19    7.20
  -7  -8  -8   14.20    6.10
   7   8   8   20.50    5.10
  -5   9   8   75.59   10.00
   4  -9  -8   11.40    4.50
  -4   9   8   -0.10    4.50
   3  -9  -8   25.10    4.90
  -3   9   8   20.10    3.90
  -3   9   8   22.40    4.40
   2  -9  -8   13.00    3.90
  -2   9   8   14.70    3.30
  -2   9   8   23.70    3.60
  -1   9   8  255.47   11.60
   0  -9  -8  242.48   11.50
   0   9   8  247.68   11.10
  -1  -9  -8  181.28    9.40
   1   9   8  180.88    8.80
  -2  -9  -8  237.88   11.50
   2   9   8  235.38   10.70
  -3  -9  -8  215.58   10.80
   3   9   8  192.48    9.70
  -4  -9  -8   14.70    4.20
   4   9   8   12.20    3.10
  -5  -9  -8    4.10    4.00
   5   9   8   11.90    3.50
  -6  -9  -8   58.29    8.40
   6   9   8   52.69    7.30
  -7  -9  -8  204.28   14.20
   7   9   8  242.08   13.50
  -4  10   8   25.90    7.00
   3 -10  -8    1.30    4.60
  -3  10   8    0.90    4.00
  -3  10   8   -5.80    4.20
   2 -10  -8    6.90    3.90
  -2  10   8   -0.90    3.10
   1 -10  -8  266.47   13.10
  -1  10   8  281.17   12.60
   0 -10  -8  101.39    7.30
   0  10   8   97.19    6.40
  -1 -10  -8  351.56   15.30
   1  10   8  330.77   14.50
  -2 -10  -8  412.26   17.40
   2  10   8  387.76   16.60
  -3 -10  -8    3.70    3.80
   3  10   8    9.10    3.00
  -4 -10  -8   20.10    4.70
   4  10   8   24.20    3.70
  -5 -10  -8   74.09    8.70
   5  10   8   67.59    7.10
  -6 -10  -8   90.19   10.20
   3 -11  -8   31.10    6.00
  -3  11   8   17.00    5.00
   2 -11  -8   37.50    5.80
  -2  11   8   37.20    5.10
   1 -11  -8  115.59    8.80
  -1  11   8  109.49    7.70
   0 -11  -8    9.10    3.90
   0  11   8    6.20    3.10
  -1 -11  -8  166.58    9.60
   1  11   8  148.59    8.50
  -2 -11  -8  382.16   17.10
   2  11   8  385.06   16.30
  -3 -11  -8   68.99    7.40
   3  11   8   78.79    6.50
  -4 -11  -8   13.20    5.00
   4  11   8    4.80    3.30
  -5 -11  -8  116.59   14.00
   5  11   8  130.29    9.10
  -6 -11  -8   40.20    7.10
   6  11   8   42.10    5.90
   3 -12  -8    0.00    5.30
  -2  12   8   53.89    7.50
   1 -12  -8   32.30    5.70
  -1  12   8   23.30    4.30
   0 -12  -8  169.48   10.90
   0  12   8  165.98    9.60
  -1 -12  -8  120.09    9.10
   1  12   8  119.49    7.80
  -2 -12  -8    4.40    4.20
   2  12   8    3.50    3.10
  -3 -12  -8   23.30    5.10
   3  12   8   15.20    3.90
  -4 -12  -8    1.80    5.10
   4  12   8   -1.70    3.60
  -5 -12  -8   17.90    5.60
   5  12   8   15.00    4.50
   2 -13  -8   34.30    6.70
   1 -13  -8    0.30    5.50
  -1  13   8    5.60    4.30
   0 -13  -8   66.59    8.90
   0  13   8   76.29    7.60
  -1 -13  -8   55.69    6.90
   1  13   8   54.39    6.70
  -2 -13  -8   -5.10    4.80
   2  13   8    4.00    4.00
  -3 -13  -8    4.50    5.20
   3  13   8   -0.20    3.70
  -4 -13  -8   52.29    7.20
   4  13   8   64.59    8.00
  -5 -13  -8   13.90    6.60
   5  13   8    1.60    4.80
   1 -14  -8   20.00    7.00
   0 -14  -8   27.40    6.70
  -1 -14  -8   14.40    6.00
   1  14   8    2.40    4.20
  -2 -14  -8   17.40    6.20
   2  14   8    5.60    4.30
  -3 -14  -8  173.88   12.90
   3  14   8  193.18   11.50
  -4 -14  -8    6.70    6.60
   2  10  -9    7.30    6.50
   1  10  -9   -1.50    5.60
  -1 -10   9   -7.90    5.60
   0  10  -9   13.20    6.50
   0 -10   9    7.90    6.00
  -1  10  -9   -0.70    6.30
   1 -10   9   -0.10    6.00
  -3  -9   9    3.10    5.50
   1   9  -9    4.50    5.00
  -1  -9   9   -1.00    4.80
   0   9  -9  130.59   10.60
   0  -9   9  126.49   13.30
  -1   9  -9  107.99   10.80
   1  -9   9  114.49    9.90
  -2   9  -9   28.00    7.00
   2  -9   9   29.10    6.50
   4   8  -9   -0.10    4.90
  -4  -8   9    3.20    5.30
  -3  -8   9  175.28   11.60
  -2  -8   9   23.20    5.00
   1   8  -9    2.90    8.10
  -1  -8   9    5.40    4.20
   0   8  -9    6.60    5.30
   0  -8   9    4.30    4.20
  -1   8  -9   10.70    5.50
   1  -8   9   13.30    4.70
  -2   8  -9   35.70    6.50
   2  -8   9   22.50    5.20
  -3   8  -9   55.59    8.40
   3  -8   9   51.49    7.20
  -5  -7   9   75.19    9.80
   4   7  -9   -0.70    4.40
  -4  -7   9    2.50    4.70
   3   7  -9   63.19    7.10
  -2  -7   9   59.69    7.00
  -1  -7   9  261.37   12.00
  -1  -7   9  222.98   12.40
   0   7  -9  139.79    9.50
   0  -7   9  138.09    8.90
  -1   7  -9  167.98   10.40
   1  -7   9  159.88    9.80
  -2   7  -9  230.78   13.70
   2  -7   9  240.18   12.80
  -3   7  -9   39.60    6.80
   3  -7   9   30.00    5.60
  -4   7  -9   72.29   10.50
   4  -7   9   61.09    7.70
   5   6  -9   -2.70    4.60
  -5  -6   9    8.00    5.40
   4   6  -9  179.28   10.50
  -4  -6   9  160.58   10.40
   3   6  -9   16.70    3.80
  -3  -6   9    6.80    3.80
  -2  -6   9   23.60    4.20
  -1  -6   9  248.18   11.50
  -1  -6   9  223.68   11.70
   0   6  -9   29.70    5.00
   0  -6   9   33.30    4.30
  -1   6  -9   -1.80    3.40
   1  -6   9   -1.60    3.10
  -2   6  -9    3.10    4.00
   2  -6   9    2.60    3.70
  -3   6  -9   39.80    6.20
   3  -6   9   38.70    5.50
  -4   6  -9   32.60    6.80
   4  -6   9   47.50    6.50
  -5   6  -9   31.50    7.40
   5  -6   9   26.70    6.40
   5   5  -9   21.60    5.60
  -5  -5   9   23.70    5.50
   4   5  -9  105.59    8.60
  -4  -5   9   94.29    8.00
   3   5  -9   27.30    4.30
  -3  -5   9   23.00    4.10
   2   5  -9   39.80    4.10
  -2  -5   9   31.50    4.90
   1   5  -9   50.99    4.90
  -1  -5   9   67.09    5.80
  -1  -5   9   69.49    5.40
   0   5  -9  266.97   13.70
   0  -5   9  298.37   12.80
  -1   5  -9  395.66   17.30
   1  -5   9  385.86   16.70
  -2   5  -9   36.40    5.30
   2  -5   9   38.90    5.50
  -3   5  -9   46.80    6.30
   3  -5   9   43.00    6.20
  -4   5  -9    7.40    5.30
   4  -5   9   -1.50    5.30
  -5   5  -9   29.20    6.90
   5  -5   9   30.50    6.00
   6   4  -9    7.20    5.80
  -6  -4   9   -2.60    5.50
   5   4  -9  142.79   10.50
  -5  -4   9  134.29    9.90
   4   4  -9    9.40    3.80
  -4  -4   9   -2.00    3.80
   3   4  -9   76.09    6.60
  -3  -4   9   70.99    6.20
   2   4  -9  114.79    6.70
  -2  -4   9  111.99    7.40
  -2  -4   9  112.09    7.40
   1   4  -9    5.30    2.20
  -1  -4   9   -1.10    2.30
  -1  -4   9    1.70    2.20
   0   4  -9    8.30    2.00
   0  -4   9   10.90    2.90
   0  -4   9   11.80    2.80
  -1   4  -9   86.59    6.50
   1  -4   9   86.69    6.00
  -2   4  -9   11.80    3.80
   2  -4   9   10.70    3.20
  -3   4  -9   14.50    4.80
   3  -4   9   14.30    3.80
  -4   4  -9   10.20    5.10
   4  -4   9    0.40    3.60
  -5   4  -9   42.50    8.60
   5  -4   9   44.40    6.10
  -6   4  -9   24.90    7.80
   6  -4   9   31.50    7.10
   6   3  -9    3.50    5.50
  -6  -3   9    3.00    5.30
  -5  -3   9   15.00    5.30
   4   3  -9    1.10    3.40
  -4  -3   9    4.00    3.50
   3   3  -9   32.60    4.00
  -3  -3   9   31.10    4.80
   2   3  -9   59.79    4.80
  -2  -3   9   40.00    4.60
  -2  -3   9   48.30    4.20
   1   3  -9    4.10    2.10
  -1  -3   9    2.30    2.10
  -1  -3   9    4.20    2.60
   0   3  -9    4.90    2.00
   0  -3   9    4.70    2.40
   0  -3   9    9.30    2.40
  -1   3  -9  177.88    9.10
   1  -3   9  167.18    8.60
  -2   3  -9    8.60    3.50
   2  -3   9    3.10    2.70
  -3   3  -9   25.60    4.80
   3  -3   9   23.90    3.90
  -4   3  -9   48.60    7.40
   4  -3   9   63.49    6.40
  -5   3  -9   19.70    5.90
   5  -3   9   11.50    4.60
  -6   3  -9   71.89   10.20
   6  -3   9   78.09    9.30
   6   2  -9   28.10    5.90
  -6  -2   9   22.30    5.60
   5   2  -9   13.20    4.50
  -5  -2   9    8.80    4.20
   4   2  -9    7.90    3.40
  -4  -2   9    1.70    3.10
   3   2  -9   -0.20    2.60
  -3  -2   9    3.30    2.80
   2   2  -9    4.90    2.30
  -2  -2   9    1.40    2.40
  -2  -2   9    5.30    2.00
   1   2  -9  114.59    5.90
  -1  -2   9  111.69    6.60
  -1  -2   9  110.09    6.00
   0   2  -9  529.05   20.30
   0  -2   9  523.45   20.70
   0  -2   9  566.84   21.30
  -1   2  -9  325.67   12.50
   1  -2   9  318.47   13.50
  -2   2  -9   36.20    5.40
   2  -2   9   27.60    4.00
  -3   2  -9  133.59    9.20
   3  -2   9  182.78    8.90
  -4   2  -9   65.49    7.30
   4  -2   9   88.09    6.60
  -5   2  -9    6.80    5.00
   5  -2   9    5.30    4.10
   6  -2   9   19.10    5.50
   6   1  -9    0.40    4.80
  -6  -1   9   -4.60    4.90
   5   1  -9  135.59    9.20
  -5  -1   9  125.59    9.20
   4   1  -9   34.90    4.30
  -4  -1   9   28.50    4.50
   3   1  -9   77.89    6.00
  -3  -1   9   75.59    6.10
   2   1  -9  184.18    8.80
  -2  -1   9  168.18    7.70
  -2  -1   9  206.38    9.40
   1   1  -9    0.10    1.80
  -1  -1   9    2.10    1.80
  -1  -1   9    1.90    2.00
   0  -1   9  173.18    8.30
   0  -1   9  170.78    8.00
   0  -1   9  173.68    7.60
  -1   1  -9  190.18    9.20
   1  -1   9  175.78    7.70
   1  -1   9  181.78    8.50
   2  -1   9  376.56   15.40
   2  -1   9  362.56   14.00
   3  -1   9  245.98   11.60
   3  -1   9  245.78    9.80
   4  -1   9  140.09    8.50
  -5   1  -9  124.89    9.00
   5  -1   9  124.69    8.70
  -6   1  -9   34.40    6.60
   6  -1   9   27.30    9.20
  -7   1  -9   13.00    6.00
   7  -1   9   34.20    6.60
   6   0  -9   37.60    6.10
  -6   0   9   27.10    5.60
   5   0  -9    4.00    3.70
  -5   0   9   -0.40    3.70
   4   0  -9   26.40    4.00
  -4   0   9   25.30    4.30
   3   0  -9    7.20    2.60
  -3   0   9    6.50    2.80
   2   0  -9    3.40    1.80
   2   0  -9    4.30    1.40
   2   0  -9    5.40    2.10
  -2   0   9    7.80    2.50
  -1   0   9 1399.26   49.40
  -1   0   9 1340.07   49.99
   0   0   9  237.08    9.90
   0   0   9  240.18   10.10
   0   0   9  241.28   10.40
  -1   0  -9    3.30    2.50
   1   0   9    5.00    2.00
   1   0   9    7.10    1.60
   1   0   9    8.00    2.00
   2   0   9  392.56   15.70
   2   0   9  369.46   14.50
   3   0   9   65.59    4.00
   3   0   9   75.59    5.50
  -4   0  -9   24.80    4.40
   4   0   9   22.20    3.70
   4   0   9   18.50    2.40
  -5   0  -9   39.10    5.40
   5   0   9   32.40    4.70
  -6   0  -9  133.39   10.80
   6   0   9  150.48   10.50
  -7   0  -9   20.80    6.80
   7   0   9   24.80    6.30
   6  -1  -9  173.78   11.70
  -6   1   9  154.98   11.60
   5  -1  -9   35.70    5.00
  -5   1   9   42.70    5.60
   4  -1  -9  201.68   10.30
  -4   1   9  206.78   10.80
   3  -1  -9  324.87   13.80
  -3   1   9  317.37   14.10
   2  -1  -9   31.30    3.80
  -2   1   9   30.60    3.80
   1  -1  -9  463.25   16.70
   1  -1  -9  410.86   16.10
  -1   1   9  415.76   16.90
  -1   1   9  443.16   17.10
   0   1   9  382.96   15.20
   0   1   9  402.56   15.40
   0   1   9  376.26   15.10
   1   1   9  253.47   10.30
   1   1   9  241.68    9.90
   1   1   9  236.68   10.50
   2   1   9  271.47   11.90
   2   1   9  261.77   10.70
   3   1   9  193.38    8.40
   3   1   9  212.58    9.70
   4   1   9   96.29    6.40
   4   1   9   94.49    5.20
  -5  -1  -9   21.40    4.20
   5   1   9   22.60    4.20
  -6  -1  -9  108.99    9.10
   6   1   9   96.59    8.80
   7   1   9   34.30    6.30
   6  -2  -9   69.09    9.20
  -6   2   9   73.59    8.90
   5  -2  -9  121.19    8.50
  -5   2   9  105.99    8.70
   4  -2  -9   -1.90    2.70
  -4   2   9    2.10    3.20
   3  -2  -9  130.49    7.30
  -3   2   9  139.39    7.80
  -2   2   9  318.07   16.20
   1  -2  -9   46.10    3.60
   1  -2  -9   48.50    3.10
  -1   2   9   43.60    3.60
   0  -2  -9  328.97   13.20
   0  -2  -9  327.67   13.80
   0   2   9  346.27   13.70
   0   2   9  365.86   13.60
   1   2   9  688.73   26.30
   1   2   9  746.23   26.30
   1   2   9  689.43   26.70
  -2  -2  -9   12.20    2.80
   2   2   9   15.80    2.00
   3   2   9   35.70    3.20
   3   2   9   38.60    4.30
  -4  -2  -9  173.98    8.90
   4   2   9  190.18    8.40
   4   2   9  193.08    9.50
  -5  -2  -9    7.10    3.60
   5   2   9   -1.20    3.10
   5   2   9    3.40    2.50
  -6  -2  -9  112.39    9.50
   6   2   9  118.09    9.10
   7   2   9   38.40    6.50
   6  -3  -9   15.30    5.20
  -6   3   9    7.80    5.10
   5  -3  -9  135.79    9.60
  -5   3   9  142.49    9.70
   4  -3  -9  153.78    9.00
  -4   3   9  159.48    9.10
   3  -3  -9  105.09    6.80
  -3   3   9  120.49    7.00
   2  -3  -9  308.77   12.90
  -2   3   9  344.47   14.00
  -2   3   9  348.67   13.90
   1  -3  -9    7.10    2.10
  -1   3   9    8.40    1.90
  -1   3   9    8.90    2.00
   0  -3  -9    2.30    1.70
   0  -3  -9    2.10    1.50
   0   3   9    1.00    1.40
   0   3   9    1.50    1.50
  -1  -3  -9  187.58    8.80
  -1  -3  -9  193.28    8.10
   1   3   9  180.68    8.20
   1   3   9  187.98    7.80
  -3  -3  -9   34.80    4.00
   3   3   9   48.00    3.70
   3   3   9   51.89    4.70
  -4  -3  -9   16.30    3.00
   4   3   9   25.80    3.70
   4   3   9   16.90    2.70
  -5  -3  -9    3.10    3.60
   5   3   9    1.20    3.30
   5   3   9    2.90    2.60
   6   3   9    3.60    4.10
   6   3   9    8.50    3.60
  -7  -3  -9   20.20    6.10
  -7  -3  -9   28.10    5.20
   6  -4  -9    1.70    5.00
  -6   4   9    6.80    5.60
   5  -4  -9   19.10    4.50
  -5   4   9   18.30    4.60
   4  -4  -9   80.89    6.70
  -4   4   9   86.19    7.00
   3  -4  -9   12.20    3.00
  -3   4   9   11.10    3.00
   2  -4  -9   38.70    3.90
  -2   4   9   48.50    4.10
  -2   4   9   40.70    4.10
   1  -4  -9   31.10    3.70
  -1   4   9   23.80    3.00
  -1   4   9   35.80    3.40
   0  -4  -9   42.20    4.00
   0   4   9   46.10    3.20
  -1  -4  -9   48.10    4.10
  -1  -4  -9   54.79    3.60
   1   4   9   53.49    3.80
   1   4   9   54.79    3.20
  -2  -4  -9    1.50    1.70
  -2  -4  -9    2.20    2.00
  -2  -4  -9    1.00    1.80
   2   4   9    0.80    1.60
  -3  -4  -9 1051.19   38.40
  -3  -4  -9 1048.40   39.20
  -3  -4  -9 1041.70   37.80
   3   4   9 1049.89   38.60
  -4  -4  -9  252.07   12.00
  -4  -4  -9  245.38   10.90
   4   4   9  261.67   11.10
  -5  -4  -9    6.40    3.60
  -5  -4  -9    1.80    2.80
   5   4   9    4.90    2.80
  -6  -4  -9   26.20    4.90
  -6  -4  -9   28.60    3.90
   6   4   9   24.80    4.10
  -7  -4  -9   56.69    5.80
  -7  -4  -9   38.00    6.60
   7   4   9   59.89    7.90
   6  -5  -9   16.50    5.80
  -6   5   9   20.50    6.20
  -5   5   9   39.70    6.40
   4  -5  -9   -1.90    3.00
  -4   5   9   -1.90    3.40
  -3   5   9   50.09    5.40
   2  -5  -9   -3.20    2.40
  -2   5   9   -3.00    2.10
  -2   5   9   -0.50    2.00
   1  -5  -9   65.59    4.70
  -1   5   9   64.09    4.60
  -1   5   9   59.99    4.20
   0  -5  -9    1.40    2.10
   0   5   9    1.10    1.40
   0   5   9   -1.80    1.60
  -1  -5  -9  512.35   17.70
  -1  -5  -9  515.75   19.90
   1   5   9  462.65   18.70
   1   5   9  436.16   17.90
  -2  -5  -9  140.99    7.40
  -2  -5  -9  146.09    6.90
   2   5   9  153.28    7.10
  -3  -5  -9   36.40    4.30
  -3  -5  -9   44.40    3.70
   3   5   9   45.30    3.90
  -4  -5  -9   -1.20    2.10
  -4  -5  -9    3.50    2.80
   4   5   9   -1.20    2.10
  -5  -5  -9   -2.20    3.30
  -5  -5  -9    6.40    2.80
   5   5   9   -1.90    2.60
  -6  -5  -9   57.49    7.40
  -6  -5  -9   58.69    5.90
   6   5   9   69.89    6.70
  -7  -5  -9  171.28   10.70
  -7  -5  -9  181.58   12.30
  -5   6   9   72.89   11.10
   4  -6  -9   31.90    4.40
  -4   6   9   31.40    4.80
  -3   6   9  147.99    8.60
  -3   6   9  160.68    8.70
   2  -6  -9   85.29    6.10
  -2   6   9  109.49    6.40
  -2   6   9  114.79    6.30
   1  -6  -9   75.99    5.40
  -1   6   9   81.09    4.80
  -1   6   9   91.39    5.40
   0  -6  -9    7.70    3.00
   0   6   9    9.70    1.60
   0   6   9   10.70    2.20
  -1  -6  -9   16.90    2.70
   1   6   9   12.40    2.20
  -2  -6  -9 1603.94   57.89
   2   6   9 1561.34   57.39
  -3  -6  -9  605.74   23.80
   3   6   9  598.24   23.30
  -4  -6  -9   71.29    5.00
  -4  -6  -9   72.29    6.00
   4   6   9   70.89    5.20
  -5  -6  -9  254.37   11.50
  -5  -6  -9  247.98   12.50
   5   6   9  256.17   11.90
  -6  -6  -9   32.20    4.20
  -6  -6  -9   15.80    4.90
   6   6   9   29.40    4.50
  -7  -6  -9    6.80    5.80
   7   6   9   11.60    4.60
   5  -7  -9    6.90    4.80
  -5   7   9    9.00    5.30
   4  -7  -9   61.69    7.00
  -4   7   9   55.49    7.60
  -3   7   9  150.48    8.70
  -3   7   9  134.99    8.50
   2  -7  -9    4.20    3.30
  -2   7   9   -2.90    4.10
  -2   7   9    2.90    2.40
   1  -7  -9   25.30    3.50
  -1   7   9   22.80    2.80
  -1   7   9   25.30    3.20
   0  -7  -9  262.47   11.70
   0   7   9  258.57   11.50
  -1  -7  -9  136.09    7.50
   1   7   9  132.39    7.00
  -2  -7  -9  309.57   13.60
   2   7   9  311.27   13.10
  -3  -7  -9   77.49    6.10
   3   7   9   86.89    5.50
  -4  -7  -9    1.60    2.90
   4   7   9    5.70    2.40
  -5  -7  -9   19.10    4.20
   5   7   9   20.30    3.60
  -6  -7  -9   82.49    8.30
   6   7   9   74.19    7.30
  -7  -7  -9   37.10    6.50
   7   7   9   45.00    5.90
   5  -8  -9   18.90    5.40
  -5   8   9   25.90    6.20
   4  -8  -9   19.20    4.70
  -4   8   9   23.30    5.00
  -3   8   9   47.10    6.10
  -3   8   9   52.99    6.60
   2  -8  -9  123.19    7.80
  -2   8   9  130.99    7.40
  -2   8   9  101.89    7.30
   1  -8  -9  117.79    6.90
  -1   8   9  108.99    6.70
  -1   8   9  104.99    5.90
   0  -8  -9   30.30    3.80
   0   8   9   30.60    4.00
  -1  -8  -9  860.51   32.50
   1   8   9  840.12   32.10
  -2  -8  -9   65.59    5.60
   2   8   9   51.29    4.60
  -3  -8  -9    4.20    3.00
   3   8   9    2.00    2.20
  -4  -8  -9  291.67   13.70
   4   8   9  292.27   13.00
  -5  -8  -9   61.99    6.90
   5   8   9   69.99    6.40
  -6  -8  -9   49.60    7.40
   6   8   9   36.70    7.30
  -7  -8  -9   10.80    6.20
   7   8   9   -3.30    4.90
   4  -9  -9   87.09   10.70
  -4   9   9  117.39    9.50
   3  -9  -9    0.70    7.00
  -3   9   9    2.90    4.00
  -3   9   9    1.40    3.50
   2  -9  -9   44.40    6.20
  -2   9   9   40.00    4.60
  -2   9   9   30.30    4.20
   1  -9  -9   10.00    3.40
  -1   9   9   12.50    3.10
   0  -9  -9  103.59    7.10
   0   9   9   86.09    6.10
  -1  -9  -9  431.36   17.80
   1   9   9  399.16   17.00
  -2  -9  -9   45.60    5.80
   2   9   9   49.60    4.60
  -3  -9  -9   29.20    4.40
   3   9   9   24.40    3.40
  -4  -9  -9    6.30    3.80
   4   9   9    2.10    2.70
  -5  -9  -9    5.30    4.60
   5   9   9   -0.40    3.30
  -6  -9  -9    6.10    5.50
   6   9   9    0.10    4.00
   4 -10  -9   37.60    5.90
   3 -10  -9   28.20    8.60
   2 -10  -9    8.60    4.30
  -2  10   9    3.00    3.60
   1 -10  -9   18.50    4.30
  -1  10   9   18.90    3.60
   0 -10  -9  190.18   10.10
   0  10   9  180.18    9.50
  -1 -10  -9   21.40    4.20
   1  10   9   23.40    3.30
  -2 -10  -9   -2.00    3.60
   2  10   9    0.80    2.40
  -3 -10  -9   20.70    4.60
   3  10   9   24.60    3.70
  -4 -10  -9    5.50    4.40
   4  10   9    0.60    3.00
  -5 -10  -9    8.00    5.30
   5  10   9    8.60    4.20
  -6 -10  -9   82.09    9.90
   6  10   9   69.29    8.30
  -3  11   9   26.30    5.50
   2 -11  -9    6.40    5.10
  -2  11   9   -6.50    3.70
   1 -11  -9   37.60    5.40
  -1  11   9   41.60    4.80
   0 -11  -9   38.10    5.30
   0  11   9   50.49    5.70
  -1 -11  -9   29.40    4.90
   1  11   9   20.70    3.60
  -2 -11  -9   18.50    4.40
   2  11   9   15.60    3.30
  -3 -11  -9    1.90    4.30
   3  11   9    0.80    2.90
  -4 -11  -9   34.00    5.70
   4  11   9   32.10    6.30
  -5 -11  -9   29.60    6.40
   5  11   9   39.50    5.40
  -6 -11  -9   26.20    7.20
   6  11   9   19.50    5.20
   2 -12  -9   67.89    9.80
   1 -12  -9    0.50    5.10
  -1  12   9    3.30    3.70
   0 -12  -9   -2.00    4.50
   0  12   9    0.20    3.50
  -1 -12  -9   66.09    7.80
   1  12   9   51.09    6.10
  -2 -12  -9   38.20    5.80
   2  12   9   46.30    6.20
  -4 -12  -9    5.60    5.10
   4  12   9   -3.20    3.60
  -5 -12  -9  143.89   11.70
   5  12   9  144.59   10.20
   1 -13  -9   13.50    5.90
  -1  13   9    0.50    4.30
   0 -13  -9    9.50    5.60
  -1 -13  -9   -3.00    4.90
  -2 -13  -9   41.20    6.40
   2  13   9   36.50    4.90
  -3 -13  -9  128.49   10.60
   3  13   9  114.69    8.90
  -4 -13  -9   72.99    9.70
   4  13   9   60.59    8.00
   0  14   9   38.70    5.50
  -1 -14  -9   27.90    6.60
   1  14   9   26.90    5.10
  -2 -14  -9   12.40    6.10
   2  14   9   19.10    4.80
  -3 -14  -9   -2.20    6.10
   3  14   9    5.90    4.60
   2   9 -10  176.88   13.70
   1   9 -10  134.79   11.80
   0   9 -10   44.00    7.20
   0  -9  10   39.20    6.70
  -1   9 -10   14.60    6.90
   1  -9  10   27.20    6.50
  -3  -8  10   24.20    5.80
  -2  -8  10  299.67   15.80
   1   8 -10   72.79    9.10
  -1  -8  10   91.29    8.40
   0   8 -10    9.90    4.90
   0  -8  10   34.50    5.60
  -1   8 -10    8.80    5.50
   1  -8  10    1.50    5.00
  -2   8 -10    9.80    6.40
   2  -8  10    4.40    5.20
  -3   8 -10    3.70    6.70
   3  -8  10   -3.30    5.80
   4   7 -10    2.20    4.60
  -4  -7  10   -0.10    5.20
  -3  -7  10   39.40    6.10
  -2  -7  10  121.49    9.50
   1   7 -10   57.79    9.50
  -1  -7  10   69.39    7.10
   0   7 -10   -2.20    4.20
   0  -7  10    4.40    4.10
   1  -7  10   27.70    5.10
  -2   7 -10   25.00    6.20
   2  -7  10   19.80    5.30
  -3   7 -10   21.60    6.80
   3  -7  10   23.80    5.80
  -4  -6  10   29.40    5.70
   3   6 -10   96.09    8.00
  -3  -6  10   80.69    7.90
  -2  -6  10    3.40    3.90
  -1  -6  10    6.90    3.60
  -1  -6  10    4.00    3.60
   0   6 -10   -6.30    3.60
   0  -6  10    0.70    3.50
  -1   6 -10  117.79    9.00
   1  -6  10  113.99    8.50
  -2   6 -10   -4.10    4.90
   2  -6  10   -4.90    4.00
  -3   6 -10  114.09   11.00
   3  -6  10   96.59    9.30
  -4   6 -10   46.70    8.10
   4  -6  10   33.50    6.70
   5   5 -10   78.39    8.30
  -5  -5  10   69.39    9.30
   4   5 -10    5.40    5.00
  -4  -5  10   11.60    4.50
   3   5 -10  118.59    8.40
  -3  -5  10  102.19    8.60
   2   5 -10    2.80    3.40
  -2  -5  10    3.90    3.20
  -1  -5  10   98.99    6.90
  -1  -5  10   89.69    7.40
   0   5 -10  113.19    8.70
   0  -5  10  116.29    7.50
  -1   5 -10  141.49    9.10
   1  -5  10  123.29    8.00
  -2   5 -10  195.88   11.90
   2  -5  10  211.18   11.20
  -3   5 -10   12.50    5.20
   3  -5  10   20.60    4.70
   4  -5  10    2.00    4.80
  -5   5 -10    2.80    7.00
   5  -5  10   13.80    6.10
   5   4 -10   82.39    9.70
  -5  -4  10   59.09    8.10
   4   4 -10   -2.20    4.20
   3   4 -10    2.70    3.70
  -3  -4  10   -1.90    3.40
   2   4 -10   -2.90    3.00
  -2  -4  10    4.50    3.10
  -1  -4  10  103.39    7.20
  -1  -4  10  107.29    6.70
   0  -4  10  539.35   22.10
   0  -4  10  536.45   21.50
  -1   4 -10   -2.80    3.00
   1  -4  10    0.50    2.90
  -2   4 -10  242.28   13.00
   2  -4  10  223.38   11.60
  -3   4 -10   58.09    7.90
   3  -4  10   86.19    7.10
  -4   4 -10   35.60    7.00
   4  -4  10   22.90    7.40
  -5   4 -10   67.09    8.90
   5  -4  10   65.69    8.90
   5   3 -10   47.40    6.40
  -5  -3  10   42.60    6.30
  -4  -3  10   -7.50    3.70
   3   3 -10   80.09    6.80
  -3  -3  10   84.49    7.00
   2   3 -10   26.80    3.50
  -2  -3  10   15.30    3.30
  -1  -3  10   70.99    5.90
  -1  -3  10   85.09    5.50
   0   3 -10  443.66   17.60
   0  -3  10  459.15   18.40
   0  -3  10  469.85   19.00
  -1   3 -10 1068.69   39.20
   1  -3  10  973.10   38.20
  -2   3 -10  205.98   11.50
   2  -3  10  198.58   10.20
  -3   3 -10   -2.40    4.00
   3  -3  10   -1.50    3.10
  -4   3 -10   -0.50    5.20
   4  -3  10   -0.60    3.80
  -5   3 -10   12.80    8.40
   5  -3  10    2.20    4.70
  -6   3 -10   37.40    7.90
  -6  -2  10   48.50    7.30
   5   2 -10    7.60    4.70
  -5  -2  10    4.40    4.60
   4   2 -10    1.50    3.60
  -4  -2  10    4.40    3.80
   3   2 -10   16.80    3.60
  -3  -2  10   21.50    3.80
   2   2 -10  292.27   12.10
  -2  -2  10  240.78   12.10
   1   2 -10  500.45   19.20
  -1  -2  10  453.45   19.10
  -1  -2  10  459.95   18.40
   0   2 -10    5.80    2.20
   0  -2  10    6.50    2.60
  -1   2 -10  360.66   14.30
  -1   2 -10  282.17   12.30
   1  -2  10  294.57   13.30
  -2   2 -10   26.20    4.50
   2  -2  10   35.20    4.60
  -3   2 -10   87.49    8.00
   3  -2  10  108.49    7.20
  -4   2 -10   75.19    8.30
   4  -2  10   77.79    7.20
  -5   2 -10   90.49    9.30
  -6   2 -10   28.20    7.00
   6  -2  10   48.50    6.80
   6   1 -10   15.90    5.90
  -6  -1  10   29.00    6.30
   5   1 -10    4.40    4.30
  -5  -1  10   15.20    4.90
   4   1 -10  120.49    8.40
  -4  -1  10  126.59    8.60
   3   1 -10   21.90    3.60
  -3  -1  10   20.90    3.80
   2   1 -10  230.78   10.40
  -2  -1  10  217.68   10.80
   1   1 -10  259.07   10.90
  -1  -1  10  234.88   11.00
  -1  -1  10  242.58   10.50
   0   1 -10  558.64   20.10
   0  -1  10  475.85   20.10
   0  -1  10  526.35   20.70
  -1   1 -10  196.98   11.00
   1  -1  10  251.57   10.60
   1  -1  10  232.08    9.50
  -2   1 -10    7.80    3.10
   2  -1  10    9.60    2.80
   2  -1  10    9.70    1.90
  -3   1 -10   13.40    4.20
   3  -1  10   11.10    3.20
  -4   1 -10   -1.30    3.60
   4  -1  10   -5.90    3.10
  -5   1 -10   40.40    6.60
   5  -1  10   53.49    7.40
  -6   1 -10    2.30    6.10
   6  -1  10    2.20    5.00
   6   0 -10   34.40    6.30
  -6   0  10   29.70    6.40
   5   0 -10   11.80    4.30
  -5   0  10    4.80    4.50
   4   0 -10   31.70    4.30
  -4   0  10   21.80    4.40
   3   0 -10   -1.10    2.50
  -3   0  10   -1.10    2.70
   2   0 -10  212.98    9.80
  -2   0  10  200.08    9.90
   1   0 -10   92.19    5.70
  -1   0  10   87.89    5.30
  -1   0  10   89.79    5.70
   0   0  10  456.75   18.90
   0   0  10  442.06   17.50
   0   0  10  454.35   17.80
  -1   0 -10   78.19    6.20
   1   0  10   91.29    4.90
   1   0  10   94.19    5.70
   2   0  10  891.71   33.10
   2   0  10  920.51   34.30
   3   0  10  107.79    7.10
   3   0  10  118.09    5.70
  -4   0 -10   -9.10    4.10
   4   0  10   -0.80    2.90
  -5   0 -10  167.68   10.40
   5   0  10  164.88   10.10
  -6   0 -10    4.20    5.50
   6   0  10   -4.00    4.80
   6  -1 -10   21.10    5.70
  -6   1  10   15.60    5.90
   5  -1 -10    5.30    4.20
   4  -1 -10   -4.10    3.10
  -4   1  10   -3.40    3.40
   3  -1 -10  127.29    7.50
  -3   1  10  123.49    7.70
   2  -1 -10   10.40    2.50
  -2   1  10    8.90    2.70
   1  -1 -10   86.79    4.60
   1  -1 -10   77.99    5.20
  -1   1  10   88.59    5.20
   0   1  10  194.98    8.70
   0   1  10  188.48    8.90
   0   1  10  203.98    8.90
   1   1  10   28.80    3.50
   1   1  10   32.80    3.10
   2   1  10  123.69    6.10
   2   1  10  130.99    7.10
  -3  -1 -10    1.70    3.00
   3   1  10    3.10    1.80
   3   1  10    3.20    2.60
  -4  -1 -10    3.30    3.90
   4   1  10    3.60    2.10
   4   1  10    1.90    3.00
  -5  -1 -10   91.39    7.70
   5   1  10   84.79    7.50
  -6  -1 -10    7.70    5.50
   6   1  10    8.10    6.60
   7   1  10   17.30    6.50
   6  -2 -10    6.20    5.40
  -6   2  10   -3.10    5.70
   5  -2 -10   11.60    4.30
   4  -2 -10   68.19    6.40
  -4   2  10   50.09    6.40
   3  -2 -10   -1.00    2.40
  -3   2  10   -1.30    2.70
   2  -2 -10    9.10    2.70
   2  -2 -10   12.80    3.20
  -2   2  10   11.50    2.70
   1  -2 -10   23.20    2.40
   1  -2 -10   21.50    2.80
  -1   2  10   23.60    2.80
  -1   2  10   18.50    2.70
   0  -2 -10  125.99    6.70
   0  -2 -10  124.49    5.90
   0   2  10  107.69    6.10
   1   2  10  577.54   22.30
   1   2  10  572.24   24.10
   1   2  10  620.04   22.40
  -2  -2 -10  537.95   21.60
   2   2  10  579.94   22.10
   2   2  10  559.84   21.20
   3   2  10  388.46   15.40
   3   2  10  397.06   16.50
  -4  -2 -10    9.90    3.30
   4   2  10   11.90    2.40
   4   2  10    9.50    3.20
  -5  -2 -10   59.39    7.00
   5   2  10   62.49    5.40
   5   2  10   47.50    6.30
   6   2  10  129.19   11.20
   7   2  10   18.20    5.90
   6  -3 -10  102.59   10.60
  -6   3  10  102.99   10.60
   5  -3 -10   93.09    8.80
   4  -3 -10   13.60    3.60
  -4   3  10   19.40    4.00
   3  -3 -10   84.79    6.20
  -3   3  10   70.29    6.00
   2  -3 -10   85.29    5.30
  -2   3  10   86.99    5.80
  -2   3  10  102.09    6.00
   1  -3 -10   14.90    2.60
  -1   3  10   18.20    2.50
  -1   3  10   15.90    2.50
   0  -3 -10  964.90   36.10
   0  -3 -10 1006.80   36.80
   0   3  10 1005.40   36.70
   0   3  10  996.70   36.40
   1   3  10  751.12   27.70
  -2  -3 -10   18.50    3.20
   2   3  10   12.70    2.30
   2   3  10   14.20    2.70
   3   3  10   12.20    2.40
   3   3  10   12.50    2.90
  -4  -3 -10   46.20    4.80
   4   3  10   41.80    4.40
   4   3  10   55.39    5.60
   5   3  10   39.50    5.20
   5   3  10   42.80    5.20
   6   3  10  195.78   10.20
   6   3  10  178.88   11.40
  -7  -3 -10  103.69    9.30
  -7  -3 -10  112.69   11.50
   5  -4 -10  146.59   10.60
  -5   4  10  145.19   11.00
   4  -4 -10   25.60    4.30
  -4   4  10   26.90    4.60
   3  -4 -10   76.19    6.20
  -3   4  10   73.29    6.10
   2  -4 -10    4.30    2.20
  -2   4  10    8.30    2.50
  -2   4  10    6.10    2.60
   1  -4 -10   61.79    5.00
  -1   4  10   67.99    4.80
  -1   4  10   65.49    4.40
   0  -4 -10  498.55   19.60
   0   4  10  496.05   19.00
   0   4  10  506.05   19.60
  -1  -4 -10  909.91   34.40
  -1  -4 -10  977.70   35.30
   1   4  10  928.41   34.10
   1   4  10  947.81   34.90
  -2  -4 -10  694.13   25.20
  -2  -4 -10  662.03   26.00
   2   4  10  658.83   25.40
  -3  -4 -10    0.40    2.10
  -3  -4 -10    1.20    2.60
   3   4  10    1.90    1.90
  -4  -4 -10  109.49    7.50
  -4  -4 -10  113.89    6.50
   4   4  10  113.99    6.50
  -5  -4 -10   72.49    6.00
  -5  -4 -10   84.59    7.40
   5   4  10   85.99    6.30
  -6  -4 -10    1.80    4.30
  -6  -4 -10    4.70    3.50
   6   4  10    0.70    3.40
  -7  -4 -10  164.28   10.50
  -7  -4 -10  151.98   12.20
   5  -5 -10   20.80    5.30
  -5   5  10   33.90    5.80
   4  -5 -10  441.76   18.90
  -4   5  10  429.56   19.20
   3  -5 -10   -3.10    3.00
  -3   5  10    6.10    3.00
   2  -5 -10    7.80    2.60
  -2   5  10    1.40    2.40
  -2   5  10    5.00    2.60
   1  -5 -10  413.56   16.80
  -1   5  10  421.06   16.60
  -1   5  10  434.76   17.20
   0  -5 -10  378.86   16.20
   0   5  10  290.37   12.50
   0   5  10  307.97   13.30
  -1  -5 -10  237.68   10.60
  -1  -5 -10  218.88   10.70
   1   5  10  234.18    9.00
   1   5  10  224.48   10.20
  -2  -5 -10   20.90    2.70
  -2  -5 -10   30.00    4.10
   2   5  10   24.10    2.80
  -3  -5 -10   48.80    5.00
  -3  -5 -10   40.00    3.90
   3   5  10   44.50    4.10
  -4  -5 -10    3.20    2.90
  -4  -5 -10    8.00    2.70
   4   5  10   12.30    2.70
  -5  -5 -10   20.90    4.40
  -5  -5 -10   18.00    3.50
   5   5  10   21.80    3.50
  -6  -5 -10   28.70    4.20
  -6  -5 -10   23.90    5.10
   6   5  10   18.90    4.10
  -7  -5 -10    1.70    4.90
  -7  -5 -10    9.60    6.20
   7   5  10   -0.80    4.80
   5  -6 -10   -1.00    4.90
  -5   6  10    8.90    5.10
   4  -6 -10   16.20    4.20
  -4   6  10   15.90    4.40
  -3   6  10    0.10    3.30
   2  -6 -10   70.69    5.70
  -2   6  10   72.49    5.70
  -2   6  10   72.29    5.60
  -1   6  10  399.46   15.90
  -1   6  10  411.76   16.80
   0  -6 -10  318.87   13.50
   0   6  10  307.57   12.30
   0   6  10  318.57   13.40
  -1  -6 -10   66.49    5.60
   1   6  10   75.29    4.80
  -2  -6 -10   32.50    4.40
   2   6  10   26.00    3.50
  -3  -6 -10   59.59    5.50
   3   6  10   52.29    4.60
  -4  -6 -10   62.39    6.20
  -4  -6 -10   64.39    5.20
   4   6  10   64.79    5.50
  -5  -6 -10    7.70    3.20
  -5  -6 -10    6.60    3.80
   5   6  10    1.20    2.90
  -6  -6 -10   13.50    5.10
  -6  -6 -10   14.70    4.10
   6   6  10   15.20    4.20
  -7  -6 -10    0.70    6.10
   7   6  10   -4.20    4.80
  -5   7  10  181.58   12.40
  -4   7  10    0.80    4.40
  -3   7  10    1.10    3.50
  -3   7  10   -3.50    3.10
  -2   7  10  170.08    9.20
  -2   7  10  172.38    8.80
   1  -7 -10  139.49    7.80
  -1   7  10  143.49    7.80
  -1   7  10  130.69    6.80
   0  -7 -10  237.18   10.80
   0   7  10  219.88   10.50
  -1  -7 -10   44.50    5.10
   1   7  10   42.00    4.10
  -2  -7 -10   11.10    3.00
   2   7  10    6.30    2.20
  -3  -7 -10   -2.90    2.60
   3   7  10    2.00    2.20
  -4  -7 -10   15.20    3.80
   4   7  10   13.10    3.10
  -5  -7 -10    5.10    3.90
   5   7  10   -1.40    2.80
   6   7  10    8.80    4.60
  -7  -7 -10    1.00    5.90
   7   7  10    2.80    5.00
   4  -8 -10   22.50    5.20
  -4   8  10   33.00    5.70
  -3   8  10   14.40    4.10
  -3   8  10   24.20    4.60
   2  -8 -10    9.40    3.90
  -2   8  10   13.30    3.30
  -2   8  10    9.40    3.40
   1  -8 -10   20.90    3.80
  -1   8  10   19.40    3.30
   0  -8 -10   23.30    3.90
   0   8  10   32.00    4.30
  -1  -8 -10   20.30    3.80
   1   8  10   18.90    3.10
  -2  -8 -10   22.10    3.80
   2   8  10   23.60    3.20
  -3  -8 -10   44.50    5.80
   3   8  10   40.70    4.70
  -4  -8 -10  130.29    8.50
   4   8  10  122.79    7.80
  -5  -8 -10   27.40    4.80
   5   8  10   28.40    4.20
  -6  -8 -10    7.30    5.10
   6   8  10    0.80    4.00
   4  -9 -10   -4.80    4.80
  -4   9  10   -0.10    6.70
  -3   9  10   13.50    4.40
   2  -9 -10    3.70    4.20
  -2   9  10   18.50    3.90
   1  -9 -10   47.30    6.00
  -1   9  10   40.30    5.20
   0  -9 -10  255.97   12.40
   0   9  10  255.17   11.80
  -1  -9 -10   29.00    4.40
   1   9  10   19.10    3.20
  -2  -9 -10   -2.10    3.30
   2   9  10    0.60    2.40
  -3  -9 -10  102.39    8.00
   3   9  10  101.79    6.70
  -4  -9 -10   24.50    4.80
   4   9  10   24.30    3.90
  -5  -9 -10   11.10    4.90
   5   9  10    2.90    4.10
  -6  -9 -10   24.50    6.20
   6   9  10   24.40    4.90
  -3  10  10    1.80    4.40
   2 -10 -10   15.80    5.00
  -2  10  10   17.50    4.20
   1 -10 -10   46.80    6.90
  -1  10  10   37.70    4.50
   0 -10 -10  172.88   10.00
   0  10  10  176.78    9.40
  -1 -10 -10  126.69    8.50
   1  10  10  105.59    7.10
  -2 -10 -10   34.90    5.10
   2  10  10   35.70    4.20
  -3 -10 -10  101.69    8.40
   3  10  10   87.19    6.70
  -4 -10 -10  109.79    9.50
   4  10  10  110.99    7.90
  -5 -10 -10  107.39    9.50
   5  10  10   95.89    8.10
  -6 -10 -10   63.49    7.90
   6  10  10   50.29    6.20
  -3  11  10   -6.30    4.40
   2 -11 -10   37.00    6.20
   1 -11 -10  135.19   10.10
  -1  11  10  138.29    9.00
   0 -11 -10   17.50    4.60
   0  11  10   25.40    4.20
  -1 -11 -10   47.70    6.70
   1  11  10   38.50    5.40
  -2 -11 -10  265.47   13.60
   2  11  10  261.17   12.60
  -3 -11 -10   28.50    5.40
   3  11  10   26.80    4.20
  -4 -11 -10   -2.40    5.00
   4  11  10   -7.60    3.20
  -5 -11 -10   14.00    6.00
   5  11  10    3.00    4.20
   2 -12 -10   33.50    6.60
  -2  12  10   27.50    5.20
   1 -12 -10  110.49   12.60
  -1  12  10   94.19    9.40
   0 -12 -10   42.40    9.40
   0  12  10   65.79    7.80
   1  12  10   30.70    4.60
  -2 -12 -10   73.79    9.30
  -3 -12 -10   72.39    8.80
   3  12  10   72.79    7.20
  -4 -12 -10   59.99    7.40
   4  12  10   57.79    7.30
  -5 -12 -10   33.50    7.40
   5  12  10   38.70    5.90
   1 -13 -10    7.00    5.90
  -1  13  10    1.60    4.10
   0 -13 -10   -4.60    5.40
   0  13  10    4.10    4.10
  -1 -13 -10   51.59    6.80
   1  13  10   44.20    5.60
  -2 -13 -10    9.50    5.60
   2  13  10    4.30    4.00
  -3 -13 -10    3.40    5.80
   3  13  10    6.70    4.30
  -4 -13 -10   -1.50    6.10
   4  13  10    9.90    4.60
  -1 -14 -10   26.60    7.00
   1  14  10   11.70    4.50
  -2 -14 -10   10.00    6.20
   2  14  10    4.30    4.50
  -2  -8  11    0.80    5.30
   1   8 -11    7.70    5.90
   0   8 -11    9.70    5.00
   0  -8  11    5.30    5.30
  -1   8 -11   82.79   11.00
   1  -8  11   69.59    9.30
  -3  -7  11  163.78   11.80
  -2  -7  11  102.19    9.50
   1   7 -11   -5.80    4.80
   0   7 -11  102.89    9.30
   0  -7  11   91.19    8.70
   1  -7  11   93.69   10.60
  -2   7 -11   39.50    7.40
   2  -7  11   33.50    6.40
  -3   7 -11    3.40    7.20
   3  -7  11   -3.10    5.90
   4   6 -11    9.60    5.00
  -4  -6  11   33.80    6.50
   3   6 -11   25.80    5.50
  -3  -6  11   24.70    5.50
  -2  -6  11   13.80    4.50
  -1  -6  11   58.29    7.40
   0   6 -11   40.00    5.90
   0  -6  11   36.40    5.10
   1  -6  11   17.40    4.70
  -2   6 -11   92.49   10.30
   2  -6  11   74.89    9.60
  -3   6 -11   31.20    7.70
   3  -6  11   23.10    5.80
  -4   6 -11   46.70    8.90
   4   5 -11  199.68   13.00
  -4  -5  11  227.38   13.30
   3   5 -11   41.50    5.70
  -3  -5  11   24.10    5.30
   2   5 -11    7.50    4.10
  -2  -5  11    0.20    3.90
  -1  -5  11  342.37   14.60
  -1  -5  11  314.47   15.50
   0   5 -11  353.56   17.00
   0  -5  11  331.67   15.20
  -1   5 -11  152.58   10.10
   1  -5  11  155.48    9.70
  -2   5 -11   11.70    5.50
   2  -5  11    2.00    4.10
  -3   5 -11    7.90    6.50
   3  -5  11   10.90    4.70
  -4   5 -11    5.50    7.30
   4  -5  11   12.40    5.50
   5   4 -11   64.69    8.00
  -5  -4  11   69.49    9.60
   4   4 -11   38.10    6.70
  -4  -4  11   28.40    5.30
   3   4 -11   -2.50    4.20
  -3  -4  11    1.00    4.30
   2   4 -11    8.90    3.80
  -2  -4  11    7.80    3.60
   1   4 -11   13.20    3.30
  -1  -4  11   11.20    3.60
  -1  -4  11    9.10    3.50
   0   4 -11   11.70    4.20
   0  -4  11   12.90    3.40
   0  -4  11   15.30    3.50
  -1   4 -11   10.20    4.00
   1  -4  11   16.20    3.90
  -2   4 -11    4.40    5.10
   2  -4  11   -2.60    3.30
  -3   4 -11   13.80    5.90
   3  -4  11    9.30    4.20
  -4   4 -11    9.50    6.20
   4  -4  11    6.30    4.90
  -5   4 -11   22.00    7.90
   5  -4  11   24.80    6.80
   5   3 -11  193.98   12.40
  -5  -3  11  170.38   12.30
   4   3 -11   46.40    7.50
  -4  -3  11   31.00    5.30
   3   3 -11    4.90    3.70
  -3  -3  11   -2.90    3.60
   2   3 -11   97.99    7.30
  -2  -3  11  102.49    7.30
   1   3 -11   23.60    3.40
  -1  -3  11   20.90    3.60
  -1  -3  11   21.40    3.80
   0   3 -11  111.79    6.70
   0  -3  11  127.19    7.80
   0  -3  11  113.89    7.30
  -1   3 -11    0.70    3.50
   1  -3  11    3.30    3.00
  -2   3 -11    6.00    4.70
   2  -3  11    2.90    3.30
  -3   3 -11    6.20    5.10
   3  -3  11   15.50    4.10
  -4   3 -11   24.70    6.10
  -5   3 -11   12.40    6.50
   5  -3  11   31.60    6.30
   5   2 -11    6.20    5.10
  -5  -2  11   -6.20    4.80
   4   2 -11   68.49    7.80
   3   2 -11   -1.80    3.50
  -3  -2  11    5.60    3.70
   2   2 -11   35.90    4.40
  -2  -2  11   30.70    4.30
   1   2 -11    9.00    2.80
  -1  -2  11    8.50    2.80
  -1  -2  11    8.50    3.20
   0   2 -11  121.59    6.80
   0  -2  11  117.49    7.20
   0  -2  11  119.99    7.40
  -1   2 -11  177.78    9.80
  -1   2 -11  197.78   10.00
   1  -2  11  170.98    9.50
   2  -2  11   55.59    5.90
  -3   2 -11   -2.30    4.10
   3  -2  11    2.10    3.60
  -4   2 -11    6.60    5.00
   4  -2  11   18.20    4.50
  -5   2 -11   45.80    7.60
   5  -2  11   60.59    8.80
   5   1 -11    1.40    4.80
  -5  -1  11   11.50    5.00
   4   1 -11   27.50    4.80
  -4  -1  11   22.60    4.80
   3   1 -11    1.60    3.40
  -3  -1  11    3.40    3.40
   2   1 -11   20.40    3.40
  -2  -1  11   23.00    3.80
   1   1 -11   82.29    5.50
  -1  -1  11   68.49    5.30
  -1  -1  11   67.89    5.80
   0  -1  11  131.59    7.40
   0  -1  11  124.89    7.20
  -1   1 -11   53.79    5.70
   1  -1  11   68.19    4.40
   1  -1  11   55.89    5.40
  -2   1 -11    2.20    4.10
   2  -1  11    2.40    2.80
   2  -1  11    2.90    2.30
   3  -1  11  185.58   10.10
  -4   1 -11   93.09    8.60
  -5   1 -11   43.30    6.60
   5  -1  11   37.10    5.80
  -6   1 -11    3.60    6.20
   6  -1  11    0.60    5.50
   5   0 -11   85.89    9.00
  -5   0  11   87.99    8.40
   4   0 -11  103.99    8.20
  -4   0  11   96.29    8.10
   3   0 -11   71.89    6.40
  -3   0  11   75.39    6.70
   2   0 -11   63.69    5.70
  -2   0  11   67.59    5.80
   1   0 -11  172.88    8.60
  -1   0  11  162.38    8.60
  -1   0  11  171.18    8.40
   0   0  11   62.69    5.30
   0   0  11   65.19    4.70
  -1   0 -11  104.69    7.20
   1   0  11   97.49    6.40
   1   0  11  101.19    5.60
   2   0  11  207.48   10.10
   2   0  11  199.28    8.80
  -3   0 -11  154.38    9.70
   4   0  11  188.18   10.50
  -5   0 -11   85.39    8.80
   5   0  11   83.69    8.80
  -6   0 -11   74.19   10.60
   6   0  11   65.89    9.30
   5  -1 -11   39.00    5.90
  -5   1  11   49.30    6.40
   4  -1 -11   13.80    4.10
  -4   1  11   22.80    4.30
   3  -1 -11   50.29    5.80
  -3   1  11   41.10    5.30
   2  -1 -11   -0.30    2.50
  -2   1  11    0.30    2.60
   1  -1 -11  598.84   23.80
   1  -1 -11  696.43   24.60
  -1   1  11  649.64   25.10
  -1   1  11  627.64   24.70
   0   1  11  289.07   12.00
   0   1  11  293.57   13.20
   0   1  11  273.57   12.60
  -1  -1 -11    8.10    3.30
   1   1  11   11.20    2.80
   1   1  11   13.50    2.70
   2   1  11  105.79    5.80
   2   1  11  108.79    6.80
   3   1  11  154.38    7.50
   3   1  11  169.68    9.10
  -4  -1 -11  154.78    9.50
   4   1  11  155.38    9.40
  -5  -1 -11   39.00    5.40
   5   1  11   36.60    5.50
   6   1  11   35.10    6.20
   5  -2 -11   84.39    8.60
  -5   2  11   76.99    8.80
   4  -2 -11   65.09    7.00
  -4   2  11   63.29    7.20
   3  -2 -11   45.00    5.40
  -3   2  11   55.99    5.60
   2  -2 -11  222.18   11.00
  -2   2  11  247.48   11.20
   1  -2 -11  127.99    6.80
   1  -2 -11  115.69    6.00
  -1   2  11  119.59    7.00
  -1   2  11  132.19    6.90
   0  -2 -11   67.29    5.20
   0  -2 -11   58.79    6.10
   0   2  11   71.09    4.80
   0   2  11   65.49    4.60
   1   2  11  119.69    6.50
   1   2  11  120.29    7.00
   1   2  11  121.99    6.30
  -2  -2 -11  154.38    8.70
   2   2  11  162.48    8.30
   2   2  11  170.38    8.70
   3   2  11  128.79    6.50
   3   2  11  121.39    7.60
  -4  -2 -11   30.60    4.80
   4   2  11   30.00    4.50
   4   2  11   38.20    4.20
   5   2  11   76.09    7.70
   6   2  11    0.00    5.00
   5  -3 -11  137.39   10.90
  -5   3  11  158.88   10.90
   4  -3 -11  159.88    9.70
  -4   3  11  145.69    9.80
   3  -3 -11    1.60    3.00
  -3   3  11    3.90    3.20
  -2   3  11  159.38    8.40
  -2   3  11  161.08    8.50
  -1   3  11   64.39    5.00
   0   3  11    0.40    2.10
   0   3  11    0.70    1.90
  -1  -3 -11  303.57   12.70
  -1  -3 -11  282.97   11.70
   1   3  11  283.27   11.70
   1   3  11  270.27   11.90
   2   3  11  199.38    8.80
   2   3  11  185.18    9.50
   3   3  11   74.39    5.00
   3   3  11   72.09    6.10
   4   3  11   18.10    3.90
   4   3  11   24.90    3.10
   5   3  11   13.90    3.40
   5   3  11    7.80    4.00
   6   3  11    0.30    4.60
   5  -4 -11   24.90    5.60
  -5   4  11   26.70    5.80
   4  -4 -11    2.60    4.00
  -4   4  11    3.60    4.00
   3  -4 -11  166.78    9.80
  -3   4  11  173.98    9.60
  -2   4  11   44.60    4.80
  -2   4  11   51.89    4.90
   1  -4 -11   30.00    4.50
  -1   4  11   28.10    3.90
  -1   4  11   22.50    3.20
   0  -4 -11   11.30    2.80
   0   4  11    8.00    2.30
   0   4  11   11.90    2.20
  -1  -4 -11    9.00    2.40
  -1  -4 -11   10.50    2.90
   1   4  11    9.60    2.00
   1   4  11    9.70    2.20
  -2  -4 -11   32.40    3.40
  -2  -4 -11   31.20    4.50
   2   4  11   36.80    3.70
  -3  -4 -11   -1.40    2.30
  -3  -4 -11   -1.80    2.90
   3   4  11    1.00    2.10
  -4  -4 -11    5.10    2.90
  -4  -4 -11    3.40    3.20
   4   4  11    5.60    2.60
  -5  -4 -11   67.69    7.50
  -5  -4 -11   69.49    6.10
   5   4  11   68.19    6.10
  -6  -4 -11   33.70    6.00
  -6  -4 -11   43.70    5.10
   6   4  11   38.10    4.90
   5  -5 -11   25.10    5.50
  -5   5  11   32.90    6.30
   4  -5 -11    1.80    5.00
  -4   5  11    1.30    4.10
   3  -5 -11   92.29    7.60
  -3   5  11   96.39    7.20
  -2   5  11   10.30    3.00
  -2   5  11   15.90    3.20
   1  -5 -11   87.39    7.70
  -1   5  11   90.09    5.50
  -1   5  11   78.39    5.70
   0  -5 -11   -0.80    2.70
   0   5  11   -1.70    2.00
   0   5  11    0.60    1.90
  -1  -5 -11    7.10    2.90
   1   5  11    1.80    2.10
  -2  -5 -11   40.30    5.00
  -2  -5 -11   54.49    4.30
   2   5  11   51.59    4.40
  -3  -5 -11   16.50    2.90
  -3  -5 -11   16.20    3.50
   3   5  11   13.60    2.70
  -4  -5 -11   27.40    3.80
  -4  -5 -11   30.20    4.60
   4   5  11   32.90    4.50
  -5  -5 -11   33.50    5.30
  -5  -5 -11   34.80    4.40
   5   5  11   34.10    4.10
  -6  -5 -11  229.78   11.30
  -6  -5 -11  220.18   12.90
   6   5  11  217.38   11.90
   5  -6 -11    6.60    5.60
  -5   6  11   32.00    6.10
   4  -6 -11    3.00    4.00
  -4   6  11    8.80    4.40
  -3   6  11   12.80    3.90
  -2   6  11  167.18    8.80
  -2   6  11  169.48    9.20
   1  -6 -11   35.00    4.90
  -1   6  11   32.40    3.90
  -1   6  11   23.50    3.40
   0  -6 -11    4.50    3.10
   0   6  11   -1.80    2.00
  -1  -6 -11   18.90    3.50
   1   6  11   16.20    2.70
  -2  -6 -11  261.87   12.10
   2   6  11  245.28   11.30
  -3  -6 -11  134.19    7.90
  -3  -6 -11  124.69    7.10
   3   6  11  125.79    7.30
  -4  -6 -11  203.08   10.70
  -4  -6 -11  190.78    9.60
   4   6  11  193.38    9.70
  -5  -6 -11   73.29    6.70
  -5  -6 -11   74.99    8.10
   5   6  11   78.79    6.70
  -6  -6 -11   21.70    4.70
  -6  -6 -11   26.20    5.60
   6   6  11   28.60    4.70
   4  -7 -11    1.50    4.30
  -4   7  11    4.60    4.70
  -3   7  11   24.20    4.50
  -2   7  11  154.78    9.00
  -2   7  11  162.68    8.90
   1  -7 -11   40.10    5.50
  -1   7  11   33.90    4.80
   0  -7 -11   18.50    4.00
   0   7  11   19.00    3.20
  -1  -7 -11    3.50    3.40
   1   7  11    7.00    2.40
  -2  -7 -11   53.69    5.70
   2   7  11   42.60    4.60
  -3  -7 -11  124.69    8.00
   3   7  11  109.99    7.00
  -4  -7 -11   51.99    6.50
   4   7  11   52.99    5.40
  -5  -7 -11  194.88   11.50
   5   7  11  187.48   10.40
  -6  -7 -11   81.09    9.20
   6   7  11   81.59    8.10
   4  -8 -11    8.90    4.70
  -4   8  11   -8.90    7.10
  -3   8  11  288.37   14.20
  -2   8  11  271.97   13.10
   1  -8 -11  155.48    9.20
  -1   8  11  152.08    8.70
   0  -8 -11   15.40    4.00
   0   8  11   13.20    3.10
  -1  -8 -11  120.99    7.80
   1   8  11  102.19    6.80
  -2  -8 -11   59.69    6.60
   2   8  11   59.99    5.30
  -3  -8 -11  207.98   11.30
   3   8  11  214.98   10.40
  -4  -8 -11  323.57   15.50
   4   8  11  336.87   14.80
   5   8  11  152.28    9.60
  -6  -8 -11   20.70    6.00
   6   8  11   32.70    5.30
  -3   9  11   61.19    8.10
   2  -9 -11   17.50    4.80
  -2   9  11   13.10    4.00
   1  -9 -11   37.40    5.10
  -1   9  11   30.10    4.30
   0  -9 -11    5.40    3.80
   0   9  11   -1.50    2.70
  -1  -9 -11   84.99    7.70
   1   9  11   71.49    6.10
  -2  -9 -11   99.29    7.70
   2   9  11   75.29    6.20
  -3  -9 -11    3.50    3.90
   3   9  11    4.10    2.80
  -4  -9 -11   31.00    5.20
   4   9  11   18.50    3.80
  -5  -9 -11   54.69    8.10
   5   9  11   50.29    5.70
  -6  -9 -11   27.60    6.50
   6   9  11   23.60    5.10
  -3  10  11   79.79    9.20
   2 -10 -11   58.69    8.90
  -2  10  11   64.69    8.60
   1 -10 -11    5.60    4.30
  -1  10  11    2.10    3.50
   0 -10 -11  109.89    8.40
   0  10  11   99.29    7.40
  -1 -10 -11   35.20    5.10
   1  10  11   27.80    4.10
  -2 -10 -11   28.70    5.00
   2  10  11   24.40    3.90
  -3 -10 -11  135.29   10.10
   3  10  11  144.39    8.70
  -4 -10 -11   53.89    8.00
   4  10  11   66.39    8.30
  -5 -10 -11   11.70    5.60
   5  10  11    4.40    4.10
   2 -11 -11    7.40    5.40
  -2  11  11    4.80    4.30
   1 -11 -11   57.59    8.70
  -1  11  11   52.69    7.50
   0 -11 -11    2.40    4.50
   0  11  11    3.10    3.60
  -1 -11 -11   26.10    5.20
   1  11  11   21.40    4.00
  -2 -11 -11   -3.10    4.60
   2  11  11   -1.60    3.10
  -3 -11 -11   15.10    5.40
   3  11  11    3.90    4.00
  -4 -11 -11   -2.40    5.20
   4  11  11    4.60    3.90
  -5 -11 -11   38.40    7.10
   5  11  11   28.10    5.20
   1 -12 -11   22.70    6.10
  -1  12  11   31.40    5.20
   0 -12 -11    7.10    5.20
   0  12  11    0.30    3.70
  -1 -12 -11   20.70    5.50
   1  12  11   22.70    4.40
  -2 -12 -11    8.70    5.20
   2  12  11   -5.50    3.40
  -3 -12 -11   -2.10    5.20
   3  12  11    2.40    4.00
  -4 -12 -11   11.90    6.20
   4  12  11    6.00    4.30
   0 -13 -11   -2.70    5.90
   0  13  11    2.40    4.20
  -1 -13 -11   46.60    7.20
   1  13  11   45.30    5.90
  -2 -13 -11   14.80    5.80
   2  13  11    5.80    4.20
  -3 -13 -11    2.40    5.90
   3  13  11   -3.60    4.40
  -2  -7  12  127.59   11.00
   1   7 -12  212.28   14.80
   0   7 -12    5.10    5.50
   0  -7  12   -0.60    5.50
  -1   7 -12  -10.30    6.00
   1  -7  12    0.70    5.40
  -3  -6  12   22.80    6.30
  -2  -6  12   56.39    8.60
   1   6 -12   -3.40    5.20
   0   6 -12    8.90    5.00
   0  -6  12    2.40    4.60
  -1   6 -12    4.00    5.50
   1  -6  12    6.80    7.90
  -2   6 -12    5.80    6.90
   2  -6  12    4.60    5.10
  -3   6 -12   58.39    9.30
   3  -6  12   50.49    7.20
   3   5 -12   16.40    5.70
  -3  -5  12   22.30    5.40
  -2  -5  12    2.80    4.30
  -1  -5  12    7.10    5.10
   0  -5  12   -6.30    3.90
   1  -5  12    1.50    4.10
  -2   5 -12   -0.80    6.30
   2  -5  12    1.20    4.90
  -3   5 -12    7.20    7.00
   3  -5  12   15.50    5.30
   4   4 -12    7.20    5.20
  -4  -4  12    1.40    5.00
   3   4 -12   64.49    6.70
  -3  -4  12   54.79    7.70
   2   4 -12   33.10    5.10
  -1  -4  12   59.99    6.90
   0   4 -12  141.59   10.30
   0  -4  12  126.29    8.50
  -1   4 -12   70.79    7.80
   1  -4  12   71.89    6.90
  -2   4 -12  132.89   11.30
   2  -4  12  131.49    9.50
  -3   4 -12  -14.00    8.00
   3  -4  12   -2.40    4.50
  -4   4 -12   32.40    8.40
   4  -4  12   36.60    6.70
   4   3 -12   -4.20    4.90
  -4  -3  12    7.50    5.00
   3   3 -12   10.10    4.50
  -3  -3  12    6.10    4.40
   2   3 -12   59.99    7.00
  -2  -3  12   49.20    6.70
   1   3 -12   83.89    6.90
  -1  -3  12   74.59    6.90
   0  -3  12  133.19    8.30
   0  -3  12  131.19    8.50
  -1   3 -12   80.19    7.60
   1  -3  12   67.39    6.80
  -2   3 -12   32.00    6.20
   2  -3  12   26.70    4.60
  -3   3 -12   33.20    6.90
   3  -3  12   54.19    7.40
  -4   3 -12   10.90    6.60
   4  -3  12    4.00    4.90
  -5   3 -12    4.20    6.90
   5  -3  12   32.60    6.80
   4   2 -12   10.70    5.00
  -4  -2  12    2.80    4.70
   3   2 -12  134.19    9.30
  -3  -2  12  138.29    9.50
   2   2 -12   44.30    6.10
  -2  -2  12   32.90    4.80
   1   2 -12   66.19    6.00
  -1  -2  12   58.79    5.90
  -1  -2  12   60.09    6.30
   0   2 -12   38.40    5.10
   0  -2  12   35.80    5.20
   0  -2  12   39.70    5.40
  -1   2 -12  296.87   14.40
   1  -2  12  312.07   13.90
   2  -2  12  203.18   10.80
  -3   2 -12   36.20    6.10
  -4   2 -12   29.90    6.50
  -5   2 -12   13.70    6.30
   5  -2  12   19.20    5.80
   5   1 -12    0.20    5.40
  -5  -1  12   -6.40    5.20
   4   1 -12   28.50    5.30
  -4  -1  12   22.00    5.10
   3   1 -12  126.79    9.30
  -3  -1  12  127.89    9.00
   2   1 -12  177.88    9.60
  -2  -1  12  170.18    9.70
   1   1 -12  195.78    9.90
  -1  -1  12  196.98   12.30
  -1  -1  12  194.08   10.20
   0   1 -12  100.39    6.40
   0  -1  12   92.59    6.70
   0  -1  12   94.79    6.80
  -1   1 -12   -0.20    3.40
   1  -1  12    7.80    3.10
  -2   1 -12   51.19    7.50
   2  -1  12   53.29    6.20
  -3   1 -12   15.70    5.00
   3  -1  12   24.90    4.40
  -4   1 -12   22.80    5.90
   4  -1  12   21.50    4.90
  -5   1 -12    8.40    6.00
   5  -1  12   16.10    5.30
   5   0 -12    3.70    5.20
  -5   0  12   -0.70    5.10
   4   0 -12   58.19    6.30
  -4   0  12   62.59    7.60
   3   0 -12   55.29    6.70
  -3   0  12   56.09    6.50
   2   0 -12  135.39    8.20
  -2   0  12  128.09    8.20
   1   0 -12    2.50    2.80
  -1   0  12    1.70    2.70
  -1   0  12   -1.40    2.70
   0   0  12   69.49    5.90
   0   0  12   60.09    5.20
   0   0  12   72.29    5.80
  -1   0 -12   47.50    5.90
   1   0  12   50.29    5.60
   1   0  12   62.59    4.80
  -2   0 -12    0.70    4.60
   2   0  12    7.70    2.60
   2   0  12    9.60    3.20
  -3   0 -12   13.90    4.70
   3   0  12   18.80    3.90
   4   0  12   59.69    7.10
  -5   0 -12   19.50    6.10
   5   0  12   18.50    5.30
   6   0  12   40.20    7.30
   5  -1 -12   44.10    6.60
  -5   1  12   39.30    6.50
   4  -1 -12   30.50    5.20
   3  -1 -12    8.10    3.60
  -3   1  12   15.50    3.80
   2  -1 -12   37.50    5.10
  -2   1  12   34.50    5.40
   1  -1 -12   92.19    6.70
   1  -1 -12   86.19    5.60
  -1   1  12  101.39    6.60
   0   1  12   15.70    3.30
   0   1  12   17.90    2.80
   0   1  12   16.60    3.30
  -1  -1 -12   48.50    5.80
   1   1  12   38.90    4.20
   1   1  12   47.40    5.30
  -2  -1 -12   -7.50    4.30
   2   1  12    3.60    2.30
   2   1  12    5.00    3.20
   3   1  12   68.09    7.60
   3   1  12   63.49    6.40
  -4  -1 -12   15.00    5.40
   4   1  12    6.20    3.90
   5   1  12    6.70    4.80
   6   1  12   -2.40    5.40
   5  -2 -12   28.90    5.80
  -5   2  12   27.80    5.80
   4  -2 -12   -0.70    4.10
  -4   2  12   -0.60    8.30
   3  -2 -12    3.90    3.40
  -3   2  12    0.60    3.40
   2  -2 -12  145.09    8.80
  -2   2  12  155.58    8.70
   1  -2 -12    4.00    3.00
  -1   2  12    4.90    2.40
  -1   2  12    6.10    2.70
   0  -2 -12    4.60    2.60
   0  -2 -12    0.10    2.90
   0   2  12    0.50    2.60
   0   2  12    1.80    2.10
  -1  -2 -12  125.59    8.00
   1   2  12  137.59    7.00
   1   2  12  127.59    7.70
  -2  -2 -12   21.60    4.50
   2   2  12   20.10    2.90
   2   2  12   12.90    3.50
  -3  -2 -12    2.40    8.00
   3   2  12    7.00    2.70
   3   2  12    8.80    3.30
   4   2  12   37.70    4.80
   4   2  12   38.60    5.30
   5   2  12  104.49   12.20
   6   2  12    4.20    5.50
   5  -3 -12    7.60    5.30
  -5   3  12    6.90    5.60
   4  -3 -12   15.20    4.30
  -4   3  12   14.50    4.70
   3  -3 -12    2.40    3.40
  -3   3  12    2.90    3.50
  -2   3  12    1.60    2.90
  -1   3  12   76.99    5.70
  -1   3  12   72.39    5.60
   0  -3 -12   21.90    3.60
   0  -3 -12   36.20    3.90
   0   3  12   22.30    3.10
   0   3  12   26.20    3.30
  -1  -3 -12   43.60    4.40
  -1  -3 -12   44.80    5.30
  -1  -3 -12   44.70    5.40
   1   3  12   39.30    4.20
   1   3  12   40.90    4.20
  -2  -3 -12   17.90    3.80
   2   3  12   24.30    3.80
   2   3  12   28.80    4.00
   3   3  12   -1.60    2.90
   3   3  12    0.90    2.50
   4   3  12  134.19    7.30
   4   3  12  116.79    8.60
   5   3  12  109.69    7.50
   6   3  12  132.69   10.40
   5  -4 -12   25.20    6.00
  -5   4  12   27.90    6.20
   4  -4 -12   24.40    5.00
  -4   4  12   38.10    5.50
   3  -4 -12  211.18   11.50
  -3   4  12  215.58   11.10
  -2   4  12   56.09    5.60
  -2   4  12   57.29    5.70
   1  -4 -12   24.10    4.20
  -1   4  12   21.60    3.30
  -1   4  12   25.30    3.40
   0   4  12  349.96   15.20
   0   4  12  374.76   14.80
  -1  -4 -12  238.28   10.40
  -1  -4 -12  239.38   11.30
   1   4  12  228.18   10.60
  -2  -4 -12  203.88    9.40
  -2  -4 -12  198.08   10.40
   2   4  12  202.88    9.50
  -3  -4 -12   73.99    5.40
  -3  -4 -12   69.19    6.50
   3   4  12   67.59    5.30
  -4  -4 -12   75.09    6.20
  -4  -4 -12   79.89    7.50
   4   4  12   87.59    6.10
  -5  -4 -12   57.39    8.00
  -5  -4 -12   65.49    6.60
   5   4  12   63.99    6.00
  -6  -4 -12  147.09    9.50
  -6  -4 -12  149.49   11.30
   4  -5 -12   78.69    8.40
  -4   5  12   52.49    8.10
   3  -5 -12   24.00    4.50
  -3   5  12   18.10    4.30
  -2   5  12   11.80    3.20
  -2   5  12    7.20    3.10
   1  -5 -12   61.49    5.70
  -1   5  12   54.99    5.40
   0  -5 -12  186.98    9.70
   0   5  12  176.38    9.20
   0   5  12  194.18    9.90
  -1  -5 -12   77.89    6.30
   1   5  12   74.99    5.50
  -2  -5 -12   13.00    3.40
  -2  -5 -12   13.30    2.90
   2   5  12    9.50    2.60
  -3  -5 -12  139.49    7.40
  -3  -5 -12  123.09    8.50
   3   5  12  134.39    7.50
  -4  -5 -12    2.30    3.50
  -4  -5 -12   -0.50    3.00
   4   5  12    6.00    2.90
  -5  -5 -12   73.59    7.70
   5   5  12   69.39    6.40
  -6  -5 -12  125.09    8.90
  -6  -5 -12  127.59   10.40
   6   5  12  107.49    8.80
   4  -6 -12  198.48   11.80
  -4   6  12  163.28   17.20
  -3   6  12  296.47   14.20
  -2   6  12  132.79    8.50
  -2   6  12  147.89    8.50
   1  -6 -12  196.08    9.90
  -1   6  12  177.28    9.60
   0  -6 -12   69.89    6.50
   0   6  12   69.09    5.50
  -1  -6 -12   55.89    6.00
   1   6  12   56.49    5.00
  -2  -6 -12   23.40    4.10
   2   6  12   31.40    4.20
  -3  -6 -12  230.58   10.80
  -3  -6 -12  245.48   12.10
   3   6  12  222.38   10.80
  -4  -6 -12  205.78   10.20
  -4  -6 -12  199.98   11.30
   4   6  12  202.88   10.20
  -5  -6 -12   21.80    7.90
   5   6  12   27.00    4.40
  -6  -6 -12    8.70    5.70
  -6  -6 -12   16.60    4.80
   6   6  12   10.10    4.30
   4  -7 -12    6.80    4.90
  -4   7  12    8.00    5.90
  -3   7  12    8.60    4.40
  -2   7  12   62.69    6.50
   1  -7 -12  106.79    7.60
  -1   7  12   96.19    7.00
   0  -7 -12   22.70    4.40
   0   7  12   23.70    3.70
  -1  -7 -12    2.10    3.70
   1   7  12    2.00    2.50
  -2  -7 -12   18.80    4.00
   2   7  12   14.80    3.00
  -3  -7 -12   47.40    6.50
   3   7  12   55.89    5.30
  -4  -7 -12   18.90    4.60
   4   7  12   21.90    3.60
  -5  -7 -12   83.69    8.90
   5   7  12  107.29    7.80
  -6  -7 -12   14.40    5.90
   6   7  12   15.00    4.80
  -2   8  12  119.99    8.50
   1  -8 -12  113.49    8.20
  -1   8  12  112.99    7.80
   0  -8 -12   10.20    4.20
   0   8  12   11.20    3.10
  -1  -8 -12   45.20    6.70
   1   8  12   53.79    5.40
  -2  -8 -12    8.40    4.00
   2   8  12    2.50    2.70
  -3  -8 -12   28.90    4.80
   3   8  12   24.70    4.00
  -4  -8 -12   -5.20    4.00
   4   8  12   -2.40    3.10
  -5  -8 -12   13.20    4.90
   5   8  12   16.20    4.20
  -6  -8 -12   11.70    6.00
   6   8  12    8.50    4.70
  -2   9  12   18.40    4.40
   1  -9 -12   26.90    5.00
  -1   9  12   17.90    4.00
   0  -9 -12    4.70    4.40
   0   9  12    6.80    3.20
  -1  -9 -12    7.20    4.40
   1   9  12    5.10    3.10
  -2  -9 -12   41.30    5.50
   2   9  12   40.60    4.60
  -3  -9 -12    4.40    4.30
   3   9  12   -1.30    2.90
  -4  -9 -12   14.80    5.20
  -5  -9 -12  126.19   10.60
   5   9  12  138.49    9.40
  -2  10  12   14.40    4.60
   1 -10 -12    9.90    4.80
  -1  10  12   19.50    4.30
   0 -10 -12  111.39    9.20
   0  10  12  114.89    8.30
  -1 -10 -12   65.59    7.90
   1  10  12   63.79    6.40
  -2 -10 -12    3.90    4.70
   2  10  12    8.90    3.40
  -3 -10 -12    2.80    7.00
   3  10  12    7.10    6.30
  -4 -10 -12    3.60    5.20
   4  10  12   -3.30    3.50
  -5 -10 -12   51.59    7.30
   5  10  12   41.60    5.70
  -2  11  12    4.80    4.60
  -1  11  12  132.79    9.50
   0 -11 -12   75.19   10.10
   0  11  12   72.09    7.20
   1  11  12   59.39    6.70
  -2 -11 -12   11.20    5.20
   2  11  12    5.60    3.70
  -3 -11 -12    6.70    5.40
   3  11  12   -0.30    3.60
  -4 -11 -12   47.90    7.30
   4  11  12   68.49    7.70
  -5 -11 -12   63.89    8.40
   1 -12 -12   10.50    5.70
  -1  12  12   26.10    5.20
   0 -12 -12   59.19    7.50
  -1 -12 -12   46.30    7.10
   1  12  12   55.29    7.30
  -2 -12 -12   39.30    6.50
   2  12  12   37.60    5.20
  -3 -12 -12   27.70    6.60
   3  12  12   25.40    4.90
  -4 -12 -12   39.20    7.50
   4  12  12   29.60    5.70
  -1 -13 -12   18.40    6.60
   1  13  12   20.40    5.10
  -2 -13 -12    3.70    6.30
   2  13  12    2.80    4.30
   1   6 -13   16.80    6.50
   0   6 -13   45.30    7.30
   0  -6  13   36.50    7.10
  -1   6 -13   18.00    6.20
   1  -6  13   25.30    6.00
  -2  -5  13   38.50    6.40
  -1  -5  13   24.20    5.30
   0   5 -13    1.70    4.50
   0  -5  13    7.30    5.00
  -1   5 -13   10.90    5.80
   1  -5  13   20.80    5.80
  -2   5 -13   12.50    7.20
   2  -5  13    7.60    5.20
   3   4 -13   30.10    6.30
  -2  -4  13   -4.60    4.60
  -1  -4  13   11.30    4.50
   0   4 -13    8.10    9.40
   0  -4  13   23.00    4.90
  -1   4 -13  133.69   13.90
   1  -4  13  103.39    9.00
  -2   4 -13  112.19   12.10
   2  -4  13  140.69   10.00
  -3   4 -13   -4.20    7.20
   3  -4  13   22.80    5.80
   3   3 -13   18.80    6.10
  -3  -3  13   19.20    5.60
   2   3 -13   20.00    4.80
  -2  -3  13   22.30    4.90
  -1  -3  13    6.40    4.10
   0   3 -13    8.00    4.70
   0  -3  13    0.90    3.80
  -1   3 -13    0.70    4.20
   1  -3  13    3.20    4.10
  -2   3 -13  247.78   15.00
   2  -3  13  242.78   13.20
  -3   3 -13    4.00    9.30
   3  -3  13   18.00    5.20
  -4   3 -13   12.80    7.20
   4  -3  13   22.50    6.20
   4   2 -13   36.40    6.30
  -4  -2  13   42.50    6.70
  -3  -2  13    1.00    4.40
   2   2 -13    0.40    4.00
  -2  -2  13    3.40    4.00
   1   2 -13   22.00    4.30
  -1  -2  13   17.10    4.30
   0  -2  13   -2.90    3.40
   0  -2  13   -2.00    3.70
  -1   2 -13    2.30    3.90
   1  -2  13    6.60    3.80
  -2   2 -13   -5.40    6.00
   2  -2  13    8.30    4.10
  -3   2 -13   14.10    6.30
  -4   2 -13    4.30    8.60
   4  -2  13    8.30    5.10
   4   1 -13    4.80    5.10
  -4  -1  13   10.50    5.00
   3   1 -13    7.70    5.10
  -3  -1  13    7.70    4.60
   2   1 -13    0.50    3.80
  -2  -1  13   -2.60    3.70
   1   1 -13   23.40    4.10
  -1  -1  13   26.10    4.30
   0   1 -13   27.80    4.00
   0  -1  13   23.10    4.20
   0  -1  13   28.90    4.30
  -1   1 -13   59.09    6.70
   1  -1  13   69.99    6.70
  -2   1 -13   31.00    6.10
   2  -1  13   24.00    4.20
   3  -1  13   63.29    7.20
  -4   1 -13   -3.40    5.80
   4  -1  13    5.20    4.70
  -5   1 -13   48.00    7.80
   4   0 -13   62.89    8.70
  -4   0  13   80.09    8.70
   3   0 -13  135.69   10.80
  -3   0  13  131.99    9.40
   2   0 -13   73.09    7.60
  -2   0  13   77.69    6.90
   1   0 -13   38.80    4.50
  -1   0  13   41.80    5.70
   0   0 -13   15.00    3.70
   0   0  13   17.40    3.70
   0   0  13   12.50    3.70
  -1   0 -13   45.90    6.10
   1   0  13   30.80    3.70
   1   0  13   40.20    6.00
  -2   0 -13   27.10    5.80
   2   0  13   21.50    4.20
   3   0  13  125.69    9.00
   4   0  13  193.08   11.80
   5   0  13   81.59    9.70
   4  -1 -13    1.10    4.80
  -4   1  13    2.60    4.80
   3  -1 -13   83.89    8.60
  -3   1  13   91.49    7.90
   2  -1 -13  188.58   10.40
  -2   1  13  199.78   10.70
   1  -1 -13  186.48   10.00
  -1   1  13  181.48    9.80
   0   1  13    4.10    3.40
   0   1  13    2.00    3.10
  -1  -1 -13    2.70    3.50
   1   1  13    4.90    3.60
   1   1  13    0.10    2.70
  -2  -1 -13    0.10    4.70
   2   1  13    8.80    2.70
   2   1  13    7.80    3.60
  -3  -1 -13   35.70    6.10
   5   1  13   77.19    9.10
  -4   2  13  160.98   10.80
   3  -2 -13  139.39   13.60
  -3   2  13  171.08   10.10
   2  -2 -13  254.27   12.80
  -2   2  13  264.87   12.60
  -1   2  13   36.30    5.30
  -1   2  13   48.60    5.50
   0  -2 -13   68.29    5.60
   0  -2 -13   67.59    6.50
   0   2  13   69.69    6.20
   0   2  13   69.09    5.50
  -1  -2 -13   85.49    7.20
   1   2  13   95.89    7.00
   1   2  13  100.19    6.20
  -2  -2 -13   83.79    7.90
   2   2  13  112.89    7.80
   2   2  13   99.69    6.30
   3   2  13  164.58   10.40
   3   2  13  176.78    8.70
   4   2  13  209.18   12.20
   5   2  13  245.98   14.00
   4  -3 -13   41.60    5.90
  -4   3  13   53.49    7.80
  -3   3  13   15.90    4.30
   2  -3 -13  146.69    9.40
  -2   3  13  166.48    9.20
  -1   3  13  136.69    7.90
  -1   3  13  128.69    7.90
   0  -3 -13    5.40    3.50
   0  -3 -13    1.60    2.90
   0   3  13   -0.20    2.90
   0   3  13    0.00    2.60
  -1  -3 -13    6.00    3.00
  -1  -3 -13    2.30    3.20
  -1  -3 -13   -5.00    3.30
   1   3  13    6.10    2.60
  -2  -3 -13   24.10    4.40
  -2  -3 -13   21.70    3.70
   2   3  13   32.70    4.40
   3   3  13   55.49    5.50
   3   3  13   57.19    6.30
   4   3  13   11.40    3.40
   4   3  13   17.10    4.30
   5   3  13  172.38   11.20
   4  -4 -13  326.57   16.90
  -4   4  13  353.56   16.90
   3  -4 -13  392.76   17.90
  -3   4  13  396.36   17.70
  -2   4  13    1.20    3.40
   1  -4 -13    6.10    3.90
  -1   4  13   -0.60    3.10
  -1   4  13   -0.20    2.70
   0  -4 -13   -3.00    3.60
   0   4  13    0.90    2.50
  -1  -4 -13   -4.10    2.70
  -1  -4 -13    4.80    3.50
   1   4  13    2.30    2.50
  -2  -4 -13  291.77   12.70
  -2  -4 -13  299.67   14.00
   2   4  13  284.57   12.80
  -3  -4 -13  326.67   15.30
  -3  -4 -13  323.87   14.10
   3   4  13  320.47   13.90
  -4  -4 -13   78.69    7.90
  -4  -4 -13   79.19    6.60
   4   4  13   76.39    6.20
  -5  -4 -13   41.10    6.30
  -5  -4 -13   38.80    5.10
   5   4  13   51.79    6.40
  -6  -4 -13   39.00    6.80
  -6  -4 -13   49.00    5.90
   4  -5 -13    6.60    4.90
  -4   5  13   -5.90    4.90
   3  -5 -13  112.79    8.90
  -3   5  13   96.89    8.30
  -2   5  13   45.60    5.90
  -2   5  13   44.30    6.40
   1  -5 -13   45.00    6.20
  -1   5  13   49.70    5.40
  -1   5  13   40.70    5.20
   0  -5 -13    8.70    3.90
   0   5  13    2.50    2.70
  -1  -5 -13    1.00    3.60
   1   5  13    0.30    2.50
  -2  -5 -13   -0.10    3.50
  -2  -5 -13    1.30    2.90
   2   5  13   10.00    2.90
  -3  -5 -13    7.20    3.10
  -3  -5 -13    7.10    3.90
   3   5  13    1.10    2.70
  -4  -5 -13   68.29    6.50
  -4  -5 -13   63.39    7.70
   4   5  13   63.99    6.00
  -5  -5 -13  146.39    9.20
  -5  -5 -13  139.39   10.70
   5   5  13  142.79    8.90
  -6  -5 -13  241.58   15.30
  -6  -5 -13  253.07   13.20
   4  -6 -13   84.69   10.00
  -4   6  13  106.39   10.10
   3  -6 -13   10.70    4.70
  -3   6  13    8.10    4.40
  -2   6  13    8.20    3.50
   1  -6 -13   60.49    7.00
  -1   6  13   63.59    6.20
   0  -6 -13  246.98   12.30
   0   6  13  230.58   11.50
  -1  -6 -13    1.10    3.80
   1   6  13   -1.70    2.50
  -2  -6 -13   16.00    4.20
   2   6  13   22.60    3.50
  -3  -6 -13   73.19    7.30
   3   6  13   66.89    5.90
  -4  -6 -13   12.30    3.90
  -4  -6 -13    7.70    4.60
   4   6  13    4.00    3.40
  -5  -6 -13  126.39   10.10
  -5  -6 -13  128.19    9.00
   5   6  13  120.19    8.60
  -6  -6 -13   93.59    9.00
  -6  -6 -13   91.59   10.80
   6   6  13   89.39    8.80
   3  -7 -13   27.20    5.40
  -2   7  13  192.38   11.20
   1  -7 -13    6.70    4.10
  -1   7  13    3.00    3.30
   0  -7 -13    1.20    4.00
   0   7  13    2.00    3.00
  -1  -7 -13    8.80    4.20
   1   7  13    3.70    3.00
  -2  -7 -13   12.00    4.10
   2   7  13   13.60    3.30
  -3  -7 -13   21.60    4.60
   3   7  13   21.40    3.60
  -4  -7 -13  280.47   19.00
   4   7  13  312.27   14.10
  -5  -7 -13  216.28   13.30
   5   7  13  220.08   11.80
  -2   8  13  197.38   11.30
   1  -8 -13  247.08   12.60
  -1   8  13  240.28   13.90
   0  -8 -13   37.00    5.50
   0   8  13   28.40    4.30
  -1  -8 -13   53.99    7.20
   1   8  13   46.00    5.80
  -2  -8 -13   23.90    5.10
   2   8  13   18.80    3.70
  -3  -8 -13   33.20    5.30
   3   8  13   26.60    4.20
  -4  -8 -13  262.47   14.00
  -5  -8 -13  102.29   10.20
   5   8  13   93.99    8.40
  -2   9  13   86.39    8.30
   1  -9 -13  117.89    9.60
  -1   9  13  115.19    8.60
   0  -9 -13    7.10    4.80
  -1  -9 -13   -2.30    4.70
   1   9  13    5.40    3.30
  -2  -9 -13    1.10    4.80
   2   9  13    1.20    3.10
  -3  -9 -13   85.79    9.90
  -4  -9 -13  228.68   13.30
   4   9  13  225.48   12.10
  -5  -9 -13  114.29   10.80
   5   9  13  118.79    9.20
  -2  10  13   99.99    9.20
   1 -10 -13   58.49    7.10
  -1  10  13   79.59    7.90
   0 -10 -13  112.69   10.00
   0  10  13  141.79    9.00
  -1 -10 -13    1.70    5.90
   1  10  13    9.60    3.70
  -2 -10 -13   31.20    6.20
   2  10  13   31.90    4.70
  -3 -10 -13  195.28   12.60
   3  10  13  188.08   11.00
  -4 -10 -13    6.90    5.70
   4  10  13    5.80    4.00
   1 -11 -13    0.80    5.40
  -1  11  13    5.50    4.50
   0 -11 -13    7.30    5.50
   0  11  13   -1.40    3.90
  -1 -11 -13    9.10    5.80
   1  11  13    1.20    3.80
  -2 -11 -13   16.40    5.90
   2  11  13    9.50    4.00
  -3 -11 -13   95.39   10.50
   3  11  13   69.99    8.00
  -4 -11 -13   30.10    6.90
   4  11  13   27.20    5.20
   0 -12 -13   28.90    6.50
   0  12  13   49.60    6.30
  -1 -12 -13    5.00    6.00
   1  12  13    0.70    4.40
  -2 -12 -13   80.59   10.20
   2  12  13   59.39    8.10
  -3 -12 -13    1.00    6.30
   3  12  13   -0.70    4.30
   1   5 -14    9.30    6.20
   0   5 -14   -0.70    5.70
  -1   5 -14    4.70    6.40
   1  -5  14   16.60    5.90
  -2  -4  14   17.10    5.50
  -1  -4  14    5.60    5.10
   0   4 -14   78.89    9.30
  -1   4 -14   24.90    6.30
   1  -4  14   24.30    5.50
  -2   4 -14   14.80    7.20
   2  -4  14   16.70    5.80
  -2  -3  14   55.09    8.50
  -1  -3  14   30.50    5.40
   0  -3  14   -6.00    4.50
  -1   3 -14   25.00    5.70
   1  -3  14   33.00    5.30
  -2   3 -14   17.20    7.10
   2  -3  14    9.30    5.00
  -3   3 -14   -1.70    6.70
   3  -3  14    8.20    5.60
   3   2 -14    7.00    4.90
  -3  -2  14   22.90    5.80
   2   2 -14    8.40    5.10
  -2  -2  14    1.20    4.50
   1   2 -14  188.78   12.30
   0   2 -14   91.99   10.00
   0  -2  14  110.19    8.90
  -1   2 -14  232.68   13.90
   1  -2  14  270.17   13.10
  -2   2 -14   17.90    7.30
  -3   2 -14   10.90    7.60
   3  -2  14   20.20    5.50
   3   1 -14  138.99   11.00
  -3  -1  14  170.58   11.00
   2   1 -14  124.59   10.10
  -2  -1  14  116.09   11.20
   1   1 -14   40.20    5.10
  -1  -1  14   40.80    5.60
   0   1 -14   21.00    4.60
   0  -1  14   15.60    4.50
   0  -1  14   14.20    4.30
  -1   1 -14   16.50    4.80
   1  -1  14   14.40    4.30
  -2   1 -14   15.80    6.20
   2  -1  14    1.10    4.30
   3  -1  14  202.48   12.10
  -4   1 -14   48.40   12.20
   4  -1  14   84.29   10.30
   3   0 -14   67.79    9.60
  -3   0  14   83.49    8.30
   2   0 -14  106.19    8.60
  -2   0  14   99.29    8.60
   1   0 -14   34.30    4.90
  -1   0  14   36.00    5.00
   0   0 -14  290.97   13.80
   0   0  14  303.27   14.40
   0   0  14  303.97   14.40
  -1   0 -14   10.30    4.30
   1   0  14    7.80    4.10
  -2   0 -14   10.40    6.10
   2   0  14   25.60    4.80
   3   0  14  246.38   17.70
   4   0  14   19.70    5.80
  -4   1  14   11.50    5.80
   3  -1 -14   67.89    8.70
  -3   1  14   80.39    8.60
   2  -1 -14  197.38   11.60
  -2   1  14  211.68   11.30
   1  -1 -14   82.29    7.50
  -1   1  14   78.69    7.30
   0  -1 -14   51.19    5.90
   0  -1 -14   51.89    5.00
   0   1  14   45.40    6.00
  -1  -1 -14   13.30    4.00
   1   1  14   18.80    4.30
   1   1  14   18.10    3.60
  -2  -1 -14   -7.00    4.80
   2   1  14    1.00    3.90
   2   1  14    0.60    3.30
   3   1  14   -2.20    4.00
   4   1  14   56.39    8.30
   5   1  14    2.70    5.90
  -4   2  14   78.89    9.30
   3  -2 -14    0.90    4.40
   2  -2 -14    5.60    4.00
  -2   2  14   14.10    4.10
   1  -2 -14   52.99    6.80
  -1   2  14   47.10    6.20
   0  -2 -14   20.10    4.50
   0  -2 -14   21.30    3.80
   0   2  14   23.80    3.80
   0   2  14   17.80    4.20
  -1  -2 -14    5.40    3.50
  -1  -2 -14   12.20    4.50
  -1  -2 -14    6.40    3.70
   1   2  14    3.80    2.90
   2   2  14  270.57   13.20
   2   2  14  264.67   12.00
   3   2  14    9.50    4.40
   4   2  14   45.90    6.20
   5   2  14   51.19    7.40
  -4   3  14   42.40    6.60
   3  -3 -14   42.60    5.80
  -3   3  14   44.00    6.80
   2  -3 -14   -7.00    4.50
  -2   3  14    0.70    3.70
  -1   3  14   55.99    5.90
  -1   3  14   48.40    6.30
   0  -3 -14   37.80    4.40
   0  -3 -14   60.39    7.20
   0   3  14   43.60    5.80
   0   3  14   36.90    4.30
  -1  -3 -14   55.29    5.90
  -1  -3 -14   55.69    7.20
   1   3  14   54.19    5.40
  -2  -3 -14   38.70    5.30
  -2  -3 -14   33.50    4.30
   2   3  14   39.60    5.00
   3   3  14    0.30    3.00
   4   3  14   76.09    8.30
   3  -4 -14    5.40    4.50
  -3   4  14   11.10    4.70
   2  -4 -14    1.30    5.40
  -2   4  14    7.50    4.20
  -1   4  14  306.27   14.50
  -1   4  14  330.27   14.40
   0  -4 -14  139.59    9.50
   0   4  14  131.19    8.10
  -1  -4 -14   16.60    3.70
  -1  -4 -14   25.80    4.60
   1   4  14   18.20    3.40
  -2  -4 -14   32.30    5.10
  -2  -4 -14   23.50    3.80
   2   4  14   21.10    3.50
  -3  -4 -14    3.00    4.20
  -3  -4 -14    3.10    3.50
   3   4  14    2.20    3.00
  -4  -4 -14  131.69   10.80
  -4  -4 -14  155.08    9.30
   4   4  14  144.69    8.70
  -5  -4 -14   69.59    6.60
  -5  -4 -14   63.59    7.60
   3  -5 -14   -0.40    4.70
  -3   5  14    6.40    4.60
  -1   5  14   77.79    6.90
   0  -5 -14   78.09    8.10
   0   5  14   67.69    6.40
  -1  -5 -14  115.39    8.70
   1   5  14  119.29    7.40
  -2  -5 -14   70.89    7.50
  -2  -5 -14   65.09    6.20
   2   5  14   61.89    5.90
  -3  -5 -14  159.78   10.50
  -3  -5 -14  181.98    9.50
   3   5  14  174.68    9.40
  -4  -5 -14   24.70    5.40
  -4  -5 -14   20.00    4.30
   4   5  14   22.20    3.70
  -5  -5 -14    5.50    4.50
  -5  -5 -14    7.10    5.40
   5   5  14   -6.30    6.40
   3  -6 -14  111.59   10.60
  -2   6  14  201.68   11.30
  -1   6  14  115.49    9.50
   0  -6 -14   23.00    5.30
   0   6  14   19.00    3.70
  -1  -6 -14   62.39    7.50
   1   6  14   45.20    5.90
  -2  -6 -14   25.70    5.10
   2   6  14   21.20    3.70
  -3  -6 -14  268.57   14.40
   3   6  14  275.47   12.90
  -4  -6 -14   18.00    5.10
  -4  -6 -14   24.20    4.50
   4   6  14   28.10    4.20
  -5  -6 -14    8.20    5.60
  -5  -6 -14    5.30    4.60
   5   6  14    4.50    4.10
   3  -7 -14   47.00    6.70
  -2   7  14  149.59   10.00
  -1   7  14   25.70    4.50
   0  -7 -14   37.50    5.90
   0   7  14   35.70    4.70
  -1  -7 -14    9.20    4.90
   1   7  14   17.00    3.70
  -2  -7 -14   55.09    6.50
   2   7  14   43.90    6.20
   3   7  14    0.50    3.30
  -4  -7 -14    7.10    5.00
   4   7  14    8.80    4.30
  -5  -7 -14   64.89    9.80
   5   7  14   68.29    7.80
  -2   8  14  187.48   11.50
  -1   8  14   71.69    7.60
   0  -8 -14    8.90    5.30
   0   8  14    3.60    3.60
  -1  -8 -14    0.70    4.60
  -2  -8 -14  107.89    9.60
  -3  -8 -14    7.40    4.90
   3   8  14    9.70    3.70
  -4  -8 -14   -1.90    5.10
   4   8  14   -2.00    3.80
  -5  -8 -14  145.79   12.50
   5   8  14  163.98   10.70
  -2   9  14   17.70    5.00
  -1   9  14   21.60    4.80
   0  -9 -14   16.30    5.70
   0   9  14   10.60    4.10
  -1  -9 -14    6.20    5.90
   1   9  14   15.50    3.80
  -2  -9 -14   30.40    6.30
   2   9  14   33.70    4.90
  -3  -9 -14   59.49    7.40
   3   9  14   55.29    6.80
  -4  -9 -14   -1.60    5.70
   4   9  14    7.40    4.20
  -1  10  14   18.90    5.00
   0 -10 -14   21.20    6.20
   0  10  14   21.80    5.00
  -1 -10 -14   -5.50    5.60
   1  10  14    2.90    4.00
  -2 -10 -14   27.30    6.50
   2  10  14   39.40    5.40
  -3 -10 -14   12.20    6.00
   3  10  14   -2.60    3.90
  -4 -10 -14   40.80    7.20
   4  10  14   46.00    6.00
   0 -11 -14   -0.20    5.30
   0  11  14    6.50    4.50
  -1 -11 -14   45.20    7.00
   1  11  14   42.90    5.90
  -2 -11 -14   85.39   10.90
   2  11  14   83.29    8.60
  -3 -11 -14    5.80    6.60
   3  11  14   15.60    4.70
  -1  -3  15   51.29    6.70
   0   3 -15    5.10    5.00
  -1   3 -15    2.00    5.30
   1  -3  15    9.70    5.30
  -2   3 -15   70.79    9.60
   2   2 -15    7.40    5.80
  -2  -2  15    9.40    5.60
  -1  -2  15    1.80    4.90
   0   2 -15    5.40    5.90
  -1   2 -15   11.60    5.30
   1  -2  15   12.10    8.90
  -2   2 -15   66.99    9.10
   2   1 -15    5.80    5.10
  -2  -1  15    4.80    5.20
  -1  -1  15   56.99    8.20
   0   1 -15   74.19   10.20
  -1   1 -15   61.49    9.00
   1  -1  15   39.00    5.90
  -2   1 -15    0.60    7.40
   2  -1  15   12.30    5.30
  -3   1 -15   -6.30    7.20
   3  -1  15    8.80    5.50
   2   0 -15    5.10    4.80
  -2   0  15   -5.30    4.60
   1   0 -15   21.20    5.10
  -1   0  15   21.10    5.00
   0   0 -15    6.00    4.40
   0   0  15   -4.70    6.50
   0   0  15   -7.80    4.10
  -1   0 -15   59.69    8.30
   1   0  15   62.89    8.30
  -2   0 -15   35.80    7.50
   2   0  15   38.20    8.80
   3   0  15  146.39   11.30
   4   0  15    6.90    5.90
   3  -1 -15   51.69    6.90
   2  -1 -15  115.39    9.80
  -2   1  15  110.49    9.80
   1  -1 -15  116.99    9.30
  -1   1  15  129.19    9.10
   0  -1 -15    6.60    4.30
   0  -1 -15   23.70    5.50
   0  -1 -15   11.10    4.60
   0   1  15   13.80    4.30
  -1  -1 -15    3.60    4.70
   1   1  15    7.20    4.50
   1   1  15    7.80    3.60
   2   1  15   98.39    9.10
   3   1  15    7.20    5.20
   4   1  15  135.89   11.60
   3  -2 -15   77.59    9.70
  -3   2  15   64.39    8.70
   2  -2 -15  227.98   12.80
  -2   2  15  231.08   12.80
   1  -2 -15   47.90    6.30
  -1   2  15   57.09    7.20
   0  -2 -15    4.40    4.00
   0  -2 -15   -2.00    4.80
   0   2  15    4.60    4.30
   0   2  15    2.20    3.30
  -1  -2 -15   77.99    8.80
  -1  -2 -15   61.29    7.30
   1   2  15   69.79    6.40
   2   2  15   58.19    6.50
   2   2  15   66.69    7.60
   3   2  15   65.69    8.10
   4   2  15  148.99   11.40
   3  -3 -15   54.29    6.80
  -3   3  15   48.60    6.40
   2  -3 -15  226.68   13.10
  -2   3  15  235.28   12.60
  -1   3  15    3.30    4.30
   0  -3 -15   19.30    5.30
   0   3  15   17.40    3.80
  -1  -3 -15  173.08    9.70
  -1  -3 -15  187.18   11.40
   1   3  15  152.18    9.20
  -2  -3 -15   -7.20    4.60
  -2  -3 -15    6.20    4.00
   2   3  15    2.70    3.20
  -3  -3 -15   47.70    6.80
  -3  -3 -15   49.60    5.60
   3   3  15   45.40    6.40
  -4  -3 -15   42.60    6.90
  -4  -3 -15   45.40    5.90
   3  -4 -15  195.08   12.70
  -3   4  15  195.18   12.50
   2  -4 -15   10.50    5.10
  -1   4  15    2.90    3.80
   0   4  15   82.89    7.10
  -1  -4 -15   90.19    7.40
  -1  -4 -15  103.29    9.10
   1   4  15   65.69    6.80
  -2  -4 -15  156.38   10.90
  -2  -4 -15  157.78    9.50
   2   4  15  162.48    9.00
  -3  -4 -15   85.69    7.50
  -3  -4 -15   79.59    9.00
   3   4  15   86.19    7.10
  -4  -4 -15    9.30    4.40
  -4  -4 -15    7.10    5.30
   2  -5 -15   -0.70    4.80
  -1   5  15   -1.90    3.60
   0  -5 -15   79.29    9.20
   0   5  15   70.89    7.70
  -1  -5 -15   51.09    6.60
   1   5  15   37.80    4.70
  -2  -5 -15    5.70    4.90
  -2  -5 -15    1.80    3.90
   2   5  15    2.60    3.40
  -3  -5 -15    3.00    4.00
  -3  -5 -15    6.30    4.90
   3   5  15   -0.50    3.60
  -4  -5 -15   33.80    6.30
  -4  -5 -15   42.70    5.50
  -1   6  15    5.30    3.90
   0  -6 -15   13.30    5.30
   0   6  15   15.80    4.00
  -1  -6 -15   36.60    6.20
   1   6  15   33.40    5.10
  -2  -6 -15   38.20    7.30
   2   6  15   24.00    4.30
  -3  -6 -15    5.00    5.20
  -4  -6 -15   15.50    4.70
  -4  -6 -15   23.50    5.70
   4   6  15   11.80    4.40
  -2   7  15    6.30    4.60
  -1   7  15   67.49    7.60
   0  -7 -15   49.50    6.80
   0   7  15   31.20    4.80
  -1  -7 -15   59.49    7.30
   1   7  15   54.89    6.70
  -2  -7 -15  129.99   10.80
   2   7  15  144.29    9.20
  -3  -7 -15   17.40    5.30
   3   7  15   15.30    4.20
  -4  -7 -15   19.90    6.00
   4   7  15   22.10    4.60
  -1   8  15   91.39    8.60
   0  -8 -15   -3.50    5.90
   0   8  15   10.50    4.10
  -1  -8 -15    9.80   10.00
   1   8  15    3.50    3.80
  -2  -8 -15    5.10    5.60
   2   8  15    7.10    3.90
  -3  -8 -15   12.50    5.50
   3   8  15   -4.20    3.80
  -4  -8 -15  120.89   11.20
   4   8  15  147.29    9.90
  -1   9  15   53.69    6.50
   0  -9 -15   21.30    6.20
   0   9  15   26.60    5.10
  -1  -9 -15   76.99   10.00
   1   9  15   95.79    8.50
  -2  -9 -15   16.90    6.30
   2   9  15   23.00    4.70
  -3  -9 -15  125.39   11.80
   3   9  15  127.89    9.50
  -1 -10 -15    9.30    6.30
   1  10  15    6.80    4.50
  -2 -10 -15    5.90    6.30
   2  10  15    5.20    4.30
   0   1 -16    6.70    5.40
  -1   0  16   95.69    9.70
   0   0 -16  184.28   13.00
   1   0  16   53.79    6.60
   2   0  16   -1.50    5.60
   1  -1 -16   18.70    4.90
  -1   1  16   35.80    5.80
   0  -1 -16   72.29    9.60
   0   1  16   70.99    8.50
   2   1  16    5.70    5.20
   3   1  16   90.59   10.00
  -2   2  16   26.80    5.70
   1  -2 -16  171.98   11.30
  -1  -2 -16   -5.10    5.10
  -1  -2 -16    7.90    6.60
   1   2  16   -2.10    3.90
  -2  -2 -16   32.10    6.50
  -2  -2 -16   43.40    5.70
   2  -3 -16   18.00    5.60
   1  -3 -16   17.70    5.30
   0   3  16   49.99    5.50
  -1  -3 -16   61.49    7.40
  -1  -3 -16   73.69    8.00
   1   3  16   49.90    6.80
  -2  -3 -16   -1.80    5.40
  -2  -3 -16    6.50    4.50
   2   3  16   -1.10    3.80
  -3  -3 -16   12.90    5.90
  -3  -3 -16   14.10    4.90
   0   4  16   39.10    5.30
  -2  -4 -16   37.30    5.30
  -2  -4 -16   33.50    6.30
   2   4  16   32.60    5.50
  -3  -4 -16   37.70    6.90
  -3  -4 -16   50.29    6.00
  -1   5  16   42.90    5.40
   0   5  16  197.88   11.10
   1   5  16  168.88   10.20
   2   5  16  145.89    9.40
  -3  -5 -16   19.30    6.10
  -3  -5 -16   13.50    5.00
   3   5  16   12.30    4.40
  -1   6  16  120.39    9.40
   0   6  16   22.70    4.60
  -1  -6 -16   61.79    8.90
   1   6  16   84.49    7.70
  -2  -6 -16   58.29    7.60
   2   6  16   57.79    7.30
  -3  -6 -16   80.69   10.90
   3   6  16   85.69    8.00
  -1   7  16   44.10    6.00
   0   7  16   62.29    8.00
  -1  -7 -16  103.09   10.90
   1   7  16  134.89    9.50
  -2  -7 -16  114.79   10.80
   2   7  16  118.69    9.20
  -3  -7 -16  103.89   11.80
   3   7  16  119.99    9.20
   0   8  16   75.99    8.50
  -1  -8 -16    3.50    5.60
   1   8  16   12.70    4.60
  -2  -8 -16   10.20    6.40
   2   8  16   21.60    4.80
  -1  -3 -17   44.80    5.90
  -1  -3 -17   49.90    7.30
   1   4  17  250.87   13.10
  -2  -4 -17    9.40    5.80
   1   5  17   33.20    5.20
   0   0   0    0.00    0.00
_computing_structure_solution     'SHELXT 2014/5 (Sheldrick, 2014)'
;
_shelx_hkl_checksum              60428
_shelx_res_file
;
TITL lmr1_0m_a.res in P-1
    lmr1_0m_a.res
    created by SHELXL-2017/1 at 10:07:49 on 03-Mar-2019
CELL  0.71073   5.4252   9.8305  11.1373   74.636   83.418   80.255
ZERR    2.000   0.0015   0.0027   0.0030    0.005    0.005    0.005
LATT 1
SFAC C  H  N  O  S
UNIT 16  24  12  4  2
LIST 6 ! automatically inserted. Change 6 to 4 for CHECKCIF!!
L.S. 10
ACTA
BOND $H
FMAP 2
PLAN 2
OMIT 2 -3 15
OMIT 1 3 17
SIZE 0.05 0.20 0.25
TEMP -173
WGHT    0.048600    0.222400
EXTI    0.034723
FVAR       1.07502
S1    5    1.020661    0.568874    0.720495    11.00000    0.01100    0.01655 =
         0.01073   -0.00383   -0.00111   -0.00187
O1    4    1.140768    0.542248    0.607028    11.00000    0.01568    0.02656 =
         0.01531   -0.00866    0.00260   -0.00346
O2    4    1.159386    0.569154    0.821059    11.00000    0.01515    0.02471 =
         0.01551   -0.00660   -0.00553   -0.00145
N1    3    0.846638    0.436367    0.779786    11.00000    0.01762    0.01381 =
         0.01021   -0.00248   -0.00143   -0.00284
N2    3    0.624789    0.288930    0.918797    11.00000    0.02480    0.01663 =
         0.01100   -0.00232   -0.00111   -0.00346
N3    3    0.165808   -0.003608    0.710664    11.00000    0.01496    0.02561 =
         0.02040   -0.00915   -0.00198   -0.00069
N4    3   -0.016085    0.043365    0.647810    11.00000    0.01631    0.01698 =
         0.01641   -0.00567    0.00217   -0.00335
N5    3   -0.166840    0.081379    0.579748    11.00000    0.02311    0.03368 =
         0.02016   -0.01125   -0.00226    0.00320
N6    3    0.828886    0.715095    0.689190    11.00000    0.01450    0.01543 =
         0.01450   -0.00174   -0.00258   -0.00212
C1    1    0.721598    0.373094    0.711782    11.00000    0.01638    0.01536 =
         0.01071   -0.00397   -0.00145   -0.00186
AFIX  43
H1    2    0.728564    0.389191    0.623584    11.00000   -1.20000
AFIX   0
C2    1    0.777477    0.381849    0.904061    11.00000    0.02505    0.01762 =
         0.01035   -0.00280   -0.00211   -0.00403
AFIX  43
H2    2    0.834333    0.408815    0.970797    11.00000   -1.20000
AFIX   0
C3    1    0.586443    0.282753    0.798879    11.00000    0.01654    0.01325 =
         0.01121   -0.00295   -0.00085   -0.00028
C4    1    0.423407    0.191295    0.775552    11.00000    0.01514    0.01451 =
         0.01272   -0.00268   -0.00123   -0.00047
AFIX  43
H4    2    0.407866    0.192306    0.691209    11.00000   -1.20000
AFIX   0
C5    1    0.293869    0.105908    0.864379    11.00000    0.01711    0.01735 =
         0.01291   -0.00317   -0.00118   -0.00141
AFIX  43
H5    2    0.306699    0.106802    0.948514    11.00000   -1.20000
AFIX   0
C6    1    0.129781    0.008771    0.841426    11.00000    0.01662    0.01896 =
         0.01537   -0.00205   -0.00028   -0.00350
AFIX  23
H6A   2    0.168435   -0.086933    0.898507    11.00000   -1.20000
H6B   2   -0.047919    0.045775    0.860031    11.00000   -1.20000
AFIX   0
C7    1    0.677376    0.738222    0.582224    11.00000    0.02013    0.02134 =
         0.02002    0.00138   -0.00751   -0.00447
AFIX 137
H7A   2    0.536984    0.683286    0.607359    11.00000   -1.50000
H7B   2    0.781837    0.706956    0.513923    11.00000   -1.50000
H7C   2    0.612380    0.839831    0.554136    11.00000   -1.50000
AFIX   0
C8    1    0.688121    0.757325    0.798010    11.00000    0.02067    0.01910 =
         0.02312   -0.00785    0.00126    0.00084
AFIX 137
H8A   2    0.611434    0.857329    0.772839    11.00000   -1.50000
H8B   2    0.802632    0.745666    0.863140    11.00000   -1.50000
H8C   2    0.556684    0.697062    0.830419    11.00000   -1.50000
AFIX   0
HKLF 4
REM  lmr1_0m_a.res in P-1
REM R1 =  0.0387 for    3477 Fo > 4sig(Fo)  and  0.0534 for all    4292 data
REM    157 parameters refined using      0 restraints
END
WGHT      0.0419      0.2109
REM Highest difference peak  0.416,  deepest hole -0.481,  1-sigma level  0.071
Q1    1   0.6879  0.2994  0.7557  11.00000  0.05    0.42
Q2    1   0.8932  0.4922  0.7591  11.00000  0.05    0.40
;
_shelx_res_checksum              85251
loop_
_space_group_symop_operation_xyz
'x, y, z'
'-x, -y, -z'
loop_
_atom_site_type_symbol
_atom_site_label
_atom_site_fract_x
_atom_site_fract_y
_atom_site_fract_z
_atom_site_U_iso_or_equiv
_atom_site_adp_type
_atom_site_calc_flag
_atom_site_occupancy
S S1 1.02066(5) 0.56887(3) 0.72049(3) 0.01267(8) Uani d 1
O O1 1.14077(17) 0.54225(11) 0.60703(8) 0.01878(19) Uani d 1
O O2 1.15939(17) 0.56915(10) 0.82106(8) 0.01797(18) Uani d 1
N N1 0.84664(19) 0.43637(11) 0.77979(9) 0.01388(19) Uani d 1
N N2 0.6248(2) 0.28893(12) 0.91880(10) 0.0177(2) Uani d 1
N N3 0.1658(2) -0.00361(13) 0.71066(11) 0.0199(2) Uani d 1
N N4 -0.0161(2) 0.04337(11) 0.64781(10) 0.0164(2) Uani d 1
N N5 -0.1668(2) 0.08138(15) 0.57975(11) 0.0256(3) Uani d 1
N N6 0.82889(19) 0.71510(11) 0.68919(10) 0.01508(19) Uani d 1
C C1 0.7216(2) 0.37309(13) 0.71178(11) 0.0140(2) Uani d 1
H H1 0.728564 0.389191 0.623584 0.017 Uiso calc 1
C C2 0.7775(3) 0.38185(14) 0.90406(11) 0.0176(2) Uani d 1
H H2 0.834333 0.408815 0.970797 0.021 Uiso calc 1
C C3 0.5864(2) 0.28275(13) 0.79888(11) 0.0139(2) Uani d 1
C C4 0.4234(2) 0.19129(12) 0.77555(11) 0.0144(2) Uani d 1
H H4 0.407866 0.192306 0.691209 0.017 Uiso calc 1
C C5 0.2939(2) 0.10591(13) 0.86438(11) 0.0160(2) Uani d 1
H H5 0.306699 0.106802 0.948514 0.019 Uiso calc 1
C C6 0.1298(2) 0.00877(14) 0.84143(12) 0.0174(2) Uani d 1
H H6A 0.168435 -0.086933 0.898507 0.021 Uiso calc 1
H H6B -0.047919 0.045775 0.860031 0.021 Uiso calc 1
C C7 0.6774(3) 0.73822(15) 0.58222(13) 0.0211(3) Uani d 1
H H7A 0.536984 0.683286 0.607359 0.032 Uiso calc 1
H H7B 0.781837 0.706956 0.513923 0.032 Uiso calc 1
H H7C 0.612380 0.839831 0.554136 0.032 Uiso calc 1
C C8 0.6881(3) 0.75732(15) 0.79801(13) 0.0211(3) Uani d 1
H H8A 0.611434 0.857329 0.772839 0.032 Uiso calc 1
H H8B 0.802632 0.745666 0.863140 0.032 Uiso calc 1
H H8C 0.556684 0.697062 0.830419 0.032 Uiso calc 1
loop_
_atom_site_aniso_label
_atom_site_aniso_U_11
_atom_site_aniso_U_22
_atom_site_aniso_U_33
_atom_site_aniso_U_12
_atom_site_aniso_U_13
_atom_site_aniso_U_23
S1 0.01100(13) 0.01655(14) 0.01073(13) -0.00187(9) -0.00111(9) -0.00383(10)
O1 0.0157(4) 0.0266(5) 0.0153(4) -0.0035(3) 0.0026(3) -0.0087(4)
O2 0.0151(4) 0.0247(5) 0.0155(4) -0.0014(3) -0.0055(3) -0.0066(3)
N1 0.0176(5) 0.0138(4) 0.0102(4) -0.0028(4) -0.0014(3) -0.0025(3)
N2 0.0248(5) 0.0166(5) 0.0110(4) -0.0035(4) -0.0011(4) -0.0023(4)
N3 0.0150(5) 0.0256(6) 0.0204(5) -0.0007(4) -0.0020(4) -0.0091(4)
N4 0.0163(5) 0.0170(5) 0.0164(5) -0.0033(4) 0.0022(4) -0.0057(4)
N5 0.0231(6) 0.0337(7) 0.0202(5) 0.0032(5) -0.0023(4) -0.0113(5)
N6 0.0145(4) 0.0154(5) 0.0145(4) -0.0021(4) -0.0026(4) -0.0017(4)
C1 0.0164(5) 0.0154(5) 0.0107(5) -0.0019(4) -0.0014(4) -0.0040(4)
C2 0.0251(6) 0.0176(5) 0.0104(5) -0.0040(5) -0.0021(4) -0.0028(4)
C3 0.0165(5) 0.0133(5) 0.0112(5) -0.0003(4) -0.0009(4) -0.0029(4)
C4 0.0151(5) 0.0145(5) 0.0127(5) -0.0005(4) -0.0012(4) -0.0027(4)
C5 0.0171(5) 0.0174(5) 0.0129(5) -0.0014(4) -0.0012(4) -0.0032(4)
C6 0.0166(5) 0.0190(5) 0.0154(5) -0.0035(4) -0.0003(4) -0.0020(4)
C7 0.0201(6) 0.0213(6) 0.0200(6) -0.0045(5) -0.0075(5) 0.0014(5)
C8 0.0207(6) 0.0191(6) 0.0231(6) 0.0008(5) 0.0013(5) -0.0079(5)
loop_
_atom_type_symbol
_atom_type_description
_atom_type_scat_dispersion_real
_atom_type_scat_dispersion_imag
_atom_type_scat_source
C C 0.0033 0.0016 'International Tables Vol C Tables 4.2.6.8 and 6.1.1.4'
H H 0.0000 0.0000 'International Tables Vol C Tables 4.2.6.8 and 6.1.1.4'
N N 0.0061 0.0033 'International Tables Vol C Tables 4.2.6.8 and 6.1.1.4'
O O 0.0106 0.0060 'International Tables Vol C Tables 4.2.6.8 and 6.1.1.4'
S S 0.1246 0.1234 'International Tables Vol C Tables 4.2.6.8 and 6.1.1.4'
loop_
_geom_angle_atom_site_label_1
_geom_angle_atom_site_label_2
_geom_angle_atom_site_label_3
_geom_angle
O2 S1 O1 121.78(6)
O2 S1 N6 108.51(6)
O1 S1 N6 108.95(6)
O2 S1 N1 104.30(6)
O1 S1 N1 105.35(5)
N6 S1 N1 106.96(6)
C2 N1 C1 106.84(10)
C2 N1 S1 126.59(9)
C1 N1 S1 126.18(8)
C2 N2 C3 105.77(10)
N4 N3 C6 116.05(11)
N5 N4 N3 172.32(13)
C7 N6 C8 113.86(10)
C7 N6 S1 116.58(9)
C8 N6 S1 115.49(9)
C3 C1 N1 105.29(10)
C3 C1 H1 127.4
N1 C1 H1 127.4
N2 C2 N1 111.73(11)
N2 C2 H2 124.1
N1 C2 H2 124.1
C1 C3 N2 110.36(11)
C1 C3 C4 127.00(11)
N2 C3 C4 122.65(11)
C5 C4 C3 124.48(11)
C5 C4 H4 117.8
C3 C4 H4 117.8
C4 C5 C6 124.87(11)
C4 C5 H5 117.6
C6 C5 H5 117.6
N3 C6 C5 111.73(10)
N3 C6 H6A 109.3
C5 C6 H6A 109.3
N3 C6 H6B 109.3
C5 C6 H6B 109.3
H6A C6 H6B 107.9
N6 C7 H7A 109.5
N6 C7 H7B 109.5
H7A C7 H7B 109.5
N6 C7 H7C 109.5
H7A C7 H7C 109.5
H7B C7 H7C 109.5
N6 C8 H8A 109.5
N6 C8 H8B 109.5
H8A C8 H8B 109.5
N6 C8 H8C 109.5
H8A C8 H8C 109.5
H8B C8 H8C 109.5
loop_
_geom_bond_atom_site_label_1
_geom_bond_atom_site_label_2
_geom_bond_distance
S1 O2 1.4200(9)
S1 O1 1.4209(10)
S1 N6 1.6067(11)
S1 N1 1.6858(11)
N1 C2 1.3783(15)
N1 C1 1.3896(15)
N2 C2 1.3012(17)
N2 C3 1.3934(15)
N3 N4 1.2288(15)
N3 C6 1.4814(17)
N4 N5 1.1277(16)
N6 C7 1.4711(16)
N6 C8 1.4736(17)
C1 C3 1.3668(16)
C1 H1 0.9500
C2 H2 0.9500
C3 C4 1.4505(17)
C4 C5 1.3332(17)
C4 H4 0.9500
C5 C6 1.4963(18)
C5 H5 0.9500
C6 H6A 0.9900
C6 H6B 0.9900
C7 H7A 0.9800
C7 H7B 0.9800
C7 H7C 0.9800
C8 H8A 0.9800
C8 H8B 0.9800
C8 H8C 0.9800
loop_
_geom_hbond_atom_site_label_D
_geom_hbond_atom_site_label_H
_geom_hbond_atom_site_label_A
_geom_hbond_site_symmetry_A
_geom_hbond_distance_DH
_geom_hbond_distance_HA
_geom_hbond_distance_DA
_geom_hbond_angle_DHA
C1 H1 O1 2_766 0.95 2.53 3.4487(18) 164
C2 H2 O2 2_767 0.95 2.39 3.2861(18) 157
C4 H4 N5 1_655 0.95 2.70 3.1920(17) 113

_cod_database_fobs_code 2242919
