#------------------------------------------------------------------------------
#$Date: 2018-12-18 05:20:35 +0200 (Tue, 18 Dec 2018) $
#$Revision: 212636 $
#$URL: file:///home/coder/svn-repositories/cod/cif/2/24/27/2242787.cif $
#------------------------------------------------------------------------------
#
# This file is available in the Crystallography Open Database (COD),
# http://www.crystallography.net/. The original data for this entry
# were provided by IUCr Journals, http://journals.iucr.org/.
#
# The file may be used within the scientific community so long as
# proper attribution is given to the journal article from which the
# data were obtained.
#
data_2242787
loop_
_publ_author_name
'Bourichi, Selma'
'Kandri Rodi, Youssef'
'H\"okelek, Tuncer'
'Haoudi, Amal'
'Renard, Catherine'
'Capet, Fr\'ed\'eric'
_publ_section_title
;
 Crystal structure and Hirshfeld surface analysis of
 4-allyl-6-bromo-2-(4-chlorophenyl)-4<i>H</i>-imidazo[4,5-<i>b</i>]pyridine
;
_journal_coeditor_code           IS5505
_journal_issue                   1
_journal_name_full               'Acta Crystallographica Section E'
_journal_page_first              43
_journal_page_last               48
_journal_paper_doi               10.1107/S2056989018017322
_journal_volume                  75
_journal_year                    2019
_chemical_formula_iupac          'C15 H11 Br Cl N3'
_chemical_formula_moiety         'C15 H11 Br Cl N3'
_chemical_formula_sum            'C15 H11 Br Cl N3'
_chemical_formula_weight         348.63
_chemical_name_systematic
;
4-Allyl-6-bromo-2-(4-chlorophenyl)-4<i>H</i>-imidazo[4,5-<i>b</i>]pyridine
;
_space_group_crystal_system      triclinic
_space_group_IT_number           2
_space_group_name_Hall           '-P 1'
_space_group_name_H-M_alt        'P -1'
_symmetry_space_group_name_Hall  '-P 1'
_symmetry_space_group_name_H-M   'P -1'
_atom_sites_solution_hydrogens   geom
_audit_creation_method
;
Olex2 1.2
(compiled 2017.01.04 svn.r3372 for OlexSys, GUI svn.r5292)
;
_cell_angle_alpha                95.739(3)
_cell_angle_beta                 98.880(3)
_cell_angle_gamma                94.979(3)
_cell_formula_units_Z            2
_cell_length_a                   7.6218(5)
_cell_length_b                   8.5238(5)
_cell_length_c                   11.1093(7)
_cell_measurement_reflns_used    9961
_cell_measurement_temperature    296(2)
_cell_measurement_theta_max      25.79
_cell_measurement_theta_min      2.41
_cell_volume                     705.66(8)
_computing_cell_refinement
;
<i>SAINT</i> (Bruker, 2015)
;
_computing_data_collection
;
<i>APEX2</i> (Bruker, 2015)
;
_computing_data_reduction
;
<i>APEX2</i> (Bruker, 2015)
;
_computing_molecular_graphics
;
ORTEP-3 for Windows (Farrugia, 2012)
;
_computing_publication_material
;
WinGX (Farrugia, 2012) and PLATON (Spek, 2015)
;
_computing_structure_refinement
;
<i>SHELXL</i> (Sheldrick, 2015<i>b</i>)
;
_computing_structure_solution
;
<i>SHELXT</i> (Sheldrick, 2015<i>a</i>)
;
_diffrn_ambient_temperature      296.15
_diffrn_measured_fraction_theta_full 1.000
_diffrn_measured_fraction_theta_max 0.996
_diffrn_measurement_device_type  'Bruker APEX-II CCD'
_diffrn_measurement_method       '\f and \w scans'
_diffrn_radiation_type           MoK\a
_diffrn_radiation_wavelength     0.71073
_diffrn_reflns_av_R_equivalents  0.0330
_diffrn_reflns_av_unetI/netI     0.0232
_diffrn_reflns_limit_h_max       10
_diffrn_reflns_limit_h_min       -10
_diffrn_reflns_limit_k_max       12
_diffrn_reflns_limit_k_min       -12
_diffrn_reflns_limit_l_max       15
_diffrn_reflns_limit_l_min       -15
_diffrn_reflns_number            31084
_diffrn_reflns_theta_full        26.000
_diffrn_reflns_theta_max         30.521
_diffrn_reflns_theta_min         1.868
_diffrn_standards_number         0
_exptl_absorpt_coefficient_mu    3.094
_exptl_absorpt_correction_T_max  0.7461
_exptl_absorpt_correction_T_min  0.5906
_exptl_absorpt_correction_type   multi-scan
_exptl_absorpt_process_details
;
(SADABS; Bruker, 2014)
;
_exptl_crystal_colour            colourless
_exptl_crystal_density_diffrn    1.641
_exptl_crystal_description       plate
_exptl_crystal_F_000             348
_exptl_crystal_size_max          0.3
_exptl_crystal_size_mid          0.23
_exptl_crystal_size_min          0.06
_refine_diff_density_max         0.570
_refine_diff_density_min         -0.473
_refine_ls_extinction_method     none
_refine_ls_goodness_of_fit_ref   1.025
_refine_ls_hydrogen_treatment    constr
_refine_ls_matrix_type           full
_refine_ls_number_parameters     181
_refine_ls_number_reflns         4288
_refine_ls_number_restraints     0
_refine_ls_restrained_S_all      1.025
_refine_ls_R_factor_all          0.0535
_refine_ls_R_factor_gt           0.0353
_refine_ls_shift/su_max          0.002
_refine_ls_shift/su_mean         0.000
_refine_ls_structure_factor_coef Fsqd
_refine_ls_weighting_details
'w=1/[\s^2^(Fo^2^)+(0.0395P)^2^+0.2342P] where P=(Fo^2^+2Fc^2^)/3'
_refine_ls_weighting_scheme      calc
_refine_ls_wR_factor_gt          0.0821
_refine_ls_wR_factor_ref         0.0890
_reflns_number_gt                3226
_reflns_number_total             4288
_reflns_threshold_expression     'I > 2\s(I)'
_cod_data_source_file            is5505sup1.cif
_cod_data_source_block           I
_cod_database_code               2242787
_shelx_space_group_comment
;
The symmetry employed for this shelxl refinement is uniquely defined
by the following loop, which should always be used as a source of
symmetry information in preference to the above space-group names.
They are only intended as comments.
;
_shelx_hkl_file
;
  -1   0   0   12.80    0.80
  -1   0   0   13.10    0.70
  -1   0   0   13.40    0.60
  -1   0   0   15.50    0.70
  -1   0   0   13.30    0.60
  -1   0   0   13.60    0.80
  -1   0   0   14.50    0.80
  -1   0   0   14.50    0.80
  -1   0   0   14.10    0.70
  -1   0   0   13.40    0.70
  -1   0   0   15.70    0.80
  -1   0   0   13.70    0.80
   1   0   0   14.30    0.80
   1   0   0   13.50    0.70
   1   0   0   14.10    0.70
   1   0   0   12.70    0.70
   1   0   0   13.40    0.60
   1   0   0   14.60    0.60
   1   0   0   13.90    0.70
   1   0   0   13.70    0.70
   1   0   0   12.40    0.80
  -2   0   0 8877.91  298.97
  -2   0   0 9514.95  301.07
  -2   0   0 9812.82  301.27
  -2   0   0 9445.46  301.27
  -2   0   0 9651.73  300.17
  -2   0   0 9705.33  299.07
  -2   0   0 9516.55  300.97
  -2   0   0 9749.12  300.97
  -2   0   0 9390.86  299.27
  -2   0   0 9633.54  299.37
  -2   0   0 9764.12  299.47
  -2   0   0 9282.87  299.87
   2   0   0 9556.74  299.17
   2   0   0 9512.85  301.07
   2   0   0 9413.06  299.17
   2   0   0 9549.34  300.57
   2   0   0 8071.09  298.57
   2   0   0 9999.00  299.27
   2   0   0 9662.93  301.07
   2   0   0 9375.06  301.27
   2   0   0 8917.01  300.07
   2   0   0 9204.18  298.57
   2   0   0 9509.55  300.47
  -3   0   0  283.67    9.20
  -3   0   0  269.47    9.30
  -3   0   0  267.97    9.70
  -3   0   0  287.97    9.80
  -3   0   0  281.27    9.30
  -3   0   0  283.67    9.60
  -3   0   0  252.27    9.50
  -3   0   0  280.27    9.70
   3   0   0  274.07    9.70
   3   0   0  283.07    9.70
   3   0   0  258.17    9.50
   3   0   0  264.77    9.30
   3   0   0  258.67    9.80
   3   0   0  274.97    9.80
   3   0   0  291.17    9.60
   3   0   0  260.37    9.10
   3   0   0  282.67    9.20
   3   0   0  260.07    9.60
   3   0   0  275.97    9.10
  -4   0   0   38.80    2.00
  -4   0   0   33.00    2.50
  -4   0   0   34.90    2.00
  -4   0   0   36.30    2.40
  -4   0   0   34.10    2.40
  -4   0   0   32.50    2.10
  -4   0   0   37.90    2.50
  -4   0   0   33.20    2.50
  -4   0   0   35.50    2.30
   4   0   0   36.80    1.90
   4   0   0   40.50    2.70
   4   0   0   34.10    2.40
   4   0   0   37.40    2.30
   4   0   0   32.50    1.70
   4   0   0   37.70    2.20
   4   0   0   38.20    2.50
   4   0   0   24.50    2.40
   4   0   0   34.40    2.50
  -5   0   0   66.59    3.30
  -5   0   0   57.69    3.70
  -5   0   0   57.49    3.00
  -5   0   0   61.59    3.60
  -5   0   0   64.39    3.60
  -5   0   0   55.19    3.40
  -5   0   0   57.89    2.90
  -5   0   0   62.79    3.70
   5   0   0   50.89    2.50
   5   0   0   60.69    3.70
   5   0   0   66.69    2.80
   5   0   0   57.99    3.50
   5   0   0   60.39    3.20
  -6   0   0  214.68    8.90
  -6   0   0  199.48    8.60
  -6   0   0  198.98    8.40
  -6   0   0  213.98    8.60
  -6   0   0  203.28    7.90
  -6   0   0  199.98    8.00
   6   0   0  196.28    8.40
   6   0   0  216.28    7.30
   6   0   0  191.98    8.90
   6   0   0  198.38    7.90
   6   0   0  216.48    8.70
   6   0   0  191.68    7.10
   6   0   0  206.78    8.90
  -7   0   0    8.80    2.10
  -7   0   0    9.80    2.30
  -7   0   0   15.30    2.90
  -7   0   0    6.10    1.80
  -7   0   0    5.50    1.60
   7   0   0    8.20    1.80
   7   0   0   15.10    1.20
   7   0   0    7.70    2.40
   7   0   0    6.80    0.90
   7   0   0    8.50    2.10
  -8   0   0   59.09    5.20
  -8   0   0   64.29    4.80
  -8   0   0   67.69    4.30
  -8   0   0   66.19    5.00
  -8   0   0   77.99    6.30
   8   0   0   73.49    6.30
  -9   0   0    0.90    2.50
  -9   0   0   12.40    3.30
   9   0   0    6.40    3.30
 -10   0   0    3.20    3.30
 -10   0   0   -0.10    2.80
  10   0   0    4.50    3.60
  10  -1   0    1.90    3.10
 -10   1   0   -0.30    2.70
 -10   1   0   -5.90    2.80
   9  -1   0    5.90    3.30
  -9   1   0   13.80    3.50
  -9   1   0    8.60    2.50
  -9   1   0   13.10    2.90
  -9   1   0    9.10    5.00
   8  -1   0   19.00    3.80
  -8   1   0   19.50    3.60
  -8   1   0   18.40    3.40
  -8   1   0   15.50    2.80
  -8   1   0   18.60    2.90
  -8   1   0   17.40    2.50
   7  -1   0   -0.50    1.50
   7  -1   0    0.10    0.80
   7  -1   0    0.60    0.80
   7  -1   0    0.20    2.10
   7  -1   0    3.50    1.70
  -7   1   0    0.70    1.20
  -7   1   0    2.80    1.60
  -7   1   0    1.20    1.50
  -7   1   0    2.90    2.30
  -7   1   0   -2.10    1.50
   6  -1   0  108.19    4.40
   6  -1   0  116.59    6.00
   6  -1   0  116.49    5.80
   6  -1   0  109.19    4.40
   6  -1   0  108.59    6.10
   6  -1   0  120.19    5.70
   6  -1   0  109.79    5.10
  -6   1   0  106.29    5.10
  -6   1   0  106.59    5.50
  -6   1   0  106.99    5.60
  -6   1   0  118.79    6.10
  -6   1   0  106.59    5.70
  -6   1   0  117.79    5.10
  -6   1   0  108.29    5.80
   5  -1   0   99.79    4.10
   5  -1   0  111.69    4.20
   5  -1   0  110.39    4.70
   5  -1   0  112.49    5.10
   5  -1   0  110.59    5.50
   5  -1   0  104.69    5.00
   5  -1   0  107.39    5.30
  -5   1   0  109.59    4.50
  -5   1   0   89.79    5.20
  -5   1   0  110.39    5.30
  -5   1   0  106.99    5.20
  -5   1   0  110.59    5.20
  -5   1   0   99.39    4.40
  -5   1   0  101.99    5.00
  -5   1   0  109.89    5.00
  -5   1   0  102.39    4.60
   4  -1   0   27.20    1.60
   4  -1   0   28.80    2.00
   4  -1   0   28.60    1.70
   4  -1   0   31.30    2.80
   4  -1   0   26.80    1.70
   4  -1   0   29.60    2.40
   4  -1   0   28.50    2.10
   4  -1   0   28.40    2.20
   4  -1   0   25.20    2.20
  -4   1   0   34.20    2.70
  -4   1   0   27.60    2.20
  -4   1   0   33.80    2.80
  -4   1   0   31.20    2.20
  -4   1   0   31.00    1.80
  -4   1   0   28.70    2.10
  -4   1   0   26.30    2.00
  -4   1   0   29.30    1.80
  -4   1   0   31.50    2.60
   3  -1   0  288.47   10.10
   3  -1   0  297.37   10.40
   3  -1   0  278.37   10.10
   3  -1   0  287.87   10.00
   3  -1   0  298.67    9.70
   3  -1   0  278.87   10.30
   3  -1   0  295.57   10.10
   3  -1   0  290.17    9.60
   3  -1   0  285.47    9.80
   3  -1   0  283.27    9.60
  -3   1   0  286.77   10.00
  -3   1   0  286.17    9.80
  -3   1   0  285.17   10.20
  -3   1   0  278.67   10.20
  -3   1   0  272.87   10.00
  -3   1   0  295.17   10.20
  -3   1   0  292.17    9.70
  -3   1   0  299.77   10.20
  -3   1   0  284.07    9.70
   2  -1   0  257.77    8.60
   2  -1   0  267.87    8.90
   2  -1   0  252.77    8.80
   2  -1   0  268.47    8.60
   2  -1   0  255.87    9.00
   2  -1   0  254.47    9.00
   2  -1   0  243.38    8.90
   2  -1   0  247.08    9.00
   2  -1   0  254.17    8.60
   2  -1   0  253.27    8.70
   2  -1   0  255.77    8.90
  -2   1   0  264.07    9.00
  -2   1   0  269.07    9.00
  -2   1   0  248.88    8.80
  -2   1   0  264.77    8.70
  -2   1   0  270.27    8.70
  -2   1   0  263.37    9.00
  -2   1   0  254.77    8.70
  -2   1   0  261.27    9.00
  -2   1   0  284.37    8.80
  -2   1   0  274.87    8.70
  -2   1   0  256.37    9.00
  -2   1   0  264.67    8.90
   1  -1   0  202.28    6.90
   1  -1   0  209.88    6.80
   1  -1   0  219.38    7.00
   1  -1   0  202.28    6.80
   1  -1   0  203.58    7.00
   1  -1   0  203.88    6.90
   1  -1   0  202.28    7.00
   1  -1   0  203.08    7.00
   1  -1   0  205.88    6.80
   1  -1   0  199.78    7.00
   1  -1   0  215.98    7.00
   1  -1   0  207.28    6.80
  -1   1   0  208.28    7.00
  -1   1   0  214.38    7.00
  -1   1   0  202.98    6.80
  -1   1   0  208.38    6.80
  -1   1   0  203.28    7.00
  -1   1   0  196.68    6.80
  -1   1   0  213.58    6.90
  -1   1   0  207.78    7.00
  -1   1   0  212.28    6.90
  -1   1   0  211.88    6.80
  -1   1   0  216.68    7.00
  -1   1   0  203.78    7.00
   0  -1   0  278.97    9.10
   0  -1   0  288.97    9.10
   0  -1   0  288.47    9.00
   0  -1   0  282.57    9.00
   0  -1   0  270.77    9.20
   0  -1   0  283.97    9.20
   0  -1   0  287.87    9.00
   0  -1   0  290.57    9.10
   0  -1   0  276.27    9.20
   0  -1   0  278.87    9.20
   0   1   0  278.17    9.20
   0   1   0  273.47    9.10
   0   1   0  290.77    9.00
   0   1   0  276.77    9.20
   0   1   0  273.17    9.20
   0   1   0  272.17    9.20
   0   1   0  273.27    9.00
   0   1   0  286.07    9.00
   0   1   0  271.97    9.10
   0   1   0  282.87    9.10
  -1  -1   0  516.75   16.90
  -1  -1   0  529.85   16.70
  -1  -1   0  518.05   17.00
  -1  -1   0  535.55   16.70
  -1  -1   0  538.65   17.00
  -1  -1   0  510.75   16.70
  -1  -1   0  527.85   16.90
  -1  -1   0  509.65   16.70
  -1  -1   0  518.45   16.90
  -1  -1   0  467.85   16.80
   1   1   0  518.75   17.00
   1   1   0  531.55   16.90
   1   1   0  531.15   16.70
   1   1   0  569.34   16.80
   1   1   0  501.15   16.70
   1   1   0  526.65   16.50
   1   1   0  523.25   16.60
   1   1   0  526.75   17.00
   1   1   0  529.35   16.90
  -2  -1   0  643.24   21.70
  -2  -1   0  676.43   21.80
  -2  -1   0  683.23   21.50
  -2  -1   0  678.63   21.60
  -2  -1   0  678.33   21.80
  -2  -1   0  665.73   21.90
  -2  -1   0  647.84   21.60
  -2  -1   0  650.23   21.40
  -2  -1   0  659.33   21.70
  -2  -1   0  663.83   21.20
  -2  -1   0  682.33   21.80
  -2  -1   0  674.93   21.40
  -2  -1   0  665.13   21.70
   2   1   0  682.83   21.80
   2   1   0  661.53   21.30
   2   1   0  681.73   21.40
   2   1   0  680.83   21.80
   2   1   0  666.83   21.50
   2   1   0  624.54   21.70
   2   1   0  668.63   21.70
   2   1   0  668.23   21.40
   2   1   0  680.03   21.90
  -3  -1   0  675.23   23.20
  -3  -1   0  709.03   23.40
  -3  -1   0  671.63   22.90
  -3  -1   0  724.43   22.80
  -3  -1   0  693.63   23.30
  -3  -1   0  736.83   23.30
  -3  -1   0  712.13   23.30
  -3  -1   0  710.73   23.10
  -3  -1   0  735.33   23.40
   3   1   0  703.23   23.30
   3   1   0  719.53   22.80
   3   1   0  700.53   23.50
   3   1   0  730.03   22.80
   3   1   0  722.13   23.20
   3   1   0  683.53   23.30
   3   1   0  686.63   22.70
   3   1   0  690.83   23.40
   3   1   0  741.43   23.00
   3   1   0  707.03   23.30
   3   1   0  675.73   23.40
  -4  -1   0    7.40    1.50
  -4  -1   0   11.80    1.30
  -4  -1   0    9.10    1.10
  -4  -1   0    9.00    1.30
  -4  -1   0    7.00    1.30
  -4  -1   0    6.30    1.40
  -4  -1   0    7.10    1.20
  -4  -1   0    6.80    1.20
  -4  -1   0    9.00    1.40
  -4  -1   0    6.20    1.30
   4   1   0    6.80    1.40
   4   1   0   12.80    1.80
   4   1   0    7.90    1.50
   4   1   0   10.00    0.90
   4   1   0   10.10    1.30
   4   1   0    5.40    1.20
   4   1   0    7.70    0.90
   4   1   0    9.20    1.30
   4   1   0   10.40    1.50
   4   1   0    9.10    1.40
  -5  -1   0  183.38    7.60
  -5  -1   0  179.08    7.50
  -5  -1   0  179.28    6.90
  -5  -1   0  187.78    6.80
  -5  -1   0  176.48    7.60
  -5  -1   0  171.38    7.40
  -5  -1   0  185.08    7.20
  -5  -1   0  192.78    7.60
   5   1   0  171.38    6.30
   5   1   0  174.48    7.40
   5   1   0  200.28    7.90
   5   1   0  182.78    6.50
   5   1   0  172.08    7.40
   5   1   0  178.08    6.90
   5   1   0  203.68    8.00
  -6  -1   0   31.90    3.20
  -6  -1   0   35.60    3.30
  -6  -1   0   39.50    2.70
  -6  -1   0   49.90    3.50
  -6  -1   0   47.20    4.00
  -6  -1   0   37.80    3.40
   6   1   0   44.90    3.90
   6   1   0   46.40    3.70
   6   1   0   40.10    3.00
   6   1   0   40.60    3.60
   6   1   0   35.40    3.90
   6   1   0   38.20    1.90
   6   1   0   35.30    2.00
   6   1   0   37.00    3.60
  -7  -1   0    1.10    2.00
  -7  -1   0    3.20    1.50
  -7  -1   0    2.00    1.80
  -7  -1   0    1.50    1.60
  -7  -1   0    1.20    1.80
   7   1   0    7.10    2.50
   7   1   0    6.10    2.30
   7   1   0    2.30    1.40
  -8  -1   0    4.90    2.30
  -8  -1   0    0.00    1.60
  -8  -1   0    2.10    2.20
  -8  -1   0   -0.60    2.10
  -8  -1   0    7.20    2.90
   8   1   0    3.80    2.90
  -9  -1   0   12.30    3.60
  -9  -1   0    8.50    2.80
   9   1   0    6.70    3.50
 -10  -1   0   -2.90    2.90
 -10  -1   0    1.40    3.40
  10   1   0    0.40    3.50
  10  -2   0    0.20    3.40
 -10   2   0    0.10    2.60
 -10   2   0    2.40    3.20
   9  -2   0    2.20    3.20
  -9   2   0    8.60    3.50
  -9   2   0   11.20    2.70
  -9   2   0    9.30    3.10
  -9   2   0   10.60    2.70
   8  -2   0   76.59    3.30
   8  -2   0   81.39    6.70
   8  -2   0   78.79    3.40
  -8   2   0   72.59    5.20
  -8   2   0   76.69    4.70
  -8   2   0   77.69    5.50
  -8   2   0   78.09    4.80
  -8   2   0   80.59    5.70
   7  -2   0    4.90    1.70
   7  -2   0    4.90    1.10
   7  -2   0    4.30    2.50
   7  -2   0    7.40    1.20
  -7   2   0    5.00    2.20
  -7   2   0    6.00    1.70
  -7   2   0    6.00    1.80
  -7   2   0    6.80    2.60
  -7   2   0    5.10    1.90
   6  -2   0  420.36   16.20
   6  -2   0  423.66   15.60
   6  -2   0  447.16   15.10
   6  -2   0  443.96   16.30
   6  -2   0  421.26   14.50
   6  -2   0  414.66   14.50
   6  -2   0  424.36   15.90
  -6   2   0  428.06   15.00
  -6   2   0  427.66   15.50
  -6   2   0  445.66   16.00
  -6   2   0  431.06   16.10
  -6   2   0  433.66   15.80
  -6   2   0  434.16   15.10
   5  -2   0   70.09    4.10
   5  -2   0   65.89    3.10
   5  -2   0   65.59    3.50
   5  -2   0   71.09    4.40
   5  -2   0   69.99    3.90
   5  -2   0   72.99    4.20
   5  -2   0   68.79    3.10
  -5   2   0   65.49    4.00
  -5   2   0   72.19    3.40
  -5   2   0   69.09    3.80
  -5   2   0   67.39    3.50
  -5   2   0   78.89    4.40
  -5   2   0   76.69    4.20
  -5   2   0   69.89    3.50
  -5   2   0   70.49    4.00
  -5   2   0   67.79    3.80
   4  -2   0  525.25   18.20
   4  -2   0  569.04   19.20
   4  -2   0  557.94   18.30
   4  -2   0  542.85   19.00
   4  -2   0  563.84   18.20
   4  -2   0  571.14   19.30
   4  -2   0  529.65   18.80
   4  -2   0  545.95   18.50
   4  -2   0  579.74   18.80
  -4   2   0  555.54   18.90
  -4   2   0  539.25   19.00
  -4   2   0  572.44   19.20
  -4   2   0  557.74   18.40
  -4   2   0  541.75   18.70
  -4   2   0  577.94   18.50
  -4   2   0  553.84   19.00
  -4   2   0  541.55   19.00
  -4   2   0  546.55   18.40
   3  -2   0  396.76   14.10
   3  -2   0  396.06   13.60
   3  -2   0  420.06   13.80
   3  -2   0  409.26   13.60
   3  -2   0  421.26   14.30
   3  -2   0  394.96   14.10
   3  -2   0  404.56   13.60
   3  -2   0  401.96   14.30
   3  -2   0  410.16   14.20
   3  -2   0  418.06   14.20
   3  -2   0  419.36   14.00
  -3   2   0  416.56   14.30
  -3   2   0  418.96   14.10
  -3   2   0  438.56   13.80
  -3   2   0  406.76   13.70
  -3   2   0  410.46   14.30
  -3   2   0  409.66   14.20
  -3   2   0  420.76   14.20
  -3   2   0  424.36   13.70
  -3   2   0  387.36   13.90
  -3   2   0  419.26   14.00
   2  -2   0    3.60    0.80
   2  -2   0    4.80    0.90
   2  -2   0    3.50    0.70
   2  -2   0    5.30    1.00
   2  -2   0    3.90    0.70
   2  -2   0    5.80    1.00
   2  -2   0    5.10    0.70
   2  -2   0    3.30    0.60
   2  -2   0    3.80    0.90
   2  -2   0    3.90    0.60
   2  -2   0    2.80    0.70
  -2   2   0    3.40    0.60
  -2   2   0    4.90    1.00
  -2   2   0    5.20    0.90
  -2   2   0    4.80    0.80
  -2   2   0    4.40    0.70
  -2   2   0    3.10    0.70
  -2   2   0    2.70    0.70
  -2   2   0    6.50    0.80
  -2   2   0    3.90    0.80
  -2   2   0    3.50    0.80
  -2   2   0    2.80    0.70
   1  -2   0   16.70    1.30
   1  -2   0   13.50    0.90
   1  -2   0   14.60    1.10
   1  -2   0   13.50    0.90
   1  -2   0   14.30    1.10
   1  -2   0   16.60    1.30
   1  -2   0   13.80    1.00
   1  -2   0   15.10    1.00
   1  -2   0   15.20    1.20
   1  -2   0   13.90    0.80
   1  -2   0   12.70    1.10
   1  -2   0   12.60    1.10
  -1   2   0   12.20    1.10
  -1   2   0   13.20    0.80
  -1   2   0   13.90    1.00
  -1   2   0   15.30    1.30
  -1   2   0   16.00    1.20
  -1   2   0   13.90    1.20
  -1   2   0   14.30    1.00
  -1   2   0   13.70    0.90
  -1   2   0   12.90    0.90
  -1   2   0   13.60    1.10
  -1   2   0   11.30    0.90
  -1   2   0   12.50    1.20
  -1   2   0   13.90    1.00
   0  -2   0 1407.46   43.10
   0  -2   0 1361.96   43.00
   0  -2   0 1306.77   43.10
   0  -2   0 1382.16   43.40
   0  -2   0 1358.76   43.40
   0  -2   0 1402.46   43.40
   0  -2   0 1373.46   43.10
   0  -2   0 1335.17   43.40
   0  -2   0 1334.17   43.30
   0  -2   0 1330.17   43.40
   0  -2   0 1411.76   43.30
   0   2   0 1404.86   43.00
   0   2   0 1340.27   43.20
   0   2   0 1317.47   43.00
   0   2   0 1287.27   43.10
   0   2   0 1418.16   43.10
   0   2   0 1438.06   43.10
   0   2   0 1291.97   43.40
   0   2   0 1339.57   43.50
   0   2   0 1329.77   43.40
   0   2   0 1366.76   43.30
   0   2   0 1346.47   43.30
   0   2   0 1348.67   43.40
   0   2   0 1328.77   43.30
  -1  -2   0  215.58    7.40
  -1  -2   0  206.88    7.10
  -1  -2   0  207.88    7.10
  -1  -2   0  212.88    7.50
  -1  -2   0  216.98    7.40
  -1  -2   0  218.78    7.40
  -1  -2   0  199.48    7.10
  -1  -2   0  217.68    7.10
  -1  -2   0  213.08    7.60
  -1  -2   0  211.98    7.50
   1   2   0  212.18    7.10
   1   2   0  198.18    7.10
   1   2   0  226.38    7.40
   1   2   0  217.48    7.50
   1   2   0  219.48    7.00
   1   2   0  206.18    7.50
   1   2   0  222.78    7.60
   1   2   0  217.58    7.40
   1   2   0  203.98    7.30
  -2  -2   0  253.37    8.90
  -2  -2   0  262.77    9.00
  -2  -2   0  246.48    8.60
  -2  -2   0  271.67    9.30
  -2  -2   0  267.87    8.60
  -2  -2   0  254.37    9.10
  -2  -2   0  257.97    9.00
  -2  -2   0  253.67    8.80
  -2  -2   0  264.07    9.20
  -2  -2   0  257.27    8.90
   2   2   0  265.67    8.20
   2   2   0  251.17    8.60
   2   2   0  265.87    9.20
   2   2   0  238.98    8.40
   2   2   0  253.27    9.10
   2   2   0  243.68    9.00
   2   2   0  252.97    8.90
   2   2   0  265.47    8.60
   2   2   0  249.88    8.90
   2   2   0  259.07    8.70
  -3  -2   0  462.65   15.60
  -3  -2   0  453.35   15.60
  -3  -2   0  475.25   15.10
  -3  -2   0  450.65   15.60
  -3  -2   0  455.75   15.50
  -3  -2   0  460.75   15.80
  -3  -2   0  449.36   15.60
  -3  -2   0  454.55   15.10
  -3  -2   0  442.36   15.40
   3   2   0  469.55   15.70
   3   2   0  442.26   15.20
   3   2   0  477.15   14.90
   3   2   0  447.56   15.60
   3   2   0  473.95   15.90
   3   2   0  466.75   15.00
   3   2   0  448.36   15.50
   3   2   0  447.26   15.60
  -4  -2   0    3.10    1.10
  -4  -2   0    4.10    1.20
  -4  -2   0    3.00    0.80
  -4  -2   0    3.00    0.50
  -4  -2   0    2.90    0.80
  -4  -2   0    5.00    1.40
  -4  -2   0    3.70    1.20
  -4  -2   0    2.10    1.30
  -4  -2   0    3.50    1.20
   4   2   0    3.50    1.30
   4   2   0    3.50    1.10
   4   2   0    5.50    1.30
   4   2   0    2.60    1.00
   4   2   0    2.50    0.60
   4   2   0    2.50    0.70
   4   2   0    0.40    0.50
  -5  -2   0  229.38    8.10
  -5  -2   0  229.98    9.10
  -5  -2   0  231.98    9.10
  -5  -2   0  220.08    9.20
  -5  -2   0  238.98    8.90
  -5  -2   0  220.88    9.10
  -5  -2   0  220.78    8.50
  -5  -2   0  228.98    8.40
   5   2   0  232.98    7.80
   5   2   0  227.78    9.50
   5   2   0  236.68    8.00
   5   2   0  244.88    8.60
   5   2   0  232.58    9.20
   5   2   0  223.48    9.00
  -6  -2   0   52.49    4.30
  -6  -2   0   41.90    3.60
  -6  -2   0   45.60    3.00
  -6  -2   0   45.10    3.50
  -6  -2   0   46.60    3.90
  -6  -2   0   50.09    3.70
   6   2   0   46.90    3.80
   6   2   0   48.70    3.00
   6   2   0   41.80    4.10
   6   2   0   42.20    1.90
   6   2   0   41.40    3.90
   6   2   0   47.40    3.60
   6   2   0   44.00    2.10
  -7  -2   0   16.30    2.60
  -7  -2   0   14.80    2.30
  -7  -2   0   10.40    2.60
  -7  -2   0   16.00    3.10
  -7  -2   0   21.00    3.00
   7   2   0   14.00    3.20
  -8  -2   0   21.70    3.30
  -8  -2   0   23.70    3.50
  -8  -2   0   28.00    4.10
  -8  -2   0   20.60    3.20
   8   2   0   26.90    4.10
  -9  -2   0    3.90    3.00
  -9  -2   0    3.10    2.70
   9   2   0   -0.50    2.90
 -10  -2   0    3.10    3.00
 -10  -2   0   -0.40    3.00
  10   2   0   -2.00    3.20
  10  -3   0   -3.40    3.10
 -10   3   0   -1.70    3.10
 -10   3   0    0.30    2.20
 -10   3   0    2.80    2.70
   9  -3   0    9.80    3.90
  -9   3   0   17.70    3.70
  -9   3   0   20.40    3.30
  -9   3   0   13.00    3.90
  -9   3   0    9.20    2.60
   8  -3   0    8.20    3.10
   8  -3   0    1.50    1.00
   8  -3   0    2.40    1.10
  -8   3   0   -2.40    2.50
  -8   3   0    1.30    1.90
  -8   3   0    2.70    1.60
  -8   3   0    0.90    2.40
  -8   3   0    3.00    2.10
   7  -3   0    9.60    2.10
   7  -3   0    6.50    1.30
   7  -3   0    4.20    2.40
   7  -3   0    8.40    1.30
  -7   3   0    5.20    1.90
  -7   3   0    6.90    2.40
  -7   3   0    8.60    1.80
  -7   3   0   10.70    2.10
  -7   3   0   10.50    2.50
   6  -3   0   81.29    3.50
   6  -3   0   72.39    3.50
   6  -3   0   73.59    4.70
   6  -3   0   78.99    5.00
   6  -3   0   70.89    4.90
   6  -3   0   70.79    4.40
   6  -3   0   69.29    4.10
  -6   3   0   85.69    5.20
  -6   3   0   79.79    4.90
  -6   3   0   80.79    4.10
  -6   3   0   77.29    4.10
  -6   3   0   71.89    4.40
  -6   3   0   78.89    4.80
   5  -3   0   23.50    2.80
   5  -3   0   21.90    2.90
   5  -3   0   20.60    2.20
   5  -3   0   22.90    1.80
   5  -3   0   23.30    2.60
   5  -3   0   21.30    2.40
   5  -3   0   23.30    2.00
   5  -3   0   24.00    2.00
  -5   3   0   27.30    3.00
  -5   3   0   20.90    2.30
  -5   3   0   20.00    2.70
  -5   3   0   25.80    2.90
  -5   3   0   24.60    2.20
  -5   3   0   23.60    2.20
  -5   3   0   27.70    2.80
  -5   3   0   24.50    2.60
   4  -3   0  124.29    5.50
   4  -3   0  123.89    5.70
   4  -3   0  127.59    5.30
   4  -3   0  123.89    4.70
   4  -3   0  124.69    5.10
   4  -3   0  119.99    4.80
   4  -3   0  114.69    4.70
   4  -3   0  120.89    5.40
   4  -3   0  125.59    5.70
  -4   3   0  117.29    5.60
  -4   3   0  124.49    5.40
  -4   3   0  112.59    4.90
  -4   3   0  115.99    5.50
  -4   3   0  121.79    5.50
  -4   3   0  115.59    5.20
  -4   3   0  124.79    5.50
  -4   3   0  122.99    5.00
   3  -3   0  370.56   13.70
   3  -3   0  430.66   13.60
   3  -3   0  399.06   13.80
   3  -3   0  382.86   13.30
   3  -3   0  367.36   13.10
   3  -3   0  414.36   13.20
   3  -3   0  392.26   13.60
   3  -3   0  422.86   13.10
   3  -3   0  379.56   13.90
  -3   3   0  381.86   13.80
  -3   3   0  374.66   13.20
  -3   3   0  387.16   13.40
  -3   3   0  402.26   13.80
  -3   3   0  367.96   13.40
  -3   3   0  399.66   13.80
  -3   3   0  404.16   13.20
  -3   3   0  378.56   13.80
   2  -3   0   14.60    1.70
   2  -3   0   18.30    1.60
   2  -3   0   10.10    2.10
   2  -3   0   17.50    1.80
   2  -3   0   12.40    1.40
   2  -3   0   16.60    1.40
   2  -3   0   15.20    1.10
   2  -3   0   17.40    1.40
   2  -3   0   12.40    1.50
   2  -3   0   17.00    1.70
   2  -3   0   12.40    1.40
  -2   3   0   14.60    1.30
  -2   3   0   17.60    1.80
  -2   3   0   18.80    1.50
  -2   3   0   16.00    1.70
  -2   3   0   13.90    1.50
  -2   3   0   13.80    1.60
  -2   3   0   13.30    1.20
  -2   3   0   14.90    1.50
  -2   3   0   15.20    1.70
   1  -3   0 1473.95   46.90
   1  -3   0 1495.25   46.60
   1  -3   0 1397.86   46.30
   1  -3   0 1488.45   46.90
   1  -3   0 1414.86   46.80
   1  -3   0 1445.56   46.90
   1  -3   0 1486.25   47.10
   1  -3   0 1482.15   46.80
   1  -3   0 1433.06   46.70
   1  -3   0 1469.55   46.60
   1  -3   0 1480.55   46.90
   1  -3   0 1449.46   46.50
  -1   3   0 1456.15   46.80
  -1   3   0 1514.25   46.90
  -1   3   0 1423.76   46.70
  -1   3   0 1493.65   46.90
  -1   3   0 1430.26   46.90
  -1   3   0 1410.86   47.00
  -1   3   0 1427.86   46.50
  -1   3   0 1449.35   47.00
  -1   3   0 1493.55   46.40
  -1   3   0 1448.26   46.70
  -1   3   0 1464.65   46.90
   0  -3   0  276.67    9.80
   0  -3   0  273.37    9.70
   0  -3   0  270.97    9.30
   0  -3   0  289.67   10.10
   0  -3   0  278.97    9.70
   0  -3   0  269.17    9.60
   0  -3   0  259.47    9.10
   0  -3   0  284.27    9.60
   0  -3   0  289.47    9.40
   0   3   0  290.17    9.20
   0   3   0  268.67    9.30
   0   3   0  273.87    9.70
   0   3   0  274.97    9.70
   0   3   0  275.37    9.10
   0   3   0  287.07    9.70
   0   3   0  260.27    9.70
   0   3   0  267.07    9.60
   0   3   0  269.07    9.60
   0   3   0  277.17    9.90
  -1  -3   0  127.99    5.00
  -1  -3   0  125.09    4.90
  -1  -3   0  126.29    4.50
  -1  -3   0  127.69    4.60
  -1  -3   0  128.89    5.20
  -1  -3   0  133.49    5.20
  -1  -3   0  125.99    5.20
  -1  -3   0  131.19    4.70
  -1  -3   0  136.19    5.10
   1   3   0  124.59    5.00
   1   3   0  127.69    4.50
   1   3   0  127.99    4.70
   1   3   0  129.89    5.30
   1   3   0  127.69    5.00
   1   3   0  127.99    5.20
   1   3   0  127.29    5.30
   1   3   0  134.69    4.60
  -2  -3   0  258.87    9.10
  -2  -3   0  247.18    9.20
  -2  -3   0  265.17    8.60
  -2  -3   0  256.97    9.40
  -2  -3   0  262.87    9.10
  -2  -3   0  248.48    8.70
  -2  -3   0  240.28    9.20
  -2  -3   0  263.97    8.70
  -2  -3   0  267.57    9.10
   2   3   0  251.77    9.10
   2   3   0  251.67    9.10
   2   3   0  243.58    8.70
   2   3   0  229.08    9.20
   2   3   0  249.88    9.10
   2   3   0  262.27    9.40
   2   3   0  245.08    9.30
   2   3   0  264.57    8.60
   2   3   0  253.67    8.50
  -3  -3   0  100.39    4.70
  -3  -3   0  100.49    4.70
  -3  -3   0  120.49    4.80
  -3  -3   0  103.49    4.70
  -3  -3   0  108.49    4.90
  -3  -3   0  105.39    4.20
  -3  -3   0  108.39    4.90
  -3  -3   0  101.49    4.60
  -3  -3   0  109.69    4.20
  -3  -3   0  108.79    4.90
   3   3   0  108.69    4.30
   3   3   0  111.29    5.00
   3   3   0  106.99    4.70
   3   3   0  100.89    4.60
   3   3   0  108.29    3.90
   3   3   0  110.09    4.90
   3   3   0  107.19    4.00
  -4  -3   0   22.40    2.30
  -4  -3   0   25.40    2.70
  -4  -3   0   22.50    1.70
  -4  -3   0   20.70    2.30
  -4  -3   0   24.20    2.40
  -4  -3   0   23.50    1.90
  -4  -3   0   25.80    2.50
  -4  -3   0   22.60    2.30
   4   3   0   25.50    2.40
   4   3   0   26.80    2.70
   4   3   0   22.00    1.30
   4   3   0   23.00    1.50
   4   3   0   24.40    2.10
  -5  -3   0   78.29    3.80
  -5  -3   0   75.19    4.30
  -5  -3   0   78.49    4.40
  -5  -3   0   75.39    4.40
  -5  -3   0   73.79    3.60
  -5  -3   0   73.99    4.40
   5   3   0   76.79    3.10
   5   3   0   72.99    3.70
   5   3   0   70.39    4.20
   5   3   0   75.19    4.50
   5   3   0   73.89    2.90
   5   3   0   77.79    4.70
  -6  -3   0  151.08    7.10
  -6  -3   0  139.49    6.60
  -6  -3   0  139.89    6.90
  -6  -3   0  129.69    5.90
   6   3   0  144.59    7.50
   6   3   0  132.19    5.90
   6   3   0  139.39    7.00
  -7  -3   0    9.70    2.60
  -7  -3   0    9.60    1.90
  -7  -3   0   11.80    2.80
  -7  -3   0   11.30    2.60
  -7  -3   0   10.20    2.60
   7   3   0   10.00    2.70
  -8  -3   0   20.70    3.50
  -8  -3   0   25.30    3.70
  -8  -3   0   19.00    3.50
   8   3   0   15.80    3.90
  -9  -3   0   -2.00    2.80
  -9  -3   0    2.30    3.10
   9   3   0    0.30    3.20
 -10  -3   0    3.60    3.40
  10   3   0    1.80    6.10
  10  -4   0   -2.40    2.90
 -10   4   0    0.40    2.60
 -10   4   0    0.40    2.20
 -10   4   0    2.20    3.60
   9  -4   0   41.50    5.60
  -9   4   0   40.40    5.40
  -9   4   0   37.00    4.80
  -9   4   0   25.60    3.40
  -9   4   0   40.10    4.10
   8  -4   0   43.40    5.40
   8  -4   0   48.00    2.80
  -8   4   0   51.09    5.40
  -8   4   0   48.80    4.10
  -8   4   0   53.29    5.30
  -8   4   0   42.90    3.80
   7  -4   0   40.80    3.50
   7  -4   0   35.60    2.50
   7  -4   0   34.30    4.50
  -7   4   0   31.30    3.10
  -7   4   0   35.80    3.70
  -7   4   0   35.00    4.00
  -7   4   0   37.10    4.40
   6  -4   0  130.69    7.00
   6  -4   0  140.89    7.80
   6  -4   0  133.49    6.00
   6  -4   0  130.59    5.30
   6  -4   0  132.79    6.40
   6  -4   0  125.69    5.40
  -6   4   0  131.39    7.10
  -6   4   0  125.19    6.20
  -6   4   0  135.49    6.80
  -6   4   0  123.89    5.80
   5  -4   0   82.19    5.00
   5  -4   0   84.79    4.60
   5  -4   0   84.49    3.80
   5  -4   0   78.29    4.80
   5  -4   0   80.89    4.80
   5  -4   0   84.79    4.30
   5  -4   0   81.99    4.00
   5  -4   0   83.29    3.80
  -5   4   0   82.59    5.00
  -5   4   0   88.29    4.90
  -5   4   0   93.59    4.30
  -5   4   0   74.99    4.10
  -5   4   0   83.79    4.60
  -5   4   0   86.89    4.50
  -5   4   0   79.89    4.90
  -5   4   0   84.89    4.80
   4  -4   0   16.10    1.90
   4  -4   0   16.40    1.60
   4  -4   0   17.60    2.30
   4  -4   0   12.60    1.70
   4  -4   0   18.30    1.60
   4  -4   0   13.10    2.00
   4  -4   0   16.50    2.30
   4  -4   0   18.00    1.80
   4  -4   0   15.70    2.00
  -4   4   0   16.00    2.10
  -4   4   0   14.20    2.00
  -4   4   0   14.40    1.80
  -4   4   0   17.10    2.40
  -4   4   0   15.70    1.70
  -4   4   0   16.70    2.10
  -4   4   0   13.60    2.20
  -4   4   0   12.50    1.80
   3  -4   0 1034.10   33.30
   3  -4   0 1023.20   33.70
   3  -4   0 1074.79   33.70
   3  -4   0  995.10   34.00
   3  -4   0 1007.80   33.90
   3  -4   0 1028.00   33.40
   3  -4   0 1043.50   34.00
   3  -4   0  997.20   33.20
   3  -4   0 1057.89   33.10
   3  -4   0 1006.80   34.10
  -3   4   0 1076.99   34.00
  -3   4   0 1005.00   33.90
  -3   4   0 1051.39   33.90
  -3   4   0 1069.79   33.50
  -3   4   0  976.00   33.60
  -3   4   0 1001.60   33.90
  -3   4   0  988.90   34.00
  -3   4   0 1022.20   33.30
  -3   4   0  987.50   33.20
   2  -4   0  302.77   10.30
   2  -4   0  293.57   10.80
   2  -4   0  289.37   10.60
   2  -4   0  290.57   10.80
   2  -4   0  305.87   10.60
   2  -4   0  303.17   10.30
   2  -4   0  295.77   10.90
   2  -4   0  294.37   10.00
   2  -4   0  292.47   10.80
   2  -4   0  292.57   10.30
  -2   4   0  290.77   10.60
  -2   4   0  298.47   10.80
  -2   4   0  292.57   10.30
  -2   4   0  285.57   10.20
  -2   4   0  302.57   10.70
  -2   4   0  279.47   10.70
  -2   4   0  288.07   10.10
  -2   4   0  291.77   10.80
  -2   4   0  302.97   10.90
   1  -4   0  934.81   29.90
   1  -4   0  919.71   29.90
   1  -4   0  871.61   29.40
   1  -4   0  928.31   29.90
   1  -4   0  899.31   30.10
   1  -4   0  946.21   29.80
   1  -4   0  914.21   29.10
   1  -4   0  917.91   29.50
   1  -4   0  873.71   29.70
  -1   4   0  873.41   30.00
  -1   4   0  917.91   30.00
  -1   4   0  918.91   29.70
  -1   4   0  868.41   29.30
  -1   4   0  905.61   29.90
  -1   4   0  878.31   29.80
  -1   4   0  898.91   29.20
  -1   4   0  892.31   29.90
  -1   4   0  926.81   29.90
   0  -4   0 1246.48   39.50
   0  -4   0 1260.77   39.00
   0  -4   0 1176.78   39.50
   0  -4   0 1234.18   39.30
   0  -4   0 1139.79   39.50
   0  -4   0 1166.18   39.30
   0  -4   0 1194.88   38.70
   0  -4   0 1223.18   39.00
   0   4   0 1173.58   39.50
   0   4   0 1287.07   39.30
   0   4   0 1183.68   39.80
   0   4   0 1259.37   38.90
   0   4   0 1161.98   39.30
   0   4   0 1283.47   38.80
   0   4   0 1228.98   39.70
   0   4   0 1171.68   39.30
   0   4   0 1177.08   39.50
   0   4   0 1203.48   38.70
  -1  -4   0   45.90    2.60
  -1  -4   0   47.20    2.90
  -1  -4   0   47.40    2.20
  -1  -4   0   45.10    2.80
  -1  -4   0   45.50    2.80
  -1  -4   0   42.90    2.30
  -1  -4   0   43.80    2.80
  -1  -4   0   49.30    2.60
   1   4   0   36.00    2.50
   1   4   0   47.70    3.00
   1   4   0   53.59    3.00
   1   4   0   45.40    3.10
   1   4   0   50.79    2.80
   1   4   0   50.69    2.40
   1   4   0   49.00    2.20
   1   4   0   49.00    2.10
   1   4   0   43.40    2.60
  -2  -4   0  442.56   15.00
  -2  -4   0  460.15   15.40
  -2  -4   0  459.75   14.80
  -2  -4   0  446.46   14.90
  -2  -4   0  436.76   15.60
  -2  -4   0  417.76   15.70
  -2  -4   0  467.55   15.60
  -2  -4   0  475.25   15.70
  -2  -4   0  446.46   15.40
   2   4   0  437.36   15.40
   2   4   0  442.26   15.00
   2   4   0  457.75   14.80
   2   4   0  424.06   15.80
   2   4   0  441.46   14.60
   2   4   0  449.86   15.90
   2   4   0  454.15   15.80
  -3  -4   0  142.99    6.80
  -3  -4   0  167.08    6.30
  -3  -4   0  168.28    6.20
  -3  -4   0  163.98    6.10
  -3  -4   0  163.68    6.80
  -3  -4   0  172.58    6.80
  -3  -4   0  164.68    6.90
  -3  -4   0  167.38    6.70
   3   4   0  165.48    6.30
   3   4   0  160.88    5.70
   3   4   0  164.88    5.90
   3   4   0  172.18    5.50
   3   4   0  170.38    7.10
   3   4   0  167.78    7.10
   3   4   0  156.78    7.00
   3   4   0  158.48    6.60
  -4  -4   0   18.20    1.80
  -4  -4   0   18.10    2.50
  -4  -4   0   14.30    2.10
  -4  -4   0   19.10    2.20
  -4  -4   0   19.60    2.50
  -4  -4   0   17.10    1.70
  -4  -4   0   17.00    2.20
   4   4   0   19.40    2.00
   4   4   0   17.50    1.40
   4   4   0   18.30    2.40
   4   4   0   20.70    2.30
   4   4   0   17.20    1.20
   4   4   0   23.90    2.80
  -5  -4   0   96.09    5.10
  -5  -4   0   96.89    5.50
  -5  -4   0   98.99    5.30
  -5  -4   0  102.39    5.50
  -5  -4   0   99.29    5.10
  -5  -4   0   98.49    4.60
   5   4   0   97.29    4.60
   5   4   0   89.69    5.50
   5   4   0   93.39    5.10
   5   4   0   96.69    5.90
   5   4   0  107.09    5.80
  -6  -4   0    6.20    2.20
  -6  -4   0    2.90    2.20
  -6  -4   0    6.50    2.00
  -6  -4   0    2.90    1.80
  -6  -4   0    2.40    1.40
   6   4   0    2.30    2.40
  -7  -4   0    0.20    2.00
  -7  -4   0    0.00    2.20
  -7  -4   0    1.10    2.00
  -7  -4   0   -1.10    2.20
  -7  -4   0    0.80    2.10
   7   4   0   -0.60    2.30
  -8  -4   0    6.70    3.00
  -8  -4   0    4.50    3.10
   8   4   0    2.70    2.80
  -9  -4   0   12.50    3.50
  -9  -4   0    9.10    3.80
   9   4   0    8.10    3.80
  10  -5   0   -1.80    3.70
 -10   5   0   -1.60    2.60
 -10   5   0    1.50    2.20
 -10   5   0    1.70    3.90
   9  -5   0   12.50    1.60
   9  -5   0   10.00    3.90
  -9   5   0    8.40    3.90
  -9   5   0    7.30    2.70
  -9   5   0    6.20    3.20
  -9   5   0   11.50    2.80
   8  -5   0    2.60    1.30
   8  -5   0   -0.40    2.60
  -8   5   0    2.50    2.20
  -8   5   0   -2.40    2.40
  -8   5   0   -0.10    1.60
  -8   5   0    1.20    2.60
   7  -5   0    0.80    1.10
   7  -5   0    1.70    1.70
   7  -5   0   -0.30    2.60
  -7   5   0    1.30    1.50
  -7   5   0    3.20    2.50
  -7   5   0   -1.00    2.20
  -7   5   0   -1.00    1.70
  -7   5   0   -0.50    2.10
   6  -5   0   82.89    4.70
   6  -5   0   83.99    5.90
   6  -5   0   89.79    4.10
  -6   5   0   90.19    5.70
  -6   5   0   81.89    4.70
  -6   5   0   87.49    4.70
  -6   5   0   85.19    5.70
  -6   5   0   92.29    5.20
   5  -5   0   30.90    2.40
   5  -5   0   35.50    2.30
   5  -5   0   31.40    3.40
   5  -5   0   29.40    3.30
   5  -5   0   27.50    3.30
   5  -5   0   37.20    3.20
   5  -5   0   30.30    3.10
  -5   5   0   33.40    3.10
  -5   5   0   33.60    3.10
  -5   5   0   35.10    3.70
  -5   5   0   31.90    2.70
  -5   5   0   35.20    3.70
   4  -5   0  123.99    6.20
   4  -5   0  122.09    6.10
   4  -5   0  116.69    5.00
   4  -5   0  117.69    6.00
   4  -5   0  114.99    5.70
   4  -5   0  123.59    4.80
   4  -5   0  119.69    5.30
   4  -5   0  115.09    5.10
   4  -5   0  117.19    5.90
  -4   5   0  119.69    5.80
  -4   5   0  110.09    5.60
  -4   5   0  119.89    5.30
  -4   5   0  118.59    6.20
  -4   5   0  117.39    5.90
  -4   5   0  126.69    6.00
  -4   5   0  104.39    4.90
  -4   5   0  122.49    5.30
  -4   5   0  122.79    6.10
   3  -5   0  136.09    5.80
   3  -5   0  134.29    6.20
   3  -5   0  139.59    5.60
   3  -5   0  124.99    6.10
   3  -5   0  129.29    5.10
   3  -5   0  132.39    6.10
   3  -5   0  123.39    5.30
   3  -5   0  132.39    6.10
   3  -5   0  118.29    5.30
   3  -5   0  130.49    5.90
  -3   5   0  128.89    6.00
  -3   5   0  131.19    5.40
  -3   5   0  131.99    5.50
  -3   5   0  137.09    6.10
  -3   5   0  143.49    6.00
  -3   5   0  127.89    6.00
  -3   5   0  125.69    5.20
  -3   5   0  120.49    5.80
  -3   5   0  125.39    6.20
   2  -5   0   93.59    4.60
   2  -5   0   87.99    4.40
   2  -5   0   92.09    4.60
   2  -5   0   94.79    4.60
   2  -5   0   86.89    4.40
   2  -5   0   86.39    4.70
   2  -5   0   89.49    4.10
   2  -5   0   92.79    3.80
  -2   5   0   91.99    4.70
  -2   5   0   91.19    4.50
  -2   5   0   92.59    4.70
  -2   5   0   83.39    4.40
  -2   5   0   91.39    4.60
  -2   5   0   92.29    4.80
  -2   5   0   89.09    3.80
  -2   5   0   89.69    4.10
   1  -5   0   52.99    3.20
   1  -5   0   56.69    3.20
   1  -5   0   49.90    2.50
   1  -5   0   56.79    3.30
   1  -5   0   48.20    2.90
   1  -5   0   59.89    3.70
   1  -5   0   55.59    3.50
   1  -5   0   56.39    3.00
   1  -5   0   54.29    3.30
  -1   5   0   55.29    3.30
  -1   5   0   53.39    2.90
  -1   5   0   55.29    3.30
  -1   5   0   52.29    3.50
  -1   5   0   44.50    3.30
  -1   5   0   51.19    2.50
  -1   5   0   53.89    3.20
  -1   5   0   51.49    3.10
  -1   5   0   58.79    3.60
   0  -5   0  908.61   28.90
   0  -5   0  859.01   29.40
   0  -5   0  871.01   29.60
   0  -5   0  918.71   29.50
   0  -5   0  906.81   28.50
   0  -5   0  866.91   29.30
   0  -5   0  870.71   29.30
   0  -5   0  879.41   28.90
   0   5   0  897.81   29.60
   0   5   0  877.31   28.70
   0   5   0  869.91   29.40
   0   5   0  877.01   28.50
   0   5   0  842.52   29.50
   0   5   0  812.12   29.20
   0   5   0  886.31   29.80
   0   5   0  894.71   28.60
   0   5   0  920.41   29.30
  -1  -5   0  108.89    4.80
  -1  -5   0  109.69    5.20
  -1  -5   0  115.79    5.00
  -1  -5   0  109.19    4.30
  -1  -5   0  107.79    4.60
  -1  -5   0  104.49    5.20
  -1  -5   0  113.59    5.20
  -1  -5   0  108.59    5.20
  -1  -5   0  110.49    4.30
   1   5   0  110.49    4.50
   1   5   0  115.79    5.60
   1   5   0  115.09    5.40
   1   5   0  115.19    5.50
   1   5   0  101.29    4.20
   1   5   0  111.59    5.00
   1   5   0  112.09    4.40
   1   5   0  108.79    5.10
  -2  -5   0  834.72   28.10
  -2  -5   0  853.61   28.00
  -2  -5   0  814.12   27.80
  -2  -5   0  835.52   27.20
  -2  -5   0  856.81   28.30
  -2  -5   0  833.92   28.30
  -2  -5   0  847.32   27.50
   2   5   0  820.52   28.40
   2   5   0  853.91   28.60
   2   5   0  819.92   27.90
   2   5   0  837.32   28.50
   2   5   0  842.92   27.00
   2   5   0  837.22   27.10
   2   5   0  822.32   27.40
  -3  -5   0  192.58    7.10
  -3  -5   0  183.68    7.00
  -3  -5   0  186.78    7.70
  -3  -5   0  185.18    7.80
  -3  -5   0  204.68    8.20
  -3  -5   0  192.88    7.80
   3   5   0  196.58    8.30
   3   5   0  182.08    8.20
   3   5   0  185.78    6.60
   3   5   0  191.78    7.20
   3   5   0  186.58    7.70
   3   5   0  184.78    6.40
   3   5   0  194.08    8.20
   3   5   0  183.58    6.70
  -4  -5   0  138.39    6.60
  -4  -5   0  148.39    6.50
  -4  -5   0  133.69    6.40
  -4  -5   0  139.49    6.50
  -4  -5   0  130.19    5.80
  -4  -5   0  143.59    6.80
  -4  -5   0  134.79    5.60
   4   5   0  139.59    4.90
   4   5   0  138.69    5.70
   4   5   0  129.69    4.80
   4   5   0  130.29    6.70
   4   5   0  136.39    6.30
   4   5   0  147.49    6.90
   4   5   0  130.69    6.70
  -5  -5   0   46.90    4.20
  -5  -5   0   42.00    3.90
  -5  -5   0   44.00    3.40
  -5  -5   0   44.10    3.00
  -5  -5   0   44.20    4.10
   5   5   0   36.60    4.20
   5   5   0   42.50    3.50
  -6  -5   0    2.60    2.00
  -6  -5   0    0.50    2.00
  -6  -5   0    1.30    2.00
  -6  -5   0    1.80    2.00
   6   5   0    2.40    2.20
   6   5   0    0.40    2.40
  -7  -5   0    1.30    2.30
  -7  -5   0    5.50    2.90
  -7  -5   0    3.30    2.40
   7   5   0    5.10    2.70
   7   5   0    2.60    3.00
  -8  -5   0    0.00    2.60
  -8  -5   0    1.60    3.00
   8   5   0    3.30    3.30
  -9  -5   0    3.60    3.30
   9   5   0   -1.50    2.80
   9   5   0    3.20    3.50
   9  -6   0   17.50    4.60
   9  -6   0   15.30    1.80
  -9   6   0    9.50    3.00
  -9   6   0   15.50    4.50
  -9   6   0   11.20    3.70
  -9   6   0    7.30    2.60
   8  -6   0    6.00    1.60
   8  -6   0    2.80    3.60
  -8   6   0    2.50    2.90
  -8   6   0    5.30    2.30
  -8   6   0    5.30    2.50
  -8   6   0    6.80    3.20
   7  -6   0   29.50    3.40
   7  -6   0   34.20    2.80
   7  -6   0   38.20    5.00
  -7   6   0   38.00    3.80
  -7   6   0   30.10    4.50
  -7   6   0   36.10    4.50
  -7   6   0   35.20    4.00
   6  -6   0   35.90    3.50
   6  -6   0   36.00    4.60
   6  -6   0   34.30    2.60
  -6   6   0   31.90    4.30
  -6   6   0   30.70    4.00
  -6   6   0   37.50    3.50
  -6   6   0   32.80    3.60
  -6   6   0   31.60    3.40
   5  -6   0   -0.50    1.60
   5  -6   0    0.80    1.60
   5  -6   0   -0.20    1.60
   5  -6   0    1.00    1.10
   5  -6   0    0.20    1.90
  -5   6   0    3.50    1.40
  -5   6   0    1.60    1.70
  -5   6   0    2.10    2.10
  -5   6   0    0.60    1.90
  -5   6   0    0.80    1.50
   4  -6   0   50.49    4.30
   4  -6   0   42.00    3.60
   4  -6   0   44.80    3.40
   4  -6   0   47.50    3.90
   4  -6   0   42.90    2.60
  -4   6   0   46.50    4.10
  -4   6   0   38.40    3.50
  -4   6   0   39.90    4.00
  -4   6   0   43.80    3.40
  -4   6   0   38.50    2.90
   3  -6   0  189.98    8.20
   3  -6   0  181.48    7.80
   3  -6   0  175.18    8.10
   3  -6   0  187.88    8.10
   3  -6   0  174.68    6.80
   3  -6   0  183.68    8.00
   3  -6   0  177.18    7.20
   3  -6   0  183.88    7.30
   3  -6   0  166.58    7.60
   3  -6   0  178.08    7.30
  -3   6   0  182.48    8.00
  -3   6   0  189.88    8.10
  -3   6   0  183.18    7.30
  -3   6   0  188.68    8.30
  -3   6   0  182.98    7.00
  -3   6   0  169.68    7.90
  -3   6   0  175.28    8.00
   2  -6   0    1.20    1.50
   2  -6   0    3.30    1.50
   2  -6   0    3.00    1.40
   2  -6   0    2.30    0.90
   2  -6   0    2.20    1.70
   2  -6   0    0.70    1.00
   2  -6   0   -0.20    1.20
   2  -6   0   -1.30    1.00
  -2   6   0    2.20    1.30
  -2   6   0    1.40    1.20
  -2   6   0    4.80    1.80
  -2   6   0    2.70    1.50
  -2   6   0    1.00    0.80
  -2   6   0    1.80    1.20
  -2   6   0   -0.60    1.40
   1  -6   0  169.88    7.30
   1  -6   0  159.38    7.20
   1  -6   0  165.18    6.10
   1  -6   0  163.68    7.10
   1  -6   0  175.48    7.10
   1  -6   0  168.68    7.10
   1  -6   0  165.78    6.60
   1  -6   0  170.08    6.70
   1  -6   0  164.98    7.40
  -1   6   0  154.48    7.10
  -1   6   0  167.98    6.30
  -1   6   0  163.78    7.20
  -1   6   0  161.28    6.20
  -1   6   0  165.08    7.40
  -1   6   0  162.48    7.50
  -1   6   0  154.88    7.30
  -1   6   0  161.88    7.10
  -1   6   0  144.49    6.40
   0  -6   0  118.09    5.60
   0  -6   0  109.79    5.00
   0  -6   0  108.29    5.60
   0  -6   0  110.89    4.40
   0  -6   0  109.09    5.40
   0  -6   0  113.39    4.90
   0  -6   0  119.29    5.40
   0   6   0  104.59    5.60
   0   6   0  116.69    4.60
   0   6   0  102.79    5.30
   0   6   0  112.39    5.40
   0   6   0  108.99    5.80
   0   6   0  104.19    4.40
   0   6   0  109.79    4.80
   0   6   0  106.89    5.60
  -1  -6   0   -0.30    1.10
  -1  -6   0    2.10    1.60
  -1  -6   0    2.50    0.90
  -1  -6   0    2.60    1.20
  -1  -6   0    3.80    1.40
  -1  -6   0    2.80    1.30
  -1  -6   0    2.10    1.60
  -1  -6   0    2.10    0.80
   1   6   0    1.20    1.20
   1   6   0    5.00    1.70
   1   6   0    3.00    1.50
   1   6   0    1.90    1.00
   1   6   0    2.70    1.30
   1   6   0    1.00    1.10
   1   6   0    3.90    1.80
   1   6   0    1.80    0.80
  -2  -6   0  105.39    4.80
  -2  -6   0  113.49    5.70
  -2  -6   0  114.59    5.80
  -2  -6   0  111.59    5.40
  -2  -6   0  108.79    4.90
  -2  -6   0  114.09    4.60
  -2  -6   0  107.59    5.40
   2   6   0  112.49    6.00
   2   6   0  107.09    5.40
   2   6   0  109.49    6.10
   2   6   0  109.49    4.40
   2   6   0  113.29    4.30
   2   6   0  107.09    4.80
   2   6   0  107.59    5.30
   2   6   0  110.59    5.90
  -3  -6   0   84.69    3.90
  -3  -6   0   87.59    4.80
  -3  -6   0   85.99    4.80
  -3  -6   0   78.39    4.90
  -3  -6   0   95.49    5.00
   3   6   0   82.39    3.40
   3   6   0   84.99    5.50
   3   6   0   87.09    3.40
   3   6   0   74.99    5.10
   3   6   0   90.09    3.60
   3   6   0   87.49    4.80
   3   6   0   81.69    4.20
   3   6   0   89.09    5.30
  -4  -6   0    6.40    2.20
  -4  -6   0   12.20    2.60
  -4  -6   0    9.90    2.70
  -4  -6   0    6.90    1.50
  -4  -6   0   10.90    2.30
  -4  -6   0   10.90    1.60
   4   6   0    9.40    2.50
   4   6   0   10.90    1.80
   4   6   0    7.00    2.40
  -5  -6   0   74.89    4.20
  -5  -6   0   88.19    5.60
  -5  -6   0   79.29    5.20
  -5  -6   0   74.79    5.40
  -5  -6   0   75.79    5.00
   5   6   0   76.39    6.20
  -6  -6   0    2.00    2.60
  -6  -6   0    3.90    2.40
  -6  -6   0    2.00    2.30
   6   6   0    4.10    2.90
  -7  -6   0    1.70    2.60
  -7  -6   0   -0.10    2.70
   7   6   0   -0.70    2.80
  -8  -6   0    5.70    3.40
  -8  -6   0   -1.60    2.90
  -8  -6   0    7.50    3.20
   8   6   0    1.80    3.00
   9  -7   0    7.20    1.60
   9  -7   0    3.70    3.70
  -9   7   0    3.10    2.90
  -9   7   0    7.30    2.40
  -9   7   0    6.50    4.20
   8  -7   0   -1.90    3.00
   8  -7   0    0.40    1.50
  -8   7   0    1.80    3.30
  -8   7   0    2.30    3.40
  -8   7   0    2.30    2.10
  -8   7   0    0.40    2.30
   7  -7   0    3.80    1.60
   7  -7   0   -0.80    2.60
  -7   7   0    8.30    3.40
  -7   7   0    2.90    2.20
  -7   7   0    3.70    2.00
  -7   7   0    2.20    3.00
   6  -7   0  113.69    5.90
   6  -7   0   91.09    6.90
   6  -7   0  106.39    4.90
  -6   7   0  110.59    6.90
  -6   7   0  101.59    5.80
  -6   7   0   98.19    6.90
  -6   7   0  111.19    5.60
   5  -7   0   10.70    1.70
   5  -7   0    7.50    2.20
   5  -7   0   12.30    3.20
  -5   7   0    6.00    2.70
  -5   7   0    8.90    2.10
  -5   7   0   11.10    2.80
  -5   7   0   11.60    2.10
   4  -7   0  310.87   11.20
   4  -7   0  326.37   12.50
   4  -7   0  325.07   12.00
   4  -7   0  330.17   13.00
   4  -7   0  308.57   13.00
  -4   7   0  300.07   13.00
  -4   7   0  289.67   12.50
  -4   7   0  315.17   11.90
  -4   7   0  315.17   13.00
   3  -7   0   86.19    4.00
   3  -7   0   83.99    5.40
   3  -7   0   82.09    5.20
   3  -7   0   83.09    4.70
  -3   7   0   89.09    5.70
  -3   7   0   83.89    5.10
  -3   7   0   87.19    5.60
  -3   7   0   88.09    4.70
   2  -7   0  101.79    5.30
   2  -7   0   93.29    4.20
   2  -7   0   96.59    5.30
   2  -7   0   95.69    4.90
   2  -7   0   95.19    4.70
   2  -7   0  103.99    5.70
  -2   7   0   94.19    5.60
  -2   7   0  101.19    5.40
  -2   7   0   87.49    4.20
  -2   7   0   97.29    5.50
  -2   7   0   98.49    6.00
  -2   7   0   82.89    4.60
   1  -7   0   67.79    4.00
   1  -7   0   64.99    3.30
   1  -7   0   72.29    4.40
   1  -7   0   73.79    4.00
   1  -7   0   58.59    4.40
   1  -7   0   64.59    4.30
  -1   7   0   68.89    4.50
  -1   7   0   65.89    3.80
  -1   7   0   66.89    3.40
  -1   7   0   69.39    4.90
  -1   7   0   74.29    3.60
  -1   7   0   69.49    5.00
  -1   7   0   62.59    4.30
  -1   7   0   74.79    4.80
   0  -7   0    9.00    1.40
   0  -7   0    5.60    1.80
   0  -7   0    6.70    1.50
   0  -7   0    5.60    2.00
   0  -7   0    8.00    1.80
   0  -7   0   10.80    2.20
   0   7   0    5.80    1.80
   0   7   0    6.10    1.40
   0   7   0    6.50    1.20
   0   7   0    7.40    2.00
   0   7   0    6.00    1.60
   0   7   0    5.30    1.80
   0   7   0    4.50    1.80
   0   7   0    5.40    2.20
  -1  -7   0   11.10    2.40
  -1  -7   0   19.40    2.80
  -1  -7   0   10.20    1.50
  -1  -7   0   13.10    2.20
  -1  -7   0   11.60    2.10
  -1  -7   0   12.30    1.80
   1   7   0   15.20    2.10
   1   7   0   12.70    2.50
   1   7   0   11.30    2.20
   1   7   0   15.20    1.70
   1   7   0   10.30    2.50
   1   7   0   16.10    2.30
   1   7   0   13.50    2.60
   1   7   0   11.20    1.40
  -2  -7   0   48.30    4.00
  -2  -7   0   50.29    4.20
  -2  -7   0   37.30    4.10
  -2  -7   0   43.70    2.80
   2   7   0   54.79    3.30
   2   7   0   40.90    4.00
   2   7   0   47.40    3.70
   2   7   0   42.20    2.30
   2   7   0   43.20    2.50
   2   7   0   50.99    4.50
  -3  -7   0   96.89    4.50
  -3  -7   0   93.89    5.70
  -3  -7   0   94.49    5.30
  -3  -7   0   82.49    5.50
   3   7   0   95.79    6.00
   3   7   0   83.39    5.10
   3   7   0   83.59    8.40
   3   7   0  103.49    4.80
  -4  -7   0    2.90    1.40
  -4  -7   0    1.40    2.20
  -4  -7   0    5.60    2.40
  -4  -7   0    4.30    2.20
   4   7   0    9.20    3.00
  -5  -7   0   44.70    4.60
  -5  -7   0   46.80    4.50
  -5  -7   0   45.10    4.70
  -5  -7   0   44.00    5.00
   5   7   0   36.20    4.50
  -6  -7   0    5.80    2.80
  -6  -7   0    2.10    2.50
   6   7   0   15.10    3.70
  -7  -7   0    8.60    3.00
  -7  -7   0    7.00    3.50
   7   7   0    8.30    3.50
  -8  -7   0    6.70    3.30
   8   7   0    2.80    3.30
   8  -8   0    0.10    1.60
   8  -8   0   -2.10    3.40
  -8   8   0   -0.60    3.00
  -8   8   0    0.10    2.00
  -8   8   0    4.50    3.90
   7  -8   0    9.60    4.00
   7  -8   0   12.50    2.10
  -7   8   0   11.90    2.50
  -7   8   0   12.40    4.10
  -7   8   0    9.10    2.70
  -7   8   0   12.50    3.50
   6  -8   0   29.60    3.70
   6  -8   0   28.90    4.80
   6  -8   0   26.80    2.80
  -6   8   0   24.30    4.30
  -6   8   0   29.60    3.50
  -6   8   0   23.60    4.30
   5  -8   0    8.90    3.30
   5  -8   0    7.40    2.20
   5  -8   0    6.40    1.70
  -5   8   0    7.90    2.30
  -5   8   0    6.90    3.40
  -5   8   0    7.20    3.30
   4  -8   0   55.69    4.40
   4  -8   0   50.39    3.30
   4  -8   0   57.49    5.60
  -4   8   0   51.29    4.10
  -4   8   0   52.89    5.60
  -4   8   0   46.60    5.00
   3  -8   0  104.59    6.90
   3  -8   0  109.99    5.70
   3  -8   0  112.69    5.00
   3  -8   0   95.49    6.20
  -3   8   0  126.09    7.00
  -3   8   0  109.99    5.50
  -3   8   0  123.59    7.00
   2  -8   0    4.80    1.30
   2  -8   0    2.10    2.30
   2  -8   0    3.90    1.90
   2  -8   0    3.80    1.90
  -2   8   0    1.60    2.60
  -2   8   0    1.90    1.60
  -2   8   0    3.90    2.30
  -2   8   0    8.10    1.70
   1  -8   0   45.30    4.40
   1  -8   0   49.20    4.40
   1  -8   0   47.10    3.70
   1  -8   0   46.50    3.00
  -1   8   0   51.69    5.00
  -1   8   0   59.99    5.50
  -1   8   0   50.99    3.80
  -1   8   0   42.80    2.90
  -1   8   0   47.00    3.10
   0  -8   0   82.99    4.20
   0  -8   0   94.99    5.70
   0  -8   0   83.59    5.80
   0  -8   0   94.49    5.20
   0   8   0   83.29    6.00
   0   8   0   87.19    6.00
   0   8   0   90.99    5.50
   0   8   0   97.79    4.10
   0   8   0   92.19    4.30
   0   8   0   86.39    4.70
  -1  -8   0    6.10    1.40
  -1  -8   0    2.70    2.40
  -1  -8   0    4.00    2.20
  -1  -8   0    5.00    2.00
   1   8   0    7.10    1.30
   1   8   0    5.20    1.80
   1   8   0    4.80    2.60
   1   8   0    2.80    1.80
   1   8   0    7.70    1.50
  -2  -8   0  100.59    6.00
  -2  -8   0   99.79    5.80
  -2  -8   0  103.49    6.50
  -2  -8   0  117.89    5.10
   2   8   0   99.19    6.40
   2   8   0   95.69    5.80
  -3  -8   0   59.99    5.40
  -3  -8   0   51.19    3.50
  -3  -8   0   39.50    4.00
  -3  -8   0   49.90    4.70
   3   8   0   49.50    5.30
   3   8   0   53.49    4.20
  -4  -8   0    3.00    2.30
  -4  -8   0    4.80    2.90
  -4  -8   0    4.40    2.30
   4   8   0    5.60    3.10
  -5  -8   0   22.00    3.80
  -5  -8   0   19.90    3.50
   5   8   0   12.20    3.70
  -6  -8   0    4.10    3.20
  -6  -8   0    3.10    2.70
   6   8   0    3.60    3.30
  -7  -8   0    5.80    2.90
   7   8   0   -2.30    3.00
   7  -9   0    2.30    1.90
   7  -9   0    5.80    4.10
  -7   9   0    2.00    3.60
  -7   9   0    0.80    3.30
   6  -9   0   16.00    2.40
   6  -9   0    4.40    3.70
  -6   9   0   30.30    5.20
  -6   9   0   14.80    4.10
   5  -9   0    9.30    2.70
   5  -9   0   13.30    2.10
   5  -9   0    8.60    3.40
  -5   9   0   13.10    4.00
  -5   9   0   10.70    2.70
  -5   9   0   10.00    3.60
   4  -9   0   26.10    4.30
   4  -9   0   35.90    3.90
   4  -9   0   43.10    3.30
  -4   9   0   39.70    5.10
  -4   9   0   38.90    3.80
  -4   9   0   32.70    4.90
   3  -9   0   96.09    5.70
   3  -9   0   86.19    7.30
   3  -9   0   92.29    4.60
  -3   9   0   83.49    5.10
  -3   9   0   86.49    4.90
  -3   9   0   91.39    6.70
  -3   9   0   85.79    7.20
   2  -9   0   -1.60    1.90
   2  -9   0    1.20    2.40
   2  -9   0    0.60    1.30
  -2   9   0   -1.00    2.60
  -2   9   0   -0.70    1.60
  -2   9   0   -0.80    1.40
  -2   9   0    0.10    2.40
   1  -9   0  131.09    5.80
   1  -9   0  130.49    7.40
   1  -9   0  134.19    7.70
  -1   9   0  122.89    7.70
  -1   9   0  133.29    6.50
  -1   9   0  136.19    5.90
  -1   9   0  127.59    7.60
   0  -9   0   29.80    4.10
   0  -9   0   25.00    3.30
   0  -9   0   23.80    2.40
   0  -9   0   26.20    3.70
   0   9   0   18.50    3.10
   0   9   0   24.50    4.10
   0   9   0   23.20    2.10
   0   9   0   28.80    2.50
   0   9   0   16.80    3.60
  -1  -9   0   23.20    3.30
  -1  -9   0   34.40    4.50
  -1  -9   0   25.50    2.60
  -1  -9   0   29.90    3.80
   1   9   0   28.40    4.40
   1   9   0   21.60    3.40
  -2  -9   0   34.10    4.40
  -2  -9   0   40.90    4.60
  -2  -9   0   38.20    3.20
  -2  -9   0   33.80    3.90
   2   9   0   35.90    4.80
  -3  -9   0    3.70    2.60
  -3  -9   0    7.00    2.60
   3   9   0   -0.30    2.60
  -4  -9   0   18.80    4.00
  -4  -9   0   14.60    3.20
   4   9   0   14.10    4.10
  -5  -9   0   12.90    4.00
  -5  -9   0    7.80    3.00
   5   9   0    9.50    4.10
  -6  -9   0   -0.90    2.80
   6   9   0    0.10    3.30
   6 -10   0    5.00    3.60
   6 -10   0   11.80    2.40
  -6  10   0    5.00    3.60
  -6  10   0    9.30    4.40
   5 -10   0    2.30    3.20
   5 -10   0    1.00    2.30
   5 -10   0   -0.20    1.70
  -5  10   0   -0.30    3.50
  -5  10   0    5.50    3.30
   4 -10   0   14.80    3.90
   4 -10   0   17.20    3.30
   4 -10   0   25.00    2.70
  -4  10   0   18.00    2.80
  -4  10   0   24.00    4.70
  -4  10   0   16.20    4.30
   3 -10   0   39.40    3.40
   3 -10   0   29.10    3.80
   3 -10   0   43.10    5.70
  -3  10   0   33.20    4.90
  -3  10   0   34.20    5.40
  -3  10   0   35.40    3.30
   2 -10   0    4.30    2.60
   2 -10   0    0.20    3.00
   2 -10   0    1.30    1.60
  -2  10   0    1.10    2.90
  -2  10   0    3.50    3.50
  -2  10   0   -0.30    1.70
   1 -10   0   45.30    5.00
   1 -10   0   27.40    2.80
   1 -10   0   38.00    5.10
   1 -10   0   31.90    4.20
  -1  10   0   38.90    5.00
  -1  10   0   37.00    3.00
  -1  10   0   39.00    5.30
   0 -10   0   36.00    4.10
   0 -10   0   46.80    3.70
   0 -10   0   36.70    4.60
   0 -10   0   46.30    5.40
   0  10   0   48.00    5.80
   0  10   0   39.30    5.10
  -1 -10   0    0.90    1.60
  -1 -10   0    4.20    2.60
  -1 -10   0    1.80    2.90
  -1 -10   0    6.40    2.90
   1  10   0    7.50    3.30
   1  10   0   -0.70    2.90
  -2 -10   0   56.99    5.10
  -2 -10   0   56.69    5.70
   2  10   0   66.29    6.70
  -3 -10   0    8.20    2.90
  -3 -10   0    1.90    3.20
   3  10   0    5.60    3.30
  -4 -10   0   10.30    3.50
  -4 -10   0    8.90    3.60
   4  10   0   11.60    4.10
  -5 -10   0    7.80    3.40
   5  10   0   10.70    4.20
   5 -11   0    3.10    2.10
   5 -11   0    7.50    4.00
  -5  11   0   -2.20    3.90
  -5  11   0    4.90    4.10
  -5  11   0    1.60    2.10
   4 -11   0   36.40    5.80
   4 -11   0   39.10    5.10
   4 -11   0   37.10    3.60
  -4  11   0   24.70    5.80
  -4  11   0   36.10    3.40
  -4  11   0   34.60    5.80
   3 -11   0    3.30    2.80
   3 -11   0   -0.80    3.40
   3 -11   0    2.10    1.90
  -3  11   0    2.20    3.30
  -3  11   0    3.40    2.00
  -3  11   0    6.10    3.80
   2 -11   0    5.50    2.20
   2 -11   0    5.70    3.80
   2 -11   0    1.90    2.70
  -2  11   0    4.10    3.80
  -2  11   0    9.90    2.10
  -2  11   0    5.70    3.80
   1 -11   0   25.40    3.80
   1 -11   0   23.20    4.80
   1 -11   0   20.70    3.00
  -1  11   0   25.40    4.90
  -1  11   0   21.70    4.90
   0 -11   0    8.90    2.30
   0 -11   0    0.50    2.60
   0 -11   0    4.50    3.70
   0  11   0    1.70    3.60
   0  11   0    3.40    3.30
  -1 -11   0    5.60    2.80
  -1 -11   0    2.80    2.10
  -1 -11   0    2.10    3.10
   1  11   0    1.60    3.30
   1  11   0    5.50    3.70
  -2 -11   0   21.70    4.70
  -2 -11   0    7.40    3.10
   2  11   0    4.60    3.50
   2  11   0   11.20    3.90
  -3 -11   0    5.20    3.50
  -3 -11   0   -1.10    2.60
   3  11   0    5.60    3.80
   2 -12   0    7.10    3.10
   2 -12   0    3.70    2.30
   2 -12   0    2.10    3.70
  -2  12   0    4.50    4.90
  -2  12   0   -4.10    3.70
   1 -12   0    8.60    2.70
   1 -12   0    4.00    3.80
   1 -12   0   12.00    3.40
  -1  12   0   15.20    5.50
  -1  12   0   10.90    4.40
   0 -12   0    6.70    2.60
   0 -12   0    1.90    2.90
   0 -12   0    6.50    3.80
   0  12   0    2.80    4.00
   0  12  -1   14.10    4.10
   0  12  -1    7.50    3.90
   0 -12   1   16.80    3.60
   0 -12   1   14.50    2.90
   0 -12   1   12.70    4.10
  -1  12  -1    4.50    3.80
  -1  12  -1    6.10    4.30
   1 -12   1    4.20    2.30
   1 -12   1    5.70    4.00
  -2  12  -1   12.80    2.60
  -2  12  -1    6.50    4.60
  -2  12  -1   14.70    4.70
   2 -12   1   15.50    4.50
   2 -12   1   12.80    2.80
   3  11  -1   11.50    4.20
  -3 -11   1    4.40    3.00
  -3 -11   1    4.00    2.30
  -3 -11   1    6.80    3.60
   2  11  -1    2.80    3.50
  -2 -11   1    5.20    2.40
  -2 -11   1   -0.40    3.30
  -2 -11   1    8.60    2.90
   1  11  -1   11.30    4.20
   1  11  -1    2.10    3.50
  -1 -11   1   10.20    3.10
  -1 -11   1    6.20    3.60
  -1 -11   1    4.30    2.10
   0  11  -1   39.10    5.70
   0  11  -1   32.20    5.20
   0  11  -1   41.20    3.40
   0 -11   1   39.10    5.10
   0 -11   1   39.10    4.60
   0 -11   1   43.50    3.90
   0 -11   1   37.10    5.40
  -1  11  -1   -1.40    1.90
  -1  11  -1    2.10    3.40
  -1  11  -1   -7.20    2.60
   1 -11   1    4.60    3.40
   1 -11   1    1.90    2.60
   1 -11   1   -3.20    1.60
  -2  11  -1   16.70    2.90
  -2  11  -1   13.60    4.50
  -2  11  -1   12.60    4.20
   2 -11   1   15.20    3.40
   2 -11   1   23.10    2.90
   2 -11   1    9.80    4.20
  -3  11  -1    6.20    2.40
  -3  11  -1    4.40    3.90
  -3  11  -1    8.00    3.90
   3 -11   1   11.10    4.50
   3 -11   1    5.60    2.10
   3 -11   1    7.00    3.90
  -4  11  -1    3.00    3.80
  -4  11  -1    0.10    2.10
  -4  11  -1   -2.00    3.10
   4 -11   1    0.30    1.90
   4 -11   1    0.00    3.70
  -5  11  -1    7.60    4.10
  -5  11  -1    2.80    2.40
  -5  11  -1   -3.90    3.70
   5 -11   1    0.30    3.90
   5 -11   1    2.40    2.00
   5  10  -1    1.30    3.90
  -5 -10   1    3.80    3.50
  -5 -10   1    1.20    2.90
   4  10  -1   -0.30    3.50
  -4 -10   1    3.00    2.70
  -4 -10   1    1.70    3.20
  -4 -10   1    0.70    2.10
   3  10  -1   19.00    4.40
  -3 -10   1   21.20    4.40
  -3 -10   1   29.30    3.30
  -3 -10   1   25.30    3.80
   2  10  -1    6.40    3.50
  -2 -10   1   13.00    3.90
  -2 -10   1   12.10    2.20
  -2 -10   1   12.40    3.40
  -2 -10   1   10.00    2.90
   1  10  -1   34.20    5.10
   1  10  -1   37.60    5.50
   1  10  -1   36.60    3.10
  -1 -10   1   26.00    3.60
  -1 -10   1   28.60    4.30
  -1 -10   1   38.90    4.50
  -1 -10   1   33.00    3.20
   0  10  -1   30.30    3.10
   0  10  -1   34.60    5.10
   0  10  -1   31.50    4.90
   0 -10   1   20.30    4.10
   0 -10   1   33.90    4.70
   0 -10   1   32.10    3.20
   0 -10   1   30.30    3.90
  -1  10  -1   -1.90    1.70
  -1  10  -1    1.10    2.80
  -1  10  -1   -0.10    2.90
   1 -10   1   -1.70    2.10
   1 -10   1    1.70    1.60
   1 -10   1   -0.60    2.50
   1 -10   1   -1.20    2.80
  -2  10  -1   27.80    4.50
  -2  10  -1   32.00    3.40
  -2  10  -1   33.50    5.30
   2 -10   1   31.90    3.10
   2 -10   1   24.00    4.60
   2 -10   1   26.30    3.70
  -3  10  -1   38.70    5.30
  -3  10  -1   38.00    3.50
  -3  10  -1   30.90    4.90
   3 -10   1   33.40    3.10
   3 -10   1   33.70    3.90
   3 -10   1   25.80    4.50
  -4  10  -1   -3.70    2.70
  -4  10  -1    3.90    3.60
   4 -10   1    0.10    3.30
   4 -10   1    0.30    1.60
   4 -10   1   -1.80    2.10
  -5  10  -1   15.00    4.30
  -5  10  -1   14.60    4.30
   5 -10   1   27.00    2.80
   5 -10   1   18.90    4.80
  -6  10  -1   11.70    4.60
  -6  10  -1   10.30    4.60
   6 -10   1    8.50    2.00
   6 -10   1   14.70    4.80
   6   9  -1    8.20    4.00
  -6  -9   1    6.90    3.20
  -6  -9   1    1.90    3.40
   5   9  -1    5.60    3.40
  -5  -9   1    0.80    2.50
  -5  -9   1   -2.40    3.20
   4   9  -1   10.30    3.70
  -4  -9   1   10.40    3.40
  -4  -9   1   12.00    2.30
  -4  -9   1    9.20    2.70
   3   9  -1    5.40    1.20
   3   9  -1    1.00    2.90
  -3  -9   1    5.20    3.10
  -3  -9   1    5.20    1.80
  -3  -9   1    2.80    2.30
  -3  -9   1    7.80    2.90
   2   9  -1   -0.50    1.70
   2   9  -1    1.00    1.50
   2   9  -1   -1.00    2.50
  -2  -9   1    0.00    2.60
  -2  -9   1    1.00    2.40
  -2  -9   1    1.80    1.50
  -2  -9   1   -2.00    1.90
   1   9  -1    3.90    2.50
   1   9  -1    0.70    2.00
   1   9  -1    4.30    2.80
   1   9  -1    2.00    1.60
  -1  -9   1   -0.40    2.10
  -1  -9   1    5.90    2.90
  -1  -9   1    1.80    1.50
  -1  -9   1    3.30    2.50
   0   9  -1   63.59    5.80
   0   9  -1   62.19    4.10
   0   9  -1   67.09    4.90
   0   9  -1   59.89    5.90
   0   9  -1   63.39    5.10
   0  -9   1   61.09    3.80
   0  -9   1   58.49    4.80
   0  -9   1   55.59    5.10
   0  -9   1   70.59    6.00
  -1   9  -1    7.10    2.10
  -1   9  -1    4.80    2.80
  -1   9  -1    7.40    2.90
  -1   9  -1    4.80    1.80
   1  -9   1    7.40    2.90
   1  -9   1    4.20    2.30
   1  -9   1    1.10    2.30
   1  -9   1    8.60    1.80
  -2   9  -1   28.40    4.40
  -2   9  -1   31.10    3.30
  -2   9  -1   41.40    3.50
  -2   9  -1   42.80    5.20
   2  -9   1   33.80    3.50
   2  -9   1   36.10    4.50
   2  -9   1   33.10    2.80
  -3   9  -1   58.59    6.10
  -3   9  -1   64.89    6.20
  -3   9  -1   64.49    4.70
   3  -9   1   61.89    3.60
   3  -9   1   51.49    4.30
   3  -9   1   40.00    5.10
  -4   9  -1    1.20    2.60
  -4   9  -1    1.80    2.10
  -4   9  -1    3.60    3.30
   4  -9   1   -0.40    2.90
   4  -9   1    3.40    2.10
   4  -9   1    1.60    1.40
  -5   9  -1   58.19    6.50
  -5   9  -1   57.29    4.80
  -5   9  -1   59.29    6.10
   5  -9   1   62.89    5.40
   5  -9   1   60.89    3.90
   5  -9   1   51.79    6.00
  -6   9  -1   16.90    4.40
  -6   9  -1   15.40    3.10
  -6   9  -1   14.80    4.00
   6  -9   1    9.30    2.00
   6  -9   1   17.40    4.60
  -7   9  -1    7.30    2.90
  -7   9  -1    9.50    4.20
  -7   9  -1   10.70    4.40
   7  -9   1    0.80    3.90
   7  -9   1    7.50    1.80
   7   8  -1    7.30    3.80
  -7  -8   1    2.00    3.50
  -7  -8   1    4.50    3.00
   6   8  -1    5.40    3.40
  -6  -8   1    7.50    3.10
  -6  -8   1    3.30    3.40
   5   8  -1    0.20    3.00
  -5  -8   1    5.60    2.60
  -5  -8   1   -0.30    2.60
  -5  -8   1    1.20    1.70
  -5  -8   1    1.90    2.90
   4   8  -1    0.60    1.70
   4   8  -1   -4.30    2.40
  -4  -8   1   -0.40    2.60
  -4  -8   1   -0.30    1.40
  -4  -8   1    0.20    2.30
  -4  -8   1    2.40    2.20
  -4  -8   1    1.50    2.50
   3   8  -1   91.39    4.30
   3   8  -1   89.69    6.50
   3   8  -1   89.09    5.60
   3   8  -1   84.09    3.90
  -3  -8   1   84.19    5.30
  -3  -8   1   87.29    4.60
  -3  -8   1   93.29    6.00
  -3  -8   1   76.89    5.70
   2   8  -1   93.59    5.80
   2   8  -1  103.99    5.30
   2   8  -1   86.49    5.70
   2   8  -1  104.99    6.50
   2   8  -1  100.29    4.70
  -2  -8   1   98.89    6.10
  -2  -8   1   89.19    6.10
  -2  -8   1   89.39    5.50
  -2  -8   1   98.09    4.70
   1   8  -1  191.98    7.50
   1   8  -1  165.98    7.70
   1   8  -1  187.58    8.70
   1   8  -1  196.18    9.20
  -1  -8   1  182.08    7.30
  -1  -8   1  189.48    8.70
  -1  -8   1  190.18    9.00
  -1  -8   1  175.68    8.10
   0   8  -1  276.67   11.30
   0   8  -1  333.67   13.00
   0   8  -1  293.57   12.50
   0   8  -1  305.57   11.10
   0   8  -1  296.07   12.80
   0  -8   1  285.97   12.30
   0  -8   1  307.27   12.20
   0  -8   1  298.97   11.60
   0  -8   1  302.97   10.80
  -1   8  -1    9.20    2.40
  -1   8  -1   11.20    2.20
  -1   8  -1    8.90    2.70
  -1   8  -1   13.10    2.70
  -1   8  -1   12.50    2.00
  -1   8  -1   11.30    3.00
   1  -8   1   10.80    2.70
   1  -8   1   12.90    2.80
   1  -8   1   15.40    1.80
   1  -8   1   11.40    2.20
  -2   8  -1  192.28    8.20
  -2   8  -1  189.28    9.50
  -2   8  -1  188.48    9.30
  -2   8  -1  195.08    9.00
   2  -8   1  201.58    8.30
   2  -8   1  191.78    7.50
   2  -8   1  198.18    9.40
  -3   8  -1   46.00    4.80
  -3   8  -1   56.89    4.20
  -3   8  -1   39.00    4.50
   3  -8   1   49.60    3.10
   3  -8   1   51.59    4.10
   3  -8   1   39.50    4.60
  -4   8  -1    1.90    2.40
  -4   8  -1    0.50    1.90
  -4   8  -1   -0.10    2.10
   4  -8   1    0.60    1.20
   4  -8   1    0.80    1.70
   4  -8   1    2.00    2.50
  -5   8  -1   40.30    5.10
  -5   8  -1   43.60    4.10
  -5   8  -1   48.40    5.60
   5  -8   1   49.20    4.20
   5  -8   1   49.50    3.30
   5  -8   1   46.50    5.30
  -6   8  -1   52.59    4.60
  -6   8  -1   56.19    4.80
  -6   8  -1   72.09    6.50
  -6   8  -1   58.99    6.20
   6  -8   1   51.49    5.90
   6  -8   1   60.19    3.60
  -7   8  -1    4.10    2.50
  -7   8  -1    2.90    3.30
  -7   8  -1   -1.80    3.20
  -7   8  -1    2.50    1.80
   7  -8   1    1.50    3.80
   7  -8   1    4.80    1.60
  -8   8  -1   18.70    5.10
  -8   8  -1    8.40    2.40
  -8   8  -1   15.10    3.40
   8  -8   1   16.50    5.10
   8  -8   1   16.50    1.80
   8   7  -1   -1.70    3.10
  -8  -7   1    1.60    2.90
  -8  -7   1    5.60    3.30
  -8  -7   1    3.50    3.50
   7   7  -1    2.30    3.10
  -7  -7   1    0.20    3.20
  -7  -7   1    2.50    2.60
   6   7  -1   12.50    3.50
  -6  -7   1   14.70    3.50
  -6  -7   1   11.20    2.40
  -6  -7   1   15.20    3.30
   5   7  -1    1.80    2.70
  -5  -7   1    8.90    1.80
  -5  -7   1    6.40    2.70
  -5  -7   1    9.50    3.10
  -5  -7   1    8.90    2.60
  -5  -7   1    6.20    2.50
   4   7  -1    5.00    3.00
   4   7  -1    2.30    1.00
   4   7  -1    2.20    2.40
   4   7  -1    3.20    1.30
  -4  -7   1    3.90    2.10
  -4  -7   1    4.80    2.20
  -4  -7   1    3.80    2.20
  -4  -7   1    3.80    1.40
  -4  -7   1    1.00    2.10
   3   7  -1  145.49    7.40
   3   7  -1  116.29    5.80
   3   7  -1  125.59    6.50
   3   7  -1  131.59    5.40
   3   7  -1  124.69    5.20
  -3  -7   1  125.09    6.30
  -3  -7   1  133.19    7.10
  -3  -7   1  128.19    5.60
  -3  -7   1  126.39    6.60
   2   7  -1   23.10    3.50
   2   7  -1   27.30    2.80
   2   7  -1   26.40    3.20
   2   7  -1   26.30    3.20
   2   7  -1   20.30    2.90
   2   7  -1   27.30    2.40
   2   7  -1   26.90    2.20
  -2  -7   1   23.70    3.20
  -2  -7   1   26.60    3.20
  -2  -7   1   27.70    2.30
  -2  -7   1   22.20    2.40
  -2  -7   1   29.70    3.20
   1   7  -1  178.08    8.20
   1   7  -1  177.58    7.50
   1   7  -1  141.49   10.40
   1   7  -1  171.98    7.00
   1   7  -1  186.78    8.50
   1   7  -1  182.28    8.20
   1   7  -1  192.08    7.30
   1   7  -1  176.28    8.40
  -1  -7   1  195.98    8.50
  -1  -7   1  181.58    7.80
  -1  -7   1  192.88    7.10
  -1  -7   1  187.58    8.10
  -1  -7   1  196.48    8.10
  -1  -7   1  189.88    7.50
   0   7  -1  188.08    7.40
   0   7  -1  185.38    7.80
   0   7  -1  196.88    8.80
   0   7  -1  202.78    8.90
   0   7  -1  198.68    8.50
   0   7  -1  190.78    8.70
   0   7  -1  201.58    7.60
   0   7  -1  188.88    8.90
   0  -7   1  180.18    8.50
   0  -7   1  208.78    8.40
   0  -7   1  203.98    8.50
   0  -7   1  202.28    7.90
   0  -7   1  190.88    8.00
   0  -7   1  189.68    7.30
  -1   7  -1   38.00    3.60
  -1   7  -1   43.90    4.30
  -1   7  -1   36.30    3.70
  -1   7  -1   44.90    4.30
  -1   7  -1   43.80    2.90
  -1   7  -1   41.40    4.00
  -1   7  -1   41.90    3.20
  -1   7  -1   38.50    2.60
  -1   7  -1   47.60    4.10
   1  -7   1   38.90    3.80
   1  -7   1   39.30    3.90
   1  -7   1   39.30    3.20
   1  -7   1   42.50    3.90
   1  -7   1   43.10    3.90
   1  -7   1   42.20    2.90
   1  -7   1   41.60    2.50
  -2   7  -1  128.89    7.60
  -2   7  -1  128.59    6.70
  -2   7  -1  125.79    6.30
  -2   7  -1  125.39    5.70
  -2   7  -1  135.59    7.00
   2  -7   1  120.99    6.50
   2  -7   1  136.29    5.90
   2  -7   1  126.39    6.50
   2  -7   1  117.19    5.10
  -3   7  -1   44.10    3.90
  -3   7  -1   59.39    5.20
  -3   7  -1   49.30    4.60
  -3   7  -1   49.00    3.70
   3  -7   1   50.39    4.10
   3  -7   1   59.39    5.00
   3  -7   1   47.50    2.80
   3  -7   1   44.10    3.40
  -4   7  -1    3.00    1.90
  -4   7  -1    2.20    1.30
  -4   7  -1    5.40    2.60
  -4   7  -1    7.10    2.60
  -4   7  -1    6.30    1.90
   4  -7   1    1.20    2.10
   4  -7   1    5.00    2.10
   4  -7   1    3.40    1.20
   4  -7   1    0.60    1.60
  -5   7  -1  104.69    6.50
  -5   7  -1  103.09    6.90
  -5   7  -1  105.29    5.70
  -5   7  -1  106.19    5.50
  -5   7  -1  100.79    6.10
   5  -7   1  105.59    5.50
   5  -7   1  114.09    4.80
   5  -7   1  116.09    7.00
  -6   7  -1    7.20    2.90
  -6   7  -1   12.20    3.40
  -6   7  -1    4.90    2.30
  -6   7  -1    7.30    2.10
   6  -7   1    7.90    2.10
   6  -7   1    6.70    3.20
   6  -7   1    9.10    1.60
  -7   7  -1    8.00    3.10
  -7   7  -1    7.60    2.40
  -7   7  -1    8.00    3.80
  -7   7  -1    3.80    2.40
   7  -7   1    9.00    1.60
   7  -7   1    7.70    3.70
  -8   7  -1    4.70    2.10
  -8   7  -1    7.60    2.80
  -8   7  -1   13.20    3.70
  -8   7  -1    7.60    3.70
   8  -7   1   14.70    4.50
   8  -7   1   11.50    1.50
  -9   7  -1    2.50    3.70
  -9   7  -1   -1.30    2.80
  -9   7  -1    1.90    2.00
   9  -7   1    3.30    3.70
   8   6  -1    8.80    3.70
  -8  -6   1   11.00    3.80
  -8  -6   1    2.20    3.10
   7   6  -1   16.30    4.00
  -7  -6   1    9.00    3.30
  -7  -6   1    9.30    2.80
   6   6  -1   79.89    6.90
  -6  -6   1   80.69    5.60
  -6  -6   1   87.19    4.90
  -6  -6   1   85.69    5.60
  -6  -6   1   88.09    6.10
  -6  -6   1   81.89    6.10
   5   6  -1    3.30    1.10
   5   6  -1    6.30    2.80
   5   6  -1    3.20    1.00
  -5  -6   1    4.80    2.20
  -5  -6   1    4.20    1.50
  -5  -6   1    0.00    1.90
  -5  -6   1    4.80    2.30
  -5  -6   1    1.50    1.90
   4   6  -1  134.39    7.30
   4   6  -1  142.79    6.30
   4   6  -1  128.99    8.00
   4   6  -1  145.49    5.80
   4   6  -1  148.79    5.50
  -4  -6   1  140.59    7.20
  -4  -6   1  138.49    6.00
  -4  -6   1  145.39    6.80
  -4  -6   1  142.19    7.00
  -4  -6   1  159.88    6.40
  -4  -6   1  149.09    7.40
   3   6  -1    9.60    2.10
   3   6  -1   16.10    2.80
   3   6  -1   13.70    1.70
   3   6  -1   14.20    2.50
   3   6  -1   13.80    1.50
   3   6  -1   11.50    2.10
   3   6  -1   16.40    2.20
  -3  -6   1   11.20    2.40
  -3  -6   1   14.20    2.10
  -3  -6   1   10.90    1.50
  -3  -6   1   19.00    2.50
  -3  -6   1   12.30    2.40
  -3  -6   1   12.60    1.80
   2   6  -1    3.30    1.40
   2   6  -1    2.20    2.00
   2   6  -1    1.80    1.40
   2   6  -1    3.20    1.50
   2   6  -1    1.30    1.10
   2   6  -1    3.10    1.50
   2   6  -1    1.10    0.80
   2   6  -1    3.50    1.50
  -2  -6   1    1.90    1.60
  -2  -6   1    0.50    1.10
  -2  -6   1    4.10    1.50
  -2  -6   1    1.30    1.00
  -2  -6   1    1.60    0.90
  -2  -6   1    0.70    1.60
  -2  -6   1    1.50    1.50
   1   6  -1   45.70    3.60
   1   6  -1   44.50    2.70
   1   6  -1   48.60    4.20
   1   6  -1   46.30    2.50
   1   6  -1   44.00    3.60
   1   6  -1   42.20    3.30
   1   6  -1   46.00    3.00
   1   6  -1   39.90    3.40
  -1  -6   1   45.10    3.30
  -1  -6   1   42.40    3.80
  -1  -6   1   42.90    3.10
  -1  -6   1   45.20    3.10
  -1  -6   1   48.80    2.90
  -1  -6   1   46.40    2.50
  -1  -6   1   48.10    3.50
  -1  -6   1   45.50    3.60
   0   6  -1  401.86   15.00
   0   6  -1  372.36   13.90
   0   6  -1  395.96   13.70
   0   6  -1  417.06   15.10
   0   6  -1  413.66   14.90
   0   6  -1  396.46   14.80
   0   6  -1  416.56   13.90
   0   6  -1  399.46   14.60
   0  -6   1  407.76   13.60
   0  -6   1  408.56   14.10
   0  -6   1  391.36   14.80
   0  -6   1  402.36   14.50
   0  -6   1  382.26   14.90
   0  -6   1  406.46   14.80
   0  -6   1  395.76   14.60
   0  -6   1  396.86   14.00
  -1   6  -1    9.00    2.10
  -1   6  -1   11.70    2.20
  -1   6  -1   14.10    2.20
  -1   6  -1    8.80    1.80
  -1   6  -1   10.30    1.80
  -1   6  -1   10.80    2.00
  -1   6  -1   11.20    2.00
  -1   6  -1   11.50    1.80
  -1   6  -1   10.70    1.40
   1  -6   1   15.40    1.90
   1  -6   1   11.10    2.10
   1  -6   1   10.20    1.60
   1  -6   1    9.40    1.80
   1  -6   1   12.90    1.60
   1  -6   1   14.40    2.30
   1  -6   1   11.10    1.80
   1  -6   1    7.80    1.10
   1  -6   1   14.90    2.50
  -2   6  -1  623.34   22.10
  -2   6  -1  611.74   21.20
  -2   6  -1  627.84   22.10
  -2   6  -1  640.14   21.90
  -2   6  -1  660.93   21.90
  -2   6  -1  626.64   22.20
  -2   6  -1  630.84   22.00
  -2   6  -1  589.34   20.90
   2  -6   1  636.74   21.20
   2  -6   1  630.54   22.00
   2  -6   1  640.64   21.60
   2  -6   1  610.84   21.00
   2  -6   1  633.34   22.10
   2  -6   1  608.74   22.20
   2  -6   1  637.34   20.70
   2  -6   1  619.74   21.20
   2  -6   1  621.34   22.00
  -3   6  -1   67.59    4.40
  -3   6  -1   68.89    4.40
  -3   6  -1   67.59    3.80
  -3   6  -1   73.49    4.50
  -3   6  -1   74.29    4.70
  -3   6  -1   70.19    3.90
  -3   6  -1   78.19    4.50
  -3   6  -1   70.09    4.60
   3  -6   1   70.69    4.80
   3  -6   1   71.89    3.60
   3  -6   1   73.79    3.30
   3  -6   1   76.09    4.60
   3  -6   1   68.79    4.60
   3  -6   1   71.29    3.80
   3  -6   1   69.39    4.50
   3  -6   1   68.09    3.90
  -4   6  -1  113.69    5.50
  -4   6  -1  110.79    5.90
  -4   6  -1  126.19    6.20
  -4   6  -1  115.89    6.40
  -4   6  -1  127.19    5.60
  -4   6  -1  121.09    6.50
   4  -6   1  114.99    5.50
   4  -6   1  123.69    6.40
   4  -6   1  118.19    6.40
   4  -6   1  107.89    6.20
   4  -6   1  113.39    5.80
   4  -6   1  118.19    5.00
   4  -6   1  125.89    4.90
  -5   6  -1   23.40    3.50
  -5   6  -1   22.70    2.70
  -5   6  -1   22.00    3.50
  -5   6  -1   21.30    2.80
  -5   6  -1   22.30    2.60
   5  -6   1   26.70    2.80
   5  -6   1   31.70    3.80
   5  -6   1   26.60    2.20
   5  -6   1   24.10    3.50
  -6   6  -1    4.90    1.90
  -6   6  -1    6.30    2.20
  -6   6  -1    4.90    2.60
  -6   6  -1    8.60    2.20
  -6   6  -1    7.90    3.00
   6  -6   1    8.70    2.80
   6  -6   1    8.10    1.40
   6  -6   1    7.40    2.00
  -7   6  -1    6.10    2.70
  -7   6  -1    6.10    2.20
  -7   6  -1    6.50    3.00
  -7   6  -1    7.70    2.30
   7  -6   1    7.20    1.40
   7  -6   1    5.40    2.90
  -8   6  -1   10.40    2.50
  -8   6  -1   14.00    2.80
  -8   6  -1   10.40    3.40
  -8   6  -1    9.80    3.30
   8  -6   1    8.50    1.20
   8  -6   1   12.40    4.00
  -9   6  -1    4.70    3.60
  -9   6  -1    1.20    1.90
  -9   6  -1    0.70    2.50
   9  -6   1    2.10    3.80
   9   5  -1    0.30    3.60
  -9  -5   1    1.20    3.10
  -9  -5   1    0.30    3.10
   8   5  -1   -0.80    3.10
  -8  -5   1   11.20    3.50
  -8  -5   1    3.50    2.90
   7   5  -1   15.60    3.90
  -7  -5   1   12.70    3.10
  -7  -5   1   11.50    3.00
  -7  -5   1   20.30    3.80
  -7  -5   1   13.30    2.50
  -7  -5   1   12.10    3.00
  -7  -5   1   12.10    3.30
   6   5  -1   40.80    4.40
   6   5  -1   37.90    2.10
   6   5  -1   39.90    4.70
   6   5  -1   45.40    2.50
  -6  -5   1   53.69    4.70
  -6  -5   1   34.00    3.10
  -6  -5   1   39.40    4.30
  -6  -5   1   46.70    4.60
   5   5  -1    1.50    1.90
   5   5  -1    0.00    2.20
   5   5  -1    0.10    0.80
   5   5  -1   -0.30    1.40
   5   5  -1    0.20    1.00
   5   5  -1   -0.90    1.50
  -5  -5   1   -0.20    1.60
  -5  -5   1    0.00    1.60
  -5  -5   1   -0.50    1.10
  -5  -5   1    0.10    1.90
  -5  -5   1    1.60    1.80
  -5  -5   1    2.00    1.50
   4   5  -1  122.29    6.00
   4   5  -1  121.69    4.90
   4   5  -1  130.79    6.50
   4   5  -1  121.49    5.50
   4   5  -1  135.29    6.50
   4   5  -1  124.79    6.50
   4   5  -1  123.19    5.10
  -4  -5   1  120.39    6.30
  -4  -5   1  127.19    6.30
  -4  -5   1  127.09    5.30
  -4  -5   1  116.69    5.90
  -4  -5   1  121.99    5.40
  -4  -5   1  132.19    6.10
  -4  -5   1  125.69    6.00
   3   5  -1  269.77   10.60
   3   5  -1  255.77    9.20
   3   5  -1  256.47   10.20
   3   5  -1  273.07    9.70
   3   5  -1  255.67    9.40
   3   5  -1  258.37   10.60
   3   5  -1  275.07   10.70
  -3  -5   1  264.77   10.10
  -3  -5   1  242.68   10.40
  -3  -5   1  274.07    9.50
  -3  -5   1  254.77   10.20
  -3  -5   1  256.47   10.30
  -3  -5   1  274.67   10.00
  -3  -5   1  270.47    9.70
  -3  -5   1  275.67   10.10
   2   5  -1   96.79    5.10
   2   5  -1   99.79    4.10
   2   5  -1  103.79    4.30
   2   5  -1  104.49    5.40
   2   5  -1  109.29    4.50
   2   5  -1   97.69    4.90
  -2  -5   1  107.89    5.30
  -2  -5   1   99.59    4.70
  -2  -5   1  107.29    5.30
  -2  -5   1   97.69    4.30
  -2  -5   1   97.19    4.10
  -2  -5   1  103.09    4.90
  -2  -5   1  106.79    5.20
  -2  -5   1   98.59    4.70
  -2  -5   1   98.79    4.90
   1   5  -1  736.53   24.40
   1   5  -1  699.43   23.30
   1   5  -1  659.23   23.80
   1   5  -1  688.93   24.00
   1   5  -1  705.63   24.20
   1   5  -1  672.93   24.20
   1   5  -1  711.73   23.10
   1   5  -1  724.83   23.20
  -1  -5   1  727.63   23.00
  -1  -5   1  733.63   24.20
  -1  -5   1  709.43   23.30
  -1  -5   1  681.93   24.10
  -1  -5   1  742.13   24.00
  -1  -5   1  709.03   23.80
  -1  -5   1  687.53   24.00
  -1  -5   1  694.33   23.50
   0   5  -1   48.10    3.30
   0   5  -1   48.60    2.50
   0   5  -1   47.60    3.20
   0   5  -1   47.00    2.40
   0   5  -1   56.39    3.50
   0   5  -1   42.10    2.70
   0   5  -1   45.90    3.10
   0   5  -1   39.70    2.90
   0  -5   1   46.10    3.00
   0  -5   1   47.80    3.20
   0  -5   1   46.40    2.60
   0  -5   1   54.89    3.20
   0  -5   1   47.20    2.40
   0  -5   1   54.49    3.20
   0  -5   1   49.40    2.30
   0  -5   1   41.00    3.10
   0  -5   1   46.80    2.80
  -1   5  -1  135.29    5.90
  -1   5  -1  129.19    5.90
  -1   5  -1  120.19    5.70
  -1   5  -1  123.69    5.60
  -1   5  -1  121.79    5.50
  -1   5  -1  122.59    4.90
  -1   5  -1  125.29    5.90
  -1   5  -1  126.39    5.60
  -1   5  -1  127.49    5.20
   1  -5   1  122.39    5.80
   1  -5   1  122.79    5.70
   1  -5   1  128.09    5.20
   1  -5   1  123.69    5.10
   1  -5   1  120.09    4.70
   1  -5   1  133.09    5.70
   1  -5   1  131.79    5.70
   1  -5   1  133.49    6.00
   1  -5   1  122.69    5.00
   1  -5   1  126.99    5.50
  -2   5  -1  259.67    9.40
  -2   5  -1  267.27   10.20
  -2   5  -1  255.77    9.40
  -2   5  -1  255.97    9.90
  -2   5  -1  254.77    9.90
  -2   5  -1  250.57   10.00
  -2   5  -1  268.87    9.90
  -2   5  -1  263.67   10.10
  -2   5  -1  254.27    9.20
   2  -5   1  253.87   10.00
   2  -5   1  258.57    9.40
   2  -5   1  256.87    9.40
   2  -5   1  256.97    9.00
   2  -5   1  252.07   10.00
   2  -5   1  266.87   10.10
   2  -5   1  266.37    9.30
   2  -5   1  270.87    9.80
   2  -5   1  255.07   10.20
  -3   5  -1  322.37   10.90
  -3   5  -1  295.77   11.40
  -3   5  -1  292.87   11.40
  -3   5  -1  293.87   11.20
  -3   5  -1  312.47   11.60
  -3   5  -1  306.17   11.50
  -3   5  -1  289.07   10.70
  -3   5  -1  292.37   11.30
   3  -5   1  293.17   11.40
   3  -5   1  307.77   10.80
   3  -5   1  300.17   10.50
   3  -5   1  305.77   11.30
   3  -5   1  309.27   11.70
   3  -5   1  297.67   11.10
   3  -5   1  297.97   11.50
   3  -5   1  288.67   11.50
   3  -5   1  298.07   10.30
   3  -5   1  272.17   10.60
  -4   5  -1   95.29    5.40
  -4   5  -1   92.49    4.40
  -4   5  -1   95.29    5.10
  -4   5  -1   92.09    4.50
  -4   5  -1   89.89    5.00
  -4   5  -1   87.79    4.90
  -4   5  -1   95.89    5.30
  -4   5  -1   88.79    4.80
   4  -5   1   88.69    4.80
   4  -5   1   99.69    5.20
   4  -5   1   80.79    4.60
   4  -5   1   92.69    5.30
   4  -5   1   88.99    4.00
   4  -5   1   94.69    3.90
   4  -5   1   91.49    4.40
   4  -5   1   85.19    5.00
   4  -5   1  100.49    5.50
  -5   5  -1  595.94   21.50
  -5   5  -1  590.64   20.50
  -5   5  -1  572.94   20.80
  -5   5  -1  568.54   21.20
  -5   5  -1  602.14   21.20
  -5   5  -1  573.74   20.20
   5  -5   1  595.24   19.80
   5  -5   1  600.24   21.60
   5  -5   1  615.54   21.40
   5  -5   1  579.54   20.80
   5  -5   1  614.04   21.50
   5  -5   1  593.44   20.30
   5  -5   1  607.24   19.60
  -6   5  -1    5.60    2.00
  -6   5  -1   11.10    2.70
  -6   5  -1    7.20    2.00
  -6   5  -1    7.50    1.90
  -6   5  -1   11.10    2.60
   6  -5   1    6.90    1.80
   6  -5   1    8.90    1.40
   6  -5   1    8.50    1.30
   6  -5   1    8.10    2.70
  -7   5  -1  120.89    6.00
  -7   5  -1  108.19    7.20
  -7   5  -1  112.69    6.90
  -7   5  -1  121.79    6.50
   7  -5   1  119.29    7.50
   7  -5   1  120.99    4.70
   7  -5   1  108.69    4.60
  -8   5  -1   -0.10    2.10
  -8   5  -1    2.70    1.80
  -8   5  -1    2.00    2.60
  -8   5  -1   -0.30    2.40
   8  -5   1    1.80    2.90
  -9   5  -1    3.40    3.50
  -9   5  -1    1.70    2.10
  -9   5  -1    2.50    2.50
   9  -5   1   -2.00    2.80
 -10   5  -1    1.80    2.70
 -10   5  -1    0.90    3.70
  10  -5   1    5.50    6.70
   9   4  -1   13.60    4.20
  -9  -4   1    6.90    3.40
  -9  -4   1    7.30    3.30
   8   4  -1    0.50    2.60
  -8  -4   1    2.80    1.90
  -8  -4   1    1.30    2.70
  -8  -4   1   -2.30    2.50
   7   4  -1    4.30    2.60
  -7  -4   1    5.50    2.20
  -7  -4   1    3.80    2.40
  -7  -4   1    5.30    2.40
  -7  -4   1    4.50    1.80
  -7  -4   1    3.90    2.30
   6   4  -1   65.29    4.00
   6   4  -1   62.29    2.90
   6   4  -1   65.69    3.20
   6   4  -1   77.29    6.20
  -6  -4   1   60.89    4.60
  -6  -4   1   69.69    5.00
  -6  -4   1   64.09    3.80
  -6  -4   1   56.09    4.40
  -6  -4   1   66.29    4.50
   5   4  -1   45.80    4.10
   5   4  -1   42.20    2.60
   5   4  -1   46.60    4.00
   5   4  -1   41.80    2.30
   5   4  -1   38.10    3.50
   5   4  -1   36.90    4.00
   5   4  -1   43.00    3.20
  -5  -4   1   35.30    3.50
  -5  -4   1   44.70    2.90
  -5  -4   1   52.19    4.20
  -5  -4   1   44.30    3.70
  -5  -4   1   45.90    3.70
  -5  -4   1   45.20    3.50
   4   4  -1  180.98    7.80
   4   4  -1  184.58    7.30
   4   4  -1  203.38    8.60
   4   4  -1  182.88    8.10
   4   4  -1  198.98    8.30
   4   4  -1  187.88    6.80
   4   4  -1  181.28    7.00
  -4  -4   1  188.48    7.80
  -4  -4   1  190.48    7.20
  -4  -4   1  184.68    8.00
  -4  -4   1  198.38    7.30
  -4  -4   1  181.88    7.10
  -4  -4   1  198.98    7.80
  -4  -4   1  187.58    7.90
  -4  -4   1  181.08    7.90
  -4  -4   1  196.48    7.90
  -4  -4   1  187.78    8.10
   3   4  -1  389.76   13.70
   3   4  -1  354.56   13.60
   3   4  -1  365.26   13.90
   3   4  -1  375.46   13.70
   3   4  -1  366.56   12.50
   3   4  -1  376.06   13.40
   3   4  -1  369.26   12.90
   3   4  -1  384.76   12.80
  -3  -4   1  352.16   13.50
  -3  -4   1  391.46   13.80
  -3  -4   1  374.36   13.30
  -3  -4   1  378.26   12.70
  -3  -4   1  380.46   12.90
  -3  -4   1  364.16   13.20
  -3  -4   1  367.16   13.30
  -3  -4   1  369.26   13.60
  -3  -4   1  367.96   12.70
  -3  -4   1  370.56   13.40
   2   4  -1    3.70    0.70
   2   4  -1    4.40    1.40
   2   4  -1    3.30    1.00
   2   4  -1    3.40    1.10
   2   4  -1    3.10    1.10
   2   4  -1    1.30    1.00
   2   4  -1    2.60    0.80
  -2  -4   1    4.40    0.90
  -2  -4   1    1.60    1.10
  -2  -4   1    1.90    0.90
  -2  -4   1    4.50    0.80
  -2  -4   1    3.10    1.10
  -2  -4   1    4.80    0.80
  -2  -4   1    4.30    1.30
  -2  -4   1    2.50    1.10
  -2  -4   1    4.60    1.30
   1   4  -1  503.65   16.70
   1   4  -1  505.35   17.70
   1   4  -1  495.95   16.90
   1   4  -1  512.25   17.60
   1   4  -1  505.55   16.80
   1   4  -1  530.05   17.40
   1   4  -1  523.25   17.70
  -1  -4   1  491.65   16.90
  -1  -4   1  514.45   16.70
  -1  -4   1  515.55   17.60
  -1  -4   1  496.25   17.20
  -1  -4   1  515.35   17.10
  -1  -4   1  509.55   17.60
  -1  -4   1  504.75   16.70
  -1  -4   1  510.55   17.40
   0   4  -1  372.96   12.50
   0   4  -1  372.66   13.30
   0   4  -1  359.76   12.70
   0   4  -1  368.56   13.30
   0   4  -1  387.06   13.50
   0   4  -1  392.96   13.30
   0   4  -1  358.46   13.10
   0  -4   1  405.66   13.20
   0  -4   1  345.77   13.30
   0  -4   1  370.76   12.40
   0  -4   1  374.66   13.10
   0  -4   1  395.26   12.80
   0  -4   1  374.86   12.60
   0  -4   1  385.86   13.30
   0  -4   1  360.66   13.20
  -1   4  -1    3.90    1.00
  -1   4  -1    5.00    1.30
  -1   4  -1    2.10    0.90
  -1   4  -1    2.10    1.30
  -1   4  -1    5.00    0.80
  -1   4  -1    5.40    1.00
  -1   4  -1    5.40    1.20
  -1   4  -1    5.00    1.30
  -1   4  -1    4.80    1.10
  -1   4  -1    4.90    1.20
   1  -4   1    4.80    1.30
   1  -4   1    4.70    1.20
   1  -4   1    7.00    1.40
   1  -4   1    3.70    1.00
   1  -4   1    6.20    1.30
   1  -4   1    3.20    0.60
   1  -4   1    5.60    1.00
   1  -4   1    3.60    1.00
   1  -4   1    4.70    0.90
   1  -4   1    4.00    0.90
  -2   4  -1  488.85   16.40
  -2   4  -1  487.35   15.90
  -2   4  -1  460.95   15.90
  -2   4  -1  472.45   16.30
  -2   4  -1  482.45   15.90
  -2   4  -1  480.15   16.40
  -2   4  -1  481.65   16.20
  -2   4  -1  459.85   16.10
  -2   4  -1  500.75   16.50
   2  -4   1  474.35   15.50
   2  -4   1  480.15   16.50
   2  -4   1  449.76   16.30
   2  -4   1  462.85   16.30
   2  -4   1  455.45   15.80
   2  -4   1  460.65   15.80
   2  -4   1  467.55   15.70
   2  -4   1  459.15   16.00
   2  -4   1  457.05   16.00
   2  -4   1  458.85   16.40
  -3   4  -1  280.07   10.00
  -3   4  -1  268.47   10.70
  -3   4  -1  282.37   10.70
  -3   4  -1  296.27   10.70
  -3   4  -1  279.17   10.20
  -3   4  -1  265.57   10.50
  -3   4  -1  298.37   10.60
  -3   4  -1  285.57   10.40
  -3   4  -1  277.77   10.00
   3  -4   1  292.37    9.70
   3  -4   1  294.37   10.30
   3  -4   1  277.97   10.60
   3  -4   1  271.97    9.80
   3  -4   1  294.77   10.10
   3  -4   1  290.27   10.00
   3  -4   1  274.77   10.70
   3  -4   1  283.27   10.40
   3  -4   1  287.97   10.90
   3  -4   1  287.07   10.70
  -4   4  -1   30.70    3.00
  -4   4  -1   38.00    2.90
  -4   4  -1   35.80    2.40
  -4   4  -1   41.80    3.30
  -4   4  -1   30.20    2.90
  -4   4  -1   41.70    3.40
  -4   4  -1   36.40    2.40
  -4   4  -1   32.90    2.40
  -4   4  -1   37.30    2.70
   4  -4   1   33.80    3.10
   4  -4   1   33.00    3.10
   4  -4   1   36.80    2.00
   4  -4   1   31.00    2.40
   4  -4   1   36.30    2.80
   4  -4   1   32.40    2.00
   4  -4   1   37.20    3.10
   4  -4   1   42.40    3.30
  -5   4  -1  180.58    7.70
  -5   4  -1  164.38    6.80
  -5   4  -1  175.18    7.60
  -5   4  -1  180.78    7.00
  -5   4  -1  168.48    7.20
  -5   4  -1  170.18    7.80
  -5   4  -1  159.48    7.40
   5  -4   1  168.58    7.30
   5  -4   1  175.28    6.20
   5  -4   1  160.88    6.30
   5  -4   1  163.78    7.60
   5  -4   1  182.08    6.90
   5  -4   1  167.58    7.80
   5  -4   1  158.18    7.80
  -6   4  -1   60.79    4.50
  -6   4  -1   69.39    4.50
  -6   4  -1   72.29    4.00
  -6   4  -1   69.99    4.00
  -6   4  -1   67.59    4.80
   6  -4   1   60.49    4.40
   6  -4   1   70.19    4.70
   6  -4   1   69.49    3.20
   6  -4   1   75.39    4.00
   6  -4   1   65.69    4.90
   6  -4   1   77.49    3.20
  -7   4  -1   30.30    3.30
  -7   4  -1   34.20    4.00
  -7   4  -1   27.00    3.80
  -7   4  -1   34.40    3.30
   7  -4   1   31.60    2.00
   7  -4   1   33.20    2.00
   7  -4   1   30.30    4.20
  -8   4  -1   49.70    4.90
  -8   4  -1   41.90    4.80
  -8   4  -1   56.49    4.50
  -8   4  -1   45.30    5.00
  -8   4  -1   42.00    3.80
   8  -4   1   49.00    5.50
  -9   4  -1    2.20    3.10
  -9   4  -1   -1.60    2.20
   9  -4   1    2.50    2.80
 -10   4  -1    6.70    3.00
 -10   4  -1    7.10    3.60
  10  -4   1    6.10    4.10
  10   3  -1    0.80    3.70
 -10  -3   1    1.30    3.50
 -10  -3   1    2.50    3.20
   9   3  -1   14.40    4.00
  -9  -3   1   11.50    3.40
  -9  -3   1   10.40    3.60
   8   3  -1    0.90    2.80
  -8  -3   1    1.20    2.20
  -8  -3   1    2.60    2.60
  -8  -3   1   -1.10    2.60
  -8  -3   1   -0.70    1.70
   7   3  -1   45.50    5.00
   7   3  -1   45.00    2.30
   7   3  -1   45.40    2.50
  -7  -3   1   50.59    4.90
  -7  -3   1   37.80    3.50
  -7  -3   1   48.10    4.30
  -7  -3   1   46.90    4.10
  -7  -3   1   43.90    4.30
   6   3  -1   47.50    3.90
   6   3  -1   49.70    2.80
   6   3  -1   52.99    3.70
   6   3  -1   41.00    4.50
   6   3  -1   41.80    2.40
  -6  -3   1   55.49    4.30
  -6  -3   1   49.99    4.40
  -6  -3   1   44.90    3.20
  -6  -3   1   48.10    3.80
  -6  -3   1   41.50    3.80
  -6  -3   1   40.50    3.60
   5   3  -1    2.70    1.40
   5   3  -1    2.80    1.50
   5   3  -1    2.30    1.00
   5   3  -1    4.20    1.90
   5   3  -1    3.20    0.90
   5   3  -1    4.20    1.70
   5   3  -1    3.20    1.50
  -5  -3   1    5.20    1.60
  -5  -3   1    1.60    1.40
  -5  -3   1    6.20    1.60
  -5  -3   1    2.60    1.00
  -5  -3   1    4.70    1.70
  -5  -3   1    1.00    1.30
  -5  -3   1    4.90    1.70
   4   3  -1  137.69    6.10
   4   3  -1  133.19    6.40
   4   3  -1  130.29    5.30
   4   3  -1  138.99    6.00
   4   3  -1  131.49    5.50
   4   3  -1  140.19    6.30
   4   3  -1  130.99    5.10
  -4  -3   1  137.39    5.40
  -4  -3   1  143.19    6.00
  -4  -3   1  130.39    6.00
  -4  -3   1  140.49    5.80
  -4  -3   1  137.09    6.00
  -4  -3   1  139.69    6.10
  -4  -3   1  136.89    6.10
  -4  -3   1  135.69    5.90
  -4  -3   1  139.59    5.40
   3   3  -1  401.16   14.00
   3   3  -1  378.36   13.00
   3   3  -1  379.26   13.30
   3   3  -1  385.96   13.60
   3   3  -1  401.16   13.20
   3   3  -1  385.76   13.80
   3   3  -1  393.26   13.10
   3   3  -1  408.16   14.20
  -3  -3   1  384.46   13.80
  -3  -3   1  388.36   13.70
  -3  -3   1  398.56   13.20
  -3  -3   1  392.16   13.50
  -3  -3   1  381.96   13.10
  -3  -3   1  380.96   13.60
  -3  -3   1  383.86   13.80
  -3  -3   1  413.46   13.70
  -3  -3   1  368.16   13.80
   2   3  -1    7.40    1.60
   2   3  -1    5.90    1.10
   2   3  -1    5.90    1.00
   2   3  -1    8.80    1.60
   2   3  -1    7.50    0.80
   2   3  -1    6.00    1.30
   2   3  -1    5.20    1.20
   2   3  -1    7.80    1.00
   2   3  -1    5.90    0.90
  -2  -3   1    7.90    1.00
  -2  -3   1    8.40    1.40
  -2  -3   1    6.70    1.20
  -2  -3   1    4.80    0.80
  -2  -3   1    7.30    1.20
  -2  -3   1    3.90    0.70
  -2  -3   1    6.20    1.20
  -2  -3   1    5.60    1.20
  -2  -3   1    6.00    1.30
   1   3  -1 1180.68   38.20
   1   3  -1 1126.09   38.30
   1   3  -1 1170.58   38.10
   1   3  -1 1141.39   38.30
   1   3  -1 1171.48   38.10
   1   3  -1 1146.99   37.70
   1   3  -1 1194.88   37.60
   1   3  -1 1186.78   38.20
   1   3  -1 1162.18   37.60
  -1  -3   1 1172.98   38.00
  -1  -3   1 1209.58   38.40
  -1  -3   1 1174.48   38.30
  -1  -3   1 1235.08   38.50
  -1  -3   1 1209.58   38.20
  -1  -3   1 1143.29   38.00
  -1  -3   1 1158.58   37.90
  -1  -3   1 1181.38   37.70
  -1  -3   1 1231.08   37.60
   0   3  -1 1356.36   44.20
   0   3  -1 1340.47   43.80
   0   3  -1 1366.36   44.30
   0   3  -1 1386.86   44.40
   0   3  -1 1377.46   43.70
   0   3  -1 1380.36   44.20
   0   3  -1 1321.67   43.80
   0   3  -1 1380.36   44.30
   0   3  -1 1404.66   44.30
   0   3  -1 1404.06   44.40
   0  -3   1 1352.26   44.30
   0  -3   1 1448.26   44.20
   0  -3   1 1382.96   43.90
   0  -3   1 1383.76   43.70
   0  -3   1 1300.77   44.30
   0  -3   1 1359.86   44.30
   0  -3   1 1333.37   44.10
   0  -3   1 1393.26   43.90
   0  -3   1 1377.56   44.30
   0  -3   1 1393.96   43.60
  -1   3  -1  695.73   22.70
  -1   3  -1  697.93   22.90
  -1   3  -1  704.93   23.10
  -1   3  -1  720.63   23.00
  -1   3  -1  697.23   22.90
  -1   3  -1  682.73   23.00
  -1   3  -1  694.23   22.60
  -1   3  -1  674.63   22.40
  -1   3  -1  679.73   22.60
  -1   3  -1  698.53   22.90
  -1   3  -1  713.63   22.90
   1  -3   1  702.33   22.30
   1  -3   1  660.13   22.60
   1  -3   1  696.63   22.80
   1  -3   1  702.03   22.90
   1  -3   1  674.83   22.90
   1  -3   1  686.53   23.00
   1  -3   1  703.63   23.00
   1  -3   1  716.03   22.60
   1  -3   1  689.23   22.60
   1  -3   1  712.73   23.10
   1  -3   1  704.03   23.10
  -2   3  -1 1828.42   57.89
  -2   3  -1 1831.02   58.29
  -2   3  -1 1842.42   57.99
  -2   3  -1 1812.12   58.19
  -2   3  -1 1884.51   58.39
  -2   3  -1 1840.82   58.29
  -2   3  -1 1815.22   57.89
  -2   3  -1 1792.62   58.39
  -2   3  -1 1719.23   58.09
   2  -3   1 1938.11   58.29
   2  -3   1 1729.53   57.79
   2  -3   1 1859.91   57.89
   2  -3   1 1722.83   58.09
   2  -3   1 1704.23   57.79
   2  -3   1 1804.52   58.39
   2  -3   1 1873.91   58.09
   2  -3   1 1805.42   58.49
   2  -3   1 1844.52   57.59
   2  -3   1 1858.71   58.29
   2  -3   1 1824.62   58.39
   2  -3   1 1818.62   58.39
  -3   3  -1    2.70    1.00
  -3   3  -1    1.00    0.80
  -3   3  -1    0.70    0.80
  -3   3  -1    1.00    0.60
  -3   3  -1    1.20    1.00
  -3   3  -1    1.40    0.90
  -3   3  -1    0.70    0.60
  -3   3  -1   -1.00    0.90
  -3   3  -1    0.90    0.70
   3  -3   1    1.60    0.50
   3  -3   1    0.90    0.70
   3  -3   1    1.30    0.60
   3  -3   1    1.80    1.00
   3  -3   1    0.00    0.80
   3  -3   1    1.00    0.90
   3  -3   1    1.60    0.90
   3  -3   1    1.10    0.90
   3  -3   1    0.50    1.00
   3  -3   1    2.30    1.00
  -4   3  -1  270.07    9.90
  -4   3  -1  270.27    9.90
  -4   3  -1  252.37    9.50
  -4   3  -1  256.27    9.30
  -4   3  -1  251.97    9.20
  -4   3  -1  260.27   10.00
  -4   3  -1  260.87    9.70
  -4   3  -1  247.18    9.80
  -4   3  -1  261.47    9.20
   4  -3   1  262.97    9.60
   4  -3   1  268.57    8.80
   4  -3   1  265.07    9.90
   4  -3   1  249.68   10.00
   4  -3   1  259.47   10.00
   4  -3   1  257.27    9.20
   4  -3   1  238.98    8.80
  -5   3  -1   87.19    4.10
  -5   3  -1   91.39    4.70
  -5   3  -1   93.59    5.10
  -5   3  -1   83.29    4.40
  -5   3  -1   87.79    4.10
  -5   3  -1   79.79    4.60
  -5   3  -1   91.29    4.00
  -5   3  -1   84.59    4.60
   5  -3   1   89.19    4.80
   5  -3   1   81.99    4.40
   5  -3   1   86.39    3.60
   5  -3   1   85.49    3.50
   5  -3   1   87.29    4.90
   5  -3   1   82.49    4.00
  -6   3  -1   -1.70    1.50
  -6   3  -1    1.90    1.70
  -6   3  -1   -0.80    1.40
  -6   3  -1    1.90    1.30
  -6   3  -1    1.10    1.40
  -6   3  -1   -0.50    1.30
   6  -3   1   -1.00    1.30
   6  -3   1   -0.90    1.10
   6  -3   1    1.30    1.70
   6  -3   1    0.40    0.70
   6  -3   1   -1.30    1.30
   6  -3   1    0.50    1.30
   6  -3   1    0.00    0.70
  -7   3  -1    7.00    2.00
  -7   3  -1    8.50    2.50
  -7   3  -1   14.30    2.80
  -7   3  -1    9.70    2.10
  -7   3  -1   10.80    2.40
   7  -3   1   11.70    1.10
   7  -3   1   12.40    1.10
   7  -3   1   10.80    2.40
   7  -3   1    2.10    2.50
  -8   3  -1   20.60    3.60
  -8   3  -1   21.80    3.10
  -8   3  -1   19.50    3.50
  -8   3  -1   25.30    3.40
  -8   3  -1   20.60    2.70
   8  -3   1   22.00    4.00
  -9   3  -1    1.20    2.40
  -9   3  -1   -3.80    2.60
   9  -3   1   -0.30    2.90
 -10   3  -1   11.50    4.00
 -10   3  -1    6.30    3.10
  10  -3   1    0.80    3.30
  10   2  -1   -4.00    3.40
 -10  -2   1    1.20    3.40
 -10  -2   1    1.80    2.90
   9   2  -1    8.70    3.50
  -9  -2   1   11.20    3.70
  -9  -2   1   11.80    3.20
  -9  -2   1   11.30    2.70
   8   2  -1   -0.40    0.70
   8   2  -1   -2.00    2.40
  -8  -2   1   -0.40    2.10
  -8  -2   1    0.60    2.50
  -8  -2   1   -2.10    1.40
  -8  -2   1    0.50    1.90
  -8  -2   1    1.10    2.40
   7   2  -1   27.70    1.90
   7   2  -1   26.40    3.70
   7   2  -1   26.70    2.10
   7   2  -1   31.70    3.10
  -7  -2   1   26.00    3.10
  -7  -2   1   26.30    3.50
  -7  -2   1   19.60    3.00
  -7  -2   1   27.80    3.20
  -7  -2   1   29.40    3.10
   6   2  -1   76.09    5.30
   6   2  -1   75.79    4.70
   6   2  -1   84.89    4.90
   6   2  -1   82.99    3.70
   6   2  -1   86.09    5.20
   6   2  -1   73.49    3.40
   6   2  -1   78.99    4.30
  -6  -2   1   75.09    4.40
  -6  -2   1   86.19    5.00
  -6  -2   1   79.59    4.10
  -6  -2   1   78.39    5.00
  -6  -2   1   82.49    4.90
  -6  -2   1   75.39    4.60
   5   2  -1    9.90    1.90
   5   2  -1    9.70    1.10
   5   2  -1    9.70    1.60
   5   2  -1    8.50    1.30
   5   2  -1   12.00    2.20
   5   2  -1    6.30    2.00
   5   2  -1   11.10    2.00
  -5  -2   1   10.20    1.80
  -5  -2   1   10.20    2.00
  -5  -2   1    8.80    2.00
  -5  -2   1    8.70    0.70
  -5  -2   1    9.00    1.80
  -5  -2   1    9.70    1.40
  -5  -2   1   10.30    1.90
  -5  -2   1    7.30    1.30
   4   2  -1  287.17   10.40
   4   2  -1  315.57   11.30
   4   2  -1  297.17   10.80
   4   2  -1  314.67   10.50
   4   2  -1  312.07   11.30
   4   2  -1  319.67   11.70
   4   2  -1  304.07   11.50
   4   2  -1  299.87   10.60
  -4  -2   1  301.57   11.20
  -4  -2   1  317.47   11.40
  -4  -2   1  315.07   11.20
  -4  -2   1  306.97   11.40
  -4  -2   1  302.67   10.90
  -4  -2   1  302.37   11.20
   3   2  -1    4.00    0.70
   3   2  -1    3.30    0.60
   3   2  -1    2.10    0.90
   3   2  -1    2.40    1.00
   3   2  -1    2.90    1.00
   3   2  -1    4.20    0.90
   3   2  -1    4.70    1.10
   3   2  -1    3.90    1.20
  -3  -2   1    4.00    1.10
  -3  -2   1    3.80    1.20
  -3  -2   1    3.60    1.00
  -3  -2   1    4.90    0.80
  -3  -2   1    1.90    0.60
  -3  -2   1    5.00    1.10
  -3  -2   1    4.30    1.10
  -3  -2   1    3.20    1.10
  -3  -2   1    3.70    1.10
  -3  -2   1    5.00    1.10
   2   2  -1    3.70    0.90
   2   2  -1    4.70    1.10
   2   2  -1    4.10    0.70
   2   2  -1    3.60    0.80
   2   2  -1    4.10    0.90
   2   2  -1    4.80    1.00
   2   2  -1    5.70    0.70
   2   2  -1    6.30    1.10
   2   2  -1    6.10    0.80
   2   2  -1    3.80    0.70
  -2  -2   1    5.00    1.10
  -2  -2   1    4.40    1.00
  -2  -2   1    4.40    0.90
  -2  -2   1    4.10    0.60
  -2  -2   1    3.10    0.80
  -2  -2   1    6.80    0.80
  -2  -2   1    4.90    0.90
  -2  -2   1    4.80    0.70
  -2  -2   1    6.90    1.10
  -2  -2   1    4.40    0.80
   1   2  -1  295.87    9.80
   1   2  -1  293.47   10.00
   1   2  -1  301.27    9.80
   1   2  -1  292.57   10.10
   1   2  -1  311.67    9.80
   1   2  -1  299.87   10.20
   1   2  -1  291.27    9.80
   1   2  -1  294.77    9.70
   1   2  -1  292.87   10.00
   1   2  -1  281.67   10.20
   1   2  -1  292.07   10.20
  -1  -2   1  288.77   10.00
  -1  -2   1  278.67    9.90
  -1  -2   1  300.47   10.20
  -1  -2   1  306.77    9.80
  -1  -2   1  308.47   10.30
  -1  -2   1  307.67    9.80
  -1  -2   1  305.77   10.30
  -1  -2   1  302.37   10.00
  -1  -2   1  290.67   10.10
  -1  -2   1  289.57    9.80
   0   2  -1  470.15   15.10
   0   2  -1  460.15   15.10
   0   2  -1  465.55   15.40
   0   2  -1  490.65   15.00
   0   2  -1  457.35   15.40
   0   2  -1  469.85   15.50
   0   2  -1  440.06   15.40
   0   2  -1  486.05   15.40
   0   2  -1  473.85   15.30
   0   2  -1  437.36   15.30
   0  -2   1  461.25   15.50
   0  -2   1  452.05   15.10
   0  -2   1  480.95   15.00
   0  -2   1  470.85   15.40
   0  -2   1  465.85   15.10
   0  -2   1  474.15   15.10
   0  -2   1  450.75   15.30
   0  -2   1  478.45   15.10
   0  -2   1  447.46   15.40
   0  -2   1  463.15   15.40
   0  -2   1  474.05   15.00
   0  -2   1  470.85   15.30
  -1   2  -1  409.46   13.30
  -1   2  -1  411.76   13.50
  -1   2  -1  407.26   13.50
  -1   2  -1  402.46   13.50
  -1   2  -1  393.66   13.40
  -1   2  -1  410.06   13.40
  -1   2  -1  391.56   13.40
  -1   2  -1  422.66   13.30
  -1   2  -1  419.06   13.50
  -1   2  -1  427.86   13.20
  -1   2  -1  414.46   13.10
  -1   2  -1  404.66   13.50
  -1   2  -1  407.76   13.30
   1  -2   1  401.16   13.10
   1  -2   1  439.46   13.40
   1  -2   1  402.96   13.40
   1  -2   1  394.86   13.60
   1  -2   1  378.26   13.20
   1  -2   1  403.46   13.50
   1  -2   1  412.46   13.30
   1  -2   1  375.16   13.50
   1  -2   1  407.96   13.50
   1  -2   1  398.26   13.50
  -2   2  -1 1669.23   52.49
  -2   2  -1 1575.24   52.59
  -2   2  -1 1626.24   52.79
  -2   2  -1 1696.53   52.49
  -2   2  -1 1736.33   52.49
  -2   2  -1 1692.13   52.89
  -2   2  -1 1677.73   52.79
  -2   2  -1 1594.14   52.49
  -2   2  -1 1582.04   52.79
  -2   2  -1 1636.64   52.79
  -2   2  -1 1720.03   52.89
   2  -2   1 1650.23   52.69
   2  -2   1 1655.63   52.79
   2  -2   1 1642.54   52.49
   2  -2   1 1612.84   53.09
   2  -2   1 1598.54   52.89
   2  -2   1 1720.03   52.69
   2  -2   1 1561.04   52.29
   2  -2   1 1632.74   52.79
   2  -2   1 1670.53   52.89
   2  -2   1 1659.93   52.29
   2  -2   1 1707.13   52.49
  -3   2  -1    8.00    1.00
  -3   2  -1    8.20    1.30
  -3   2  -1    9.30    1.10
  -3   2  -1    8.10    1.10
  -3   2  -1    8.90    1.00
  -3   2  -1    6.00    1.10
  -3   2  -1    5.80    1.00
  -3   2  -1    7.10    1.20
  -3   2  -1    7.60    1.50
   3  -2   1    7.00    1.20
   3  -2   1    7.50    1.10
   3  -2   1    6.40    1.20
   3  -2   1    9.00    1.20
   3  -2   1    9.40    0.80
   3  -2   1    5.50    1.20
   3  -2   1    8.60    0.90
   3  -2   1    7.50    1.20
   3  -2   1    5.70    1.10
   3  -2   1    9.70    1.30
  -4   2  -1  527.05   16.40
  -4   2  -1  482.85   16.90
  -4   2  -1  479.15   16.70
  -4   2  -1  487.05   16.90
  -4   2  -1  484.55   16.30
  -4   2  -1  465.75   16.70
  -4   2  -1  492.15   16.30
  -4   2  -1  484.15   17.00
  -4   2  -1  476.15   16.90
   4  -2   1  513.85   15.90
   4  -2   1  500.45   16.30
   4  -2   1  498.75   17.00
   4  -2   1  469.25   15.90
   4  -2   1  467.85   16.70
   4  -2   1  492.65   17.00
   4  -2   1  484.05   17.10
  -5   2  -1   29.80    2.20
  -5   2  -1   38.90    3.40
  -5   2  -1   41.70    3.40
  -5   2  -1   33.80    2.70
  -5   2  -1   37.80    3.20
  -5   2  -1   35.60    2.70
  -5   2  -1   34.30    2.30
  -5   2  -1   36.60    2.50
   5  -2   1   31.50    3.00
   5  -2   1   36.30    2.90
   5  -2   1   37.00    2.40
   5  -2   1   32.10    2.90
   5  -2   1   31.90    1.80
   5  -2   1   32.10    1.70
  -6   2  -1   -1.40    1.30
  -6   2  -1    1.00    1.70
  -6   2  -1    0.00    1.20
  -6   2  -1   -1.40    1.60
  -6   2  -1   -0.30    1.20
  -6   2  -1   -1.00    0.90
   6  -2   1    0.40    0.60
   6  -2   1   -1.50    1.30
   6  -2   1   -2.50    1.60
   6  -2   1   -0.30    0.60
   6  -2   1    1.00    1.20
   6  -2   1   -2.40    1.30
   6  -2   1    1.40    1.40
  -7   2  -1   13.70    2.80
  -7   2  -1   13.10    2.00
  -7   2  -1   16.10    2.50
  -7   2  -1   17.00    2.30
  -7   2  -1   18.90    2.90
   7  -2   1   14.60    3.10
   7  -2   1   10.70    2.80
  -8   2  -1   21.60    3.20
  -8   2  -1   19.40    3.20
  -8   2  -1   18.70    3.60
  -8   2  -1   17.40    2.70
   8  -2   1   17.50    3.60
  -9   2  -1    1.60    2.30
  -9   2  -1    3.80    3.10
   9  -2   1    5.60    3.40
 -10   2  -1    9.20    3.90
 -10   2  -1    4.80    2.80
  10  -2   1    5.50    3.90
  10   1  -1    5.80    3.90
 -10  -1   1   10.60    3.20
 -10  -1   1    7.30    2.60
 -10  -1   1   -0.90    3.30
   9   1  -1   13.40    4.10
  -9  -1   1   16.40    3.20
  -9  -1   1   11.60    2.70
  -9  -1   1   10.50    3.40
  -9  -1   1    6.80    3.10
   8   1  -1    0.70    0.90
   8   1  -1    1.40    2.50
   8   1  -1    0.50    1.10
  -8  -1   1    1.20    1.90
  -8  -1   1    2.60    2.00
  -8  -1   1   -0.70    2.10
  -8  -1   1   -0.90    1.50
  -8  -1   1    1.00    2.50
   7   1  -1   93.59    4.00
   7   1  -1  101.99    6.20
   7   1  -1   96.89    5.00
   7   1  -1   92.99    4.20
  -7  -1   1  101.39    5.60
  -7  -1   1  100.09    5.70
  -7  -1   1   95.39    6.00
  -7  -1   1  103.29    5.30
  -7  -1   1   97.79    5.00
   6   1  -1  304.87   11.90
   6   1  -1  298.97   11.90
   6   1  -1  313.17   10.90
   6   1  -1  279.37   10.60
   6   1  -1  309.07   12.40
   6   1  -1  302.57   12.50
   6   1  -1  314.67   11.40
  -6  -1   1  332.07   11.40
  -6  -1   1  290.47   11.70
  -6  -1   1  322.87   12.20
  -6  -1   1  319.87   11.50
  -6  -1   1  310.07   11.90
  -6  -1   1  316.37   13.80
   5   1  -1  104.79    5.20
   5   1  -1   98.19    4.10
   5   1  -1  106.99    5.00
   5   1  -1   93.89    5.10
   5   1  -1   96.99    4.40
   5   1  -1   91.59    3.90
   5   1  -1   90.99    4.80
   5   1  -1   91.19    4.30
  -5  -1   1  100.49    4.50
  -5  -1   1   93.29    4.90
  -5  -1   1   89.89    4.90
  -5  -1   1  101.79    4.80
  -5  -1   1   97.09    4.80
  -5  -1   1  100.89    4.30
  -5  -1   1   94.19    4.70
  -5  -1   1  105.39    4.90
  -5  -1   1   95.69    4.10
   4   1  -1 2881.61   92.19
   4   1  -1 3054.29   91.79
   4   1  -1 2833.02   91.89
   4   1  -1 2946.31   91.09
   4   1  -1 2909.11   91.29
   4   1  -1 2869.81   91.19
   4   1  -1 2846.12   92.19
   4   1  -1 2915.51   91.79
   4   1  -1 2824.92   91.39
  -4  -1   1 2848.92   91.99
  -4  -1   1 2882.41   91.49
  -4  -1   1 2785.32   91.89
  -4  -1   1 2773.42   91.29
  -4  -1   1 2847.62   91.79
  -4  -1   1 2890.41   91.19
  -4  -1   1 2891.61   91.79
  -4  -1   1 2837.22   91.79
  -4  -1   1 2889.31   91.79
   3   1  -1   24.60    2.00
   3   1  -1   24.90    1.80
   3   1  -1   22.90    2.20
   3   1  -1   24.20    1.60
   3   1  -1   22.40    1.80
   3   1  -1   27.00    1.80
   3   1  -1   26.90    1.70
   3   1  -1   20.70    1.90
   3   1  -1   20.40    1.30
   3   1  -1   21.40    1.30
  -3  -1   1   24.80    1.70
  -3  -1   1   27.40    2.10
  -3  -1   1   24.10    1.80
  -3  -1   1   25.30    2.00
  -3  -1   1   24.20    1.40
  -3  -1   1   23.30    1.80
  -3  -1   1   23.40    1.50
  -3  -1   1   20.60    1.90
  -3  -1   1   19.20    1.70
  -3  -1   1   23.10    1.50
   2   1  -1 7572.24  239.88
   2   1  -1 7727.63  241.78
   2   1  -1 7438.26  240.98
   2   1  -1 8052.89  240.68
   2   1  -1 7635.64  241.18
   2   1  -1 7733.73  240.88
   2   1  -1 7684.13  243.08
   2   1  -1 7572.74  240.88
   2   1  -1 7176.18  240.18
   2   1  -1 7863.91  242.58
   2   1  -1 7441.56  240.88
  -2  -1   1 7482.05  241.68
  -2  -1   1 7071.39  240.98
  -2  -1   1 7136.99  241.18
  -2  -1   1 7502.85  242.18
  -2  -1   1 7837.82  240.78
  -2  -1   1 7688.33  242.78
  -2  -1   1 7606.14  242.48
  -2  -1   1 7224.88  240.38
  -2  -1   1 7449.75  242.48
  -2  -1   1 7774.92  241.98
  -2  -1   1 7438.86  240.18
  -2  -1   1 8078.29  241.58
   1   1  -1   12.10    0.60
   1   1  -1   11.30    0.80
   1   1  -1   11.30    0.80
   1   1  -1   11.00    0.90
   1   1  -1   13.10    0.70
   1   1  -1   11.20    0.70
   1   1  -1   12.10    1.00
   1   1  -1   11.30    0.80
   1   1  -1   11.30    0.90
   1   1  -1   12.50    1.10
   1   1  -1   12.50    0.70
   1   1  -1   13.40    0.90
  -1  -1   1   13.00    0.80
  -1  -1   1   14.00    0.80
  -1  -1   1   12.60    0.70
  -1  -1   1   12.20    0.90
  -1  -1   1   13.30    0.70
  -1  -1   1   13.60    0.90
  -1  -1   1   12.30    0.90
  -1  -1   1   13.40    0.90
  -1  -1   1   15.00    1.20
  -1  -1   1   12.70    1.00
  -1  -1   1   12.50    0.60
  -1  -1   1   15.50    1.00
   0   1  -1  515.45   17.60
   0   1  -1  583.54   17.70
   0   1  -1  574.44   17.90
   0   1  -1  567.44   17.90
   0   1  -1  565.54   17.80
   0   1  -1  575.14   17.70
   0   1  -1  537.45   17.70
   0   1  -1  555.34   17.90
   0   1  -1  528.55   17.80
   0   1  -1  541.15   17.90
   0  -1   1  583.04   17.60
   0  -1   1  544.15   17.80
   0  -1   1  583.04   17.90
   0  -1   1  559.54   17.60
   0  -1   1  555.14   17.70
   0  -1   1  550.44   17.90
   0  -1   1  535.75   17.60
   0  -1   1  547.05   17.80
   0  -1   1  549.74   17.90
  -1   1  -1  136.19    4.70
  -1   1  -1  134.29    4.70
  -1   1  -1  141.29    4.80
  -1   1  -1  133.39    4.70
  -1   1  -1  144.79    4.60
  -1   1  -1  138.59    4.60
  -1   1  -1  138.39    4.80
  -1   1  -1  135.39    4.70
  -1   1  -1  135.69    4.80
  -1   1  -1  140.69    4.50
   1  -1   1  135.69    4.90
   1  -1   1  138.09    4.70
   1  -1   1  138.99    4.80
   1  -1   1  137.89    4.60
   1  -1   1  140.69    4.70
   1  -1   1  134.49    4.60
   1  -1   1  132.99    4.70
   1  -1   1  133.09    4.80
   1  -1   1  131.79    4.80
   1  -1   1  125.19    4.40
   1  -1   1  127.99    4.70
   1  -1   1  143.59    4.50
   1  -1   1  147.29    4.40
  -2   1  -1 1185.78   40.20
  -2   1  -1 1272.57   40.30
  -2   1  -1 1307.57   40.40
  -2   1  -1 1262.47   40.00
  -2   1  -1 1218.58   40.10
  -2   1  -1 1253.07   40.20
  -2   1  -1 1271.57   40.40
  -2   1  -1 1249.77   40.10
  -2   1  -1 1294.37   40.40
  -2   1  -1 1270.97   40.00
  -2   1  -1 1251.97   40.40
   2  -1   1 1139.69   39.80
   2  -1   1 1274.07   40.00
   2  -1   1 1234.88   40.30
   2  -1   1 1277.57   40.30
   2  -1   1 1276.27   40.40
   2  -1   1 1342.17   40.00
   2  -1   1 1314.57   40.10
   2  -1   1 1230.38   40.20
   2  -1   1 1253.87   40.40
   2  -1   1 1261.77   40.20
  -3   1  -1  127.39    5.00
  -3   1  -1  137.59    5.20
  -3   1  -1  147.79    5.50
  -3   1  -1  139.79    4.90
  -3   1  -1  130.29    5.40
  -3   1  -1  129.59    5.20
  -3   1  -1  136.09    5.40
  -3   1  -1  141.19    4.90
  -3   1  -1  137.59    5.40
   3  -1   1  132.19    5.00
   3  -1   1  138.59    5.40
   3  -1   1  143.69    5.20
   3  -1   1  135.49    5.30
   3  -1   1  136.39    5.50
   3  -1   1  134.19    4.60
   3  -1   1  134.49    5.20
   3  -1   1  139.89    5.40
   3  -1   1  133.19    4.60
  -4   1  -1  712.33   24.10
  -4   1  -1  711.63   24.20
  -4   1  -1  769.52   23.70
  -4   1  -1  701.83   23.70
  -4   1  -1  744.93   24.30
  -4   1  -1  701.43   24.00
  -4   1  -1  716.53   24.30
  -4   1  -1  707.13   23.50
   4  -1   1  699.73   23.10
   4  -1   1  745.33   24.10
   4  -1   1  705.23   24.00
   4  -1   1  719.83   23.60
   4  -1   1  730.33   23.10
   4  -1   1  696.03   24.20
   4  -1   1  738.13   24.60
   4  -1   1  748.73   24.20
   4  -1   1  740.93   24.40
  -5   1  -1  170.78    6.80
  -5   1  -1  166.98    7.30
  -5   1  -1  165.28    7.10
  -5   1  -1  184.68    6.70
  -5   1  -1  186.18    7.60
  -5   1  -1  176.48    6.60
  -5   1  -1  178.38    7.40
   5  -1   1  174.68    7.10
   5  -1   1  184.08    6.00
   5  -1   1  177.98    6.00
   5  -1   1  168.68    7.30
   5  -1   1  176.08    6.70
   5  -1   1  176.68    7.60
  -6   1  -1   75.89    3.70
  -6   1  -1   71.49    4.50
  -6   1  -1   72.79    4.70
  -6   1  -1   65.69    4.10
  -6   1  -1   67.99    3.80
   6  -1   1   63.69    4.50
   6  -1   1   70.69    4.40
   6  -1   1   73.79    3.70
   6  -1   1   69.69    4.10
  -7   1  -1   29.20    3.40
  -7   1  -1   36.60    3.10
  -7   1  -1   34.50    3.10
  -7   1  -1   28.30    3.70
  -7   1  -1   29.20    3.10
   7  -1   1   28.20    3.80
  -8   1  -1    3.80    2.10
  -8   1  -1    3.40    2.00
  -8   1  -1    1.10    2.60
  -8   1  -1    5.20    2.40
   8  -1   1    0.60    2.60
  -9   1  -1    2.40    2.50
  -9   1  -1    3.20    2.90
   9  -1   1    7.10    3.40
 -10   1  -1    3.70    2.90
 -10   1  -1    2.00    3.40
  10  -1   1   11.50    4.10
  10   0  -1   -1.10    3.40
 -10   0   1    0.30    2.00
 -10   0   1   -0.60    3.20
 -10   0   1    5.90    3.00
   9   0  -1    5.90    3.20
  -9   0   1   12.50    3.20
  -9   0   1    8.60    2.80
  -9   0   1    7.50    3.10
  -9   0   1   11.70    2.70
   8   0  -1    3.10    1.30
   8   0  -1    1.10    2.70
   8   0  -1    2.50    1.10
  -8   0   1    5.50    2.20
  -8   0   1    2.80    2.40
  -8   0   1    3.80    2.00
  -8   0   1    3.50    2.40
  -8   0   1    4.00    1.70
   7   0  -1   40.80    4.40
   7   0  -1   41.20    2.50
   7   0  -1   42.30    3.40
   7   0  -1   41.90    2.70
  -7   0   1   38.70    3.30
  -7   0   1   39.30    3.60
  -7   0   1   46.90    4.30
  -7   0   1   47.80    4.60
  -7   0   1   41.10    3.20
   6   0  -1  120.79    6.20
   6   0  -1  131.19    5.80
   6   0  -1  131.49    6.60
   6   0  -1  140.49    7.00
   6   0  -1  134.09    6.60
   6   0  -1  120.69    5.20
   6   0  -1  136.59    6.40
   6   0  -1  137.69    5.40
  -6   0   1  136.29    5.90
  -6   0   1  135.89    5.70
  -6   0   1  136.79    6.40
  -6   0   1  127.69    6.40
  -6   0   1  126.69    6.40
  -6   0   1  141.39    6.60
  -6   0   1  136.29    6.20
   5   0  -1   24.00    1.90
   5   0  -1   25.20    1.70
   5   0  -1   25.90    2.50
   5   0  -1   31.80    3.20
   5   0  -1   23.80    1.70
   5   0  -1   19.80    2.50
   5   0  -1   28.40    2.40
   5   0  -1   29.10    2.70
   5   0  -1   30.90    2.80
  -5   0   1   25.70    2.00
  -5   0   1   26.40    2.60
  -5   0   1   28.40    2.80
  -5   0   1   29.20    2.80
  -5   0   1   29.80    2.90
  -5   0   1   23.90    2.30
  -5   0   1   26.50    2.40
  -5   0   1   24.90    2.20
   4   0  -1  446.96   15.50
   4   0  -1  452.05   14.90
   4   0  -1  446.86   15.00
   4   0  -1  465.55   14.90
   4   0  -1  435.26   15.70
   4   0  -1  422.06   15.10
   4   0  -1  437.36   15.50
   4   0  -1  459.75   15.40
   4   0  -1  449.95   15.90
  -4   0   1  451.45   15.00
  -4   0   1  441.16   15.60
  -4   0   1  440.56   15.40
  -4   0   1  458.95   15.60
  -4   0   1  451.95   15.40
  -4   0   1  453.85   15.10
  -4   0   1  451.75   15.80
  -4   0   1  461.15   15.60
  -4   0   1  452.55   15.10
   3   0  -1    3.20    1.00
   3   0  -1    2.50    0.80
   3   0  -1    2.50    0.60
   3   0  -1    3.30    0.80
   3   0  -1    2.80    0.70
   3   0  -1    2.20    0.90
   3   0  -1    4.50    0.90
   3   0  -1    4.10    1.00
   3   0  -1    1.90    0.80
   3   0  -1    2.60    0.80
   3   0  -1    2.00    0.60
  -3   0   1    2.10    0.70
  -3   0   1    1.90    0.80
  -3   0   1    8.10    1.30
  -3   0   1    3.70    0.70
  -3   0   1    3.50    1.00
  -3   0   1    4.20    0.90
  -3   0   1    2.70    0.80
  -3   0   1    3.60    1.00
  -3   0   1    3.80    1.10
  -3   0   1    2.20    0.80
  -3   0   1    4.00    0.70
   2   0  -1    3.20    0.60
   2   0  -1    3.00    0.50
   2   0  -1    2.60    0.60
   2   0  -1    3.30    0.60
   2   0  -1    3.60    0.70
   2   0  -1    3.50    0.80
   2   0  -1    2.80    0.60
   2   0  -1    2.70    0.40
   2   0  -1    2.20    0.50
   2   0  -1    2.20    0.60
   2   0  -1    2.60    0.50
   2   0  -1    2.10    0.40
  -2   0   1    2.70    0.50
  -2   0   1    3.30    0.50
  -2   0   1    2.30    0.50
  -2   0   1    3.20    0.50
  -2   0   1    2.80    0.60
  -2   0   1    3.40    0.60
  -2   0   1    3.50    0.70
  -2   0   1    2.50    0.60
  -2   0   1    5.00    0.70
  -2   0   1    2.00    0.50
  -2   0   1    2.50    0.60
  -2   0   1    2.80    0.60
   1   0  -1  696.33   21.30
   1   0  -1  653.93   21.30
   1   0  -1  674.73   21.50
   1   0  -1  669.93   21.50
   1   0  -1  686.13   21.40
   1   0  -1  686.43   21.50
   1   0  -1  675.73   21.30
   1   0  -1  671.03   21.50
   1   0  -1  643.94   21.40
   1   0  -1  677.43   21.40
   1   0  -1  689.43   21.40
   1   0  -1  696.13   21.30
   1   0  -1  648.64   21.50
  -1   0   1  648.54   21.30
  -1   0   1  656.23   21.50
  -1   0   1  638.34   21.50
  -1   0   1  684.43   21.30
  -1   0   1  699.03   21.30
  -1   0   1  662.23   21.40
  -1   0   1  703.43   21.50
  -1   0   1  651.73   21.30
  -1   0   1  654.33   21.40
  -1   0   1  656.43   21.40
   0   0   1  879.41   27.90
  -1   0  -1  173.88    5.70
  -1   0  -1  174.58    5.60
  -1   0  -1  181.08    5.60
  -1   0  -1  179.48    5.70
  -1   0  -1  170.98    5.80
  -1   0  -1  182.58    5.70
  -1   0  -1  169.28    5.80
  -1   0  -1  167.88    5.70
  -1   0  -1  176.28    5.70
  -1   0  -1  162.58    5.80
  -1   0  -1  175.88    5.60
   1   0   1  176.68    5.80
   1   0   1  162.68    5.70
   1   0   1  170.18    5.80
   1   0   1  166.98    5.70
   1   0   1  166.08    5.70
   1   0   1  175.18    5.80
  -2   0  -1 1019.00   32.50
  -2   0  -1  933.51   32.40
  -2   0  -1 1018.90   32.30
  -2   0  -1 1034.10   32.70
  -2   0  -1 1025.30   32.40
  -2   0  -1 1041.50   32.30
  -2   0  -1 1004.20   32.20
  -2   0  -1 1082.99   32.20
  -2   0  -1 1030.40   32.50
  -2   0  -1 1061.99   32.60
  -2   0  -1  985.70   32.50
   2   0   1  961.50   32.40
   2   0   1 1064.19   32.40
   2   0   1 1012.30   32.50
   2   0   1 1036.10   32.20
   2   0   1  971.90   32.60
   2   0   1 1003.40   32.60
   2   0   1 1012.80   32.50
   2   0   1  954.40   32.80
  -3   0  -1  377.56   12.10
  -3   0  -1  368.66   12.60
  -3   0  -1  362.46   12.30
  -3   0  -1  371.76   12.30
  -3   0  -1  372.76   12.70
  -3   0  -1  363.36   12.40
  -3   0  -1  371.56   12.50
  -3   0  -1  360.66   12.60
  -3   0  -1  366.36   12.10
   3   0   1  376.66   12.40
   3   0   1  373.26   12.70
   3   0   1  363.86   12.50
   3   0   1  362.96   12.40
   3   0   1  369.86   12.50
   3   0   1  346.07   12.60
   3   0   1  359.96   12.10
  -4   0  -1  105.19    4.40
  -4   0  -1   90.69    3.70
  -4   0  -1   91.69    4.20
  -4   0  -1   80.99    4.10
  -4   0  -1   91.89    4.20
  -4   0  -1   99.29    4.50
  -4   0  -1   94.89    3.90
  -4   0  -1   94.09    3.80
   4   0   1   99.59    4.20
   4   0   1   92.69    4.40
   4   0   1   81.89    4.30
   4   0   1   89.09    4.20
   4   0   1   94.99    3.80
   4   0   1   85.99    4.10
   4   0   1   94.29    4.30
  -5   0  -1  360.16   13.40
  -5   0  -1  373.46   13.30
  -5   0  -1  376.86   12.70
  -5   0  -1  367.16   12.60
  -5   0  -1  354.26   13.10
  -5   0  -1  351.36   12.80
   5   0   1  379.56   13.70
   5   0   1  353.36   13.10
   5   0   1  374.16   12.60
   5   0   1  380.26   13.40
  -6   0  -1   40.20    2.70
  -6   0  -1   43.20    3.80
  -6   0  -1   41.50    3.40
  -6   0  -1   45.00    3.70
  -6   0  -1   32.00    2.90
   6   0   1   39.30    2.70
   6   0   1   45.20    3.90
   6   0   1   32.70    2.90
   6   0   1   38.80    3.90
   6   0   1   42.60    3.30
  -7   0  -1  109.79    6.30
  -7   0  -1  115.59    6.10
  -7   0  -1  125.29    6.70
  -7   0  -1  114.89    5.60
  -7   0  -1  116.39    5.50
   7   0   1  116.59    6.80
  -8   0  -1   28.30    4.00
  -8   0  -1   30.10    3.40
  -8   0  -1   29.10    3.50
  -8   0  -1   36.80    4.20
   8   0   1   29.80    4.10
  -9   0  -1    9.70    2.90
  -9   0  -1    9.60    3.00
  -9   0  -1    5.70    3.20
   9   0   1    5.90    3.30
 -10   0  -1    0.60    2.80
  10   0   1    1.20    3.40
  10  -1  -1   15.20    4.40
 -10   1   1   14.40    3.20
 -10   1   1   12.40    2.70
 -10   1   1   20.30    4.60
   9  -1  -1   -0.30    1.10
   9  -1  -1   -1.90    2.80
  -9   1   1    0.60    1.90
  -9   1   1   -1.90    2.60
  -9   1   1    0.10    2.90
  -9   1   1   -0.10    2.30
   8  -1  -1    6.80    2.70
   8  -1  -1    8.00    2.10
   8  -1  -1   10.10    1.60
  -8   1   1   10.70    2.40
  -8   1   1   10.00    2.30
  -8   1   1    6.40    2.50
  -8   1   1    8.70    1.90
  -8   1   1    6.70    2.80
   7  -1  -1    1.30    1.70
   7  -1  -1    3.40    2.10
   7  -1  -1    2.90    1.70
   7  -1  -1    3.60    1.30
   7  -1  -1    4.20    1.10
  -7   1   1    1.80    1.60
  -7   1   1    7.40    2.40
  -7   1   1    2.30    1.70
  -7   1   1    1.20    2.00
  -7   1   1    3.30    1.40
   6  -1  -1   54.29    3.40
   6  -1  -1   62.69    4.00
   6  -1  -1   52.59    3.90
   6  -1  -1   52.09    2.90
   6  -1  -1   55.49    4.60
   6  -1  -1   50.79    3.80
   6  -1  -1   48.80    2.70
  -6   1   1   53.49    3.90
  -6   1   1   49.60    3.70
  -6   1   1   56.69    4.00
  -6   1   1   48.90    3.80
  -6   1   1   54.99    3.80
  -6   1   1   53.29    3.20
  -6   1   1   56.59    3.40
  -6   1   1   46.40    3.50
   5  -1  -1   21.50    2.30
   5  -1  -1   30.20    2.50
   5  -1  -1   23.60    1.80
   5  -1  -1   23.40    2.40
   5  -1  -1   25.30    2.40
   5  -1  -1   23.70    1.90
   5  -1  -1   24.60    1.70
   5  -1  -1   25.30    3.00
  -5   1   1   24.20    2.20
  -5   1   1   25.30    2.60
  -5   1   1   19.40    2.10
  -5   1   1   24.30    2.70
  -5   1   1   24.50    2.40
  -5   1   1   22.80    2.40
  -5   1   1   25.40    2.20
  -5   1   1   24.90    2.50
   4  -1  -1  485.25   16.20
   4  -1  -1  501.55   16.70
   4  -1  -1  475.65   17.10
   4  -1  -1  500.55   16.20
   4  -1  -1  500.45   17.00
   4  -1  -1  480.05   16.40
   4  -1  -1  493.15   16.80
   4  -1  -1  511.05   16.30
   4  -1  -1  485.65   16.80
  -4   1   1  474.35   16.80
  -4   1   1  489.85   16.80
  -4   1   1  481.65   16.30
  -4   1   1  505.95   17.00
  -4   1   1  501.55   16.80
  -4   1   1  456.75   16.50
  -4   1   1  494.35   16.40
  -4   1   1  465.95   16.90
  -4   1   1  482.05   16.30
   3  -1  -1  719.93   22.80
   3  -1  -1  702.33   23.20
   3  -1  -1  680.03   23.10
   3  -1  -1  697.03   22.70
   3  -1  -1  706.03   22.60
   3  -1  -1  709.63   22.50
   3  -1  -1  676.73   22.90
   3  -1  -1  710.13   23.20
   3  -1  -1  661.03   22.90
   3  -1  -1  687.33   22.50
   3  -1  -1  699.23   23.00
  -3   1   1  705.03   22.60
  -3   1   1  693.83   22.90
  -3   1   1  746.13   22.80
  -3   1   1  697.13   23.00
  -3   1   1  682.63   22.50
  -3   1   1  685.03   22.60
  -3   1   1  641.04   23.00
  -3   1   1  673.93   22.90
  -3   1   1  732.43   23.00
  -3   1   1  698.33   23.00
  -3   1   1  670.53   22.70
   2  -1  -1  755.32   24.50
   2  -1  -1  715.23   24.10
   2  -1  -1  738.63   24.40
   2  -1  -1  755.72   24.40
   2  -1  -1  762.22   24.30
   2  -1  -1  747.53   24.10
   2  -1  -1  734.83   24.10
   2  -1  -1  720.13   24.40
   2  -1  -1  771.42   24.40
   2  -1  -1  769.52   24.10
   2  -1  -1  729.03   24.20
   2  -1  -1  735.43   24.30
  -2   1   1  707.23   24.20
  -2   1   1  767.52   24.10
  -2   1   1  796.52   24.40
  -2   1   1  745.93   24.10
  -2   1   1  743.43   24.40
  -2   1   1  760.32   24.50
  -2   1   1  744.33   24.40
  -2   1   1  768.82   24.10
  -2   1   1  784.52   24.10
  -2   1   1  751.92   24.30
   1  -1  -1  165.78    5.50
   1  -1  -1  156.98    5.60
   1  -1  -1  160.98    5.60
   1  -1  -1  169.88    5.70
   1  -1  -1  165.38    5.70
   1  -1  -1  164.78    5.40
   1  -1  -1  164.98    5.50
   1  -1  -1  157.88    5.50
   1  -1  -1  166.48    5.50
   1  -1  -1  153.58    5.60
   1  -1  -1  171.48    5.40
   1  -1  -1  166.78    5.60
  -1   1   1  153.88    5.60
  -1   1   1  157.88    5.60
  -1   1   1  167.88    5.60
  -1   1   1  175.58    5.60
  -1   1   1  161.18    5.60
  -1   1   1  157.28    5.40
  -1   1   1  170.68    5.40
  -1   1   1  172.18    5.70
  -1   1   1  158.98    5.40
  -1   1   1  163.18    5.60
   0  -1  -1   17.20    0.70
   0  -1  -1   17.10    0.70
   0  -1  -1   18.00    0.80
   0  -1  -1   18.20    0.90
   0  -1  -1   16.50    0.90
   0  -1  -1   17.50    0.70
   0  -1  -1   17.60    0.80
   0  -1  -1   17.10    0.80
   0  -1  -1   16.20    0.80
   0  -1  -1   16.90    0.70
   0  -1  -1   17.60    0.80
   0   1   1   18.50    0.60
   0   1   1   17.10    0.90
   0   1   1   18.30    0.90
   0   1   1   17.60    0.80
   0   1   1   17.50    0.60
   0   1   1   18.00    0.90
   0   1   1   15.60    0.90
   0   1   1   16.30    0.80
  -1  -1  -1   22.90    1.20
  -1  -1  -1   20.80    1.00
  -1  -1  -1   23.90    1.10
  -1  -1  -1   24.20    1.10
  -1  -1  -1   20.60    0.90
  -1  -1  -1   23.70    1.00
  -1  -1  -1   21.90    1.10
  -1  -1  -1   19.50    1.10
  -1  -1  -1   21.10    1.10
   1   1   1   21.40    1.00
   1   1   1   20.50    1.00
   1   1   1   21.70    0.80
   1   1   1   19.50    1.10
   1   1   1   21.50    1.20
   1   1   1   21.20    1.10
   1   1   1   19.10    1.20
   1   1   1   21.80    0.90
   1   1   1   21.50    1.10
  -2  -1  -1  498.25   16.40
  -2  -1  -1  521.55   16.40
  -2  -1  -1  472.05   16.30
  -2  -1  -1  487.45   16.10
  -2  -1  -1  497.95   16.00
  -2  -1  -1  504.05   16.30
  -2  -1  -1  510.05   15.90
  -2  -1  -1  494.45   16.30
  -2  -1  -1  493.55   16.00
  -2  -1  -1  506.25   16.50
  -2  -1  -1  497.85   16.30
  -2  -1  -1  497.85   16.20
   2   1   1  486.45   16.30
   2   1   1  485.45   16.00
   2   1   1  473.55   16.20
   2   1   1  496.25   16.30
   2   1   1  500.15   16.50
   2   1   1  503.25   16.50
   2   1   1  506.15   16.30
  -3  -1  -1   33.90    2.10
  -3  -1  -1   35.70    2.10
  -3  -1  -1   37.40    2.20
  -3  -1  -1   38.90    2.00
  -3  -1  -1   40.40    2.20
  -3  -1  -1   41.00    2.30
  -3  -1  -1   39.00    1.80
  -3  -1  -1   33.20    1.80
  -3  -1  -1   35.00    2.00
  -3  -1  -1   34.70    2.20
   3   1   1   37.30    2.40
   3   1   1   39.20    2.20
   3   1   1   39.60    1.90
   3   1   1   38.60    2.20
   3   1   1   34.80    2.10
   3   1   1   35.10    2.20
   3   1   1   39.20    2.40
  -4  -1  -1  125.49    4.80
  -4  -1  -1  127.79    5.30
  -4  -1  -1  121.29    5.10
  -4  -1  -1  122.29    4.80
  -4  -1  -1  132.59    5.60
  -4  -1  -1  134.89    5.50
  -4  -1  -1  128.59    5.40
   4   1   1  132.79    5.40
   4   1   1  131.99    5.30
   4   1   1  129.59    4.90
   4   1   1  125.89    5.40
   4   1   1  130.99    5.60
   4   1   1  130.29    5.40
   4   1   1  118.49    5.60
  -5  -1  -1   39.80    2.80
  -5  -1  -1   42.50    2.40
  -5  -1  -1   39.30    2.80
  -5  -1  -1   34.00    2.20
  -5  -1  -1   43.80    3.20
  -5  -1  -1   37.00    3.10
  -5  -1  -1   39.90    2.90
   5   1   1   35.70    2.90
   5   1   1   36.60    3.40
   5   1   1   39.80    3.90
   5   1   1   37.90    2.80
   5   1   1   41.10    3.20
   5   1   1   41.90    2.40
  -6  -1  -1   -0.50    1.40
  -6  -1  -1    0.40    1.60
  -6  -1  -1    0.60    1.80
  -6  -1  -1    1.30    1.30
  -6  -1  -1   -0.20    0.90
  -6  -1  -1    0.60    1.30
   6   1   1    0.30    1.00
   6   1   1   -0.70    1.60
   6   1   1    0.10    1.60
   6   1   1    0.10    0.40
   6   1   1   -0.60    1.20
   6   1   1    0.30    1.50
  -7  -1  -1   12.90    2.40
  -7  -1  -1   15.00    2.80
  -7  -1  -1   17.80    3.10
  -7  -1  -1   14.30    2.40
   7   1   1   14.70    3.10
   7   1   1   18.50    2.90
  -8  -1  -1   14.40    2.80
  -8  -1  -1   19.00    3.00
  -8  -1  -1   18.80    3.30
   8   1   1   10.40    3.40
  -9  -1  -1    1.00    2.40
  -9  -1  -1    1.10    2.80
  -9  -1  -1    2.50    3.30
   9   1   1    1.20    3.10
 -10  -1  -1    0.70    3.00
  10   1   1    6.00    3.80
  10  -2  -1    1.00    3.60
 -10   2   1    1.30    2.30
 -10   2   1    3.40    3.60
 -10   2   1   -0.30    2.60
   9  -2  -1    1.50    1.30
   9  -2  -1    1.10    2.80
  -9   2   1    3.80    2.30
  -9   2   1    2.30    3.00
  -9   2   1    6.30    3.20
  -9   2   1    6.70    2.10
   8  -2  -1    2.70    2.40
   8  -2  -1    3.30    1.30
   8  -2  -1    1.70    1.70
  -8   2   1    2.70    2.00
  -8   2   1    2.30    1.90
  -8   2   1    5.20    2.50
  -8   2   1    2.80    1.70
  -8   2   1    5.50    2.50
   7  -2  -1   37.60    4.50
   7  -2  -1   46.80    3.70
   7  -2  -1   44.90    2.80
   7  -2  -1   38.50    4.80
  -7   2   1   38.80    3.30
  -7   2   1   34.40    4.00
  -7   2   1   39.30    3.70
  -7   2   1   37.90    4.00
  -7   2   1   46.00    3.30
   6  -2  -1   22.20    2.70
   6  -2  -1   18.70    2.30
   6  -2  -1   19.90    3.00
   6  -2  -1   17.00    1.80
   6  -2  -1   20.20    2.70
   6  -2  -1   21.70    2.10
   6  -2  -1   21.10    2.70
  -6   2   1   20.90    2.50
  -6   2   1   24.00    2.90
  -6   2   1   14.20    2.20
  -6   2   1   28.80    3.40
  -6   2   1   18.60    2.00
  -6   2   1   26.70    2.50
  -6   2   1   22.10    2.80
  -6   2   1   26.20    2.80
   5  -2  -1   15.50    1.50
   5  -2  -1   25.20    2.40
   5  -2  -1   20.40    2.30
   5  -2  -1   20.00    2.00
   5  -2  -1   23.80    2.60
   5  -2  -1   21.30    1.90
   5  -2  -1   13.80    2.00
   5  -2  -1   21.30    2.80
   5  -2  -1   18.60    1.80
  -5   2   1   19.50    1.90
  -5   2   1   21.40    2.10
  -5   2   1   17.40    2.40
  -5   2   1   24.00    2.90
  -5   2   1   16.80    2.00
  -5   2   1   20.00    2.40
  -5   2   1   17.70    2.20
  -5   2   1   21.30    2.30
   4  -2  -1  273.07    9.70
   4  -2  -1  270.07    9.90
   4  -2  -1  277.97   10.50
   4  -2  -1  279.77    9.80
   4  -2  -1  275.27   10.30
   4  -2  -1  291.47   10.20
   4  -2  -1  278.77   10.30
   4  -2  -1  278.37   10.50
   4  -2  -1  292.67    9.70
  -4   2   1  273.17   10.30
  -4   2   1  272.47   10.40
  -4   2   1  273.37   10.50
  -4   2   1  278.17   10.00
  -4   2   1  275.47   10.20
  -4   2   1  280.37    9.80
  -4   2   1  287.87   10.40
  -4   2   1  285.17    9.90
  -4   2   1  275.87    9.80
   3  -2  -1   79.79    3.80
   3  -2  -1   80.89    3.40
   3  -2  -1   83.49    3.40
   3  -2  -1   80.39    3.90
   3  -2  -1   90.09    3.80
   3  -2  -1   94.49    3.50
   3  -2  -1   78.59    3.90
   3  -2  -1   81.99    3.60
   3  -2  -1   90.09    4.00
  -3   2   1   83.09    4.10
  -3   2   1   82.49    3.80
  -3   2   1   84.69    4.00
  -3   2   1   88.19    3.90
  -3   2   1   85.39    3.50
  -3   2   1   80.89    3.40
  -3   2   1   87.09    3.70
  -3   2   1   84.89    3.90
  -3   2   1   89.79    3.60
   2  -2  -1   33.40    1.90
   2  -2  -1   34.50    1.70
   2  -2  -1   34.60    2.00
   2  -2  -1   34.20    1.80
   2  -2  -1   36.20    2.00
   2  -2  -1   27.90    1.90
   2  -2  -1   35.20    1.80
   2  -2  -1   37.50    1.80
   2  -2  -1   34.40    2.00
   2  -2  -1   33.90    2.00
   2  -2  -1   36.70    2.10
  -2   2   1   38.70    2.10
  -2   2   1   35.50    2.20
  -2   2   1   35.00    2.00
  -2   2   1   34.20    1.90
  -2   2   1   37.30    1.70
  -2   2   1   35.50    1.90
  -2   2   1   37.00    1.80
  -2   2   1   34.70    2.10
  -2   2   1   38.30    1.80
  -2   2   1   35.90    2.10
   1  -2  -1 1872.21   59.99
   1  -2  -1 1966.60   60.09
   1  -2  -1 1859.81   59.99
   1  -2  -1 1946.11   60.09
   1  -2  -1 1892.21   59.89
   1  -2  -1 1934.91   60.19
   1  -2  -1 1927.71   60.09
   1  -2  -1 1927.91   59.79
   1  -2  -1 1913.11   59.79
   1  -2  -1 1874.81   59.79
   1  -2  -1 1844.92   60.09
  -1   2   1 1925.01   60.09
  -1   2   1 1862.91   60.39
  -1   2   1 1791.02   59.99
  -1   2   1 1962.00   60.09
  -1   2   1 1897.91   59.99
  -1   2   1 1842.12   59.99
  -1   2   1 1844.92   59.99
  -1   2   1 1793.32   59.79
  -1   2   1 1865.81   60.19
   0  -2  -1  521.25   16.30
   0  -2  -1  502.05   16.60
   0  -2  -1  525.25   16.70
   0  -2  -1  538.05   16.50
   0  -2  -1  482.75   16.50
   0  -2  -1  504.85   16.40
   0  -2  -1  515.35   16.60
   0  -2  -1  543.05   16.80
   0  -2  -1  510.65   16.60
   0  -2  -1  519.35   16.40
   0  -2  -1  510.25   16.70
   0  -2  -1  500.35   16.40
   0   2   1  526.25   16.80
   0   2   1  507.05   16.50
   0   2   1  489.05   16.70
   0   2   1  497.75   16.50
   0   2   1  508.45   16.40
   0   2   1  499.85   16.70
   0   2   1  521.95   16.50
   0   2   1  482.45   16.30
   0   2   1  496.35   16.70
  -1  -2  -1 1095.89   34.70
  -1  -2  -1 1067.09   34.50
  -1  -2  -1 1118.49   34.20
  -1  -2  -1 1106.19   34.50
  -1  -2  -1 1097.89   34.50
  -1  -2  -1 1054.59   34.10
  -1  -2  -1 1039.70   34.40
  -1  -2  -1 1095.49   34.30
  -1  -2  -1 1073.99   34.50
   1   2   1 1095.79   34.50
   1   2   1 1076.19   34.60
   1   2   1 1074.79   34.20
   1   2   1 1097.49   34.40
   1   2   1 1054.99   34.40
   1   2   1  982.40   34.60
  -2  -2  -1  819.62   27.60
  -2  -2  -1  857.81   27.10
  -2  -2  -1  831.52   27.50
  -2  -2  -1  863.11   27.70
  -2  -2  -1  822.92   27.20
  -2  -2  -1  824.62   27.50
  -2  -2  -1  868.41   27.60
  -2  -2  -1  819.52   27.70
  -2  -2  -1  888.41   27.30
   2   2   1  873.61   27.10
   2   2   1  853.31   27.80
   2   2   1  867.11   27.20
   2   2   1  847.32   27.60
   2   2   1  844.12   27.50
   2   2   1  844.12   27.50
   2   2   1  856.71   27.70
  -3  -2  -1    0.10    0.50
  -3  -2  -1    0.40    0.70
  -3  -2  -1    1.10    0.90
  -3  -2  -1    0.80    0.80
  -3  -2  -1    1.40    0.80
  -3  -2  -1    1.00    0.50
  -3  -2  -1    0.50    0.40
  -3  -2  -1    0.60    0.70
  -3  -2  -1    0.70    0.80
   3   2   1    1.10    0.70
   3   2   1   -0.30    0.80
   3   2   1    1.20    0.80
   3   2   1    0.70    0.80
   3   2   1    1.30    0.80
   3   2   1    1.50    1.10
   3   2   1    0.40    0.80
  -4  -2  -1  267.67    9.70
  -4  -2  -1  262.07    9.10
  -4  -2  -1  267.47    9.60
  -4  -2  -1  268.27    9.10
  -4  -2  -1  263.27    9.70
  -4  -2  -1  259.87    9.40
  -4  -2  -1  257.07    9.70
   4   2   1  261.67    9.70
   4   2   1  266.67    9.10
   4   2   1  257.47   10.00
   4   2   1  248.08    9.60
   4   2   1  239.88    9.40
   4   2   1  254.57   10.00
  -5  -2  -1   50.29    3.40
  -5  -2  -1   51.19    3.40
  -5  -2  -1   47.00    2.70
  -5  -2  -1   51.99    2.70
  -5  -2  -1   49.80    3.40
  -5  -2  -1   46.90    3.30
   5   2   1   48.70    3.60
   5   2   1   48.80    2.70
   5   2   1   50.69    3.60
   5   2   1   49.30    3.20
  -6  -2  -1   -1.50    1.40
  -6  -2  -1    3.20    1.60
  -6  -2  -1    3.30    1.20
  -6  -2  -1    2.90    1.60
  -6  -2  -1    2.90    1.60
  -6  -2  -1    2.70    1.80
   6   2   1    2.00    1.90
   6   2   1    1.00    1.60
   6   2   1    1.50    1.70
   6   2   1    0.90    1.10
   6   2   1   -0.60    1.30
  -7  -2  -1   23.00    2.90
  -7  -2  -1   27.70    3.50
  -7  -2  -1   26.70    3.20
  -7  -2  -1   26.40    3.60
   7   2   1   21.30    3.10
   7   2   1   20.70    3.50
  -8  -2  -1   31.20    4.10
  -8  -2  -1   30.60    3.70
  -8  -2  -1   27.00    3.70
   8   2   1   24.50    4.10
  -9  -2  -1    0.30    2.80
  -9  -2  -1    2.50    2.80
   9   2   1    3.60    3.30
 -10  -2  -1    7.60    3.40
  10   2   1   12.80    4.50
  10  -3  -1   18.40    4.60
 -10   3   1   22.10    4.80
 -10   3   1   15.60    3.30
 -10   3   1   13.10    3.00
   9  -3  -1    1.50    3.20
   9  -3  -1    8.10    1.60
  -9   3   1    4.90    3.40
  -9   3   1    3.20    2.00
  -9   3   1    5.80    2.90
  -9   3   1    5.30    2.50
   8  -3  -1   12.00    2.40
   8  -3  -1   12.70    3.60
   8  -3  -1   13.40    1.80
  -8   3   1   11.10    3.10
  -8   3   1   16.60    2.80
  -8   3   1   15.70    3.40
  -8   3   1   13.30    2.30
   7  -3  -1   98.89    5.30
   7  -3  -1   99.69    4.70
   7  -3  -1  105.79    6.60
  -7   3   1  108.79    5.30
  -7   3   1  100.09    5.20
  -7   3   1  104.79    6.10
  -7   3   1  100.49    6.20
  -7   3   1   99.29    5.50
   6  -3  -1   47.80    2.90
   6  -3  -1   55.59    3.90
   6  -3  -1   56.69    5.00
   6  -3  -1   49.99    3.80
   6  -3  -1   46.10    2.80
   6  -3  -1   51.69    3.80
  -6   3   1   45.70    4.00
  -6   3   1   40.30    5.10
  -6   3   1   53.79    3.60
  -6   3   1   54.59    4.60
  -6   3   1   57.59    3.40
  -6   3   1   48.80    3.20
   5  -3  -1  238.08    9.50
   5  -3  -1  234.48    9.10
   5  -3  -1  254.17   10.00
   5  -3  -1  236.08    8.80
   5  -3  -1  245.48    8.80
   5  -3  -1  245.18    8.80
   5  -3  -1  248.58    9.40
   5  -3  -1  238.08    9.60
   5  -3  -1  237.98    9.80
  -5   3   1  239.68    9.50
  -5   3   1  247.68    9.30
  -5   3   1  242.08    9.80
  -5   3   1  252.87    9.70
  -5   3   1  231.98    8.80
  -5   3   1  218.68    8.80
  -5   3   1  232.28    9.00
  -5   3   1  248.48    9.70
  -5   3   1  249.88    9.90
   4  -3  -1  442.26   15.70
   4  -3  -1  426.66   14.80
   4  -3  -1  428.06   15.40
   4  -3  -1  435.66   15.70
   4  -3  -1  431.16   15.50
   4  -3  -1  463.35   15.30
   4  -3  -1  449.86   14.80
   4  -3  -1  415.16   14.80
  -4   3   1  443.16   15.20
  -4   3   1  447.66   15.60
  -4   3   1  427.86   14.80
  -4   3   1  433.56   15.40
  -4   3   1  444.06   15.50
  -4   3   1  414.56   15.50
  -4   3   1  451.05   15.80
  -4   3   1  449.66   15.10
   3  -3  -1    7.90    1.20
   3  -3  -1    9.60    1.20
   3  -3  -1    6.60    1.30
   3  -3  -1   11.40    1.60
   3  -3  -1    6.60    1.10
   3  -3  -1    6.40    1.30
   3  -3  -1    5.80    1.10
   3  -3  -1    4.60    1.30
   3  -3  -1    8.30    1.20
  -3   3   1    7.20    1.30
  -3   3   1    9.10    1.50
  -3   3   1    8.20    1.60
  -3   3   1    9.30    1.40
  -3   3   1    8.00    1.30
  -3   3   1    7.70    1.10
  -3   3   1    6.90    1.00
  -3   3   1    9.20    1.40
  -3   3   1    8.10    1.20
   2  -3  -1  776.12   25.40
   2  -3  -1  787.22   25.00
   2  -3  -1  797.02   25.40
   2  -3  -1  772.52   24.90
   2  -3  -1  773.22   25.00
   2  -3  -1  755.42   25.40
   2  -3  -1  734.73   25.20
   2  -3  -1  792.12   25.20
  -2   3   1  786.12   24.90
  -2   3   1  737.53   25.40
  -2   3   1  736.63   25.20
  -2   3   1  758.02   25.40
  -2   3   1  780.82   25.30
  -2   3   1  783.82   25.20
  -2   3   1  768.72   24.80
  -2   3   1  735.83   25.20
  -2   3   1  787.12   25.40
  -2   3   1  778.22   25.40
  -2   3   1  745.03   24.90
   1  -3  -1  253.77    8.60
   1  -3  -1  250.07    8.80
   1  -3  -1  248.38    8.80
   1  -3  -1  244.48    8.60
   1  -3  -1  263.57    8.80
   1  -3  -1  263.67    8.40
   1  -3  -1  259.77    8.90
   1  -3  -1  244.18    8.80
   1  -3  -1  244.38    8.90
   1  -3  -1  252.97    9.10
  -1   3   1  261.57    8.80
  -1   3   1  240.28    8.90
  -1   3   1  258.17    9.10
  -1   3   1  245.28    8.70
  -1   3   1  245.28    8.80
  -1   3   1  255.67    8.90
  -1   3   1  238.68    8.30
  -1   3   1  248.98    8.90
  -1   3   1  235.38    8.50
   0  -3  -1   10.50    1.20
   0  -3  -1    9.80    0.80
   0  -3  -1   13.10    1.40
   0  -3  -1   10.50    1.20
   0  -3  -1    9.40    1.00
   0  -3  -1   10.90    1.10
   0  -3  -1   10.90    1.00
   0  -3  -1    6.70    0.80
   0  -3  -1    7.90    1.20
   0   3   1    8.00    1.10
   0   3   1    9.60    0.90
   0   3   1    5.30    1.00
   0   3   1   11.30    1.20
   0   3   1    8.10    1.20
   0   3   1    8.00    1.10
   0   3   1   10.80    1.20
   0   3   1    9.30    1.20
   0   3   1   12.10    1.20
   0   3   1    9.80    0.70
   0   3   1    8.10    0.70
  -1  -3  -1  569.54   18.40
  -1  -3  -1  550.44   18.40
  -1  -3  -1  553.04   18.30
  -1  -3  -1  560.54   18.50
  -1  -3  -1  547.75   17.80
  -1  -3  -1  558.24   18.00
  -1  -3  -1  574.74   18.50
  -1  -3  -1  538.95   18.10
  -1  -3  -1  558.94   18.00
   1   3   1  560.04   18.70
   1   3   1  555.94   17.90
   1   3   1  564.84   18.40
   1   3   1  529.75   18.20
   1   3   1  532.35   18.50
   1   3   1  564.14   18.40
   1   3   1  538.45   18.60
  -2  -3  -1  608.34   19.70
  -2  -3  -1  596.44   19.70
  -2  -3  -1  620.34   19.80
  -2  -3  -1  612.04   19.30
  -2  -3  -1  586.44   19.80
  -2  -3  -1  589.54   19.20
  -2  -3  -1  589.44   19.80
   2   3   1  618.04   19.70
   2   3   1  578.04   19.70
   2   3   1  556.74   19.70
   2   3   1  599.94   19.20
   2   3   1  607.14   20.10
   2   3   1  584.24   20.00
   2   3   1  567.24   20.00
   2   3   1  576.64   19.30
  -3  -3  -1   38.30    2.50
  -3  -3  -1   37.50    2.00
  -3  -3  -1   37.40    2.50
  -3  -3  -1   38.30    2.50
  -3  -3  -1   38.30    2.50
  -3  -3  -1   39.00    1.90
   3   3   1   42.20    2.80
   3   3   1   38.10    2.90
   3   3   1   38.10    2.70
   3   3   1   38.60    2.50
   3   3   1   41.90    2.50
   3   3   1   41.80    2.10
   3   3   1   39.20    2.50
   3   3   1   40.70    1.70
  -4  -3  -1  239.88    8.50
  -4  -3  -1  239.08    8.50
  -4  -3  -1  247.48    9.20
  -4  -3  -1  248.88    9.00
  -4  -3  -1  241.18    9.00
  -4  -3  -1  249.58    9.30
  -4  -3  -1  233.58    9.20
   4   3   1  233.38    8.40
   4   3   1  234.68    9.00
   4   3   1  243.58    9.50
   4   3   1  231.58    9.50
   4   3   1  199.28    9.00
   4   3   1  241.38    9.00
  -5  -3  -1  119.19    5.70
  -5  -3  -1  118.99    4.90
  -5  -3  -1  117.89    5.50
  -5  -3  -1  110.99    5.50
  -5  -3  -1  112.29    4.90
  -5  -3  -1  129.19    5.90
   5   3   1  117.69    5.40
   5   3   1  108.59    6.00
   5   3   1  127.79    4.90
   5   3   1   91.19    5.30
   5   3   1  114.79    6.00
  -6  -3  -1    9.10    2.10
  -6  -3  -1   12.00    2.50
  -6  -3  -1   11.80    2.40
  -6  -3  -1   13.60    2.50
   6   3   1   13.10    2.60
   6   3   1   11.90    2.50
   6   3   1    9.70    2.50
  -7  -3  -1   57.89    5.00
  -7  -3  -1   69.49    4.90
  -7  -3  -1   68.09    5.00
  -7  -3  -1   62.19    4.70
  -7  -3  -1   57.99    4.60
   7   3   1   63.49    5.90
  -8  -3  -1    0.40    2.40
  -8  -3  -1   -0.20    2.10
  -8  -3  -1    1.00    2.60
   8   3   1    1.60    2.90
  -9  -3  -1    6.00    3.20
   9   3   1   -0.40    3.20
  10  -4  -1   -1.40    3.40
  10  -4  -1    0.40    1.30
 -10   4   1    4.70    3.50
 -10   4   1   -0.70    2.20
 -10   4   1    0.90    2.50
   9  -4  -1   28.40    2.50
   9  -4  -1   23.00    4.50
  -9   4   1   35.40    3.90
  -9   4   1   34.00    5.20
  -9   4   1   24.30    3.60
  -9   4   1   23.50    4.00
   8  -4  -1   -3.80    2.20
   8  -4  -1    2.10    1.40
   8  -4  -1    5.20    2.20
  -8   4   1    0.90    2.00
  -8   4   1    3.10    2.70
  -8   4   1    0.60    2.50
  -8   4   1    1.10    1.80
   7  -4  -1  154.38    7.10
   7  -4  -1  154.58    6.40
   7  -4  -1  147.79    8.20
  -7   4   1  153.08    7.30
  -7   4   1  154.48    8.00
  -7   4   1  152.18    7.90
  -7   4   1  155.78    7.10
  -7   4   1  152.18    6.80
   6  -4  -1   69.59    3.60
   6  -4  -1   68.19    4.50
   6  -4  -1   71.49    4.20
   6  -4  -1   64.69    4.80
  -6   4   1   66.89    4.30
  -6   4   1   71.69    4.00
  -6   4   1   71.29    4.10
  -6   4   1   76.99    4.80
  -6   4   1   68.59    4.90
   5  -4  -1   77.69    4.70
   5  -4  -1   77.89    3.90
   5  -4  -1   79.39    4.90
   5  -4  -1   78.49    4.80
   5  -4  -1   82.39    3.90
   5  -4  -1   77.79    4.60
   5  -4  -1   87.29    4.40
   5  -4  -1   85.09    4.00
  -5   4   1   91.99    4.20
  -5   4   1   83.29    4.00
  -5   4   1   90.29    4.60
  -5   4   1   80.79    4.70
  -5   4   1   82.69    4.90
  -5   4   1   77.59    4.70
  -5   4   1   77.29    4.50
  -5   4   1   81.49    4.20
   4  -4  -1  489.85   18.10
   4  -4  -1  524.75   17.80
   4  -4  -1  503.45   17.90
   4  -4  -1  533.45   18.10
   4  -4  -1  515.15   17.20
   4  -4  -1  526.35   18.20
   4  -4  -1  499.45   17.50
   4  -4  -1  512.35   17.60
   4  -4  -1  528.75   17.40
  -4   4   1  509.85   17.30
  -4   4   1  492.25   18.00
  -4   4   1  506.05   17.70
  -4   4   1  535.05   18.10
  -4   4   1  499.55   18.20
  -4   4   1  517.95   18.10
  -4   4   1  491.25   17.20
  -4   4   1  516.65   17.50
  -4   4   1  511.05   18.20
   3  -4  -1   59.79    3.10
   3  -4  -1   59.59    3.50
   3  -4  -1   68.59    3.70
   3  -4  -1   64.99    3.00
   3  -4  -1   62.99    3.60
   3  -4  -1   69.49    3.60
   3  -4  -1   56.69    3.20
   3  -4  -1   64.59    3.40
  -3   4   1   72.29    3.30
  -3   4   1   62.49    3.40
  -3   4   1   69.89    3.60
  -3   4   1   66.89    3.10
  -3   4   1   61.49    3.60
  -3   4   1   58.39    3.60
  -3   4   1   59.19    3.50
  -3   4   1   61.79    2.90
  -3   4   1   61.49    3.50
   2  -4  -1  352.86   12.20
   2  -4  -1  338.27   12.20
   2  -4  -1  365.16   12.50
   2  -4  -1  366.36   12.70
   2  -4  -1  344.27   12.50
   2  -4  -1  373.06   12.70
   2  -4  -1  350.96   12.80
   2  -4  -1  369.96   12.00
   2  -4  -1  359.46   12.70
  -2   4   1  355.36   12.60
  -2   4   1  328.17   11.90
  -2   4   1  341.87   12.70
  -2   4   1  358.06   12.70
  -2   4   1  368.26   12.50
  -2   4   1  359.96   12.70
  -2   4   1  351.86   12.20
  -2   4   1  343.87   12.60
   1  -4  -1  746.13   24.10
   1  -4  -1  720.43   24.00
   1  -4  -1  714.93   24.30
   1  -4  -1  730.63   23.40
   1  -4  -1  739.13   24.00
   1  -4  -1  718.93   23.70
   1  -4  -1  715.13   23.90
   1  -4  -1  734.53   23.90
   1  -4  -1  710.83   23.70
   1  -4  -1  730.03   24.10
  -1   4   1  728.43   24.10
  -1   4   1  723.73   24.10
  -1   4   1  715.23   23.90
  -1   4   1  647.34   23.90
  -1   4   1  746.93   23.30
  -1   4   1  748.33   23.90
  -1   4   1  719.03   24.10
  -1   4   1  702.73   24.30
  -1   4   1  715.73   23.30
  -1   4   1  731.63   23.50
   0  -4  -1    2.10    0.90
   0  -4  -1    4.70    1.20
   0  -4  -1    4.50    0.70
   0  -4  -1    3.90    0.90
   0  -4  -1    2.50    0.80
   0  -4  -1    4.40    1.30
   0  -4  -1    1.50    0.80
   0  -4  -1    5.00    0.90
   0   4   1    5.10    0.70
   0   4   1    4.30    0.60
   0   4   1    3.50    1.10
   0   4   1    2.00    0.90
   0   4   1    4.20    1.20
   0   4   1    3.30    0.80
   0   4   1    4.10    1.10
   0   4   1    5.60    1.00
   0   4   1    3.20    1.00
   0   4   1    4.10    1.20
   0   4   1    2.20    0.80
  -1  -4  -1  153.58    6.00
  -1  -4  -1  159.08    6.20
  -1  -4  -1  158.28    5.70
  -1  -4  -1  148.89    6.10
  -1  -4  -1  166.38    6.50
  -1  -4  -1  152.58    5.90
  -1  -4  -1  155.58    5.50
   1   4   1  147.49    5.20
   1   4   1  142.59    5.90
   1   4   1  156.78    6.20
   1   4   1  165.38    6.50
   1   4   1  162.48    5.20
   1   4   1  150.08    6.50
   1   4   1  151.98    6.00
   1   4   1  153.48    6.40
   1   4   1  158.08    6.20
   1   4   1  155.18    5.60
   1   4   1  162.88    6.10
  -2  -4  -1   73.69    3.50
  -2  -4  -1   76.69    3.70
  -2  -4  -1   73.49    3.60
  -2  -4  -1   72.09    3.80
  -2  -4  -1   76.69    3.00
  -2  -4  -1   69.19    3.10
   2   4   1   66.49    3.80
   2   4   1   76.29    3.10
   2   4   1   68.49    3.90
   2   4   1   68.49    3.50
   2   4   1   70.79    3.60
   2   4   1   72.69    3.60
   2   4   1   64.79    3.90
  -3  -4  -1   42.10    2.80
  -3  -4  -1   36.80    2.70
  -3  -4  -1   39.20    2.10
  -3  -4  -1   37.90    2.20
  -3  -4  -1   44.10    2.80
  -3  -4  -1   42.10    2.80
   3   4   1   41.30    3.10
   3   4   1   39.30    3.10
   3   4   1   37.70    2.60
   3   4   1   35.80    1.80
   3   4   1   39.70    2.20
   3   4   1   41.20    2.70
   3   4   1   47.30    3.30
  -4  -4  -1  101.79    5.10
  -4  -4  -1  113.79    5.30
  -4  -4  -1  106.29    5.30
  -4  -4  -1  104.29    4.40
  -4  -4  -1  105.89    4.50
  -4  -4  -1  103.09    5.40
  -4  -4  -1  107.79    5.20
   4   4   1  107.79    4.40
   4   4   1  104.39    5.70
   4   4   1  101.89    5.50
   4   4   1  101.89    5.00
   4   4   1  115.99    5.70
  -5  -4  -1   40.00    3.50
  -5  -4  -1   49.10    2.90
  -5  -4  -1   42.40    3.80
  -5  -4  -1   37.30    3.40
  -5  -4  -1   49.60    4.10
   5   4   1   47.70    3.80
   5   4   1   36.60    3.60
   5   4   1   36.70    4.10
   5   4   1   47.70    4.20
  -6  -4  -1    6.80    2.10
  -6  -4  -1    3.90    2.20
  -6  -4  -1    5.00    2.00
  -6  -4  -1    5.90    2.30
   6   4   1    9.30    2.80
   6   4   1    6.10    2.30
  -7  -4  -1   18.00    3.20
  -7  -4  -1    6.00    2.40
  -7  -4  -1   16.60    3.20
   7   4   1    7.20    3.10
  -8  -4  -1    7.00    3.00
  -8  -4  -1    1.90    2.80
  -8  -4  -1    3.00    2.50
   8   4   1    0.70    3.00
  -9  -4  -1   -1.80    2.90
   9   4   1    1.40    3.20
  10  -5  -1    1.80    3.50
  10  -5  -1    3.20    1.50
 -10   5   1    5.10    4.20
 -10   5   1    0.00    2.10
   9  -5  -1    4.10    3.60
   9  -5  -1   -0.80    1.40
  -9   5   1    2.00    3.00
  -9   5   1    1.50    2.10
  -9   5   1   -3.00    3.20
  -9   5   1    0.10    2.10
   8  -5  -1    2.10    3.00
   8  -5  -1    0.60    1.90
   8  -5  -1    1.60    1.50
  -8   5   1    0.20    1.90
  -8   5   1   -0.50    1.50
  -8   5   1    1.80    2.90
  -8   5   1   -2.70    2.20
   7  -5  -1    7.80    1.60
   7  -5  -1    4.30    2.10
   7  -5  -1    2.10    2.80
  -7   5   1    5.70    2.00
  -7   5   1    6.50    2.70
  -7   5   1    5.30    1.80
  -7   5   1    4.20    2.50
   6  -5  -1   54.29    3.20
   6  -5  -1   53.99    4.10
   6  -5  -1   51.79    4.90
   6  -5  -1   62.09    4.40
  -6   5   1   49.40    3.60
  -6   5   1   50.79    3.80
  -6   5   1   56.39    5.20
  -6   5   1   51.89    4.80
  -6   5   1   51.09    4.00
   5  -5  -1   27.20    3.40
   5  -5  -1   21.70    2.70
   5  -5  -1   32.00    3.20
   5  -5  -1   26.40    2.30
  -5   5   1   28.50    2.60
  -5   5   1   21.30    2.90
  -5   5   1   32.60    3.70
  -5   5   1   23.60    3.10
  -5   5   1   32.00    3.00
  -5   5   1   27.30    2.90
   4  -5  -1  343.97   13.00
   4  -5  -1  341.57   12.20
   4  -5  -1  350.46   13.10
   4  -5  -1  347.67   12.30
   4  -5  -1  332.97   12.70
   4  -5  -1  331.97   12.90
   4  -5  -1  344.17   13.10
   4  -5  -1  339.07   12.50
   4  -5  -1  335.57   11.90
  -4   5   1  326.17   11.90
  -4   5   1  339.87   12.20
  -4   5   1  333.77   13.00
  -4   5   1  353.26   12.10
  -4   5   1  347.17   12.60
  -4   5   1  327.07   12.90
  -4   5   1  338.97   13.10
  -4   5   1  326.87   12.90
   3  -5  -1   26.70    2.40
   3  -5  -1   24.00    1.90
   3  -5  -1   26.00    2.20
   3  -5  -1   22.40    2.60
   3  -5  -1   26.20    2.70
   3  -5  -1   24.10    2.80
   3  -5  -1   31.20    2.70
   3  -5  -1   23.50    2.40
   3  -5  -1   21.80    2.40
  -3   5   1   23.40    1.80
  -3   5   1   32.60    3.00
  -3   5   1   26.50    2.30
  -3   5   1   25.50    2.70
  -3   5   1   23.20    2.50
  -3   5   1   24.30    2.70
  -3   5   1   26.20    2.70
   2  -5  -1  568.74   19.70
   2  -5  -1  578.44   20.10
   2  -5  -1  582.04   20.00
   2  -5  -1  595.44   20.30
   2  -5  -1  583.64   20.20
   2  -5  -1  559.44   19.70
   2  -5  -1  582.24   20.20
   2  -5  -1  605.24   19.40
   2  -5  -1  607.04   20.60
  -2   5   1  589.64   20.40
  -2   5   1  584.54   19.30
  -2   5   1  579.84   20.40
  -2   5   1  592.94   20.20
  -2   5   1  579.04   19.60
  -2   5   1  573.94   20.30
  -2   5   1  603.74   20.50
   1  -5  -1  258.07    9.40
   1  -5  -1  241.58    9.60
   1  -5  -1  248.68    8.60
   1  -5  -1  241.98    9.20
   1  -5  -1  246.28    8.90
   1  -5  -1  248.98    9.00
   1  -5  -1  247.68    9.50
   1  -5  -1  235.78    9.30
   1  -5  -1  242.18    9.30
  -1   5   1  245.28    9.70
  -1   5   1  237.38    8.40
  -1   5   1  232.38    9.40
  -1   5   1  252.37    9.50
  -1   5   1  231.08    9.20
  -1   5   1  250.97    8.70
  -1   5   1  251.87    9.60
  -1   5   1  251.97    8.50
   0  -5  -1   39.10    2.00
   0  -5  -1   42.10    2.40
   0  -5  -1   40.20    2.80
   0  -5  -1   37.60    2.40
   0  -5  -1   40.00    2.80
   0  -5  -1   39.70    2.70
   0  -5  -1   40.70    2.80
   0   5   1   34.30    2.20
   0   5   1   35.90    2.60
   0   5   1   38.00    1.80
   0   5   1   42.70    3.40
   0   5   1   38.30    3.00
   0   5   1   43.90    2.70
   0   5   1   40.70    1.90
   0   5   1   36.80    2.80
  -1  -5  -1  145.19    6.10
  -1  -5  -1  153.88    6.50
  -1  -5  -1  153.48    7.40
  -1  -5  -1  150.98    5.90
  -1  -5  -1  162.38    6.40
  -1  -5  -1  147.99    5.40
   1   5   1  151.58    5.10
   1   5   1  143.29    6.60
   1   5   1  143.59    6.00
   1   5   1  139.19    5.00
   1   5   1  146.79    6.60
   1   5   1  147.99    6.20
   1   5   1  137.69    5.50
   1   5   1  150.18    6.70
  -2  -5  -1  147.89    6.40
  -2  -5  -1  149.88    6.70
  -2  -5  -1  155.98    5.90
  -2  -5  -1  159.88    6.70
  -2  -5  -1  151.58    5.70
  -2  -5  -1  161.58    6.10
  -2  -5  -1  145.19    6.30
   2   5   1  143.19    6.30
   2   5   1  152.48    6.30
   2   5   1  166.08    7.20
   2   5   1  160.68    5.90
   2   5   1  160.48    6.90
   2   5   1  157.98    7.10
  -3  -5  -1    1.20    1.10
  -3  -5  -1    0.90    1.30
  -3  -5  -1    1.90    1.30
  -3  -5  -1    3.20    1.00
  -3  -5  -1    2.60    1.50
  -3  -5  -1    2.60    1.60
  -3  -5  -1    2.90    0.90
   3   5   1    1.80    1.00
   3   5   1    1.50    1.40
   3   5   1    1.70    1.70
   3   5   1    1.50    0.70
   3   5   1    4.50    1.30
   3   5   1    0.10    0.40
  -4  -5  -1  109.39    5.50
  -4  -5  -1  106.79    5.00
  -4  -5  -1  107.29    5.80
  -4  -5  -1  110.09    5.50
  -4  -5  -1  104.49    5.40
  -4  -5  -1  100.29    5.40
  -4  -5  -1  115.99    4.70
   4   5   1  102.79    5.80
   4   5   1   97.59    5.10
   4   5   1  109.09    4.60
   4   5   1  108.79    6.00
   4   5   1  102.19    5.80
  -5  -5  -1  104.19    6.00
  -5  -5  -1  106.39    5.70
  -5  -5  -1   98.59    5.70
  -5  -5  -1   94.19    5.60
   5   5   1  103.29    6.10
   5   5   1  108.19    6.20
  -6  -5  -1   13.80    2.80
  -6  -5  -1   17.20    3.20
  -6  -5  -1   14.00    2.70
   6   5   1   14.20    3.20
  -7  -5  -1   41.20    4.50
  -7  -5  -1   39.10    4.50
  -7  -5  -1   43.60    4.40
   7   5   1   44.00    5.00
   7   5   1   38.40    5.20
  -8  -5  -1    2.80    3.00
  -8  -5  -1    0.30    2.60
   8   5   1   -1.00    2.70
   8   5   1   -0.30    3.00
  -9  -5  -1    7.40    3.60
   9   5   1    3.80    3.80
   9   5   1    1.60    3.40
   9  -6  -1    2.70    1.70
   9  -6  -1    5.70    3.50
  -9   6   1    0.70    3.40
  -9   6   1    4.10    2.10
  -9   6   1    3.00    3.00
  -9   6   1    4.20    2.50
   8  -6  -1   15.30    4.00
   8  -6  -1   21.00    2.50
  -8   6   1   22.60    4.20
  -8   6   1   19.30    3.00
  -8   6   1   21.80    4.40
  -8   6   1   24.40    3.20
   7  -6  -1   19.80    2.90
   7  -6  -1   24.00    4.20
   7  -6  -1   25.10    2.60
  -7   6   1   24.20    3.20
  -7   6   1   24.50    4.10
  -7   6   1   28.00    3.30
  -7   6   1   25.30    3.90
   6  -6  -1   12.40    3.10
   6  -6  -1   11.50    1.80
   6  -6  -1    9.80    2.30
  -6   6   1   11.30    2.80
  -6   6   1    7.70    1.80
  -6   6   1    9.40    2.90
  -6   6   1   12.30    2.30
   5  -6  -1    2.40    1.80
   5  -6  -1    1.50    2.00
   5  -6  -1    1.60    1.70
   5  -6  -1    0.90    1.10
   5  -6  -1    0.80    1.70
  -5   6   1    3.10    2.10
  -5   6   1    3.50    2.20
  -5   6   1    2.40    1.30
  -5   6   1    0.50    1.40
  -5   6   1    0.90    1.50
   4  -6  -1   55.79    4.00
   4  -6  -1   46.90    3.40
   4  -6  -1   61.59    3.20
   4  -6  -1   60.59    4.30
   4  -6  -1   50.89    3.60
   4  -6  -1   59.39    4.30
   4  -6  -1   62.59    4.00
  -4   6   1   61.49    4.60
  -4   6   1   58.49    3.20
  -4   6   1   48.90    4.40
  -4   6   1   56.79    3.60
  -4   6   1   55.99    4.00
  -4   6   1   54.29    4.20
   3  -6  -1  148.79    7.10
   3  -6  -1  145.69    6.70
   3  -6  -1  156.78    6.70
   3  -6  -1  149.79    5.80
   3  -6  -1  138.19    6.70
   3  -6  -1  147.69    6.30
   3  -6  -1  144.49    7.00
   3  -6  -1  133.29    6.10
  -3   6   1  147.29    5.70
  -3   6   1  145.49    7.00
  -3   6   1  132.19    6.50
  -3   6   1  130.89    6.80
  -3   6   1  141.79    6.90
  -3   6   1  136.69    6.00
  -3   6   1  146.49    7.10
   2  -6  -1  131.49    5.90
   2  -6  -1  143.39    6.00
   2  -6  -1  143.69    6.30
   2  -6  -1  141.89    6.40
   2  -6  -1  141.59    6.80
   2  -6  -1  132.39    6.60
   2  -6  -1  137.29    5.50
   2  -6  -1  136.99    6.30
  -2   6   1  125.79    6.20
  -2   6   1  143.69    6.80
  -2   6   1  141.19    6.70
  -2   6   1  147.39    6.70
  -2   6   1  151.48    6.80
  -2   6   1  139.49    5.40
  -2   6   1  131.49    5.70
  -2   6   1  137.39    5.40
   1  -6  -1  562.04   19.30
   1  -6  -1  542.85   19.70
   1  -6  -1  581.24   19.80
   1  -6  -1  559.54   20.00
   1  -6  -1  565.44   20.10
   1  -6  -1  573.14   18.90
   1  -6  -1  571.74   19.40
   1  -6  -1  561.84   19.70
  -1   6   1  570.24   20.10
  -1   6   1  545.55   18.70
  -1   6   1  551.04   19.70
  -1   6   1  569.74   19.10
  -1   6   1  585.64   20.50
  -1   6   1  588.94   18.70
  -1   6   1  594.84   20.20
   0  -6  -1   27.90    1.90
   0  -6  -1   32.20    2.60
   0  -6  -1   25.40    2.80
   0  -6  -1   28.60    2.80
   0   6   1   23.50    2.70
   0   6   1   26.60    3.20
   0   6   1   32.50    2.40
   0   6   1   29.40    1.80
   0   6   1   25.70    2.60
   0   6   1   27.10    3.20
   0   6   1   30.40    2.80
   0   6   1   24.60    1.60
  -1  -6  -1  398.26   13.70
  -1  -6  -1  397.36   14.60
  -1  -6  -1  380.56   13.30
  -1  -6  -1  389.76   13.90
  -1  -6  -1  397.56   14.20
  -1  -6  -1  415.36   14.40
   1   6   1  403.76   13.40
   1   6   1  383.46   14.70
   1   6   1  383.76   14.70
   1   6   1  378.96   14.80
   1   6   1  377.56   14.00
   1   6   1  393.56   14.10
  -2  -6  -1   30.50    2.60
  -2  -6  -1   29.50    2.30
  -2  -6  -1   32.40    3.30
  -2  -6  -1   27.00    2.70
  -2  -6  -1   28.30    1.90
  -2  -6  -1   23.00    2.90
  -2  -6  -1   30.10    2.90
   2   6   1   25.80    2.60
   2   6   1   32.00    3.30
   2   6   1   27.80    3.30
   2   6   1   22.80    2.50
   2   6   1   29.40    2.30
   2   6   1   25.30    3.00
  -3  -6  -1   23.30    3.00
  -3  -6  -1   23.30    2.00
  -3  -6  -1   32.40    3.40
  -3  -6  -1   25.40    2.40
  -3  -6  -1   27.80    3.00
   3   6   1   23.20    3.00
   3   6   1   28.90    2.80
   3   6   1   24.70    1.80
   3   6   1   31.10    3.70
   3   6   1   29.20    3.40
   3   6   1   26.40    2.20
  -4  -6  -1   84.79    5.10
  -4  -6  -1   88.49    5.50
  -4  -6  -1   84.09    5.20
  -4  -6  -1   90.29    4.60
   4   6   1   84.29    5.70
   4   6   1   87.89    5.70
  -5  -6  -1    3.80    1.90
  -5  -6  -1    1.80    2.10
  -5  -6  -1   -0.90    2.00
  -5  -6  -1    0.60    2.20
  -5  -6  -1    4.70    1.70
   5   6   1    5.40    2.50
  -6  -6  -1   11.60    2.70
  -6  -6  -1    8.60    2.90
  -6  -6  -1    7.50    2.90
   6   6   1    6.60    2.80
  -7  -6  -1    7.60    2.90
  -7  -6  -1    7.70    3.00
  -7  -6  -1    6.80    2.70
   7   6   1    1.40    2.90
  -8  -6  -1    1.20    2.80
   8   6   1    1.80    3.20
   9  -7  -1    4.60    4.00
   9  -7  -1    0.20    1.60
  -9   7   1    2.40    3.60
  -9   7   1    2.70    2.20
  -9   7   1    1.00    3.60
   8  -7  -1   17.80    2.50
   8  -7  -1   21.50    4.60
  -8   7   1   13.50    3.00
  -8   7   1   15.30    3.90
  -8   7   1   12.00    2.50
  -8   7   1   16.60    4.20
   7  -7  -1   42.70    4.10
   7  -7  -1   52.39    6.00
   7  -7  -1   48.00    3.60
  -7   7   1   44.80    5.10
  -7   7   1   43.50    4.10
  -7   7   1   51.39    5.70
  -7   7   1   35.90    3.70
   6  -7  -1   -0.90    2.50
   6  -7  -1   -1.20    1.80
   6  -7  -1   -0.70    1.40
  -6   7   1   -0.40    2.40
  -6   7   1   -3.20    2.50
  -6   7   1   -0.30    1.30
  -6   7   1    0.70    2.00
   5  -7  -1   56.19    4.40
   5  -7  -1   43.40    4.10
   5  -7  -1   49.99    5.00
   5  -7  -1   53.79    3.40
  -5   7   1   62.79    5.50
  -5   7   1   65.49    4.10
  -5   7   1   44.60    4.80
   4  -7  -1   83.49    5.10
   4  -7  -1   82.99    5.20
   4  -7  -1   73.79    5.50
   4  -7  -1   72.59    3.90
   4  -7  -1   72.19    4.60
  -4   7   1   72.69    4.30
  -4   7   1   80.69    5.70
  -4   7   1   74.09    5.40
   3  -7  -1   63.29    3.50
   3  -7  -1   72.39    5.10
   3  -7  -1   66.19    4.20
   3  -7  -1   63.79    4.20
   3  -7  -1   60.09    4.40
   3  -7  -1   69.89    4.60
  -3   7   1   65.49    4.40
  -3   7   1   65.69    5.00
  -3   7   1   69.39    4.00
  -3   7   1   61.79    4.60
  -3   7   1   69.99    5.00
  -3   7   1   63.39    3.30
   2  -7  -1  229.78    9.60
   2  -7  -1  234.08    9.20
   2  -7  -1  247.68    9.70
   2  -7  -1  231.88   10.10
   2  -7  -1  252.47    9.40
   2  -7  -1  230.48    8.70
  -2   7   1  214.58   10.00
  -2   7   1  236.98   10.10
  -2   7   1  209.08    8.80
  -2   7   1  240.08    8.60
  -2   7   1  232.98   10.30
  -2   7   1  233.68    8.50
  -2   7   1  248.08    9.90
  -2   7   1  237.48   10.10
   1  -7  -1  535.75   18.80
   1  -7  -1  554.44   19.50
   1  -7  -1  562.04   19.30
   1  -7  -1  543.95   18.90
   1  -7  -1  522.05   19.50
   1  -7  -1  542.05   18.20
  -1   7   1  540.55   19.70
  -1   7   1  518.15   19.80
  -1   7   1  541.55   18.00
  -1   7   1  533.45   18.50
  -1   7   1  518.75   19.20
  -1   7   1  543.25   20.00
  -1   7   1  565.04   18.10
  -1   7   1  556.94   19.90
   0  -7  -1   52.29    3.80
   0  -7  -1   48.70    3.70
   0  -7  -1   45.90    4.20
   0  -7  -1   47.20    4.00
   0   7   1   56.99    3.30
   0   7   1   50.69    4.60
   0   7   1   48.70    3.70
   0   7   1   48.20    2.40
   0   7   1   51.49    3.70
   0   7   1   55.39    4.20
   0   7   1   48.90    4.50
   0   7   1   59.99    5.10
   0   7   1   55.99    2.60
  -1  -7  -1  413.66   14.80
  -1  -7  -1  398.56   14.00
  -1  -7  -1  370.06   14.20
  -1  -7  -1  393.86   15.00
  -1  -7  -1  396.46   13.60
   1   7   1  411.06   15.50
   1   7   1  387.66   14.50
   1   7   1  383.66   15.10
   1   7   1  397.66   13.70
   1   7   1  374.26   14.40
   1   7   1  383.36   15.20
  -2  -7  -1   48.10    4.30
  -2  -7  -1   32.40    2.40
  -2  -7  -1   37.20    3.40
  -2  -7  -1   44.20    3.30
  -2  -7  -1   43.00    4.00
   2   7   1   37.00    4.10
   2   7   1   41.10    4.20
   2   7   1   31.00    4.40
   2   7   1   31.20    3.20
  -3  -7  -1   31.60    3.40
  -3  -7  -1   37.80    4.00
  -3  -7  -1   35.80    3.80
  -3  -7  -1   32.80    3.00
   3   7   1   32.40    4.00
   3   7   1   37.50    4.10
   3   7   1   36.70    3.40
  -4  -7  -1   35.70    3.70
  -4  -7  -1   44.80    4.50
  -4  -7  -1   40.10    4.20
  -4  -7  -1   36.50    3.30
   4   7   1   48.00    5.10
  -5  -7  -1   19.80    3.60
  -5  -7  -1   16.80    3.00
  -5  -7  -1   16.00    3.30
   5   7   1   21.10    3.80
  -6  -7  -1    9.70    3.00
  -6  -7  -1    7.60    3.00
  -6  -7  -1   10.40    3.10
   6   7   1    6.20    3.40
  -7  -7  -1    7.90    3.00
   7   7   1   15.00    4.00
   8  -8  -1   -1.90    3.30
   8  -8  -1    7.30    2.10
  -8   8   1    7.80    3.90
  -8   8   1    9.20    4.30
   7  -8  -1   37.30    5.80
   7  -8  -1   45.00    3.70
   7  -8  -1   50.49    4.60
  -7   8   1   48.70    5.90
  -7   8   1   45.40    5.60
   6  -8  -1   -1.20    1.40
   6  -8  -1    0.50    2.20
   6  -8  -1   -1.20    2.90
  -6   8   1   -2.30    2.60
  -6   8   1   -0.60    3.10
  -6   8   1    0.90    2.00
   5  -8  -1   66.89    5.10
   5  -8  -1   72.19    6.50
   5  -8  -1   75.59    4.20
  -5   8   1   78.89    6.40
  -5   8   1   66.79    6.40
  -5   8   1   65.49    4.50
   4  -8  -1   70.89    4.70
   4  -8  -1   64.39    3.90
   4  -8  -1   77.29    6.50
  -4   8   1   65.99    5.80
  -4   8   1   66.69    6.00
  -4   8   1   67.79    4.40
   3  -8  -1   38.40    3.60
   3  -8  -1   30.40    3.60
   3  -8  -1   31.30    4.10
   3  -8  -1   35.50    2.80
  -3   8   1   42.10    4.50
  -3   8   1   39.10    4.50
  -3   8   1   36.30    2.80
  -3   8   1   37.20    3.20
   2  -8  -1  113.49    5.80
   2  -8  -1  112.89    6.40
   2  -8  -1  113.79    5.00
   2  -8  -1  101.49    5.90
  -2   8   1  108.09    4.60
  -2   8   1   98.19    5.10
  -2   8   1  102.69    6.70
  -2   8   1  108.79    4.70
  -2   8   1  110.49    6.60
   1  -8  -1    5.20    2.20
   1  -8  -1    8.90    2.50
   1  -8  -1    4.90    1.40
   1  -8  -1    4.80    2.00
  -1   8   1    5.40    1.20
  -1   8   1    3.60    1.00
  -1   8   1    8.30    2.60
  -1   8   1    4.70    1.60
  -1   8   1    2.00    2.10
   0  -8  -1    6.40    2.80
   0  -8  -1    6.00    1.40
   0  -8  -1    8.80    2.30
   0  -8  -1    6.60    2.60
   0  -8  -1    8.70    2.10
   0   8   1    3.60    2.40
   0   8   1    5.30    2.70
   0   8   1   10.60    2.00
  -1  -8  -1   35.70    3.20
  -1  -8  -1   34.80    3.50
  -1  -8  -1   37.20    2.60
  -1  -8  -1   47.40    4.30
  -1  -8  -1   44.80    4.60
   1   8   1   43.20    4.70
   1   8   1   34.00    3.50
  -2  -8  -1   15.40    2.60
  -2  -8  -1   16.80    3.20
  -2  -8  -1   20.00    3.60
  -2  -8  -1   23.60    3.40
   2   8   1   16.00    3.10
   2   8   1   14.60    2.50
  -3  -8  -1    6.60    2.40
  -3  -8  -1    6.80    3.00
  -3  -8  -1    6.20    2.80
   3   8   1    8.20    2.90
  -4  -8  -1   32.50    3.80
  -4  -8  -1   27.60    4.20
   4   8   1   31.40    4.70
  -5  -8  -1   -1.70    2.30
  -5  -8  -1    1.60    2.60
  -5  -8  -1    1.70    2.50
   5   8   1   -0.80    3.00
  -6  -8  -1    2.30    2.90
   6   8   1    5.20    3.50
  -7  -8  -1    1.50    3.10
   7   8   1    1.20    3.30
  -8   9   1    6.70    4.40
   7  -9  -1   14.30    4.30
   7  -9  -1   22.90    3.00
  -7   9   1   18.40    4.50
  -7   9   1   17.10    4.50
   6  -9  -1    0.40    2.50
   6  -9  -1    5.10    3.70
   6  -9  -1    3.50    1.90
  -6   9   1   -3.80    2.70
  -6   9   1   -2.10    2.90
   5  -9  -1   41.70    4.20
   5  -9  -1   46.70    5.50
   5  -9  -1   55.39    3.80
  -5   9   1   48.00    5.90
  -5   9   1   44.70    5.40
   4  -9  -1   54.39    3.60
   4  -9  -1   51.79    4.70
   4  -9  -1   44.20    5.50
  -4   9   1   50.99    3.70
  -4   9   1   34.50    4.80
  -4   9   1   55.19    5.80
   3  -9  -1    2.30    2.60
   3  -9  -1    2.30    2.20
   3  -9  -1    1.40    1.40
  -3   9   1    1.40    2.70
  -3   9   1    0.60    2.60
  -3   9   1    5.30    1.60
   2  -9  -1  124.09    7.60
   2  -9  -1  124.89    5.60
   2  -9  -1  122.89    6.60
  -2   9   1  111.19    4.90
  -2   9   1  128.19    5.20
  -2   9   1  126.29    7.90
  -2   9   1  124.29    7.40
   1  -9  -1   34.30    4.40
   1  -9  -1   40.50    4.40
   1  -9  -1   34.90    3.60
   1  -9  -1   38.80    3.00
  -1   9   1   37.10    4.80
  -1   9   1   24.50    4.10
   0  -9  -1   54.69    5.10
   0  -9  -1   48.30    4.20
   0  -9  -1   47.70    3.30
   0  -9  -1   52.39    5.30
   0   9   1   47.30    5.20
   0   9   1   62.49    6.00
  -1  -9  -1   50.69    5.30
  -1  -9  -1   55.69    5.10
  -1  -9  -1   44.50    4.30
   1   9   1   60.19    5.80
   1   9   1   51.69    5.70
  -2  -9  -1    2.80    2.50
  -2  -9  -1    2.20    2.40
   2   9   1    1.10    2.60
  -3  -9  -1    7.90    2.90
  -3  -9  -1   10.80    3.00
   3   9   1   13.70    3.70
  -4  -9  -1   16.90    3.40
  -4  -9  -1   24.50    4.50
   4   9   1   21.90    4.50
  -5  -9  -1   -1.90    2.60
   5   9   1   -2.50    3.00
  -6  -9  -1   12.10    3.60
   6   9   1   10.40    4.10
   6 -10  -1    5.10    2.10
   6 -10  -1    7.50    4.30
  -6  10   1   -0.80    3.40
  -6  10   1    2.60    3.90
  -6  10   1    2.90    2.10
   5 -10  -1   -2.80    2.40
   5 -10  -1    2.20    3.40
   5 -10  -1    2.80    1.80
  -5  10   1    0.20    3.40
  -5  10   1    2.30    1.80
  -5  10   1    2.30    3.20
   4 -10  -1   22.10    3.70
   4 -10  -1   12.20    3.90
   4 -10  -1   16.30    2.50
  -4  10   1   21.90    4.50
  -4  10   1    7.70    3.50
  -4  10   1   19.40    2.30
   3 -10  -1    1.90    2.60
   3 -10  -1    3.90    3.10
   3 -10  -1    2.70    1.70
  -3  10   1   -0.80    1.40
  -3  10   1   -5.10    2.50
  -3  10   1   -0.50    2.80
   2 -10  -1   66.59    4.20
   2 -10  -1   58.39    6.00
   2 -10  -1   64.39    5.30
  -2  10   1   70.29    6.80
  -2  10   1   52.99    6.20
   1 -10  -1   12.60    3.10
   1 -10  -1   16.40    3.70
   1 -10  -1   21.30    2.60
  -1  10   1   13.90    3.70
  -1  10   1   19.60    4.00
   0 -10  -1   23.70    4.30
   0 -10  -1   15.50    3.30
   0  10   1   16.20    3.80
   0  10   1   20.50    4.40
  -1 -10  -1   32.00    4.00
  -1 -10  -1   42.10    5.30
   1  10   1   32.10    4.80
   1  10   1   40.50    5.30
  -2 -10  -1    2.40    2.60
  -2 -10  -1    1.80    2.70
   2  10   1    3.10    3.00
  -3 -10  -1    5.00    2.90
  -3 -10  -1    6.30    3.40
   3  10   1    7.90    3.60
  -4 -10  -1    4.00    2.80
   4  10   1    7.50    3.80
   5 -11  -1   17.90    4.80
   5 -11  -1   13.30    2.70
  -5  11   1   12.80    4.90
  -5  11   1   21.20    5.10
   4 -11  -1    7.40    3.80
   4 -11  -1   10.50    2.40
   4 -11  -1    4.50    3.20
  -4  11   1    7.60    4.20
  -4  11   1    0.20    3.50
   3 -11  -1   -0.70    2.60
   3 -11  -1    0.00    3.20
   3 -11  -1   -1.60    1.70
  -3  11   1   -0.70    3.00
  -3  11   1    0.30    3.10
   2 -11  -1   25.10    3.00
   2 -11  -1   18.30    4.30
   2 -11  -1   21.00    3.80
  -2  11   1   18.90    4.70
  -2  11   1   15.90    4.10
   1 -11  -1   21.10    4.70
   1 -11  -1   13.00    3.30
  -1  11   1   16.60    4.60
  -1  11   1   17.80    4.50
   0 -11  -1    6.70    3.10
   0 -11  -1    8.90    3.80
   0  11   1    5.90    3.60
   0  11   1    3.20    3.20
  -1 -11  -1   26.00    4.20
  -1 -11  -1   25.20    4.50
   1  11   1   24.10    5.00
   1  11   1   27.90    5.30
  -2 -11  -1    4.50    2.90
  -2 -11  -1    4.20    3.70
   2  11   1    3.80    3.40
   2  11   1    6.20    3.60
  -3 -11  -1    3.50    2.90
   3  11   1    6.20    3.70
   1 -12  -1   -0.80    2.80
   1 -12  -1    3.60    3.60
  -1  12   1    2.80    3.80
   0  12  -2    2.80    3.90
   0  12  -2    4.30    3.50
   0  12  -2    2.70    2.30
   0 -12   2    5.40    3.90
   0 -12   2    3.40    2.20
   0 -12   2    1.90    4.10
  -1  12  -2    1.20    2.30
  -1  12  -2    1.50    4.00
  -1  12  -2    3.20    3.50
   1 -12   2    0.40    2.10
   1 -12   2   -1.40    3.50
  -2  12  -2   18.60    5.00
  -2  12  -2   20.40    5.50
  -2  12  -2   25.00    3.50
   2 -12   2   21.90    3.00
   2 -12   2   23.40    5.40
   3  11  -2    0.60    3.20
  -3 -11   2   -0.40    3.00
  -3 -11   2    2.30    2.20
  -3 -11   2    2.30    2.70
   2  11  -2    8.00    3.60
   2  11  -2   10.80    2.30
  -2 -11   2   13.10    4.20
  -2 -11   2    0.00    2.70
  -2 -11   2   10.00    2.60
  -2 -11   2   15.90    4.00
   1  11  -2   24.60    4.80
   1  11  -2   28.50    3.20
   1  11  -2   20.60    4.40
  -1 -11   2   28.10    3.30
  -1 -11   2   21.90    4.40
  -1 -11   2   23.70    4.40
  -1 -11   2   24.90    3.80
   0  11  -2   -2.10    3.20
   0  11  -2   -1.00    2.10
   0  11  -2   -1.50    2.80
   0 -11   2    5.20    2.70
   0 -11   2   -1.10    2.70
   0 -11   2    0.10    1.90
   0 -11   2   -1.00    3.10
  -1  11  -2   29.10    4.90
  -1  11  -2   30.20    3.60
  -1  11  -2   29.50    5.30
   1 -11   2   21.80    3.70
   1 -11   2   24.20    4.40
   1 -11   2   33.40    3.40
  -2  11  -2   18.40    4.50
  -2  11  -2    3.50    4.10
  -2  11  -2   12.40    2.70
   2 -11   2    1.80    3.40
   2 -11   2   13.10    2.40
  -3  11  -2   -4.30    3.40
  -3  11  -2    1.30    2.20
  -3  11  -2    1.70    3.60
   3 -11   2    0.10    3.50
   3 -11   2    0.20    1.80
  -4  11  -2    9.30    4.10
  -4  11  -2    2.00    3.80
  -4  11  -2   13.70    2.90
   4 -11   2    8.10    4.30
   4 -11   2    6.10    2.10
  -5  11  -2   14.70    4.50
  -5  11  -2   -0.10    3.60
   5 -11   2    8.40    2.00
   5 -11   2    4.70    4.30
   5  10  -2    0.70    3.50
  -5 -10   2   -0.10    2.80
  -5 -10   2   -0.10    3.50
  -5 -10   2    0.50    2.20
   4  10  -2    6.10    3.70
  -4 -10   2    4.60    3.40
  -4 -10   2    9.30    2.40
  -4 -10   2    6.00    2.90
   3  10  -2   15.80    2.50
   3  10  -2   24.90    4.60
  -3 -10   2   10.20    3.10
  -3 -10   2   19.30    4.20
  -3 -10   2   14.90    2.60
  -3 -10   2   20.70    4.30
   2  10  -2   14.40    2.60
   2  10  -2   11.20    3.80
  -2 -10   2   12.40    2.20
  -2 -10   2   11.60    2.90
  -2 -10   2   14.10    3.50
  -2 -10   2   13.70    3.70
   1  10  -2   53.09    4.30
   1  10  -2   49.00    5.80
  -1 -10   2   53.29    5.70
  -1 -10   2   50.29    5.20
  -1 -10   2   55.39    4.10
  -1 -10   2   49.90    4.60
   0  10  -2    4.60    3.20
   0  10  -2    2.80    2.40
   0  10  -2    4.20    2.20
   0  10  -2    6.40    3.10
   0 -10   2    4.40    3.10
   0 -10   2    1.40    1.70
   0 -10   2    2.00    3.00
   0 -10   2    2.40    2.40
  -1  10  -2   56.89    6.30
  -1  10  -2   59.89    4.90
  -1  10  -2   54.89    4.50
  -1  10  -2   61.09    6.50
   1 -10   2   52.19    4.70
   1 -10   2   60.29    5.70
   1 -10   2   57.19    4.00
   1 -10   2   57.29    5.70
  -2  10  -2   56.59    4.60
  -2  10  -2   54.09    4.80
  -2  10  -2   43.10    5.70
  -2  10  -2   56.69    6.00
   2 -10   2   56.79    4.90
   2 -10   2   55.89    4.00
   2 -10   2   62.79    6.30
  -3  10  -2   20.30    4.20
  -3  10  -2    9.30    2.60
  -3  10  -2   13.80    3.80
   3 -10   2   18.70    3.40
   3 -10   2   18.10    4.00
   3 -10   2   20.60    2.50
  -4  10  -2   32.10    3.70
  -4  10  -2   26.10    4.70
  -4  10  -2   27.20    4.70
   4 -10   2   33.00    3.00
   4 -10   2   27.60    5.20
  -5  10  -2    6.80    4.10
  -5  10  -2    3.50    2.50
  -5  10  -2    1.10    3.10
   5 -10   2    3.70    3.30
   5 -10   2    2.70    1.70
  -6  10  -2    2.60    3.80
  -6  10  -2    3.90    3.70
  -6  10  -2   -0.10    2.40
   6 -10   2    7.60    4.50
   6 -10   2    4.60    1.70
   6   9  -2    4.10    3.70
  -6  -9   2   10.10    2.70
  -6  -9   2   10.90    3.40
  -6  -9   2    7.80    4.10
   5   9  -2   26.90    4.70
  -5  -9   2   16.50    4.30
  -5  -9   2   21.70    3.60
  -5  -9   2   23.30    3.10
   4   9  -2   79.29    7.40
   4   9  -2   64.09    4.10
  -4  -9   2   58.79    4.40
  -4  -9   2   52.19    5.60
  -4  -9   2   61.59    5.20
  -4  -9   2   53.59    6.00
   3   9  -2    6.10    2.00
   3   9  -2   13.30    3.70
  -3  -9   2    7.60    2.50
  -3  -9   2    6.80    3.00
  -3  -9   2    8.00    1.90
  -3  -9   2   11.30    3.40
   2   9  -2   38.60    3.60
   2   9  -2   48.00    4.30
  -2  -9   2   47.00    3.50
  -2  -9   2   44.20    4.80
  -2  -9   2   41.70    4.70
  -2  -9   2   36.00    3.80
   1   9  -2   38.50    4.80
   1   9  -2   35.30    3.70
   1   9  -2   34.00    3.40
  -1  -9   2   33.70    3.00
  -1  -9   2   38.70    4.30
  -1  -9   2   27.20    3.90
  -1  -9   2   31.70    3.60
   0   9  -2    5.70    2.20
   0   9  -2    1.80    1.80
   0   9  -2    5.50    2.60
   0   9  -2    3.20    2.70
   0  -9   2    2.10    2.20
   0  -9   2    0.80    1.30
   0  -9   2    3.10    2.40
   0  -9   2    3.50    2.20
  -1   9  -2   94.39    5.20
  -1   9  -2   89.09    7.20
  -1   9  -2   93.09    5.20
  -1   9  -2   76.99    6.50
   1  -9   2   82.09    5.80
   1  -9   2   87.69    5.30
   1  -9   2   83.69    6.00
   1  -9   2   92.99    4.50
  -2   9  -2   82.39    7.00
  -2   9  -2   87.29    5.20
  -2   9  -2  101.09    7.00
   2  -9   2   83.39    5.30
   2  -9   2   93.49    4.50
   2  -9   2   79.69    6.10
  -3   9  -2    4.50    3.40
  -3   9  -2    8.90    2.30
  -3   9  -2    9.60    3.40
   3  -9   2    8.40    2.40
   3  -9   2    9.60    3.30
   3  -9   2    7.60    1.70
  -4   9  -2   84.29    7.50
  -4   9  -2   74.89    5.30
   4  -9   2   82.69    4.20
   4  -9   2   85.19    6.20
   4  -9   2   77.59    7.00
  -5   9  -2    6.30    3.40
  -5   9  -2    5.70    3.30
  -5   9  -2    6.80    2.60
   5  -9   2    7.40    3.70
   5  -9   2   10.00    1.80
  -6   9  -2    7.10    4.10
  -6   9  -2    6.60    2.70
  -6   9  -2    3.70    2.00
  -6   9  -2    2.60    3.10
   6  -9   2    1.00    3.60
   6  -9   2    6.30    1.60
  -7   9  -2   11.70    4.40
  -7   9  -2   14.70    3.20
  -7   9  -2   10.10    2.50
   7  -9   2    9.80    4.50
   7   8  -2    4.30    3.60
  -7  -8   2    4.20    3.40
  -7  -8   2    6.50    3.00
  -7  -8   2    7.10    2.40
   6   8  -2    3.10    3.20
  -6  -8   2    2.50    3.50
  -6  -8   2    5.10    2.10
  -6  -8   2    1.30    2.70
   5   8  -2   31.80    5.10
   5   8  -2   25.50    2.50
  -5  -8   2   20.20    3.80
  -5  -8   2   33.80    4.00
  -5  -8   2   27.40    3.00
  -5  -8   2   31.70    4.50
   4   8  -2   38.30    3.20
   4   8  -2   39.30    5.00
  -4  -8   2   34.50    3.90
  -4  -8   2   37.20    4.40
  -4  -8   2   40.40    4.90
  -4  -8   2   35.20    3.20
   3   8  -2    5.80    1.80
   3   8  -2    7.60    2.40
   3   8  -2   11.20    3.00
   3   8  -2    7.80    2.20
  -3  -8   2    8.00    2.60
  -3  -8   2    5.30    1.60
  -3  -8   2    7.80    2.90
  -3  -8   2    9.60    2.60
   2   8  -2   50.79    4.20
   2   8  -2   55.59    5.50
   2   8  -2   51.49    4.50
   2   8  -2   56.19    3.80
  -2  -8   2   57.99    5.00
  -2  -8   2   42.00    3.80
  -2  -8   2   50.39    3.30
  -2  -8   2   61.19    5.10
   1   8  -2   16.70    2.50
   1   8  -2   14.60    3.00
   1   8  -2   11.10    2.60
   1   8  -2   16.50    2.30
  -1  -8   2   13.10    1.80
  -1  -8   2   21.20    3.20
  -1  -8   2   10.30    2.30
  -1  -8   2   16.20    2.90
   0   8  -2    3.80    2.10
   0   8  -2    5.80    1.70
   0   8  -2    2.50    2.20
   0   8  -2    2.90    1.90
   0   8  -2    2.40    2.00
   0  -8   2    2.50    1.90
   0  -8   2    2.00    2.10
   0  -8   2    5.60    2.20
   0  -8   2    5.40    1.40
  -1   8  -2   43.40    4.50
  -1   8  -2   50.49    4.90
  -1   8  -2   45.60    3.70
  -1   8  -2   56.09    5.40
  -1   8  -2   45.80    4.20
  -1   8  -2   43.50    3.40
   1  -8   2   52.99    4.80
   1  -8   2   41.60    4.30
   1  -8   2   44.70    2.90
   1  -8   2   46.80    3.90
  -2   8  -2  147.79    7.40
  -2   8  -2  142.69    7.90
  -2   8  -2  142.29    6.60
  -2   8  -2  145.79    7.90
   2  -8   2  144.29    5.90
   2  -8   2  142.49    7.80
   2  -8   2  150.68    6.70
  -3   8  -2    7.00    2.80
  -3   8  -2    6.80    2.10
  -3   8  -2    6.50    2.70
  -3   8  -2    4.80    2.10
   3  -8   2    6.30    1.40
   3  -8   2    5.50    2.60
   3  -8   2    6.50    1.90
  -4   8  -2   75.59    5.00
  -4   8  -2   84.19    6.10
  -4   8  -2   75.69    6.30
   4  -8   2   86.19    4.90
   4  -8   2   78.69    3.90
   4  -8   2   86.09    6.40
  -5   8  -2   28.70    3.40
  -5   8  -2   32.40    4.70
  -5   8  -2   26.50    3.30
  -5   8  -2   21.60    4.00
   5  -8   2   28.50    4.50
   5  -8   2   30.70    2.40
  -6   8  -2    7.50    3.40
  -6   8  -2    5.60    2.50
  -6   8  -2    5.60    3.30
  -6   8  -2    8.90    2.10
   6  -8   2    3.70    3.50
   6  -8   2    7.50    1.40
  -7   8  -2   25.40    3.70
  -7   8  -2   18.80    4.70
  -7   8  -2   23.00    3.10
  -7   8  -2   23.00    4.90
   7  -8   2   29.70    5.20
  -8   8  -2   -1.50    1.80
  -8   8  -2   -1.00    2.60
  -8   8  -2    0.70    3.80
   8  -8   2    9.00    4.30
   8   7  -2    3.40    3.30
  -8  -7   2    4.80    3.30
  -8  -7   2   -0.40    3.40
  -8  -7   2    3.00    2.40
   7   7  -2    2.70    3.30
  -7  -7   2    4.00    2.90
  -7  -7   2    7.00    2.40
  -7  -7   2    5.90    3.50
   6   7  -2    0.70    1.50
   6   7  -2    0.10    2.30
  -6  -7   2   -1.70    2.70
  -6  -7   2    0.20    2.60
  -6  -7   2   -1.10    2.20
  -6  -7   2    1.20    1.60
   5   7  -2   10.20    3.10
   5   7  -2    6.70    1.80
  -5  -7   2    6.30    1.80
  -5  -7   2    5.60    2.70
  -5  -7   2    6.80    2.80
  -5  -7   2    6.70    2.50
   4   7  -2   77.89    4.30
   4   7  -2   85.19    6.00
   4   7  -2   72.69    4.70
  -4  -7   2   76.89    4.30
  -4  -7   2   73.99    5.40
  -4  -7   2   74.39    5.20
  -4  -7   2   77.89    5.70
  -4  -7   2   84.19    5.10
   3   7  -2   -0.30    2.30
   3   7  -2    2.60    1.50
   3   7  -2    3.20    1.70
  -3  -7   2    4.00    1.40
  -3  -7   2    1.20    1.80
  -3  -7   2    3.20    2.30
  -3  -7   2    0.90    1.90
   2   7  -2  140.09    6.40
   2   7  -2  137.79    6.20
   2   7  -2  143.69    7.10
   2   7  -2  151.18    7.60
   2   7  -2  136.79    7.00
  -2  -7   2  151.48    6.60
  -2  -7   2  143.39    7.10
  -2  -7   2  133.99    5.80
  -2  -7   2  141.59    7.10
   1   7  -2  102.39    5.80
   1   7  -2   96.49    4.90
   1   7  -2   99.49    5.90
   1   7  -2   89.89    4.60
   1   7  -2   84.29    5.30
   1   7  -2  100.69    5.70
  -1  -7   2   91.39    4.30
  -1  -7   2  106.29    5.20
  -1  -7   2  105.09    5.70
  -1  -7   2   96.59    5.30
   0   7  -2   50.29    4.00
   0   7  -2   50.39    3.80
   0   7  -2   52.19    4.20
   0   7  -2   58.69    4.30
   0   7  -2   58.99    3.50
   0   7  -2   54.49    4.70
   0  -7   2   55.69    3.00
   0  -7   2   61.69    4.20
   0  -7   2   60.69    4.40
   0  -7   2   51.09    3.60
   0  -7   2   56.59    4.20
  -1   7  -2   77.99    5.10
  -1   7  -2   87.99    5.20
  -1   7  -2   77.19    4.30
  -1   7  -2   69.69    5.00
  -1   7  -2   76.29    4.90
  -1   7  -2   76.09    4.80
   1  -7   2   80.39    5.00
   1  -7   2   82.79    4.40
   1  -7   2   79.79    5.10
   1  -7   2   79.59    3.90
   1  -7   2   76.59    3.60
   1  -7   2   76.49    4.90
  -2   7  -2    2.80    1.60
  -2   7  -2    4.50    2.20
  -2   7  -2    4.40    1.60
  -2   7  -2    2.80    1.90
   2  -7   2    1.50    1.80
   2  -7   2    3.40    1.90
   2  -7   2    5.80    2.10
   2  -7   2    4.00    1.00
   2  -7   2    1.20    1.40
   2  -7   2    4.00    1.30
  -3   7  -2    5.70    2.20
  -3   7  -2    4.50    1.90
  -3   7  -2    4.20    2.50
  -3   7  -2    6.50    2.00
  -3   7  -2    5.90    1.70
   3  -7   2    2.40    2.30
   3  -7   2    4.30    2.10
   3  -7   2    4.10    1.50
   3  -7   2    4.50    1.10
  -4   7  -2   57.29    5.20
  -4   7  -2   52.99    4.40
  -4   7  -2   39.70    4.40
  -4   7  -2   51.69    4.10
  -4   7  -2   53.49    3.60
   4  -7   2   66.59    5.50
   4  -7   2   51.89    3.50
   4  -7   2   48.50    2.80
  -5   7  -2   32.60    4.30
  -5   7  -2   31.00    2.90
  -5   7  -2   31.90    3.50
  -5   7  -2   27.00    3.80
  -5   7  -2   28.40    3.60
   5  -7   2   25.10    3.80
   5  -7   2   31.20    2.20
   5  -7   2   27.30    2.80
  -6   7  -2   12.20    3.10
  -6   7  -2   11.50    2.50
  -6   7  -2    4.30    2.90
  -6   7  -2    6.50    1.80
   6  -7   2    8.70    1.50
   6  -7   2    7.20    1.30
   6  -7   2    7.20    3.30
  -7   7  -2   12.40    2.50
  -7   7  -2   24.10    4.20
  -7   7  -2   19.00    3.10
  -7   7  -2   18.90    4.40
   7  -7   2   21.90    4.60
  -8   7  -2    0.90    3.50
  -8   7  -2    3.60    2.60
  -8   7  -2    0.60    2.00
   8  -7   2   -1.60    3.20
  -9   7  -2    3.80    3.00
  -9   7  -2    7.20    4.20
   9  -7   2    1.10    4.40
   8   6  -2   -1.50    3.10
  -8  -6   2    4.70    3.30
  -8  -6   2    1.20    3.00
  -8  -6   2    5.10    2.30
   7   6  -2    7.70    1.60
   7   6  -2    6.30    3.50
   7   6  -2    7.50    1.20
  -7  -6   2   12.60    3.30
  -7  -6   2    8.30    2.10
  -7  -6   2    6.40    2.80
  -7  -6   2    9.10    3.00
  -7  -6   2    8.50    2.80
   6   6  -2    4.60    1.50
   6   6  -2    8.70    3.10
  -6  -6   2    4.40    2.60
  -6  -6   2    5.60    1.90
  -6  -6   2    7.20    2.40
  -6  -6   2    5.50    2.80
   5   6  -2   53.99    3.50
   5   6  -2   57.39    5.40
   5   6  -2   58.99    4.30
  -5  -6   2   62.89    3.70
  -5  -6   2   58.19    5.20
  -5  -6   2   59.09    4.70
  -5  -6   2   46.30    4.40
  -5  -6   2   63.09    5.10
   4   6  -2   71.79    5.00
   4   6  -2   77.29    5.20
   4   6  -2   77.79    4.50
   4   6  -2   75.19    4.10
  -4  -6   2   81.59    4.80
  -4  -6   2   77.79    5.20
  -4  -6   2   80.69    5.20
  -4  -6   2   76.29    4.00
  -4  -6   2   76.39    4.80
   3   6  -2    5.30    1.60
   3   6  -2    6.10    1.20
   3   6  -2    2.00    1.90
   3   6  -2    4.40    1.70
   3   6  -2    4.20    1.50
   3   6  -2    4.80    1.90
  -3  -6   2    4.00    1.30
  -3  -6   2    4.20    2.00
  -3  -6   2    4.30    1.90
  -3  -6   2    6.50    1.50
  -3  -6   2    2.80    1.80
  -3  -6   2    3.80    1.40
   2   6  -2  226.68    9.30
   2   6  -2  221.88    9.50
   2   6  -2  226.38    8.70
   2   6  -2  231.08    9.70
   2   6  -2  215.38    8.20
   2   6  -2  214.88    9.40
   2   6  -2  217.88    8.50
  -2  -6   2  245.08    8.90
  -2  -6   2  228.48    8.50
  -2  -6   2  228.08    9.30
  -2  -6   2  221.18    9.40
  -2  -6   2  219.68    8.20
  -2  -6   2  235.88    9.10
  -2  -6   2  218.68    9.40
  -2  -6   2  222.58    9.60
   1   6  -2  174.78    8.00
   1   6  -2  203.58    8.40
   1   6  -2  185.88    7.30
   1   6  -2  168.78    7.70
   1   6  -2  196.08    8.20
   1   6  -2  174.78    6.80
   1   6  -2  183.98    7.10
   1   6  -2  191.48    8.10
  -1  -6   2  177.08    8.00
  -1  -6   2  180.28    6.80
  -1  -6   2  186.78    7.60
  -1  -6   2  191.78    7.90
  -1  -6   2  163.68    6.80
  -1  -6   2  174.68    8.10
  -1  -6   2  185.38    7.20
  -1  -6   2  182.78    7.40
  -1  -6   2  189.48    8.00
   0   6  -2   56.49    3.80
   0   6  -2   48.30    2.70
   0   6  -2   50.89    3.20
   0   6  -2   52.49    3.70
   0   6  -2   51.49    3.70
   0   6  -2   51.89    3.60
   0   6  -2   50.79    3.80
   0   6  -2   55.29    3.90
   0  -6   2   51.99    3.70
   0  -6   2   53.29    3.70
   0  -6   2   46.90    2.80
   0  -6   2   57.39    3.80
   0  -6   2   52.09    3.40
   0  -6   2   57.39    3.30
   0  -6   2   55.19    3.70
   0  -6   2   51.09    2.60
   0  -6   2   59.79    3.10
  -1   6  -2  614.34   21.10
  -1   6  -2  598.74   21.40
  -1   6  -2  625.24   21.50
  -1   6  -2  593.84   21.60
  -1   6  -2  606.64   21.10
  -1   6  -2  613.64   21.30
  -1   6  -2  582.14   21.40
  -1   6  -2  611.84   20.50
   1  -6   2  629.14   21.60
   1  -6   2  649.34   21.50
   1  -6   2  592.24   20.40
   1  -6   2  588.54   20.20
   1  -6   2  586.04   21.00
   1  -6   2  603.54   19.90
   1  -6   2  582.84   21.30
   1  -6   2  596.44   20.40
  -2   6  -2   20.10    2.50
  -2   6  -2   27.20    2.50
  -2   6  -2   21.60    2.60
  -2   6  -2   23.30    3.00
  -2   6  -2   25.10    2.60
  -2   6  -2   25.30    2.40
  -2   6  -2   26.10    3.20
  -2   6  -2   31.00    3.10
   2  -6   2   22.50    1.70
   2  -6   2   25.70    2.10
   2  -6   2   27.70    3.00
   2  -6   2   27.00    3.20
   2  -6   2   32.60    2.70
   2  -6   2   27.70    3.10
   2  -6   2   23.70    2.90
   2  -6   2   24.60    2.30
  -3   6  -2  328.47   12.50
  -3   6  -2  340.87   12.60
  -3   6  -2  338.07   11.80
  -3   6  -2  335.77   11.90
  -3   6  -2  350.56   13.00
  -3   6  -2  312.87   12.70
  -3   6  -2  323.27   12.40
   3  -6   2  321.17   11.00
   3  -6   2  301.07   12.60
   3  -6   2  312.37   12.70
   3  -6   2  315.77   11.30
   3  -6   2  320.07   12.70
   3  -6   2  310.17   11.60
   3  -6   2  316.37   12.80
  -4   6  -2    6.30    2.00
  -4   6  -2    7.20    1.80
  -4   6  -2    8.70    1.80
  -4   6  -2    7.60    1.90
  -4   6  -2    6.30    2.20
  -4   6  -2    8.20    2.30
   4  -6   2    8.00    1.70
   4  -6   2    7.10    2.30
   4  -6   2    9.00    2.30
   4  -6   2    6.90    1.20
   4  -6   2    7.10    1.10
   4  -6   2    6.00    1.90
  -5   6  -2    1.00    1.20
  -5   6  -2   -0.80    1.80
  -5   6  -2    1.50    2.00
  -5   6  -2    1.10    1.70
  -5   6  -2   -0.50    1.60
   5  -6   2    1.10    0.80
   5  -6   2    1.30    1.90
   5  -6   2    1.10    0.90
   5  -6   2   -1.20    1.20
  -6   6  -2    2.50    2.10
  -6   6  -2    6.70    2.60
  -6   6  -2    5.60    2.00
  -6   6  -2    6.20    2.90
  -6   6  -2    5.20    1.70
   6  -6   2    5.80    1.10
   6  -6   2    5.10    2.60
   6  -6   2    5.70    1.10
  -7   6  -2   22.70    3.80
  -7   6  -2   28.30    3.30
  -7   6  -2   28.70    4.70
  -7   6  -2   23.60    2.90
  -7   6  -2   27.90    5.70
   7  -6   2   27.20    4.50
  -8   6  -2    6.90    2.60
  -8   6  -2   10.30    3.70
   8  -6   2    9.00    3.70
  -9   6  -2    7.70    3.90
  -9   6  -2    6.70    2.90
   9  -6   2   12.20    4.20
   9   5  -2    4.90    3.90
  -9  -5   2   -1.80    3.00
  -9  -5   2   -1.80    2.00
  -9  -5   2   -0.10    3.40
   8   5  -2    4.60    3.40
  -8  -5   2    0.30    2.80
  -8  -5   2    2.60    2.00
  -8  -5   2    2.50    2.90
  -8  -5   2    1.30    3.00
   7   5  -2   24.10    2.30
   7   5  -2   26.80    4.60
  -7  -5   2   21.10    3.70
  -7  -5   2   20.50    3.80
  -7  -5   2   22.20    2.80
  -7  -5   2   32.20    3.90
   6   5  -2    1.40    1.80
   6   5  -2   -0.50    2.50
   6   5  -2    1.10    1.30
  -6  -5   2    0.20    1.80
  -6  -5   2    2.00    1.40
  -6  -5   2    1.70    2.10
  -6  -5   2    2.50    1.90
  -6  -5   2    1.80    2.10
   5   5  -2   32.60    2.90
   5   5  -2   34.30    3.70
   5   5  -2   25.90    3.40
   5   5  -2   34.10    4.10
   5   5  -2   31.40    3.00
  -5  -5   2   25.50    3.20
  -5  -5   2   23.00    3.00
  -5  -5   2   31.80    3.60
  -5  -5   2   42.30    4.10
  -5  -5   2   34.60    2.90
   4   5  -2  150.28    7.40
   4   5  -2  163.88    7.50
   4   5  -2  154.38    7.50
   4   5  -2  152.58    6.40
   4   5  -2  167.08    7.30
   4   5  -2  150.68    6.60
   4   5  -2  140.19    6.00
  -4  -5   2  154.88    7.20
  -4  -5   2  155.28    8.20
  -4  -5   2  160.48    6.40
  -4  -5   2  163.18    6.40
  -4  -5   2  167.98    7.20
  -4  -5   2  167.08    7.00
  -4  -5   2  156.48    7.20
  -4  -5   2  157.48    7.30
   3   5  -2    3.20    1.20
   3   5  -2    5.50    1.70
   3   5  -2    3.20    1.30
   3   5  -2    4.00    0.90
   3   5  -2    3.10    1.70
   3   5  -2    3.50    1.40
   3   5  -2    3.50    0.50
   3   5  -2    4.20    1.50
  -3  -5   2    3.90    1.60
  -3  -5   2    3.60    1.40
  -3  -5   2    1.80    1.40
  -3  -5   2    3.10    1.50
  -3  -5   2    2.40    1.30
  -3  -5   2    3.90    1.60
  -3  -5   2    1.40    1.00
  -3  -5   2    3.60    1.00
  -3  -5   2    1.50    1.40
   2   5  -2  356.66   12.70
   2   5  -2  363.26   13.60
   2   5  -2  375.36   13.90
   2   5  -2  374.66   13.00
   2   5  -2  382.26   14.00
   2   5  -2  370.66   13.00
   2   5  -2  388.96   13.90
  -2  -5   2  378.56   12.90
  -2  -5   2  359.16   13.90
  -2  -5   2  377.96   14.00
  -2  -5   2  387.96   13.70
  -2  -5   2  375.06   12.80
  -2  -5   2  371.76   13.20
  -2  -5   2  373.86   13.80
  -2  -5   2  363.96   13.40
   1   5  -2  425.16   15.00
   1   5  -2  420.86   15.60
   1   5  -2  449.56   16.00
   1   5  -2  451.25   15.00
   1   5  -2  426.46   15.80
   1   5  -2  441.06   15.90
   1   5  -2  432.66   14.80
   1   5  -2  440.96   15.90
  -1  -5   2  441.26   15.40
  -1  -5   2  435.16   15.00
  -1  -5   2  446.66   15.80
  -1  -5   2  431.36   15.20
  -1  -5   2  447.86   15.90
  -1  -5   2  459.95   15.60
  -1  -5   2  433.66   14.80
  -1  -5   2  458.55   14.70
  -1  -5   2  426.76   15.90
   0   5  -2   72.49    3.70
   0   5  -2   80.29    4.20
   0   5  -2   79.69    4.40
   0   5  -2   78.39    4.30
   0   5  -2   71.29    4.20
   0   5  -2   82.29    4.40
   0  -5   2   79.49    3.80
   0  -5   2   82.59    3.30
   0  -5   2   83.49    4.10
   0  -5   2   81.89    4.30
   0  -5   2   78.29    4.40
   0  -5   2   84.19    3.70
   0  -5   2   77.79    4.20
   0  -5   2   82.89    3.50
   0  -5   2   87.99    4.30
  -1   5  -2  811.32   27.00
  -1   5  -2  788.72   27.30
  -1   5  -2  793.42   27.20
  -1   5  -2  786.02   26.90
  -1   5  -2  817.72   26.50
  -1   5  -2  819.82   27.10
  -1   5  -2  819.82   27.20
  -1   5  -2  769.22   26.80
  -1   5  -2  814.62   27.40
   1  -5   2  771.12   27.10
   1  -5   2  815.62   27.30
   1  -5   2  808.42   26.30
   1  -5   2  780.02   26.40
   1  -5   2  810.22   27.40
   1  -5   2  797.52   27.10
   1  -5   2  781.22   26.90
   1  -5   2  819.32   26.80
   1  -5   2  832.42   26.40
   1  -5   2  803.82   26.00
  -2   5  -2  134.49    5.90
  -2   5  -2  138.39    6.20
  -2   5  -2  135.49    5.50
  -2   5  -2  134.49    6.30
  -2   5  -2  129.49    5.40
  -2   5  -2  135.29    6.10
  -2   5  -2  133.79    5.90
  -2   5  -2  131.39    5.40
  -2   5  -2  120.79    5.80
  -2   5  -2  127.99    5.90
   2  -5   2  129.49    6.00
   2  -5   2  128.89    5.30
   2  -5   2  127.59    5.10
   2  -5   2  132.29    4.90
   2  -5   2  133.69    6.10
   2  -5   2  122.39    5.20
   2  -5   2  132.29    6.10
   2  -5   2  131.59    6.10
  -3   5  -2  113.79    5.00
  -3   5  -2  107.69    5.40
  -3   5  -2  117.29    5.30
  -3   5  -2  108.69    4.90
  -3   5  -2  122.39    5.90
  -3   5  -2  113.69    5.60
  -3   5  -2  113.49    5.00
  -3   5  -2  115.79    5.50
   3  -5   2  112.49    4.50
   3  -5   2  106.69    5.50
   3  -5   2  113.69    4.80
   3  -5   2  114.69    5.60
   3  -5   2  114.09    4.30
   3  -5   2  107.89    5.60
   3  -5   2  109.09    5.50
  -4   5  -2  518.65   18.50
  -4   5  -2  519.05   17.70
  -4   5  -2  538.05   18.80
  -4   5  -2  514.55   18.20
  -4   5  -2  529.45   17.90
  -4   5  -2  516.65   18.60
  -4   5  -2  516.15   18.50
   4  -5   2  502.25   17.10
   4  -5   2  529.75   17.00
   4  -5   2  515.85   17.60
   4  -5   2  505.35   18.70
   4  -5   2  512.15   18.60
   4  -5   2  511.05   18.10
   4  -5   2  504.55   18.60
   4  -5   2  501.85   18.80
  -5   5  -2   10.80    2.60
  -5   5  -2   10.50    2.10
  -5   5  -2   11.50    2.00
  -5   5  -2    8.20    1.70
  -5   5  -2   11.10    2.40
   5  -5   2   10.00    2.10
   5  -5   2   13.00    2.20
   5  -5   2   14.80    2.90
   5  -5   2    9.50    1.10
   5  -5   2    8.20    2.20
   5  -5   2    7.60    2.40
   5  -5   2   10.20    1.20
   5  -5   2   10.30    1.70
  -6   5  -2  113.99    6.70
  -6   5  -2  117.29    6.60
  -6   5  -2  116.79    5.60
  -6   5  -2  115.39    5.70
  -6   5  -2  121.39    6.20
   6  -5   2  120.29    4.30
   6  -5   2  113.79    6.80
   6  -5   2  115.69    5.70
   6  -5   2  118.59    4.30
  -7   5  -2   49.30    5.00
  -7   5  -2   47.10    4.90
  -7   5  -2   39.00    3.90
  -7   5  -2   48.10    4.30
  -7   5  -2   50.79    4.00
   7  -5   2   43.90    4.90
  -8   5  -2   -1.10    2.00
  -8   5  -2   -3.00    2.60
   8  -5   2   -3.10    2.20
  -9   5  -2   13.80    4.40
  -9   5  -2    9.40    3.00
   9  -5   2   11.00    3.90
   9   4  -2   -1.20    3.40
  -9  -4   2   -2.20    3.10
  -9  -4   2   -2.30    1.80
  -9  -4   2    3.20    3.10
   8   4  -2   14.00    1.90
   8   4  -2   15.20    3.80
  -8  -4   2   17.70    3.70
  -8  -4   2   12.70    2.50
  -8  -4   2   14.00    3.20
  -8  -4   2   22.30    4.00
   7   4  -2   24.50    4.10
   7   4  -2   37.30    4.20
   7   4  -2   24.60    2.40
  -7  -4   2   26.50    2.90
  -7  -4   2   25.10    3.50
  -7  -4   2   26.00    3.50
  -7  -4   2   27.20    3.50
  -7  -4   2   33.00    4.00
   6   4  -2   -1.80    1.50
   6   4  -2   -1.70    2.10
   6   4  -2    0.20    1.10
  -6  -4   2    0.60    1.20
  -6  -4   2    0.50    1.80
  -6  -4   2   -1.90    1.70
  -6  -4   2   -0.70    1.70
  -6  -4   2   -0.90    1.70
  -6  -4   2    1.30    1.80
   5   4  -2  158.98    6.30
   5   4  -2  146.69    6.50
   5   4  -2  145.89    7.50
   5   4  -2  139.29    7.00
   5   4  -2  143.29    7.10
   5   4  -2  140.19    8.30
   5   4  -2  143.59    5.80
  -5  -4   2  159.28    7.20
  -5  -4   2  157.58    6.30
  -5  -4   2  146.39    6.20
  -5  -4   2  155.38    6.70
  -5  -4   2  154.98    6.90
  -5  -4   2  151.68    7.10
  -5  -4   2  140.99    6.80
   4   4  -2   79.99    4.90
   4   4  -2   77.99    4.00
   4   4  -2   77.19    4.40
   4   4  -2   75.89    3.80
   4   4  -2   91.19    4.90
   4   4  -2   89.29    4.80
   4   4  -2   71.49    3.50
   4   4  -2   88.09    3.80
  -4  -4   2   77.29    4.60
  -4  -4   2   80.19    4.50
  -4  -4   2   75.59    4.20
  -4  -4   2   78.69    4.50
  -4  -4   2   77.59    3.80
  -4  -4   2   82.99    4.40
  -4  -4   2   79.29    4.30
   3   4  -2   13.90    2.50
   3   4  -2   14.90    2.00
   3   4  -2   15.90    1.60
   3   4  -2   16.10    2.10
   3   4  -2   18.00    1.60
   3   4  -2   22.00    2.00
   3   4  -2    8.20    1.90
   3   4  -2   18.50    1.80
   3   4  -2   13.50    1.90
  -3  -4   2   16.00    2.10
  -3  -4   2   17.80    2.10
  -3  -4   2   11.80    1.40
  -3  -4   2   12.70    2.00
  -3  -4   2   16.70    2.00
  -3  -4   2   10.40    1.80
  -3  -4   2   14.80    1.50
  -3  -4   2   17.70    2.20
  -3  -4   2   16.40    2.10
   2   4  -2  285.57    9.70
   2   4  -2  265.97    9.60
   2   4  -2  282.97   10.50
   2   4  -2  286.97   10.50
   2   4  -2  287.57   10.30
   2   4  -2  283.67    9.80
   2   4  -2  278.97    9.80
   2   4  -2  249.97   10.30
  -2  -4   2  277.27   10.10
  -2  -4   2  274.17   10.20
  -2  -4   2  280.57    9.70
  -2  -4   2  285.17   10.50
  -2  -4   2  262.47   10.40
  -2  -4   2  268.37   10.00
  -2  -4   2  287.77    9.60
  -2  -4   2  278.27   10.30
   1   4  -2  136.19    5.20
   1   4  -2  127.59    5.70
   1   4  -2  123.79    4.90
   1   4  -2  126.19    5.60
   1   4  -2  140.89    6.00
   1   4  -2  135.29    5.10
   1   4  -2  141.49    5.90
  -1  -4   2  136.69    5.70
  -1  -4   2  134.79    5.10
  -1  -4   2  124.39    5.80
  -1  -4   2  133.09    5.40
  -1  -4   2  135.99    5.70
  -1  -4   2  137.09    5.00
  -1  -4   2  143.29    5.00
  -1  -4   2  145.09    5.60
  -1  -4   2  132.19    5.90
   0   4  -2   43.40    2.70
   0   4  -2   41.90    2.30
   0   4  -2   45.80    2.40
   0   4  -2   41.70    2.70
   0   4  -2   40.60    2.90
   0   4  -2   41.20    2.80
   0   4  -2   39.40    2.90
   0  -4   2   44.60    2.90
   0  -4   2   42.60    2.70
   0  -4   2   43.00    2.60
   0  -4   2   41.80    2.40
   0  -4   2   46.00    2.30
   0  -4   2   44.40    2.00
   0  -4   2   41.30    2.80
   0  -4   2   43.60    2.80
   0  -4   2   40.90    2.10
  -1   4  -2  155.88    6.40
  -1   4  -2  160.88    6.60
  -1   4  -2  154.88    6.00
  -1   4  -2  165.58    6.10
  -1   4  -2  158.58    6.50
  -1   4  -2  164.38    6.50
  -1   4  -2  165.58    6.80
  -1   4  -2  150.48    6.50
  -1   4  -2  164.58    6.40
  -1   4  -2  173.18    6.10
   1  -4   2  167.38    6.70
   1  -4   2  151.28    5.60
   1  -4   2  167.18    6.30
   1  -4   2  168.88    6.00
   1  -4   2  164.08    5.80
   1  -4   2  148.29    6.30
   1  -4   2  150.78    6.50
   1  -4   2  157.08    6.60
   1  -4   2  157.88    6.00
   1  -4   2  170.28    7.20
   1  -4   2  158.98    6.50
  -2   4  -2  188.88    7.00
  -2   4  -2  177.38    6.90
  -2   4  -2  186.78    7.40
  -2   4  -2  186.18    7.40
  -2   4  -2  190.98    7.40
  -2   4  -2  206.78    7.00
  -2   4  -2  178.78    7.20
  -2   4  -2  196.08    7.40
  -2   4  -2  190.78    7.50
   2  -4   2  177.48    7.40
   2  -4   2  187.58    7.60
   2  -4   2  182.98    7.40
   2  -4   2  180.78    6.80
   2  -4   2  183.08    6.60
   2  -4   2  188.38    7.10
   2  -4   2  188.18    6.40
   2  -4   2  186.88    7.50
  -3   4  -2   57.19    3.40
  -3   4  -2   53.79    3.30
  -3   4  -2   54.49    2.90
  -3   4  -2   52.39    3.40
  -3   4  -2   56.09    3.20
  -3   4  -2   55.89    2.80
  -3   4  -2   54.99    3.40
  -3   4  -2   56.89    2.90
   3  -4   2   61.79    3.20
   3  -4   2   58.29    3.60
   3  -4   2   53.29    3.50
   3  -4   2   53.19    2.80
   3  -4   2   53.69    3.40
   3  -4   2   57.79    3.40
   3  -4   2   53.99    2.50
   3  -4   2   56.29    2.30
  -4   4  -2  136.69    5.60
  -4   4  -2  127.99    6.30
  -4   4  -2  146.89    6.40
  -4   4  -2  133.09    5.50
  -4   4  -2  133.19    6.10
  -4   4  -2  137.19    6.20
  -4   4  -2  125.89    5.90
  -4   4  -2  136.49    5.60
   4  -4   2  134.99    5.00
   4  -4   2  138.59    6.30
   4  -4   2  129.79    5.50
   4  -4   2  141.99    6.60
   4  -4   2  145.49    4.90
   4  -4   2  136.59    5.90
   4  -4   2  141.59    6.40
  -5   4  -2    9.30    2.30
  -5   4  -2   11.20    1.80
  -5   4  -2   12.80    2.00
  -5   4  -2   16.00    1.80
  -5   4  -2    9.90    2.10
  -5   4  -2   15.80    2.50
   5  -4   2   13.00    1.10
   5  -4   2   12.70    2.30
   5  -4   2   13.30    1.70
   5  -4   2   12.40    1.00
   5  -4   2   11.60    2.40
   5  -4   2   11.00    1.90
   5  -4   2    8.70    2.00
   5  -4   2    9.10    1.90
  -6   4  -2   31.00    3.60
  -6   4  -2   27.40    2.90
  -6   4  -2   28.20    2.70
  -6   4  -2   22.10    3.20
  -6   4  -2   29.70    3.10
   6  -4   2   23.00    3.10
   6  -4   2   25.80    3.50
   6  -4   2   24.40    3.50
   6  -4   2   25.30    2.40
  -7   4  -2   16.40    2.50
  -7   4  -2   10.60    2.90
  -7   4  -2   17.50    2.90
  -7   4  -2   19.30    2.60
  -7   4  -2   21.20    3.60
   7  -4   2   15.00    3.30
  -8   4  -2    1.60    2.20
  -8   4  -2    3.60    2.70
  -8   4  -2   -0.20    1.90
   8  -4   2   -1.30    2.50
  -9   4  -2    0.70    2.50
  -9   4  -2   -4.20    2.30
   9  -4   2   -0.90    3.10
 -10   4  -2    4.20    2.90
  10  -4   2    1.50    3.60
  10   3  -2   14.10    4.80
 -10  -3   2    1.40    2.40
 -10  -3   2   -0.50    3.10
 -10  -3   2   -2.90    3.30
   9   3  -2   -0.60    2.80
  -9  -3   2    1.10    2.00
  -9  -3   2    3.20    2.80
  -9  -3   2    4.10    2.90
  -9  -3   2    2.60    2.80
   8   3  -2   11.90    3.60
   8   3  -2   10.70    1.80
  -8  -3   2   13.90    2.40
  -8  -3   2   10.00    3.00
  -8  -3   2   15.00    3.20
  -8  -3   2   16.10    3.20
   7   3  -2   23.40    2.90
   7   3  -2   20.20    2.30
   7   3  -2   23.50    4.00
  -7  -3   2   17.50    2.90
  -7  -3   2   20.00    3.30
  -7  -3   2   20.40    3.20
  -7  -3   2   19.40    2.60
  -7  -3   2   22.50    3.20
   6   3  -2    3.20    1.00
   6   3  -2    3.20    1.30
   6   3  -2    0.90    2.30
   6   3  -2    7.30    1.80
   6   3  -2    4.70    1.80
  -6  -3   2    1.90    1.70
  -6  -3   2    1.90    1.90
  -6  -3   2    6.60    2.20
  -6  -3   2    3.70    1.30
  -6  -3   2    4.00    2.10
   5   3  -2   50.59    4.00
   5   3  -2   46.30    3.10
   5   3  -2   38.70    3.80
   5   3  -2   41.30    2.50
   5   3  -2   38.20    2.30
   5   3  -2   44.80    2.80
   5   3  -2   44.00    3.60
   5   3  -2   45.50    3.50
  -5  -3   2   43.80    3.40
  -5  -3   2   50.09    3.90
  -5  -3   2   38.50    3.50
  -5  -3   2   42.10    3.50
  -5  -3   2   41.10    3.20
  -5  -3   2   47.00    3.50
  -5  -3   2   45.10    2.80
  -5  -3   2   43.00    3.40
   4   3  -2  223.18    8.10
   4   3  -2  222.88    9.20
   4   3  -2  218.68    7.90
   4   3  -2  211.98    8.70
   4   3  -2  199.98    8.20
   4   3  -2  234.18    8.00
   4   3  -2  221.58    8.80
   4   3  -2  219.78    8.90
  -4  -3   2  212.28    8.90
  -4  -3   2  233.58    8.80
  -4  -3   2  227.28    8.70
  -4  -3   2  210.98    8.40
  -4  -3   2  221.68    8.90
  -4  -3   2  225.18    8.80
  -4  -3   2  219.88    8.60
  -4  -3   2  224.58    8.10
  -4  -3   2  209.78    8.70
   3   3  -2   78.09    3.30
   3   3  -2   79.19    3.90
   3   3  -2   80.29    4.30
   3   3  -2   71.19    3.50
   3   3  -2   75.49    3.20
   3   3  -2   75.49    4.00
   3   3  -2   78.09    3.40
   3   3  -2   74.19    3.90
  -3  -3   2   75.59    3.20
  -3  -3   2   76.29    4.00
  -3  -3   2   72.09    3.70
  -3  -3   2   75.09    3.30
  -3  -3   2   75.79    3.90
  -3  -3   2   77.39    3.80
  -3  -3   2   68.59    3.60
  -3  -3   2   70.09    3.60
  -3  -3   2   80.29    3.90
   2   3  -2 1068.59   36.10
   2   3  -2 1142.99   36.90
   2   3  -2 1166.18   36.30
   2   3  -2 1104.69   35.80
   2   3  -2 1194.58   36.90
   2   3  -2 1076.29   36.80
   2   3  -2 1131.29   36.20
   2   3  -2 1114.69   37.10
   2   3  -2 1146.89   36.30
   2   3  -2 1154.48   36.70
  -2  -3   2 1184.18   36.60
  -2  -3   2 1144.99   36.20
  -2  -3   2 1131.89   36.70
  -2  -3   2 1174.68   36.20
  -2  -3   2 1121.09   36.90
  -2  -3   2 1047.50   36.40
  -2  -3   2 1087.29   36.70
  -2  -3   2 1085.19   36.60
   1   3  -2   30.00    2.00
   1   3  -2   29.00    1.60
   1   3  -2   25.10    1.50
   1   3  -2   27.60    2.00
   1   3  -2   24.90    1.70
   1   3  -2   29.40    1.70
   1   3  -2   30.40    2.40
   1   3  -2   25.50    1.40
   1   3  -2   28.60    2.00
  -1  -3   2   26.10    1.80
  -1  -3   2   26.00    2.00
  -1  -3   2   26.90    1.60
  -1  -3   2   27.30    2.40
  -1  -3   2   27.50    1.50
  -1  -3   2   28.00    2.10
  -1  -3   2   21.40    1.70
  -1  -3   2   30.70    1.50
  -1  -3   2   31.60    2.10
  -1  -3   2   33.80    2.10
   0   3  -2  437.26   14.80
   0   3  -2  449.56   15.30
   0   3  -2  428.36   15.10
   0   3  -2  451.55   15.20
   0   3  -2  452.25   14.80
   0   3  -2  456.25   15.20
   0   3  -2  436.46   15.20
   0   3  -2  426.26   14.70
   0  -3   2  458.55   15.30
   0  -3   2  430.06   15.30
   0  -3   2  470.05   14.50
   0  -3   2  450.75   15.20
   0  -3   2  448.66   14.80
   0  -3   2  457.45   14.70
   0  -3   2  448.16   15.30
   0  -3   2  462.55   15.10
   0  -3   2  435.16   15.10
   0  -3   2  441.26   14.70
  -1   3  -2   44.70    2.40
  -1   3  -2   45.00    2.40
  -1   3  -2   45.70    2.40
  -1   3  -2   41.90    2.40
  -1   3  -2   44.40    2.50
  -1   3  -2   44.10    2.20
  -1   3  -2   43.00    2.10
  -1   3  -2   43.90    2.20
  -1   3  -2   42.20    2.60
   1  -3   2   47.40    2.20
   1  -3   2   43.30    2.60
   1  -3   2   44.40    2.40
   1  -3   2   43.60    2.10
   1  -3   2   42.20    2.50
   1  -3   2   46.10    1.80
   1  -3   2   41.30    2.40
   1  -3   2   44.50    1.90
   1  -3   2   46.80    2.30
   1  -3   2   40.20    2.30
  -2   3  -2  101.09    4.50
  -2   3  -2  109.79    4.20
  -2   3  -2  107.09    4.40
  -2   3  -2  107.19    4.50
  -2   3  -2  108.79    4.20
  -2   3  -2  104.69    4.10
  -2   3  -2  108.19    4.60
  -2   3  -2  105.49    4.70
  -2   3  -2  107.79    4.50
   2  -3   2  108.89    4.60
   2  -3   2  109.89    4.70
   2  -3   2  111.69    4.40
   2  -3   2  115.79    3.80
   2  -3   2  107.49    4.80
   2  -3   2  105.79    4.70
   2  -3   2  104.39    3.90
   2  -3   2  108.39    4.10
   2  -3   2  113.19    4.70
  -3   3  -2   25.50    1.70
  -3   3  -2   26.50    2.20
  -3   3  -2   25.90    1.90
  -3   3  -2   24.30    2.20
  -3   3  -2   26.50    2.30
  -3   3  -2   29.60    2.50
  -3   3  -2   27.30    2.20
  -3   3  -2   24.10    1.70
   3  -3   2   22.60    2.10
   3  -3   2   28.10    2.20
   3  -3   2   23.90    1.30
   3  -3   2   29.40    2.50
   3  -3   2   27.50    2.40
   3  -3   2   25.80    2.20
   3  -3   2   28.20    1.30
   3  -3   2   27.40    1.70
   3  -3   2   20.50    2.20
   3  -3   2   24.00    1.90
   3  -3   2   25.00    2.40
  -4   3  -2  690.73   22.60
  -4   3  -2  686.13   22.60
  -4   3  -2  686.73   23.30
  -4   3  -2  672.83   22.60
  -4   3  -2  661.93   23.00
  -4   3  -2  691.03   23.50
  -4   3  -2  691.63   23.30
   4  -3   2  695.13   23.60
   4  -3   2  689.33   23.00
   4  -3   2  690.23   21.90
   4  -3   2  685.33   23.30
   4  -3   2  675.93   23.70
   4  -3   2  651.43   23.80
   4  -3   2  683.53   22.50
   4  -3   2  716.33   21.90
  -5   3  -2   87.19    4.80
  -5   3  -2   86.29    4.00
  -5   3  -2   88.29    5.00
  -5   3  -2   88.99    4.80
  -5   3  -2   86.19    4.10
  -5   3  -2   87.09    4.00
  -5   3  -2   83.59    4.40
   5  -3   2   86.39    3.90
   5  -3   2   91.09    4.90
   5  -3   2   81.09    4.30
   5  -3   2   88.69    5.00
  -6   3  -2  151.28    6.60
  -6   3  -2  142.69    6.10
  -6   3  -2  139.89    6.00
  -6   3  -2  128.99    6.80
  -6   3  -2  143.09    6.80
   6  -3   2  139.09    7.20
   6  -3   2  130.09    6.70
   6  -3   2  141.09    5.70
  -7   3  -2   73.39    4.40
  -7   3  -2   75.39    4.90
  -7   3  -2   72.19    5.40
  -7   3  -2   77.19    5.20
   7  -3   2   73.49    5.50
  -8   3  -2    4.10    2.00
  -8   3  -2    0.10    1.80
  -8   3  -2   -0.20    2.50
   8  -3   2   -0.80    2.30
  -9   3  -2   18.90    3.20
  -9   3  -2   25.90    4.40
   9  -3   2   23.70    4.60
 -10   3  -2   -1.00    2.70
  10  -3   2    4.30    3.80
  10   2  -2    2.30    3.50
 -10  -2   2    1.60    3.40
 -10  -2   2    0.50    3.00
 -10  -2   2    1.20    2.50
   9   2  -2   -2.10    2.90
   9   2  -2    1.80    1.40
  -9  -2   2    4.10    2.90
  -9  -2   2    2.90    2.80
  -9  -2   2   -0.80    1.80
  -9  -2   2    6.90    2.70
   8   2  -2   30.30    4.50
   8   2  -2   32.30    2.70
  -8  -2   2   31.10    4.10
  -8  -2   2   36.80    3.80
  -8  -2   2   27.40    4.00
  -8  -2   2   25.70    2.90
   7   2  -2    4.50    1.50
   7   2  -2   12.60    3.10
   7   2  -2    6.90    1.90
  -7  -2   2    8.80    2.40
  -7  -2   2    5.80    2.50
  -7  -2   2    3.90    2.00
  -7  -2   2    9.50    2.50
  -7  -2   2    6.20    1.70
   6   2  -2   37.40    3.40
   6   2  -2   34.20    3.80
   6   2  -2   38.10    2.70
   6   2  -2   42.50    3.80
   6   2  -2   34.80    3.00
   6   2  -2   33.90    2.30
  -6  -2   2   35.60    2.80
  -6  -2   2   37.70    3.70
  -6  -2   2   28.00    3.10
  -6  -2   2   39.10    3.30
  -6  -2   2   35.60    3.60
  -6  -2   2   33.20    3.10
   5   2  -2   69.69    3.80
   5   2  -2   74.69    3.40
   5   2  -2   72.99    3.60
   5   2  -2   73.89    4.20
   5   2  -2   77.09    4.40
   5   2  -2   73.99    4.60
   5   2  -2   68.79    3.30
   5   2  -2   77.79    4.40
  -5  -2   2   70.29    3.60
  -5  -2   2   78.99    4.10
  -5  -2   2   76.19    4.40
  -5  -2   2   76.49    4.20
  -5  -2   2   76.09    4.30
  -5  -2   2   69.49    4.20
  -5  -2   2   76.19    4.20
   4   2  -2    4.30    1.30
   4   2  -2    4.10    1.30
   4   2  -2    4.00    1.40
   4   2  -2    5.30    0.90
   4   2  -2    4.70    1.40
   4   2  -2    2.10    0.70
   4   2  -2    4.60    1.20
   4   2  -2    4.00    1.00
   4   2  -2    5.60    1.30
  -4  -2   2    4.90    1.30
  -4  -2   2    3.70    1.30
  -4  -2   2    3.90    1.20
  -4  -2   2    5.90    1.00
  -4  -2   2    4.00    1.00
  -4  -2   2    3.00    1.10
  -4  -2   2    4.70    1.30
  -4  -2   2    5.10    1.30
  -4  -2   2    5.80    1.40
  -4  -2   2    4.90    1.40
   3   2  -2    3.50    0.70
   3   2  -2    2.40    0.70
   3   2  -2    4.80    1.10
   3   2  -2    3.20    1.00
   3   2  -2    3.90    1.20
   3   2  -2    2.20    1.00
   3   2  -2    2.40    1.00
   3   2  -2    5.40    0.90
  -3  -2   2    3.40    1.20
  -3  -2   2    2.60    0.90
  -3  -2   2    3.10    0.30
  -3  -2   2    3.40    0.90
  -3  -2   2    3.70    0.70
  -3  -2   2    2.30    0.70
  -3  -2   2    4.70    1.20
  -3  -2   2    2.90    1.00
  -3  -2   2    3.00    1.00
  -3  -2   2    4.10    1.10
  -3  -2   2    2.40    0.90
   2   2  -2  159.68    5.50
   2   2  -2  160.08    6.00
   2   2  -2  160.88    5.20
   2   2  -2  155.68    5.70
   2   2  -2  160.18    6.10
   2   2  -2  156.08    6.20
   2   2  -2  155.38    5.60
   2   2  -2  162.88    6.00
   2   2  -2  147.79    5.90
  -2  -2   2  140.79    5.70
  -2  -2   2  164.88    6.00
  -2  -2   2  162.58    6.00
  -2  -2   2  167.88    5.60
  -2  -2   2  150.48    5.50
  -2  -2   2  158.18    5.90
  -2  -2   2  153.78    5.60
  -2  -2   2  159.28    6.20
  -2  -2   2  150.88    5.90
  -2  -2   2  153.78    6.10
  -2  -2   2  161.88    6.00
   1   2  -2  437.06   14.70
   1   2  -2  453.05   14.30
   1   2  -2  429.76   14.70
   1   2  -2  435.96   14.60
   1   2  -2  438.76   14.90
   1   2  -2  438.46   14.60
   1   2  -2  429.96   14.20
   1   2  -2  458.15   14.70
   1   2  -2  423.26   14.50
   1   2  -2  446.56   14.60
   1   2  -2  435.56   14.40
   1   2  -2  461.55   14.30
   1   2  -2  439.26   14.40
  -1  -2   2  448.26   14.90
  -1  -2   2  439.36   14.70
  -1  -2   2  439.36   14.30
  -1  -2   2  435.86   14.60
  -1  -2   2  418.96   14.20
  -1  -2   2  474.05   14.60
  -1  -2   2  442.66   14.80
  -1  -2   2  440.56   14.30
  -1  -2   2  412.36   14.40
   0   2  -2  712.13   22.80
   0   2  -2  715.33   22.60
   0   2  -2  729.43   22.60
   0   2  -2  704.43   22.60
   0   2  -2  666.63   22.90
   0   2  -2  677.93   22.90
   0   2  -2  709.43   22.50
   0   2  -2  707.13   22.50
   0   2  -2  729.93   22.80
   0   2  -2  699.03   22.90
   0   2  -2  708.13   22.90
   0  -2   2  736.83   22.40
   0  -2   2  716.13   23.00
   0  -2   2  692.73   22.80
   0  -2   2  688.43   22.50
   0  -2   2  694.53   22.60
   0  -2   2  682.63   23.00
   0  -2   2  700.13   22.90
   0  -2   2  718.83   22.80
   0  -2   2  663.03   22.40
  -1   2  -2  272.87    9.70
  -1   2  -2  288.67    9.80
  -1   2  -2  287.67    9.70
  -1   2  -2  284.47    9.90
  -1   2  -2  297.67    9.80
  -1   2  -2  292.47    9.50
  -1   2  -2  291.37    9.50
  -1   2  -2  278.37    9.80
  -1   2  -2  288.27    9.80
  -1   2  -2  294.27    9.80
  -1   2  -2  295.67    9.60
  -1   2  -2  298.87    9.60
  -1   2  -2  287.47   10.10
   1  -2   2  287.47   10.10
   1  -2   2  290.07    9.90
   1  -2   2  285.17    9.80
   1  -2   2  288.47    9.50
   1  -2   2  302.87    9.70
   1  -2   2  278.27    9.90
  -2   2  -2   49.20    2.40
  -2   2  -2   48.60    2.50
  -2   2  -2   49.50    2.40
  -2   2  -2   50.19    2.00
  -2   2  -2   48.20    3.10
  -2   2  -2   46.10    2.10
  -2   2  -2   45.80    2.10
  -2   2  -2   47.80    2.30
  -2   2  -2   50.19    2.50
  -2   2  -2   51.59    2.40
  -2   2  -2   48.60    2.20
   2  -2   2   49.10    2.50
   2  -2   2   50.69    2.10
   2  -2   2   47.90    2.40
   2  -2   2   51.29    2.50
   2  -2   2   49.00    2.50
   2  -2   2   49.90    2.70
   2  -2   2   49.00    2.30
   2  -2   2   48.00    2.30
  -3   2  -2  204.78    7.60
  -3   2  -2  201.28    7.20
  -3   2  -2  203.58    7.70
  -3   2  -2  210.48    7.70
  -3   2  -2  198.18    7.20
  -3   2  -2  203.98    7.10
  -3   2  -2  200.68    7.80
  -3   2  -2  198.88    7.50
   3  -2   2  198.68    8.00
   3  -2   2  203.08    7.70
   3  -2   2  213.18    7.80
   3  -2   2  204.48    7.70
   3  -2   2  217.68    7.10
   3  -2   2  196.38    7.70
   3  -2   2  210.58    7.60
   3  -2   2  219.58    7.50
   3  -2   2  203.48    7.40
  -4   2  -2   11.70    1.30
  -4   2  -2   11.10    1.80
  -4   2  -2   18.10    1.70
  -4   2  -2   12.50    1.80
  -4   2  -2   15.10    1.40
  -4   2  -2   11.20    1.60
  -4   2  -2   14.60    1.70
   4  -2   2   14.80    1.60
   4  -2   2   14.10    1.90
   4  -2   2    9.60    1.70
   4  -2   2   12.20    1.70
   4  -2   2   15.60    2.00
   4  -2   2   13.70    1.30
   4  -2   2   14.80    2.10
  -5   2  -2    0.80    1.10
  -5   2  -2    3.30    1.00
  -5   2  -2    2.80    1.30
  -5   2  -2    5.00    1.10
  -5   2  -2    3.00    1.70
  -5   2  -2    3.00    1.40
  -5   2  -2    3.90    1.20
   5  -2   2    2.10    1.20
   5  -2   2    4.00    1.40
   5  -2   2    4.30    1.60
   5  -2   2    0.90    1.20
   5  -2   2    4.80    1.10
  -6   2  -2   26.60    2.90
  -6   2  -2   21.80    2.50
  -6   2  -2   25.50    2.30
  -6   2  -2   25.80    3.20
  -6   2  -2   26.90    3.00
  -6   2  -2   27.80    2.50
   6  -2   2   24.10    3.20
   6  -2   2   24.10    2.10
   6  -2   2   19.20    2.50
   6  -2   2   23.80    2.50
   6  -2   2   26.80    3.10
  -7   2  -2   25.50    3.00
  -7   2  -2   22.90    3.40
  -7   2  -2   22.50    3.00
  -7   2  -2   29.50    3.10
   7  -2   2   25.20    3.60
   7  -2   2   25.30    3.20
  -8   2  -2   -0.50    1.80
  -8   2  -2   -0.20    1.80
  -8   2  -2   -0.70    2.10
   8  -2   2   -0.60    2.10
  -9   2  -2    1.60    2.40
  -9   2  -2    3.00    2.90
  -9   2  -2    0.70    2.30
   9  -2   2   -1.50    3.00
 -10   2  -2    5.90    3.00
  10  -2   2    9.70    4.10
  10   1  -2   17.60    4.90
 -10  -1   2   12.30    3.40
 -10  -1   2   11.50    4.10
 -10  -1   2    6.30    2.50
   9   1  -2    0.40    1.40
   9   1  -2    5.00    3.10
  -9  -1   2    1.50    2.90
  -9  -1   2    3.00    2.20
  -9  -1   2    3.10    2.90
  -9  -1   2    1.10    2.40
   8   1  -2   39.90    3.00
   8   1  -2   38.60    3.70
   8   1  -2   50.59    5.30
  -8  -1   2   43.80    4.40
  -8  -1   2   47.70    5.00
  -8  -1   2   36.80    3.50
  -8  -1   2   48.00    4.20
   7   1  -2    4.50    1.40
   7   1  -2    3.90    2.30
   7   1  -2    3.90    1.80
  -7  -1   2    5.70    1.60
  -7  -1   2    4.20    1.80
  -7  -1   2    7.10    2.40
  -7  -1   2    4.80    1.90
  -7  -1   2    5.20    2.30
   6   1  -2    0.90    1.10
   6   1  -2   -0.50    0.70
   6   1  -2    1.10    1.50
   6   1  -2   -0.70    1.90
   6   1  -2    1.10    1.30
   6   1  -2   -1.70    1.20
   6   1  -2   -0.70    1.30
  -6  -1   2    1.60    1.50
  -6  -1   2    1.80    1.40
  -6  -1   2    3.00    1.50
  -6  -1   2   -0.30    1.60
  -6  -1   2    0.70    1.00
  -6  -1   2    1.50    1.70
  -6  -1   2    1.90    1.50
  -6  -1   2   -0.40    1.10
   5   1  -2    8.20    1.60
   5   1  -2    3.60    0.90
   5   1  -2    5.00    1.00
   5   1  -2    4.90    1.50
   5   1  -2    5.50    1.40
   5   1  -2    6.10    1.30
   5   1  -2    4.50    1.40
   5   1  -2    7.30    1.80
   5   1  -2    4.60    1.40
  -5  -1   2    5.10    1.20
  -5  -1   2    7.10    1.30
  -5  -1   2    7.50    1.60
  -5  -1   2    5.40    1.40
  -5  -1   2    7.80    1.80
  -5  -1   2    4.60    1.30
  -5  -1   2    5.50    1.40
  -5  -1   2    7.90    1.70
  -5  -1   2    8.20    1.70
   4   1  -2 1597.14   51.69
   4   1  -2 1541.95   51.89
   4   1  -2 1558.24   51.19
   4   1  -2 1618.84   51.49
   4   1  -2 1601.24   51.09
   4   1  -2 1592.94   51.59
   4   1  -2 1587.34   51.79
  -4  -1   2 1775.82   51.19
  -4  -1   2 1493.05   51.59
  -4  -1   2 1563.84   50.99
  -4  -1   2 1664.73   51.19
  -4  -1   2 1595.34   51.49
  -4  -1   2 1522.35   51.49
  -4  -1   2 1582.34   51.79
  -4  -1   2 1560.34   51.49
  -4  -1   2 1613.54   51.59
   3   1  -2  143.89    5.30
   3   1  -2  142.79    5.70
   3   1  -2  154.78    6.00
   3   1  -2  145.29    5.40
   3   1  -2  153.68    5.70
   3   1  -2  141.69    5.20
   3   1  -2  151.38    6.00
   3   1  -2  141.39    5.50
   3   1  -2  149.39    5.80
  -3  -1   2  135.19    5.60
  -3  -1   2  139.99    5.30
  -3  -1   2  143.49    5.40
  -3  -1   2  146.09    5.30
  -3  -1   2  143.19    5.70
  -3  -1   2  144.69    5.70
  -3  -1   2  141.99    5.60
  -3  -1   2  148.69    6.20
  -3  -1   2  146.29    5.90
  -3  -1   2  151.28    5.90
   2   1  -2 8266.77  259.47
   2   1  -2 8319.27  259.07
   2   1  -2 8364.66  258.87
   2   1  -2 8013.30  258.67
   2   1  -2 8334.47  260.17
   2   1  -2 8122.39  258.87
   2   1  -2 8361.86  258.77
   2   1  -2 7912.41  259.47
   2   1  -2 7930.61  258.07
   2   1  -2 8283.47  258.97
   2   1  -2 8168.58  257.97
  -2  -1   2 8450.15  258.97
  -2  -1   2 8169.58  259.97
  -2  -1   2 8305.37  259.17
  -2  -1   2 8399.36  257.77
  -2  -1   2 7890.01  259.27
  -2  -1   2 8335.47  260.37
  -2  -1   2 7647.83  258.27
  -2  -1   2 8089.69  260.17
  -2  -1   2 7773.12  258.57
  -2  -1   2 7801.02  257.97
  -2  -1   2 8070.99  258.87
   1   1  -2 2010.40   63.09
   1   1  -2 1937.01   63.69
   1   1  -2 2004.40   63.09
   1   1  -2 1866.51   63.19
   1   1  -2 1993.40   62.99
   1   1  -2 2141.09   63.49
   1   1  -2 1989.30   63.09
   1   1  -2 2236.18   63.59
   1   1  -2 1900.81   63.69
   1   1  -2 2041.60   62.99
   1   1  -2 1911.91   63.09
   1   1  -2 2009.70   63.69
   1   1  -2 2026.90   63.19
  -1  -1   2 1914.11   62.89
  -1  -1   2 1967.40   62.89
  -1  -1   2 2054.59   63.29
  -1  -1   2 1921.51   63.09
  -1  -1   2 2024.60   63.09
  -1  -1   2 1994.60   63.89
  -1  -1   2 1945.81   63.09
  -1  -1   2 2004.10   63.09
  -1  -1   2 2008.80   63.09
  -1  -1   2 1961.70   63.19
  -1  -1   2 1919.71   63.19
  -1  -1   2 2007.80   63.29
   0   1  -2 3040.40  102.59
   0   1  -2 3257.27  102.59
   0   1  -2 3183.58  102.99
   0   1  -2 3232.08  103.09
   0   1  -2 3322.77  103.19
   0   1  -2 3482.25  102.79
   0   1  -2 3255.57  102.19
   0   1  -2 3259.47  102.69
   0   1  -2 3124.89  102.69
   0   1  -2 3270.07  103.59
   0   1  -2 3237.88  102.49
   0  -1   2 3184.78  103.09
   0  -1   2 3259.77  102.89
   0  -1   2 3211.78  103.59
   0  -1   2 3271.17  103.69
   0  -1   2 3171.98  103.39
   0  -1   2 3251.57  103.79
  -1   1  -2 3655.53  114.09
  -1   1  -2 3461.15  114.19
  -1   1  -2 3696.43  113.89
  -1   1  -2 3622.84  113.69
  -1   1  -2 3521.25  113.89
  -1   1  -2 3660.83  113.99
  -1   1  -2 3675.93  114.09
  -1   1  -2 3643.04  114.49
  -1   1  -2 3588.44  114.69
  -1   1  -2 3597.64  113.69
  -1   1  -2 3660.53  113.99
   1  -1   2 3558.74  114.59
   1  -1   2 3614.34  113.69
   1  -1   2 3421.96  113.89
   1  -1   2 3418.66  113.79
   1  -1   2 3571.74  113.99
   1  -1   2 3576.64  114.69
  -2   1  -2   30.90    1.50
  -2   1  -2   29.20    1.60
  -2   1  -2   31.20    1.20
  -2   1  -2   33.50    1.60
  -2   1  -2   32.20    1.50
  -2   1  -2   30.00    1.70
  -2   1  -2   30.80    1.70
  -2   1  -2   31.30    1.50
  -2   1  -2   33.80    1.80
  -2   1  -2   29.00    1.70
  -2   1  -2   29.80    1.40
   2  -1   2   28.90    1.50
   2  -1   2   29.50    1.70
   2  -1   2   32.20    1.30
   2  -1   2   33.40    2.00
   2  -1   2   31.60    1.80
   2  -1   2   32.50    1.50
   2  -1   2   31.10    1.70
   2  -1   2   33.90    1.70
   2  -1   2   30.70    1.70
  -3   1  -2  480.45   16.20
  -3   1  -2  488.55   16.20
  -3   1  -2  477.55   15.80
  -3   1  -2  480.05   15.60
  -3   1  -2  478.25   15.70
  -3   1  -2  473.55   15.80
  -3   1  -2  478.85   16.10
  -3   1  -2  468.45   16.00
  -3   1  -2  484.85   16.10
   3  -1   2  476.65   16.30
   3  -1   2  480.65   15.90
   3  -1   2  480.65   15.50
   3  -1   2  498.05   15.90
   3  -1   2  482.25   16.30
   3  -1   2  475.15   16.10
   3  -1   2  465.45   16.10
   3  -1   2  479.75   16.10
  -4   1  -2  585.14   19.70
  -4   1  -2  585.04   19.20
  -4   1  -2  568.74   19.60
  -4   1  -2  569.64   19.50
  -4   1  -2  591.44   19.10
  -4   1  -2  563.04   19.70
  -4   1  -2  588.64   19.00
   4  -1   2  553.14   19.50
   4  -1   2  567.84   19.70
   4  -1   2  599.34   18.90
   4  -1   2  582.34   19.40
   4  -1   2  590.64   19.90
   4  -1   2  605.04   19.70
   4  -1   2  567.14   19.90
  -5   1  -2    9.10    1.30
  -5   1  -2    8.30    1.30
  -5   1  -2    5.10    1.50
  -5   1  -2    8.90    1.20
  -5   1  -2    6.10    1.40
  -5   1  -2    6.90    1.80
  -5   1  -2   10.30    1.80
   5  -1   2    3.60    1.60
   5  -1   2   10.20    1.60
   5  -1   2    9.70    1.80
   5  -1   2   10.70    1.80
   5  -1   2   10.30    1.20
  -6   1  -2   86.19    4.10
  -6   1  -2   89.19    5.00
  -6   1  -2   79.19    4.50
  -6   1  -2   93.29    5.20
  -6   1  -2   81.19    4.30
  -6   1  -2   78.19    4.60
  -6   1  -2   82.09    4.80
   6  -1   2   89.99    4.50
   6  -1   2   85.49    4.90
   6  -1   2   89.59    3.80
   6  -1   2   87.99    5.20
   6  -1   2   90.69    5.20
  -7   1  -2   20.20    3.20
  -7   1  -2   12.40    2.50
  -7   1  -2   15.30    2.50
  -7   1  -2   12.60    2.10
   7  -1   2   16.00    2.80
   7  -1   2   11.00    2.80
  -8   1  -2    3.60    2.20
  -8   1  -2    7.00    2.30
  -8   1  -2    4.50    2.20
   8  -1   2    4.50    2.60
  -9   1  -2   12.40    3.00
  -9   1  -2   13.00    3.30
  -9   1  -2    9.70    2.90
   9  -1   2   10.60    3.70
 -10   1  -2    8.40    3.00
  10  -1   2    9.40    3.90
  10   0  -2    4.60    1.40
  10   0  -2    5.30    3.50
 -10   0   2    0.00    3.10
 -10   0   2    3.50    2.50
 -10   0   2    9.90    3.70
 -10   0   2    6.30    3.10
   9   0  -2    4.00    1.50
   9   0  -2    4.20    3.40
  -9   0   2    3.00    2.50
  -9   0   2    1.90    2.70
  -9   0   2    2.10    2.00
  -9   0   2    8.20    3.10
   8   0  -2   36.00    4.80
   8   0  -2   37.00    3.70
   8   0  -2   34.30    2.90
  -8   0   2   31.30    3.40
  -8   0   2   36.80    3.70
  -8   0   2   46.40    4.90
  -8   0   2   38.70    4.30
   7   0  -2   53.29    4.00
   7   0  -2   47.10    4.20
   7   0  -2   46.10    3.20
   7   0  -2   48.00    4.80
  -7   0   2   51.99    3.60
  -7   0   2   54.49    3.80
  -7   0   2   63.49    5.00
  -7   0   2   50.29    3.90
  -7   0   2   55.79    4.80
   6   0  -2   22.20    2.80
   6   0  -2   20.20    2.50
   6   0  -2   19.70    2.00
   6   0  -2   22.50    2.80
   6   0  -2   22.60    2.50
   6   0  -2   22.40    3.10
   6   0  -2   25.40    3.00
   6   0  -2   23.20    2.00
  -6   0   2   18.80    2.20
  -6   0   2   30.20    3.20
  -6   0   2   24.40    2.20
  -6   0   2   22.30    2.60
  -6   0   2   16.40    2.60
  -6   0   2   18.40    2.70
  -6   0   2   21.90    2.50
  -6   0   2   20.70    2.50
   5   0  -2  176.88    7.60
   5   0  -2  166.88    7.10
   5   0  -2  167.48    7.30
   5   0  -2  177.38    7.00
   5   0  -2  173.38    6.80
   5   0  -2  167.78    6.40
   5   0  -2  169.28    6.30
   5   0  -2  165.48    7.20
   5   0  -2  170.88    6.60
  -5   0   2  175.48    6.70
  -5   0   2  162.68    7.30
  -5   0   2  158.78    7.00
  -5   0   2  167.48    7.30
  -5   0   2  169.28    6.50
  -5   0   2  179.18    7.30
  -5   0   2  170.78    7.00
  -5   0   2  180.98    7.10
  -5   0   2  168.98    6.70
   4   0  -2   15.90    1.70
   4   0  -2   18.80    1.80
   4   0  -2   17.80    1.80
   4   0  -2   14.60    1.40
   4   0  -2   20.80    1.60
   4   0  -2   19.00    1.40
   4   0  -2   17.90    2.10
   4   0  -2   17.50    2.10
   4   0  -2   18.40    2.00
  -4   0   2   13.80    1.70
  -4   0   2   15.10    1.40
  -4   0   2   13.40    1.60
  -4   0   2   12.30    1.50
  -4   0   2   15.00    1.80
  -4   0   2   18.10    1.70
  -4   0   2   20.80    2.20
  -4   0   2   14.10    1.60
  -4   0   2   14.50    1.50
   3   0  -2    6.50    0.80
   3   0  -2    8.50    1.20
   3   0  -2    5.00    1.00
   3   0  -2    7.20    1.10
   3   0  -2    8.20    0.90
   3   0  -2    6.50    1.10
   3   0  -2    5.50    0.80
   3   0  -2    5.10    1.10
   3   0  -2    7.50    1.20
   3   0  -2    7.10    1.30
  -3   0   2    5.60    0.80
  -3   0   2    6.50    1.00
  -3   0   2    6.80    1.30
  -3   0   2    7.30    0.90
  -3   0   2    7.10    0.80
  -3   0   2    6.70    1.10
  -3   0   2    6.70    1.10
  -3   0   2    8.90    1.30
  -3   0   2    6.60    1.10
  -3   0   2    9.50    1.50
   2   0  -2  323.77   10.50
   2   0  -2  330.27   11.00
   2   0  -2  326.27   10.90
   2   0  -2  309.67   10.60
   2   0  -2  319.27   10.50
   2   0  -2  330.27   11.00
   2   0  -2  331.37   10.90
   2   0  -2  317.47   10.70
   2   0  -2  310.57   10.50
   2   0  -2  298.87   10.80
   2   0  -2  309.17   10.80
   2   0  -2  326.47   10.80
   2   0  -2  327.97   10.60
  -2   0   2  323.77   10.50
  -2   0   2  326.97   10.80
  -2   0   2  323.27   10.70
  -2   0   2  337.17   10.80
  -2   0   2  309.67   10.40
  -2   0   2  313.17   10.90
  -2   0   2  313.97   10.90
  -2   0   2  345.87   10.80
  -2   0   2  300.27   10.50
   1   0  -2  852.71   27.50
   1   0  -2  850.81   27.50
   1   0  -2  892.61   27.70
   1   0  -2  874.71   27.70
   1   0  -2  861.51   27.70
   1   0  -2  866.81   27.80
   1   0  -2  871.11   27.60
   1   0  -2  875.21   27.50
   1   0  -2  848.92   27.70
   1   0  -2  865.71   27.70
  -1   0   2  863.21   27.40
  -1   0   2  839.82   27.80
  -1   0   2  854.71   27.80
  -1   0   2  863.81   27.60
  -1   0   2  861.31   27.70
  -1   0   2  898.21   27.70
  -1   0   2  854.41   27.40
  -1   0   2  929.11   27.70
   0   0  -2  727.93   22.60
   0   0  -2  738.03   22.60
   0   0   2  680.43   22.90
  -1   0  -2  877.51   27.50
  -1   0  -2  894.11   27.50
  -1   0  -2  849.12   27.50
  -1   0  -2  836.92   27.30
   1   0   2  840.62   27.70
   1   0   2  866.11   27.50
   1   0   2  875.61   27.40
   1   0   2  869.11   27.50
   1   0   2  878.11   27.50
   1   0   2  876.81   27.60
   1   0   2  849.81   27.40
  -2   0  -2  118.89    4.50
  -2   0  -2  117.89    4.40
  -2   0  -2  125.99    4.30
  -2   0  -2  124.69    4.20
  -2   0  -2  128.99    4.40
  -2   0  -2  124.29    4.60
  -2   0  -2  122.79    4.50
  -2   0  -2  129.99    4.10
  -2   0  -2  119.19    4.40
  -2   0  -2  127.49    4.30
   2   0   2  115.59    4.50
   2   0   2  119.49    4.40
   2   0   2  127.19    4.60
   2   0   2  121.39    4.40
   2   0   2  113.89    4.50
   2   0   2  115.59    4.20
  -3   0  -2  744.43   23.80
  -3   0  -2  738.53   23.50
  -3   0  -2  681.13   23.70
  -3   0  -2  730.03   23.60
  -3   0  -2  765.62   24.00
  -3   0  -2  721.13   23.30
  -3   0  -2  709.53   23.90
  -3   0  -2  746.83   23.40
   3   0   2  724.03   23.80
   3   0   2  708.83   23.20
   3   0   2  729.13   23.60
   3   0   2  718.63   24.00
   3   0   2  714.83   23.90
   3   0   2  709.33   24.00
   3   0   2  721.93   23.80
   3   0   2  767.62   23.70
  -4   0  -2  317.67   11.70
  -4   0  -2  322.97   11.50
  -4   0  -2  336.67   11.00
  -4   0  -2  318.07   11.00
  -4   0  -2  328.27   11.60
  -4   0  -2  329.37   11.70
  -4   0  -2  333.87   11.20
   4   0   2  333.37   11.30
   4   0   2  316.77   11.80
   4   0   2  326.27   11.90
   4   0   2  331.17   11.70
   4   0   2  321.37   10.80
   4   0   2  326.37   11.60
  -5   0  -2   22.40    2.20
  -5   0  -2   15.30    2.00
  -5   0  -2   23.30    1.80
  -5   0  -2   26.00    2.20
  -5   0  -2   19.90    2.40
  -5   0  -2   25.90    1.80
  -5   0  -2   25.00    2.50
   5   0   2   21.70    2.60
   5   0   2   24.50    1.60
   5   0   2   28.80    2.40
   5   0   2   25.10    2.40
   5   0   2   24.40    2.50
   5   0   2   22.80    2.50
  -6   0  -2  101.19    5.30
  -6   0  -2  111.89    5.00
  -6   0  -2  115.69    5.80
  -6   0  -2  116.69    5.60
  -6   0  -2  106.39    4.60
  -6   0  -2  100.79    4.60
  -6   0  -2  105.09    5.50
   6   0   2  106.09    5.80
   6   0   2  100.09    4.90
   6   0   2   95.29    4.80
   6   0   2   99.89    5.70
   6   0   2  100.39    5.50
  -7   0  -2   14.80    2.60
  -7   0  -2   17.40    2.40
  -7   0  -2   17.00    3.00
  -7   0  -2   12.30    2.60
   7   0   2   14.70    2.80
   7   0   2   19.80    3.30
  -8   0  -2    3.60    2.00
  -8   0  -2    3.60    2.60
  -8   0  -2    3.10    2.10
   8   0   2    5.10    2.90
  -9   0  -2    6.30    2.60
  -9   0  -2    5.30    3.20
  -9   0  -2    3.70    2.40
   9   0   2    5.30    3.10
 -10   0  -2    5.30    3.00
  10   0   2    1.90    3.50
  10  -1  -2   12.00    1.80
  10  -1  -2    6.70    3.80
 -10   1   2   13.90    4.40
 -10   1   2   14.00    3.70
 -10   1   2    7.90    2.80
 -10   1   2   10.00    2.90
   9  -1  -2   -2.10    1.30
   9  -1  -2    3.30    3.20
  -9   1   2   -0.30    1.50
  -9   1   2   -0.90    2.40
  -9   1   2   -0.70    2.80
  -9   1   2    2.70    2.30
   8  -1  -2   56.09    3.60
   8  -1  -2   59.29    4.50
   8  -1  -2   58.09    5.80
  -8   1   2   59.49    4.10
  -8   1   2   61.89    4.60
  -8   1   2   61.39    5.60
  -8   1   2   56.19    5.10
   7  -1  -2   85.69    4.30
   7  -1  -2   84.89    4.90
   7  -1  -2   84.69    5.80
   7  -1  -2   91.59    5.40
  -7   1   2   87.29    5.50
  -7   1   2   79.39    4.90
  -7   1   2   84.99    4.60
  -7   1   2   88.39    4.60
  -7   1   2   80.69    5.20
   6  -1  -2   70.49    3.50
   6  -1  -2   72.79    3.50
   6  -1  -2   77.09    3.70
   6  -1  -2   79.09    5.10
   6  -1  -2   75.09    4.50
   6  -1  -2   70.29    4.10
   6  -1  -2   71.69    4.60
   6  -1  -2   61.89    4.20
  -6   1   2   59.79    4.10
  -6   1   2   66.49    3.60
  -6   1   2   70.69    4.10
  -6   1   2   74.59    3.80
  -6   1   2   73.49    3.90
  -6   1   2   70.79    4.20
  -6   1   2   74.99    4.50
  -6   1   2   70.39    4.70
  -6   1   2   72.09    4.50
   5  -1  -2  447.16   15.10
   5  -1  -2  411.36   14.40
   5  -1  -2  424.46   15.30
   5  -1  -2  447.76   14.70
   5  -1  -2  402.26   14.80
   5  -1  -2  434.36   14.60
   5  -1  -2  428.16   15.70
   5  -1  -2  437.36   15.50
   5  -1  -2  405.66   15.10
  -5   1   2  421.26   14.60
  -5   1   2  432.46   14.60
  -5   1   2  441.46   15.30
  -5   1   2  432.76   15.20
  -5   1   2  429.66   15.50
  -5   1   2  428.26   15.30
  -5   1   2  421.26   14.70
  -5   1   2  431.96   15.50
  -5   1   2  400.96   14.90
   4  -1  -2   78.79    4.10
   4  -1  -2   76.49    3.90
   4  -1  -2   72.09    3.60
   4  -1  -2   75.09    3.30
   4  -1  -2   78.19    3.70
   4  -1  -2   87.99    3.80
   4  -1  -2   77.29    3.80
  -4   1   2   75.69    3.80
  -4   1   2   81.89    3.50
  -4   1   2   75.89    3.40
  -4   1   2   76.99    4.00
  -4   1   2   79.99    3.40
  -4   1   2   78.09    3.70
  -4   1   2   79.39    4.00
  -4   1   2   82.29    4.00
  -4   1   2   79.09    3.80
   3  -1  -2  460.05   16.10
   3  -1  -2  463.65   15.90
   3  -1  -2  458.25   15.70
   3  -1  -2  478.35   15.50
   3  -1  -2  488.35   16.00
   3  -1  -2  468.25   15.40
   3  -1  -2  461.85   15.60
   3  -1  -2  476.05   15.80
  -3   1   2  476.25   15.90
  -3   1   2  443.26   16.00
  -3   1   2  480.65   15.40
  -3   1   2  451.75   15.90
  -3   1   2  481.95   16.00
  -3   1   2  459.85   15.40
  -3   1   2  476.25   15.50
  -3   1   2  445.96   15.80
  -3   1   2  467.85   15.70
  -3   1   2  488.45   15.90
   2  -1  -2  682.63   23.50
   2  -1  -2  745.03   23.60
   2  -1  -2  723.83   23.30
   2  -1  -2  749.62   23.70
   2  -1  -2  756.32   23.30
   2  -1  -2  690.13   23.50
   2  -1  -2  715.73   23.50
   2  -1  -2  720.23   23.30
   2  -1  -2  729.63   23.60
   2  -1  -2  755.52   23.50
   2  -1  -2  685.73   23.20
  -2   1   2  725.03   23.60
  -2   1   2  727.13   23.70
  -2   1   2  697.33   23.10
  -2   1   2  721.53   23.40
  -2   1   2  722.23   23.50
  -2   1   2  741.93   23.20
  -2   1   2  724.33   23.50
  -2   1   2  729.63   23.60
  -2   1   2  734.23   23.20
   1  -1  -2   44.30    1.80
   1  -1  -2   43.40    1.80
   1  -1  -2   46.00    1.90
   1  -1  -2   42.30    1.80
   1  -1  -2   40.10    1.80
   1  -1  -2   45.90    1.70
   1  -1  -2   42.20    1.90
   1  -1  -2   41.10    1.80
   1  -1  -2   44.60    1.70
   1  -1  -2   44.50    1.70
  -1   1   2   36.70    1.80
  -1   1   2   43.40    1.90
  -1   1   2   46.30    1.50
  -1   1   2   43.50    1.80
  -1   1   2   45.40    1.90
  -1   1   2   43.70    1.80
  -1   1   2   41.90    1.70
  -1   1   2   45.70    1.50
   0  -1  -2   11.20    0.50
   0  -1  -2   11.40    0.60
   0  -1  -2   12.20    0.70
   0  -1  -2   10.90    0.70
   0  -1  -2   11.80    0.50
   0   1   2   12.00    0.60
   0   1   2   12.00    0.70
   0   1   2   11.50    0.60
   0   1   2   11.70    0.70
   0   1   2   11.90    0.70
   0   1   2   10.90    0.60
  -1  -1  -2 1622.44   48.50
  -1  -1  -2 1542.45   48.40
  -1  -1  -2 1592.74   48.70
  -1  -1  -2 1513.55   48.80
  -1  -1  -2 1482.05   48.50
  -1  -1  -2 1485.65   48.50
   1   1   2 1568.04   48.70
   1   1   2 1433.96   48.60
   1   1   2 1602.64   48.60
   1   1   2 1486.55   48.50
   1   1   2 1523.15   48.60
  -2  -1  -2   89.99    3.30
  -2  -1  -2   89.79    3.60
  -2  -1  -2   83.89    3.40
  -2  -1  -2   87.09    3.30
  -2  -1  -2   81.69    3.40
  -2  -1  -2   91.49    3.40
  -2  -1  -2   89.49    3.10
  -2  -1  -2   89.09    3.20
   2   1   2   88.69    3.60
   2   1   2   84.49    3.40
   2   1   2   88.79    3.50
   2   1   2   84.69    3.40
   2   1   2   84.19    3.40
   2   1   2   87.49    3.40
   2   1   2   85.79    3.20
  -3  -1  -2  574.04   18.40
  -3  -1  -2  580.64   18.50
  -3  -1  -2  555.14   18.80
  -3  -1  -2  564.84   18.80
  -3  -1  -2  571.74   18.70
  -3  -1  -2  582.84   18.30
  -3  -1  -2  567.44   18.70
  -3  -1  -2  559.04   18.10
   3   1   2  582.14   18.50
   3   1   2  555.44   18.90
   3   1   2  559.44   18.00
   3   1   2  538.85   19.00
   3   1   2  565.54   18.80
   3   1   2  549.25   18.70
   3   1   2  544.55   18.70
  -4  -1  -2  386.46   12.90
  -4  -1  -2  389.56   13.60
  -4  -1  -2  400.86   13.60
  -4  -1  -2  382.56   12.90
  -4  -1  -2  374.56   13.40
  -4  -1  -2  397.46   13.20
  -4  -1  -2  384.56   13.40
   4   1   2  375.86   13.50
   4   1   2  382.46   12.60
   4   1   2  388.56   13.80
   4   1   2  366.96   13.70
   4   1   2  386.46   13.20
   4   1   2  381.06   13.40
  -5  -1  -2   50.19    3.30
  -5  -1  -2   52.19    2.70
  -5  -1  -2   51.99    2.70
  -5  -1  -2   47.60    3.30
  -5  -1  -2   55.69    3.20
  -5  -1  -2   55.69    3.60
  -5  -1  -2   49.10    3.30
   5   1   2   49.20    3.00
   5   1   2   50.09    3.60
   5   1   2   50.59    3.60
   5   1   2   52.19    3.40
   5   1   2   56.29    2.40
   5   1   2   52.99    3.30
  -6  -1  -2  188.38    7.90
  -6  -1  -2  177.08    7.60
  -6  -1  -2  154.58    8.20
  -6  -1  -2  163.78    7.40
  -6  -1  -2  171.88    7.20
   6   1   2  166.38    8.10
   6   1   2  188.08    8.40
   6   1   2  176.98    7.80
   6   1   2  184.68    8.20
  -7  -1  -2    2.00    1.90
  -7  -1  -2    2.20    2.20
  -7  -1  -2    1.30    1.80
  -7  -1  -2   -1.30    1.60
   7   1   2   -0.10    1.60
   7   1   2    2.20    2.20
  -8  -1  -2   16.40    2.90
  -8  -1  -2   19.00    3.50
  -8  -1  -2   11.60    2.60
   8   1   2   15.10    3.50
  -9  -1  -2    4.90    2.70
  -9  -1  -2    6.10    2.60
   9   1   2    4.60    3.30
 -10  -1  -2   -1.40    2.90
  10   1   2    5.40    3.80
  10  -2  -2    1.50    3.50
  10  -2  -2   -0.40    1.50
 -10   2   2    0.80    2.60
 -10   2   2   -2.10    3.20
 -10   2   2    1.50    3.10
 -10   2   2    1.50    2.20
   9  -2  -2    6.90    3.70
   9  -2  -2    3.80    1.70
  -9   2   2    9.10    3.20
  -9   2   2    7.90    3.00
  -9   2   2    4.20    2.20
  -9   2   2    2.60    2.30
   8  -2  -2   36.20    4.80
   8  -2  -2   38.60    3.10
   8  -2  -2   46.00    4.10
  -8   2   2   32.30    4.00
  -8   2   2   41.30    4.60
  -8   2   2   26.30    3.00
  -8   2   2   31.60    3.20
   7  -2  -2    2.40    2.40
   7  -2  -2    2.10    1.60
   7  -2  -2    2.30    1.80
   7  -2  -2    1.60    1.30
  -7   2   2    4.80    2.30
  -7   2   2    0.50    1.30
  -7   2   2   -2.40    2.10
  -7   2   2    0.20    1.20
  -7   2   2    1.40    1.50
   6  -2  -2   49.70    4.20
   6  -2  -2   42.80    3.70
   6  -2  -2   40.40    3.30
   6  -2  -2   39.00    2.60
   6  -2  -2   39.30    3.50
   6  -2  -2   44.10    3.50
   6  -2  -2   46.10    4.40
   6  -2  -2   39.40    2.80
  -6   2   2   43.90    3.00
  -6   2   2   50.99    4.20
  -6   2   2   36.00    2.60
  -6   2   2   43.10    3.60
  -6   2   2   47.00    4.30
  -6   2   2   40.20    3.30
  -6   2   2   43.40    3.00
  -6   2   2   34.60    3.60
   5  -2  -2  176.28    7.40
   5  -2  -2  175.88    6.80
   5  -2  -2  180.18    7.50
   5  -2  -2  181.18    7.20
   5  -2  -2  165.48    7.00
   5  -2  -2  181.68    6.80
   5  -2  -2  184.88    7.70
   5  -2  -2  185.48    7.80
   5  -2  -2  175.48    6.70
  -5   2   2  169.78    6.80
  -5   2   2  179.58    7.20
  -5   2   2  175.18    7.70
  -5   2   2  176.18    7.50
  -5   2   2  174.08    7.30
  -5   2   2  173.68    6.90
  -5   2   2  176.98    6.70
  -5   2   2  181.08    7.50
  -5   2   2  171.88    7.60
   4  -2  -2   18.10    1.90
   4  -2  -2   19.90    2.00
   4  -2  -2   24.20    2.60
   4  -2  -2   19.10    2.00
   4  -2  -2   25.20    2.00
   4  -2  -2   16.50    2.00
   4  -2  -2   22.80    1.70
   4  -2  -2   21.90    2.20
  -4   2   2   22.30    2.50
  -4   2   2   22.90    1.80
  -4   2   2   20.50    1.70
  -4   2   2   23.10    2.20
  -4   2   2   20.30    2.10
  -4   2   2   20.30    2.20
  -4   2   2   24.20    2.10
  -4   2   2   26.10    2.50
  -4   2   2   21.50    1.60
   3  -2  -2  561.94   18.50
   3  -2  -2  551.24   18.80
   3  -2  -2  547.85   18.60
   3  -2  -2  547.05   18.80
   3  -2  -2  575.14   18.40
   3  -2  -2  558.04   18.50
   3  -2  -2  546.85   19.00
   3  -2  -2  571.04   19.00
  -3   2   2  548.25   18.30
  -3   2   2  564.74   18.90
  -3   2   2  545.55   19.00
  -3   2   2  555.54   18.30
  -3   2   2  570.44   18.90
  -3   2   2  562.24   18.40
  -3   2   2  581.74   19.00
  -3   2   2  574.74   18.80
  -3   2   2  559.14   18.90
  -3   2   2  554.54   18.60
   2  -2  -2 1126.29   35.10
   2  -2  -2 1090.79   35.30
   2  -2  -2 1050.69   35.20
   2  -2  -2 1086.89   34.90
   2  -2  -2 1122.09   35.00
   2  -2  -2 1120.29   34.90
   2  -2  -2 1075.69   35.30
   2  -2  -2 1099.79   35.30
   2  -2  -2 1079.79   35.00
  -2   2   2 1087.99   35.40
  -2   2   2 1115.59   35.30
  -2   2   2 1093.39   35.30
  -2   2   2 1077.39   35.10
  -2   2   2 1048.80   34.90
  -2   2   2 1114.29   35.30
  -2   2   2 1100.19   35.20
  -2   2   2 1053.49   34.70
   1  -2  -2  203.38    7.40
   1  -2  -2  222.88    7.40
   1  -2  -2  212.08    7.40
   1  -2  -2  212.18    7.40
   1  -2  -2  221.78    7.40
   1  -2  -2  202.28    7.50
   1  -2  -2  218.68    7.20
   1  -2  -2  216.08    7.40
   1  -2  -2  207.38    7.20
   1  -2  -2  214.78    7.00
   1  -2  -2  208.58    7.20
  -1   2   2  221.28    7.60
  -1   2   2  196.48    7.30
  -1   2   2  218.88    7.00
  -1   2   2  217.28    7.50
  -1   2   2  218.78    7.40
  -1   2   2  214.88    7.50
  -1   2   2  217.98    7.30
  -1   2   2  214.98    7.30
   0  -2  -2 2217.08   67.29
   0  -2  -2 2168.78   67.29
   0  -2  -2 2078.89   67.39
   0  -2  -2 2113.59   67.99
   0  -2  -2 2221.48   67.29
   0  -2  -2 2067.19   67.29
   0  -2  -2 2104.09   67.39
   0  -2  -2 2196.38   67.49
   0  -2  -2 2100.79   66.99
   0  -2  -2 2100.29   67.99
   0  -2  -2 2170.18   67.09
   0   2   2 2086.69   67.39
   0   2   2 2030.70   68.19
   0   2   2 2073.59   67.09
   0   2   2 2104.59   68.59
   0   2   2 2017.90   67.39
   0   2   2 2244.68   67.49
  -1  -2  -2   26.60    1.30
  -1  -2  -2   22.90    1.10
  -1  -2  -2   25.30    1.60
  -1  -2  -2   24.50    1.20
  -1  -2  -2   22.60    1.30
  -1  -2  -2   25.00    1.50
  -1  -2  -2   24.00    1.40
  -1  -2  -2   22.10    1.30
   1   2   2   24.50    1.40
   1   2   2   24.40    1.40
   1   2   2   24.30    1.20
   1   2   2   25.10    1.40
   1   2   2   24.50    1.50
   1   2   2   24.80    1.50
  -2  -2  -2    2.90    0.80
  -2  -2  -2    2.20    0.70
  -2  -2  -2    2.40    0.50
  -2  -2  -2    2.20    0.70
  -2  -2  -2    2.00    0.70
  -2  -2  -2    3.10    0.60
   2   2   2    4.50    1.20
   2   2   2    2.60    0.80
   2   2   2    1.30    0.80
   2   2   2    2.00    0.80
   2   2   2    2.60    0.70
   2   2   2    1.50    0.60
   2   2   2    2.10    0.70
  -3  -2  -2  197.88    7.30
  -3  -2  -2  186.08    7.20
  -3  -2  -2  194.18    7.20
  -3  -2  -2  194.38    6.90
  -3  -2  -2  197.58    6.60
  -3  -2  -2  193.08    7.30
  -3  -2  -2  188.48    7.10
  -3  -2  -2  185.78    6.70
   3   2   2  199.68    6.40
   3   2   2  188.58    7.20
   3   2   2  202.28    7.60
   3   2   2  184.48    6.90
   3   2   2  204.18    7.70
   3   2   2  202.38    7.30
  -4  -2  -2  305.17   10.40
  -4  -2  -2  300.07   11.20
  -4  -2  -2  289.57   11.00
  -4  -2  -2  322.07   11.00
  -4  -2  -2  309.47   11.20
  -4  -2  -2  321.27   11.20
  -4  -2  -2  323.37   10.50
   4   2   2  288.97   11.10
   4   2   2  300.97   11.50
   4   2   2  301.77   11.20
   4   2   2  301.27   11.10
   4   2   2  310.47   10.20
   4   2   2  314.67   10.80
   4   2   2  304.07   11.50
  -5  -2  -2   20.20    1.80
  -5  -2  -2   20.40    1.80
  -5  -2  -2   20.90    2.30
  -5  -2  -2   29.90    2.90
  -5  -2  -2   25.40    2.50
  -5  -2  -2   24.30    2.60
  -5  -2  -2   17.50    2.00
   5   2   2   22.50    2.20
   5   2   2   21.70    2.80
   5   2   2   27.90    2.70
   5   2   2   25.30    1.60
   5   2   2   23.40    2.90
   5   2   2   21.50    2.50
  -6  -2  -2   96.29    5.20
  -6  -2  -2   91.49    5.00
  -6  -2  -2   77.19    4.60
  -6  -2  -2   94.09    5.30
   6   2   2   91.29    5.20
   6   2   2   84.09    5.40
   6   2   2   95.69    5.60
  -7  -2  -2    5.50    2.10
  -7  -2  -2    3.90    2.10
  -7  -2  -2    1.30    1.90
   7   2   2    2.40    2.30
   7   2   2    7.00    2.20
  -8  -2  -2    0.00    2.50
  -8  -2  -2    3.10    2.30
  -8  -2  -2   -1.10    2.00
   8   2   2    6.00    3.10
  -9  -2  -2    1.80    2.70
  -9  -2  -2    2.70    2.50
   9   2   2    5.40    3.30
 -10  -2  -2    3.10    3.20
  10   2   2    7.20    4.30
  10  -3  -2    7.50    4.10
  10  -3  -2   14.30    2.10
 -10   3   2   17.20    4.40
 -10   3   2   14.10    3.10
 -10   3   2    9.10    3.60
 -10   3   2   17.90    3.20
   9  -3  -2   19.30    2.40
   9  -3  -2   13.20    3.80
  -9   3   2   20.70    3.10
  -9   3   2   14.60    3.80
  -9   3   2   19.60    3.80
  -9   3   2   18.10    3.00
   8  -3  -2   42.10    3.50
   8  -3  -2   38.10    4.90
   8  -3  -2   38.20    3.80
  -8   3   2   33.70    4.20
  -8   3   2   45.60    3.80
  -8   3   2   44.90    4.90
  -8   3   2   28.70    3.30
   7  -3  -2   21.90    2.40
   7  -3  -2   18.00    2.80
   7  -3  -2   22.10    3.00
   7  -3  -2   18.70    3.40
  -7   3   2   22.00    3.30
  -7   3   2   20.50    3.60
  -7   3   2   18.90    2.40
  -7   3   2   22.10    2.90
  -7   3   2   17.00    2.30
   6  -3  -2   23.60    2.40
   6  -3  -2   19.30    2.70
   6  -3  -2   18.00    3.00
   6  -3  -2   15.80    2.40
  -6   3   2   19.00    2.70
  -6   3   2   17.60    2.80
  -6   3   2   17.60    2.20
  -6   3   2   14.40    2.20
  -6   3   2   13.70    2.60
  -6   3   2   17.40    2.40
   5  -3  -2  268.17   10.80
   5  -3  -2  298.27   11.00
   5  -3  -2  285.77   10.20
   5  -3  -2  274.17   10.40
   5  -3  -2  289.27   10.10
   5  -3  -2  269.67   11.10
   5  -3  -2  284.87   11.10
   5  -3  -2  286.07   10.70
  -5   3   2  292.37   10.60
  -5   3   2  279.97   10.10
  -5   3   2  274.87   11.10
  -5   3   2  274.67   10.70
  -5   3   2  284.27   11.10
  -5   3   2  278.87   10.30
  -5   3   2  283.17   11.00
  -5   3   2  265.87   10.00
   4  -3  -2  237.08    9.20
   4  -3  -2  218.98    8.90
   4  -3  -2  231.18    8.80
   4  -3  -2  244.98    8.70
   4  -3  -2  234.48    9.00
   4  -3  -2  240.38    8.40
   4  -3  -2  236.18    8.40
  -4   3   2  228.68    9.00
  -4   3   2  219.18    8.40
  -4   3   2  230.38    8.90
  -4   3   2  235.78    9.20
  -4   3   2  216.58    9.10
  -4   3   2  231.08    9.00
  -4   3   2  228.88    8.70
  -4   3   2  228.08    8.20
  -4   3   2  230.98    8.30
   3  -3  -2  358.06   12.60
   3  -3  -2  345.97   12.00
   3  -3  -2  364.76   12.30
   3  -3  -2  336.27   12.20
   3  -3  -2  357.66   12.10
   3  -3  -2  358.96   12.60
   3  -3  -2  345.97   12.60
   3  -3  -2  349.17   12.60
  -3   3   2  367.66   12.50
  -3   3   2  341.47   12.70
  -3   3   2  355.86   12.30
  -3   3   2  378.06   12.70
  -3   3   2  345.37   11.90
  -3   3   2  357.46   12.70
  -3   3   2  336.37   11.80
  -3   3   2  358.76   12.10
  -3   3   2  361.06   12.60
   2  -3  -2 1079.59   33.90
   2  -3  -2 1020.50   33.70
   2  -3  -2 1044.20   33.50
   2  -3  -2 1057.79   34.00
   2  -3  -2 1050.79   34.00
   2  -3  -2 1052.59   34.00
   2  -3  -2 1044.20   33.70
   2  -3  -2 1059.99   34.10
  -2   3   2 1010.10   33.50
  -2   3   2 1040.10   33.90
  -2   3   2 1086.39   33.90
  -2   3   2  983.20   33.70
  -2   3   2 1012.10   34.10
  -2   3   2 1050.09   34.00
  -2   3   2 1061.29   34.10
  -2   3   2 1050.09   33.90
  -2   3   2 1029.30   33.30
   1  -3  -2   36.80    2.10
   1  -3  -2   38.10    2.00
   1  -3  -2   37.40    2.10
   1  -3  -2   37.00    1.70
   1  -3  -2   37.10    2.30
   1  -3  -2   36.80    1.90
   1  -3  -2   41.20    2.00
   1  -3  -2   40.50    2.20
   1  -3  -2   40.90    2.10
   1  -3  -2   38.10    2.20
  -1   3   2   34.50    1.70
  -1   3   2   40.70    2.20
  -1   3   2   36.80    2.10
  -1   3   2   35.80    2.10
  -1   3   2   36.30    2.20
  -1   3   2   35.70    2.10
  -1   3   2   41.60    2.40
   0  -3  -2  506.15   16.60
   0  -3  -2  491.55   16.60
   0  -3  -2  500.55   16.10
   0  -3  -2  512.25   16.40
   0  -3  -2  499.65   16.40
   0  -3  -2  512.55   16.70
   0  -3  -2  511.75   16.80
   0  -3  -2  504.95   16.30
   0  -3  -2  497.05   16.60
   0  -3  -2  504.55   16.30
   0   3   2  496.45   16.40
   0   3   2  493.75   16.70
   0   3   2  478.25   16.70
   0   3   2  504.55   17.00
   0   3   2  491.15   16.80
   0   3   2  518.85   16.50
   0   3   2  490.35   16.10
  -1  -3  -2  897.71   29.60
  -1  -3  -2  905.91   29.30
  -1  -3  -2  961.10   30.10
  -1  -3  -2  914.31   29.90
  -1  -3  -2  919.71   29.50
  -1  -3  -2  919.21   29.80
   1   3   2  913.41   29.50
   1   3   2  928.91   29.20
   1   3   2  954.10   29.70
   1   3   2  918.21   29.60
   1   3   2  898.91   30.10
   1   3   2  932.61   30.10
   1   3   2  904.21   29.80
   1   3   2  919.71   29.90
  -2  -3  -2  117.59    4.60
  -2  -3  -2  108.59    4.70
  -2  -3  -2  119.29    4.70
  -2  -3  -2  120.29    4.40
  -2  -3  -2  115.89    4.30
  -2  -3  -2  114.59    4.80
  -2  -3  -2  120.79    4.10
   2   3   2  115.89    4.50
   2   3   2  109.49    4.60
   2   3   2  121.69    5.10
   2   3   2  121.19    4.40
   2   3   2  112.59    4.70
   2   3   2  115.79    4.00
   2   3   2  113.19    4.90
  -3  -3  -2  264.47    9.40
  -3  -3  -2  286.37   10.00
  -3  -3  -2  273.57   10.00
  -3  -3  -2  282.47    9.90
  -3  -3  -2  266.67    9.80
  -3  -3  -2  270.67    9.20
   3   3   2  268.37    9.10
   3   3   2  275.97   10.20
   3   3   2  265.17   10.20
   3   3   2  279.97    9.70
   3   3   2  286.87   10.30
   3   3   2  269.17    9.30
   3   3   2  277.47   10.50
   3   3   2  276.07   10.00
   3   3   2  279.47    9.90
  -4  -3  -2    8.40    1.20
  -4  -3  -2    6.40    1.40
  -4  -3  -2   10.70    1.80
  -4  -3  -2   12.10    1.90
  -4  -3  -2    9.40    1.70
  -4  -3  -2    8.60    1.60
  -4  -3  -2    9.50    1.20
   4   3   2    6.60    1.60
   4   3   2    9.20    1.60
   4   3   2    7.30    1.60
   4   3   2   11.10    1.00
   4   3   2    9.90    2.00
   4   3   2    8.90    1.40
   4   3   2    7.20    1.60
  -5  -3  -2   -0.10    1.30
  -5  -3  -2    0.60    1.30
  -5  -3  -2    0.30    1.20
  -5  -3  -2    0.60    0.90
  -5  -3  -2    1.10    1.40
  -5  -3  -2   -0.10    0.90
  -5  -3  -2    1.30    1.60
   5   3   2   -0.20    1.30
   5   3   2    1.30    1.40
   5   3   2    1.90    1.80
  -6  -3  -2   30.90    3.10
  -6  -3  -2   20.80    2.90
  -6  -3  -2   22.20    2.70
  -6  -3  -2   21.20    2.80
   6   3   2   21.40    2.90
   6   3   2   18.90    3.20
   6   3   2   27.80    3.40
  -7  -3  -2   17.40    2.70
  -7  -3  -2   15.50    2.60
  -7  -3  -2   10.50    2.50
  -7  -3  -2   15.50    3.20
   7   3   2   20.60    3.70
  -8  -3  -2   -0.10    2.20
  -8  -3  -2    1.60    2.50
   8   3   2    2.00    2.90
  -9  -3  -2    7.90    3.30
   9   3   2    6.30    3.60
  10  -4  -2    3.20    1.70
  10  -4  -2    4.00    4.10
 -10   4   2    0.90    2.20
 -10   4   2    5.00    4.10
 -10   4   2    7.50    3.60
   9  -4  -2    1.40    3.20
   9  -4  -2    0.20    1.60
  -9   4   2   -0.20    2.70
  -9   4   2    0.30    1.90
  -9   4   2    4.00    3.10
  -9   4   2   -0.20    2.00
   8  -4  -2   79.39    4.40
   8  -4  -2   88.29    5.30
   8  -4  -2   86.49    6.50
  -8   4   2   78.69    4.90
  -8   4   2   90.69    7.30
  -8   4   2   73.19    4.90
  -8   4   2   77.09    6.40
   7  -4  -2    9.50    2.40
   7  -4  -2   10.20    1.90
   7  -4  -2   15.10    3.40
  -7   4   2   11.50    3.00
  -7   4   2   14.80    2.40
  -7   4   2   15.20    2.60
  -7   4   2   14.20    3.10
   6  -4  -2  144.79    6.70
   6  -4  -2  155.48    6.40
   6  -4  -2  139.99    7.50
   6  -4  -2  153.38    7.20
  -6   4   2  156.08    6.50
  -6   4   2  145.09    7.30
  -6   4   2  160.88    7.70
  -6   4   2  146.99    6.60
  -6   4   2  149.19    6.90
   5  -4  -2   91.19    5.30
   5  -4  -2   90.89    5.00
   5  -4  -2   84.99    4.10
   5  -4  -2   86.39    4.20
   5  -4  -2   79.49    4.80
   5  -4  -2   94.09    4.80
   5  -4  -2   92.59    4.60
  -5   4   2   84.09    5.10
  -5   4   2   83.79    4.20
  -5   4   2   80.69    3.90
  -5   4   2   89.99    4.30
  -5   4   2   85.89    4.60
  -5   4   2   76.59    4.90
  -5   4   2   86.99    5.00
  -5   4   2   88.59    4.80
   4  -4  -2    6.80    1.60
   4  -4  -2    7.10    1.60
   4  -4  -2    9.10    1.80
   4  -4  -2    8.30    1.70
   4  -4  -2   10.80    1.50
   4  -4  -2   11.10    1.60
   4  -4  -2    8.40    2.00
   4  -4  -2    7.60    1.50
  -4   4   2    6.90    1.50
  -4   4   2    9.10    1.20
  -4   4   2    7.50    1.80
  -4   4   2    9.40    1.50
  -4   4   2    9.70    2.00
  -4   4   2    7.60    1.20
  -4   4   2    8.50    1.70
  -4   4   2   10.60    1.70
   3  -4  -2    2.50    1.00
   3  -4  -2    1.20    1.00
   3  -4  -2    3.10    1.10
   3  -4  -2    3.90    1.00
   3  -4  -2    1.60    1.00
   3  -4  -2    3.80    0.90
   3  -4  -2    3.10    1.20
   3  -4  -2    3.70    1.40
  -3   4   2    3.30    0.80
  -3   4   2    2.20    1.10
  -3   4   2    4.10    1.50
  -3   4   2    2.60    1.20
  -3   4   2    2.40    1.10
  -3   4   2    2.70    1.30
  -3   4   2    3.80    1.10
   2  -4  -2  603.24   21.40
   2  -4  -2  635.64   21.00
   2  -4  -2  611.14   20.60
   2  -4  -2  657.33   21.10
   2  -4  -2  588.44   20.50
   2  -4  -2  630.74   21.20
   2  -4  -2  610.54   20.80
   2  -4  -2  612.24   20.30
   2  -4  -2  631.44   20.80
  -2   4   2  606.54   20.90
  -2   4   2  590.24   20.30
  -2   4   2  599.34   20.70
  -2   4   2  624.34   21.10
  -2   4   2  653.23   20.80
  -2   4   2  624.34   20.90
  -2   4   2  616.34   20.00
  -2   4   2  628.74   21.10
   1  -4  -2  650.73   21.50
   1  -4  -2  646.34   21.50
   1  -4  -2  655.53   21.00
   1  -4  -2  629.44   21.40
   1  -4  -2  610.14   21.20
   1  -4  -2  623.24   21.70
   1  -4  -2  657.23   21.30
   1  -4  -2  645.34   21.60
   1  -4  -2  667.03   21.70
  -1   4   2  648.94   21.70
  -1   4   2  655.83   21.80
  -1   4   2  659.33   21.00
  -1   4   2  599.94   21.60
  -1   4   2  644.14   21.70
  -1   4   2  690.63   21.50
  -1   4   2  652.63   21.60
  -1   4   2  646.74   22.00
  -1   4   2  642.04   21.50
   0  -4  -2 1600.54   51.29
   0  -4  -2 1572.24   51.19
   0  -4  -2 1613.74   50.99
   0  -4  -2 1568.54   50.69
   0  -4  -2 1582.24   51.39
   0   4   2 1675.33   51.59
   0   4   2 1499.35   51.39
   0   4   2 1521.45   51.39
   0   4   2 1550.24   51.29
   0   4   2 1576.84   50.59
   0   4   2 1635.24   51.79
   0   4   2 1656.53   51.09
   0   4   2 1647.34   51.49
  -1  -4  -2 1095.09   35.30
  -1  -4  -2 1088.69   34.40
  -1  -4  -2 1096.89   35.20
  -1  -4  -2 1057.59   34.70
  -1  -4  -2 1106.39   35.00
  -1  -4  -2 1070.29   34.60
   1   4   2 1059.99   34.30
   1   4   2 1018.70   35.30
   1   4   2 1049.09   34.80
   1   4   2 1042.70   35.30
   1   4   2 1096.99   35.10
   1   4   2 1096.79   34.70
   1   4   2 1096.29   35.10
  -2  -4  -2  311.87   11.10
  -2  -4  -2  312.97   11.40
  -2  -4  -2  300.37   10.70
  -2  -4  -2  313.87   10.60
  -2  -4  -2  317.87   10.40
  -2  -4  -2  315.47   11.20
  -2  -4  -2  325.07   11.00
   2   4   2  302.67   11.10
   2   4   2  303.77   10.30
   2   4   2  303.97   10.60
   2   4   2  312.77   11.10
   2   4   2  309.67   11.40
   2   4   2  316.67   10.90
  -3  -4  -2  526.25   17.80
  -3  -4  -2  502.45   17.80
  -3  -4  -2  537.75   17.70
  -3  -4  -2  502.65   16.90
  -3  -4  -2  532.55   17.80
  -3  -4  -2  516.95   17.20
   3   4   2  506.65   17.40
   3   4   2  497.45   17.80
   3   4   2  501.65   18.10
   3   4   2  511.35   16.70
   3   4   2  505.65   17.70
   3   4   2  533.45   17.00
   3   4   2  524.75   18.20
  -4  -4  -2   -0.10    1.30
  -4  -4  -2    1.20    0.70
  -4  -4  -2    1.00    1.50
  -4  -4  -2    1.50    1.30
  -4  -4  -2    1.40    1.20
  -4  -4  -2    1.60    0.90
  -4  -4  -2    2.80    1.40
   4   4   2    0.60    1.30
   4   4   2    0.70    1.60
   4   4   2    0.00    1.20
   4   4   2    1.10    0.70
   4   4   2    0.70    1.30
  -5  -4  -2   71.69    4.50
  -5  -4  -2   80.89    4.60
  -5  -4  -2   77.59    4.80
  -5  -4  -2   80.39    4.90
   5   4   2   75.69    4.90
   5   4   2   83.19    5.20
   5   4   2   76.49    4.90
   5   4   2   85.29    5.50
  -6  -4  -2    3.40    1.90
  -6  -4  -2    4.10    2.00
  -6  -4  -2    7.50    2.40
   6   4   2    9.60    2.90
   6   4   2    4.40    2.10
  -7  -4  -2    1.10    2.10
  -7  -4  -2    1.70    2.20
  -7  -4  -2   -0.90    2.10
   7   4   2   -0.40    2.50
  -8  -4  -2    0.80    2.70
  -8  -4  -2    2.30    2.40
   8   4   2   -1.10    2.90
  -9  -4  -2   -1.70    3.00
   9   4   2    1.50    3.30
  10  -5  -2    0.20    1.70
  10  -5  -2    2.80    3.70
 -10   5   2   -0.70    2.20
 -10   5   2    3.70    3.50
 -10   5   2   -3.80    2.90
   9  -5  -2    4.00    3.30
   9  -5  -2   -2.60    1.50
  -9   5   2    4.00    2.10
  -9   5   2    1.00    2.20
  -9   5   2    1.40    3.10
  -9   5   2   -1.90    3.20
   8  -5  -2    8.90    2.60
   8  -5  -2    7.90    2.00
   8  -5  -2    7.00    3.20
  -8   5   2    6.80    2.90
  -8   5   2    6.40    2.20
  -8   5   2    7.40    3.20
  -8   5   2    6.30    2.40
   7  -5  -2   39.10    3.30
   7  -5  -2   32.80    3.40
   7  -5  -2   34.80    4.40
  -7   5   2   38.00    3.50
  -7   5   2   32.10    4.20
  -7   5   2   44.80    4.70
  -7   5   2   33.10    3.30
   6  -5  -2   55.99    4.30
   6  -5  -2   50.69    4.10
   6  -5  -2   61.19    5.20
   6  -5  -2   57.49    3.40
  -6   5   2   43.90    3.40
  -6   5   2   55.79    3.70
  -6   5   2   50.29    4.80
  -6   5   2   59.49    6.60
  -6   5   2   57.29    5.00
   5  -5  -2  286.57   10.80
   5  -5  -2  290.07   11.00
   5  -5  -2  289.87   11.80
   5  -5  -2  296.97   11.50
   5  -5  -2  289.47   10.60
  -5   5   2  309.57   10.90
  -5   5   2  284.17   11.30
  -5   5   2  284.57   11.70
  -5   5   2  285.87   10.40
  -5   5   2  282.27   10.60
  -5   5   2  280.67   11.70
  -5   5   2  299.37   12.00
   4  -5  -2   13.90    2.10
   4  -5  -2   15.70    1.90
   4  -5  -2   14.30    2.50
   4  -5  -2   15.40    2.30
   4  -5  -2   14.20    1.70
   4  -5  -2   15.20    2.20
   4  -5  -2   20.70    2.40
  -4   5   2   15.00    2.30
  -4   5   2   14.90    2.40
  -4   5   2   15.10    1.70
  -4   5   2   16.50    2.00
  -4   5   2   17.20    2.20
  -4   5   2   13.10    2.40
  -4   5   2   18.20    2.50
   3  -5  -2  412.06   14.80
   3  -5  -2  435.06   14.50
   3  -5  -2  435.76   15.10
   3  -5  -2  413.16   15.30
   3  -5  -2  415.86   15.30
   3  -5  -2  417.56   15.20
   3  -5  -2  405.76   14.70
   3  -5  -2  422.76   15.50
  -3   5   2  413.86   14.20
  -3   5   2  447.56   15.30
  -3   5   2  445.26   15.50
  -3   5   2  440.06   15.40
  -3   5   2  406.36   14.50
  -3   5   2  416.46   15.40
   2  -5  -2   31.50    2.70
   2  -5  -2   28.90    2.40
   2  -5  -2   35.60    3.00
   2  -5  -2   35.60    3.20
   2  -5  -2   30.80    2.50
   2  -5  -2   24.90    2.60
   2  -5  -2   31.30    2.50
   2  -5  -2   31.10    1.90
  -2   5   2   27.10    2.60
  -2   5   2   29.30    1.60
  -2   5   2   30.70    2.10
  -2   5   2   42.60    3.30
  -2   5   2   33.20    2.60
  -2   5   2   30.10    2.80
  -2   5   2   27.40    1.60
   1  -5  -2   43.70    2.80
   1  -5  -2   40.00    2.50
   1  -5  -2   39.20    2.80
   1  -5  -2   37.30    2.10
   1  -5  -2   38.40    2.70
   1  -5  -2   38.30    3.10
   1  -5  -2   41.70    2.60
  -1   5   2   35.50    2.60
  -1   5   2   39.80    2.60
  -1   5   2   42.20    3.20
  -1   5   2   39.70    2.20
  -1   5   2   41.90    3.30
  -1   5   2   39.30    2.90
  -1   5   2   38.80    2.80
   0  -5  -2   89.09    4.50
   0  -5  -2   88.09    3.90
   0  -5  -2   92.99    4.40
   0  -5  -2   87.59    4.00
   0  -5  -2   90.39    3.60
   0  -5  -2   86.49    4.30
   0   5   2   90.89    4.80
   0   5   2   90.49    4.50
   0   5   2   91.69    4.10
   0   5   2   98.09    4.60
   0   5   2   83.69    3.50
   0   5   2   92.09    4.40
   0   5   2   81.09    4.40
  -1  -5  -2  239.28    9.20
  -1  -5  -2  235.28    8.30
  -1  -5  -2  240.48    8.70
  -1  -5  -2  229.78    8.50
  -1  -5  -2  234.38    9.00
  -1  -5  -2  241.28    9.30
   1   5   2  234.38    8.70
   1   5   2  242.58    8.20
   1   5   2  250.47    9.50
   1   5   2  237.48    9.10
   1   5   2  236.58    8.70
  -2  -5  -2   28.70    2.50
  -2  -5  -2   28.40    2.80
  -2  -5  -2   24.20    1.60
  -2  -5  -2   30.00    2.50
  -2  -5  -2   21.10    1.90
  -2  -5  -2   25.00    2.70
  -2  -5  -2   28.40    1.90
   2   5   2   22.30    2.10
   2   5   2   26.80    1.90
   2   5   2   28.00    2.60
   2   5   2   26.10    2.90
   2   5   2   24.60    1.60
   2   5   2   26.00    2.10
   2   5   2   22.00    2.40
  -3  -5  -2  252.07    9.20
  -3  -5  -2  256.37    9.70
  -3  -5  -2  257.77    9.80
  -3  -5  -2  254.67    9.10
  -3  -5  -2  250.77    9.70
  -3  -5  -2  239.98    8.80
  -3  -5  -2  263.57   10.10
   3   5   2  248.38   10.30
   3   5   2  209.18   10.90
   3   5   2  271.07   10.30
   3   5   2  265.37    8.90
   3   5   2  234.78   10.80
   3   5   2  239.28    9.30
   3   5   2  243.98    8.50
  -4  -5  -2   21.50    2.60
  -4  -5  -2   23.00    2.90
  -4  -5  -2   20.20    2.50
   4   5   2   28.20    3.20
   4   5   2   24.90    1.70
   4   5   2   30.40    3.40
   4   5   2   24.00    3.00
  -5  -5  -2   29.50    3.70
  -5  -5  -2   24.20    3.10
  -5  -5  -2   24.40    3.20
  -5  -5  -2   28.40    3.10
   5   5   2   26.30    3.40
   5   5   2   29.40    3.70
  -6  -5  -2   54.29    4.50
  -6  -5  -2   52.59    4.80
  -6  -5  -2   52.59    4.70
   6   5   2   46.30    4.80
  -7  -5  -2   -2.10    2.20
  -7  -5  -2    1.00    2.10
   7   5   2    2.40    2.60
  -8  -5  -2    1.80    2.60
  -8  -5  -2    7.90    3.10
  -8  -5  -2    4.30    3.10
   8   5   2    1.30    3.00
   9  -6  -2    2.90    1.90
   9  -6  -2    0.50    3.00
  -9   6   2   -1.20    3.20
  -9   6   2   -0.20    1.90
  -9   6   2    5.50    3.50
   8  -6  -2   36.80    5.60
   8  -6  -2   33.20    3.20
   8  -6  -2   38.30    4.00
  -8   6   2   30.20    4.70
  -8   6   2   34.60    4.80
  -8   6   2   35.20    4.00
  -8   6   2   35.00    3.80
   7  -6  -2   17.70    2.80
   7  -6  -2   19.20    4.00
   7  -6  -2   17.60    2.30
  -7   6   2   25.80    4.40
  -7   6   2   25.40    3.10
  -7   6   2   23.00    3.90
  -7   6   2   15.90    2.40
   6  -6  -2  110.79    6.10
   6  -6  -2  123.69    7.20
   6  -6  -2  118.69    5.50
   6  -6  -2  118.49    6.50
  -6   6   2  113.19    7.20
  -6   6   2  118.69    5.60
  -6   6   2  125.19    6.00
  -6   6   2  117.19    6.90
   5  -6  -2  305.87   12.60
   5  -6  -2  318.77   12.80
   5  -6  -2  288.77   11.60
   5  -6  -2  299.87   11.10
   5  -6  -2  317.17   12.30
  -5   6   2  311.77   11.50
  -5   6   2  297.57   12.60
  -5   6   2  292.77   12.40
   4  -6  -2   97.39    5.10
   4  -6  -2   76.49    4.50
   4  -6  -2   83.09    4.70
   4  -6  -2   81.49    4.20
   4  -6  -2   98.99    5.50
   4  -6  -2   95.59    5.30
   4  -6  -2   83.09    5.20
  -4   6   2   85.99    5.30
  -4   6   2   94.19    5.40
  -4   6   2   89.99    4.00
  -4   6   2   91.49    4.60
  -4   6   2   91.89    5.10
  -4   6   2   94.19    5.50
   3  -6  -2  485.05   17.40
   3  -6  -2  508.05   18.10
   3  -6  -2  511.15   18.00
   3  -6  -2  496.25   17.10
   3  -6  -2  508.05   17.90
   3  -6  -2  484.05   18.10
   3  -6  -2  500.55   17.50
  -3   6   2  490.45   16.70
  -3   6   2  520.15   18.40
  -3   6   2  495.75   18.30
  -3   6   2  505.25   18.00
  -3   6   2  503.45   18.20
  -3   6   2  474.65   17.10
  -3   6   2  541.45   18.50
   2  -6  -2    2.00    0.90
   2  -6  -2    3.20    1.40
   2  -6  -2    2.40    1.40
   2  -6  -2    2.10    1.20
   2  -6  -2   -0.30    1.50
   2  -6  -2    3.00    1.50
  -2   6   2    1.90    1.60
  -2   6   2    4.60    1.70
  -2   6   2    2.10    1.20
  -2   6   2    1.70    1.40
  -2   6   2    1.40    1.10
  -2   6   2    2.80    0.80
  -2   6   2    2.70    0.80
   1  -6  -2   49.99    3.30
   1  -6  -2   59.29    3.90
   1  -6  -2   57.99    3.40
   1  -6  -2   61.79    3.80
   1  -6  -2   54.09    2.80
   1  -6  -2   58.29    3.40
   1  -6  -2   54.19    3.60
  -1   6   2   62.19    3.00
  -1   6   2   56.79    4.00
  -1   6   2   58.19    4.10
  -1   6   2   54.69    3.50
  -1   6   2   53.99    3.80
   0  -6  -2   71.69    4.30
   0  -6  -2   62.89    3.60
   0  -6  -2   66.59    3.90
   0  -6  -2   60.69    3.40
   0  -6  -2   63.69    3.00
   0  -6  -2   56.89    3.70
   0   6   2   65.49    4.40
   0   6   2   64.79    3.70
   0   6   2   68.39    4.30
   0   6   2   68.09    3.10
   0   6   2   67.89    4.30
  -1  -6  -2   68.19    3.60
  -1  -6  -2   71.89    4.20
  -1  -6  -2   71.59    4.10
  -1  -6  -2   66.29    4.30
  -1  -6  -2   62.79    3.70
  -1  -6  -2   71.49    3.20
   1   6   2   65.39    3.70
   1   6   2   69.49    4.60
   1   6   2   71.79    4.50
   1   6   2   69.59    3.70
   1   6   2   72.09    3.20
   1   6   2   69.19    4.50
  -2  -6  -2    5.20    1.90
  -2  -6  -2    5.10    1.50
  -2  -6  -2    2.90    0.90
  -2  -6  -2    2.20    1.20
  -2  -6  -2    3.70    1.10
  -2  -6  -2    5.10    1.90
  -2  -6  -2    1.70    1.40
   2   6   2    1.00    1.70
   2   6   2    1.00    1.00
   2   6   2    2.70    0.90
   2   6   2    6.50    2.00
   2   6   2    2.80    1.20
   2   6   2    1.50    1.40
  -3  -6  -2  157.38    7.20
  -3  -6  -2  149.59    7.00
  -3  -6  -2  140.99    6.80
  -3  -6  -2  154.08    6.30
   3   6   2  149.59    7.50
   3   6   2  150.58    7.40
   3   6   2  149.09    5.90
   3   6   2  154.98    7.60
   3   6   2  147.09    6.40
  -4  -6  -2   21.50    2.60
  -4  -6  -2   16.90    2.80
  -4  -6  -2   16.90    2.60
  -4  -6  -2   18.10    2.90
   4   6   2   23.00    3.40
   4   6   2   17.10    3.00
  -5  -6  -2   36.40    3.20
  -5  -6  -2   28.40    3.70
  -5  -6  -2   34.20    4.10
  -5  -6  -2   21.40    3.10
   5   6   2   36.20    4.20
   5   6   2   29.50    4.00
  -6  -6  -2    9.70    2.70
  -6  -6  -2   22.90    3.60
  -6  -6  -2   18.30    3.40
   6   6   2   16.60    3.60
  -7  -6  -2    2.40    2.60
  -7  -6  -2   -0.10    2.30
   7   6   2    3.90    3.10
  -8  -6  -2   12.40    3.40
   8   6   2   10.40    3.90
   9  -7  -2   10.50    2.40
   9  -7  -2    6.20    4.00
  -9   7   2    7.50    3.60
  -9   7   2   10.10    4.20
  -9   7   2    9.70    2.60
   8  -7  -2    7.80    2.20
   8  -7  -2    2.60    2.50
   8  -7  -2    2.10    3.70
  -8   7   2    4.70    3.60
  -8   7   2    6.40    3.30
  -8   7   2    7.50    2.20
   7  -7  -2   -1.80    1.40
   7  -7  -2    1.40    2.80
   7  -7  -2    2.50    2.20
  -7   7   2    0.80    2.70
  -7   7   2   -0.40    2.70
   6  -7  -2   36.50    4.60
   6  -7  -2   35.40    3.80
   6  -7  -2   42.70    3.50
  -6   7   2   41.50    3.80
  -6   7   2   37.70    4.50
  -6   7   2   39.20    4.80
   5  -7  -2   16.30    2.90
   5  -7  -2   17.70    2.80
   5  -7  -2   20.30    3.60
   5  -7  -2   19.90    2.30
  -5   7   2   22.50    3.50
  -5   7   2   19.10    2.50
  -5   7   2   19.00    3.60
   4  -7  -2    2.30    1.20
   4  -7  -2    2.20    1.60
   4  -7  -2    2.40    2.20
   4  -7  -2   -0.10    1.50
   4  -7  -2    0.90    1.70
  -4   7   2    0.30    2.10
  -4   7   2    1.60    1.00
  -4   7   2    1.20    1.40
  -4   7   2    1.10    2.10
   3  -7  -2   31.70    3.20
   3  -7  -2   39.20    4.10
   3  -7  -2   31.50    2.50
   3  -7  -2   33.10    3.40
   3  -7  -2   37.30    3.50
  -3   7   2   34.70    3.00
  -3   7   2   36.40    2.20
  -3   7   2   39.10    4.10
  -3   7   2   34.80    2.20
  -3   7   2   34.00    3.70
  -3   7   2   43.20    4.10
   2  -7  -2  163.38    7.60
   2  -7  -2  154.18    6.30
   2  -7  -2  159.08    6.90
   2  -7  -2  159.08    7.00
   2  -7  -2  158.88    7.20
  -2   7   2  152.98    6.40
  -2   7   2  162.78    8.00
  -2   7   2  141.59    7.10
  -2   7   2  168.58    7.80
  -2   7   2  171.98    5.70
  -2   7   2  162.08    7.80
  -2   7   2  166.38    7.90
   1  -7  -2    1.10    1.60
   1  -7  -2    4.40    1.90
   1  -7  -2    3.10    1.60
   1  -7  -2    2.20    1.00
   1  -7  -2    2.30    1.40
   1  -7  -2    4.40    1.70
  -1   7   2    2.00    1.70
  -1   7   2    2.10    1.90
  -1   7   2    1.80    2.00
  -1   7   2    1.20    1.50
  -1   7   2    2.90    1.20
  -1   7   2    5.40    1.70
   0  -7  -2  238.98    9.40
   0  -7  -2  222.48    8.80
   0  -7  -2  221.38    9.40
   0  -7  -2  224.98    8.70
   0  -7  -2  231.18    8.20
   0   7   2  176.18    9.20
   0   7   2  239.18   10.10
   0   7   2  230.88    9.70
   0   7   2  214.08    8.10
   0   7   2  215.28    9.70
   0   7   2  217.58    8.90
  -1  -7  -2   18.30    2.40
  -1  -7  -2   21.20    1.90
  -1  -7  -2   29.80    2.70
  -1  -7  -2   21.50    2.90
  -1  -7  -2   42.70    4.00
   1   7   2   32.20    3.70
   1   7   2   19.20    2.80
   1   7   2   23.20    2.50
   1   7   2   24.60    3.30
  -2  -7  -2   38.30    3.90
  -2  -7  -2   30.30    2.70
  -2  -7  -2   43.70    3.90
  -2  -7  -2   34.30    3.20
   2   7   2   26.80    3.40
   2   7   2   41.70    4.30
   2   7   2   32.70    2.90
   2   7   2   33.80    4.00
  -3  -7  -2    5.50    2.40
  -3  -7  -2    2.40    1.70
  -3  -7  -2    6.90    2.30
  -3  -7  -2    5.00    2.40
   3   7   2    7.60    2.50
   3   7   2    4.20    2.30
   3   7   2    7.50    1.60
   3   7   2    5.60    2.20
  -4  -7  -2   11.50    2.90
  -4  -7  -2   10.70    2.10
  -4  -7  -2   12.70    2.70
   4   7   2   11.10    3.00
  -5  -7  -2    9.80    3.00
  -5  -7  -2    7.40    2.60
  -5  -7  -2    2.50    2.40
   5   7   2    5.00    3.00
  -6  -7  -2   22.60    3.80
  -6  -7  -2   25.50    4.00
   6   7   2   24.70    4.40
  -7  -7  -2   -0.70    2.80
   7   7   2   -2.40    3.00
   8  -8  -2   11.80    2.40
   8  -8  -2    6.80    4.30
  -8   8   2   15.90    4.30
  -8   8   2   17.40    4.60
   7  -8  -2   -2.30    2.30
   7  -8  -2   -0.60    1.70
   7  -8  -2   -2.20    3.30
  -7   8   2    1.60    2.90
  -7   8   2   -0.30    3.40
   6  -8  -2   22.40    2.70
   6  -8  -2   21.10    3.50
   6  -8  -2   23.50    4.50
  -6   8   2   23.50    4.50
  -6   8   2   18.50    3.80
   5  -8  -2   38.70    3.90
   5  -8  -2   38.50    4.80
   5  -8  -2   42.50    3.40
  -5   8   2   43.40    4.90
  -5   8   2   42.80    5.10
   4  -8  -2    1.10    2.00
   4  -8  -2    4.40    2.00
   4  -8  -2    3.50    1.50
   4  -8  -2    1.10    2.60
  -4   8   2    5.50    2.60
  -4   8   2    5.50    1.40
  -4   8   2    2.60    2.50
  -4   8   2    3.10    1.20
   3  -8  -2  120.39    6.10
   3  -8  -2  111.69    5.10
   3  -8  -2  104.49    6.10
   3  -8  -2  108.59    6.50
  -3   8   2  118.89    4.50
  -3   8   2  104.49    4.30
  -3   8   2  107.79    6.70
  -3   8   2   93.99    6.30
   2  -8  -2   17.60    2.10
   2  -8  -2   15.90    2.60
   2  -8  -2   23.60    3.60
   2  -8  -2   22.20    3.00
   2  -8  -2   18.60    2.70
  -2   8   2   22.90    3.60
  -2   8   2   24.70    3.70
   1  -8  -2   15.70    2.50
   1  -8  -2   17.80    3.00
   1  -8  -2   19.60    3.30
   1  -8  -2   17.10    2.00
   1  -8  -2   16.90    2.70
  -1   8   2   12.30    2.90
  -1   8   2   15.00    3.00
   0  -8  -2   91.69    5.20
   0  -8  -2   96.09    5.70
   0  -8  -2   89.19    5.60
   0  -8  -2   91.69    5.00
   0   8   2   91.29    6.10
   0   8   2   93.49    6.00
   0   8   2   94.59    6.00
  -1  -8  -2   12.40    3.00
  -1  -8  -2   13.80    2.10
  -1  -8  -2   16.50    2.90
  -1  -8  -2   10.70    2.30
   1   8   2   13.20    3.10
   1   8   2   10.30    2.90
   1   8   2   17.40    3.30
  -2  -8  -2   49.10    4.80
  -2  -8  -2   49.00    3.80
   2   8   2   45.50    4.70
  -3  -8  -2   38.00    4.00
  -3  -8  -2   45.80    4.70
  -3  -8  -2   40.60    4.00
   3   8   2   48.70    4.90
  -4  -8  -2    9.90    2.80
  -4  -8  -2    7.40    2.80
   4   8   2   10.10    3.30
  -5  -8  -2   12.50    3.20
  -5  -8  -2   10.10    3.00
   5   8   2   10.10    3.40
  -6  -8  -2   -1.60    2.60
   6   8   2    4.10    3.40
   7  -9  -2    2.70    2.00
   7  -9  -2   -1.20    3.30
   7  -9  -2    1.90    2.70
  -7   9   2    4.10    3.30
  -7   9   2    6.60    4.10
   6  -9  -2   36.20    5.40
   6  -9  -2   35.20    3.40
   6  -9  -2   31.80    4.20
  -6   9   2   38.60    3.10
  -6   9   2   36.60    5.50
  -6   9   2   38.90    5.30
   5  -9  -2   36.00    4.30
   5  -9  -2   32.40    3.10
   5  -9  -2   30.30    5.00
  -5   9   2   28.40    2.60
  -5   9   2   29.20    4.90
  -5   9   2   26.60    4.30
   4  -9  -2   10.90    2.90
   4  -9  -2   10.90    3.40
   4  -9  -2   11.10    2.10
  -4   9   2   13.40    1.40
  -4   9   2   15.40    1.70
  -4   9   2   13.70    3.80
  -4   9   2   10.70    3.50
   3  -9  -2   28.10    2.80
   3  -9  -2   32.10    3.80
   3  -9  -2   19.80    3.80
  -3   9   2   20.90    3.80
  -3   9   2   29.10    4.50
   2  -9  -2   26.70    2.60
   2  -9  -2   26.00    3.40
   2  -9  -2   29.80    4.20
  -2   9   2   26.00    4.00
  -2   9   2   29.80    4.20
   1  -9  -2   -2.50    2.00
   1  -9  -2    2.50    2.10
   1  -9  -2    1.60    2.50
  -1   9   2    1.10    2.50
  -1   9   2   -1.50    2.20
   0  -9  -2   64.09    5.00
   0  -9  -2   74.69    6.10
   0   9   2   63.19    6.00
   0   9   2   59.49    5.50
  -1  -9  -2   27.40    4.10
  -1  -9  -2   21.70    3.20
   1   9   2   24.20    3.80
   1   9   2   29.00    4.50
  -2  -9  -2   16.90    3.60
  -2  -9  -2   20.60    3.10
   2   9   2   20.30    3.80
  -3  -9  -2   29.30    3.90
  -3  -9  -2   40.00    4.90
   3   9   2   30.80    4.60
  -4  -9  -2   -0.80    2.20
   4   9   2    2.10    3.00
  -5  -9  -2    2.10    2.70
   5   9   2    2.50    3.40
   6 -10  -2   21.00    3.00
   6 -10  -2   18.80    3.80
   6 -10  -2    7.70    3.80
  -6  10   2   22.10    5.10
  -6  10   2   20.50    4.70
   5 -10  -2   14.30    2.70
   5 -10  -2   16.00    4.60
   5 -10  -2   25.70    4.00
  -5  10   2    9.20    4.20
  -5  10   2   12.30    4.00
   4 -10  -2    6.40    3.00
   4 -10  -2    3.30    3.20
   4 -10  -2   12.70    2.40
  -4  10   2    8.80    3.80
  -4  10   2    7.00    3.80
   3 -10  -2   63.59    6.40
   3 -10  -2   55.89    4.30
   3 -10  -2   58.09    5.10
  -3  10   2   64.59    6.50
  -3  10   2   52.69    6.00
   2 -10  -2    0.70    2.50
   2 -10  -2    4.60    3.20
  -2  10   2    7.90    3.60
  -2  10   2    6.30    3.40
   1 -10  -2   18.70    4.10
   1 -10  -2   27.90    3.90
  -1  10   2   22.20    4.40
  -1  10   2   17.60    4.10
   0 -10  -2   36.10    4.90
   0 -10  -2   29.40    4.10
   0  10   2   30.90    5.00
   0  10   2   26.10    4.30
  -1 -10  -2    5.40    2.80
  -1 -10  -2    1.50    2.50
   1  10   2   -1.50    2.90
   1  10   2    5.40    3.10
  -2 -10  -2    9.90    3.10
  -2 -10  -2    8.50    3.80
   2  10   2    6.30    3.60
   2  10   2    9.00    3.60
  -3 -10  -2   12.20    3.20
   3  10   2   12.20    3.90
  -4 -10  -2    1.60    2.80
   4  10   2    6.30    3.50
   5 -11  -2    8.00    4.30
   5 -11  -2   10.10    3.50
   5 -11  -2   13.00    2.70
  -5  11   2    5.20    4.80
  -5  11   2   16.00    4.80
   4 -11  -2    3.20    3.10
   4 -11  -2    0.30    1.80
   4 -11  -2    3.40    3.80
  -4  11   2   -2.00    3.30
  -4  11   2   -2.40    3.30
   3 -11  -2   30.10    5.10
   3 -11  -2   18.20    4.00
  -3  11   2   12.90    4.30
  -3  11   2   25.30    4.90
   2 -11  -2    6.40    3.40
   2 -11  -2    3.30    3.60
  -2  11   2    4.70    3.60
  -2  11   2    5.00    3.80
   1 -11  -2   18.60    3.80
   1 -11  -2    6.90    3.60
  -1  11   2   12.70    4.00
  -1  11   2   11.60    4.30
   0 -11  -2    9.00    3.60
   0 -11  -2    7.20    3.20
   0  11   2    9.70    3.80
   0  11   2    7.80    4.00
  -1 -11  -2   -0.20    2.70
   1  11   2    5.00    3.50
   1  11   2   -2.20    3.40
  -2 -11  -2    1.30    2.90
   2  11   2    0.30    3.40
   2  11   2    2.60    3.50
   0  12  -3    2.40    2.70
   0  12  -3    5.40    4.10
   0  12  -3    7.40    4.00
   0 -12   3    4.10    3.70
   0 -12   3    5.00    2.20
   0 -12   3    6.60    3.70
  -1  12  -3   -3.10    3.60
  -1  12  -3    6.80    2.80
  -1  12  -3    6.10    4.20
   1 -12   3    6.40    2.30
   1 -12   3    8.90    4.20
  -2  12  -3   -3.90    2.10
  -2  12  -3    1.40    3.50
  -2  12  -3    1.20    3.40
   2 -12   3    0.00    3.60
   2 -12   3    1.70    2.00
   3  11  -3   13.20    2.80
   3  11  -3   16.50    4.60
  -3 -11   3   13.40    2.80
  -3 -11   3   13.40    4.10
  -3 -11   3   13.00    4.00
   2  11  -3   15.60    3.10
   2  11  -3   21.30    4.90
  -2 -11   3   17.60    4.30
  -2 -11   3   16.00    2.90
  -2 -11   3   13.30    4.20
   1  11  -3   -0.30    2.80
   1  11  -3    0.80    2.40
   1  11  -3    3.80    3.40
  -1 -11   3   -2.10    2.70
  -1 -11   3    0.30    1.90
  -1 -11   3    1.00    2.90
   0  11  -3   23.20    3.50
   0  11  -3   14.10    4.10
   0  11  -3   22.10    4.60
   0 -11   3   22.50    4.50
   0 -11   3   21.20    4.60
   0 -11   3   25.10    3.00
  -1  11  -3    2.00    3.50
  -1  11  -3    0.60    2.30
  -1  11  -3   -3.60    3.10
   1 -11   3    5.40    1.90
   1 -11   3   -2.50    2.70
   1 -11   3    7.00    3.70
  -2  11  -3    0.80    3.40
  -2  11  -3   -0.30    3.30
  -2  11  -3   -1.30    2.10
   2 -11   3    0.50    1.70
   2 -11   3   -3.70    3.00
  -3  11  -3   10.50    2.90
  -3  11  -3   12.80    4.20
  -3  11  -3   13.60    2.90
  -3  11  -3    0.90    3.60
   3 -11   3   10.10    3.90
   3 -11   3    7.10    2.00
  -4  11  -3   10.10    4.20
  -4  11  -3    9.10    4.10
  -4  11  -3    3.70    3.20
   4 -11   3    5.70    4.10
   4 -11   3   10.60    2.00
  -5  11  -3    2.80    3.90
   5 -11   3    0.10    3.90
   5  10  -3   -1.00    1.70
   5  10  -3    2.60    3.60
  -5 -10   3    1.90    2.20
  -5 -10   3    2.40    3.00
  -5 -10   3    3.70    3.60
   4  10  -3    1.20    2.10
   4  10  -3   -2.10    3.30
  -4 -10   3   -0.60    3.40
  -4 -10   3    5.80    2.80
  -4 -10   3    1.00    2.00
  -4 -10   3    6.70    3.30
   3  10  -3    5.10    2.40
   3  10  -3    6.40    3.20
  -3 -10   3    2.60    2.90
  -3 -10   3    5.40    2.10
  -3 -10   3    4.60    3.40
  -3 -10   3    8.10    2.70
   2  10  -3   19.90    3.30
   2  10  -3   23.10    4.60
  -2 -10   3   22.40    4.10
  -2 -10   3   22.20    2.80
  -2 -10   3   18.10    3.60
  -2 -10   3   22.00    3.50
   1  10  -3   -1.80    2.80
   1  10  -3   -0.80    2.20
   1  10  -3   -1.50    2.00
  -1 -10   3    2.10    2.30
  -1 -10   3    3.40    3.10
  -1 -10   3    0.20    1.50
  -1 -10   3    2.00    2.90
   0  10  -3   33.40    3.60
   0  10  -3   22.10    4.30
   0  10  -3   28.00    3.70
   0  10  -3   21.60    4.20
   0 -10   3   18.50    3.20
   0 -10   3   20.00    4.00
   0 -10   3   29.30    4.60
   0 -10   3   25.00    2.70
  -1  10  -3   17.50    4.10
  -1  10  -3   18.40    4.10
  -1  10  -3   26.40    3.40
  -1  10  -3   31.90    3.70
   1 -10   3   24.80    4.30
   1 -10   3   23.30    2.60
   1 -10   3   28.20    4.20
   1 -10   3   25.50    3.50
  -2  10  -3    4.40    2.20
  -2  10  -3    2.10    3.10
  -2  10  -3    7.50    2.50
  -2  10  -3   -0.50    2.80
   2 -10   3    3.20    1.60
   2 -10   3    3.30    3.10
  -3  10  -3   40.70    5.80
  -3  10  -3   39.20    4.10
  -3  10  -3   33.00    5.00
   3 -10   3   37.20    2.90
   3 -10   3   35.60    5.40
  -4  10  -3   16.20    4.00
  -4  10  -3   10.80    4.00
  -4  10  -3    5.90    2.70
   4 -10   3    9.30    1.70
   4 -10   3    5.10    3.80
  -5  10  -3    7.40    3.00
  -5  10  -3    8.70    4.40
  -5  10  -3    5.80    3.80
   5 -10   3   10.30    1.60
   5 -10   3   13.20    4.30
  -6  10  -3   11.10    3.20
  -6  10  -3   10.70    4.90
   6 -10   3    8.90    4.40
   6   9  -3    2.00    3.60
  -6  -9   3   -1.10    2.50
  -6  -9   3    2.40    3.10
  -6  -9   3    0.50    2.20
   5   9  -3    5.00    2.40
   5   9  -3    6.10    3.90
  -5  -9   3    5.90    2.10
  -5  -9   3    6.40    3.70
  -5  -9   3    0.30    2.80
  -5  -9   3    4.90    2.80
   4   9  -3   12.00    2.70
   4   9  -3    7.30    3.20
  -4  -9   3   11.70    3.50
  -4  -9   3   10.40    3.60
  -4  -9   3   11.30    2.30
  -4  -9   3   12.00    3.00
   3   9  -3   17.20    2.80
   3   9  -3   11.50    2.70
   3   9  -3   10.00    3.30
  -3  -9   3   14.50    2.90
  -3  -9   3   17.50    3.50
  -3  -9   3   14.90    3.40
  -3  -9   3   14.70    2.30
   2   9  -3  121.19    7.50
   2   9  -3  102.49    6.20
   2   9  -3  112.79    6.10
  -2  -9   3  114.19    7.10
  -2  -9   3  114.19    6.20
  -2  -9   3  108.39    6.90
  -2  -9   3  105.69    5.40
   1   9  -3    1.50    1.90
   1   9  -3   -1.00    2.00
   1   9  -3    1.00    2.40
  -1  -9   3    0.70    2.20
  -1  -9   3    0.80    2.30
  -1  -9   3    5.40    2.20
  -1  -9   3    2.70    1.40
   0   9  -3  164.78    8.90
   0   9  -3  134.99    7.00
   0   9  -3  155.98    8.50
   0   9  -3  143.29    7.00
   0  -9   3  146.69    7.10
   0  -9   3  145.59    7.70
   0  -9   3  159.98    8.40
   0  -9   3  143.19    6.20
  -1   9  -3   29.30    3.40
  -1   9  -3   27.40    4.40
  -1   9  -3   25.60    4.00
  -1   9  -3   37.60    3.40
   1  -9   3   36.20    3.60
   1  -9   3   44.30    4.90
   1  -9   3   36.30    2.90
   1  -9   3   34.30    4.10
  -2   9  -3    5.60    3.10
  -2   9  -3    5.50    2.80
  -2   9  -3    3.90    2.30
   2  -9   3    5.40    2.10
   2  -9   3    4.20    2.90
   2  -9   3    4.10    1.40
  -3   9  -3   53.19    4.40
  -3   9  -3   37.10    5.10
  -3   9  -3   43.90    5.30
   3  -9   3   47.10    3.00
   3  -9   3   48.90    5.40
  -4   9  -3   21.70    4.00
  -4   9  -3   28.10    4.70
  -4   9  -3   28.60    3.60
   4  -9   3   24.30    2.20
   4  -9   3   26.40    4.60
  -5   9  -3    0.40    1.60
  -5   9  -3    7.60    3.30
  -5   9  -3    6.90    2.70
  -5   9  -3    1.90    3.30
   5  -9   3    1.30    3.20
   5  -9   3    1.50    1.20
  -6   9  -3   17.60    4.50
  -6   9  -3   10.20    2.50
  -6   9  -3   18.70    3.40
   6  -9   3   17.50    4.70
  -7   9  -3    4.70    3.10
  -7   9  -3    2.20    4.00
  -7   9  -3    6.30    2.40
   7  -9   3    0.50    3.40
   7   8  -3    1.40    3.60
  -7  -8   3    6.60    3.90
  -7  -8   3   -2.30    2.60
  -7  -8   3   -1.80    2.10
   6   8  -3    0.60    1.90
   6   8  -3    4.80    3.20
  -6  -8   3    4.00    2.00
  -6  -8   3    2.60    2.60
  -6  -8   3    4.80    3.50
  -6  -8   3    3.00    3.10
   5   8  -3   20.20    4.00
   5   8  -3   20.60    2.90
  -5  -8   3   23.60    4.10
  -5  -8   3   19.90    4.10
  -5  -8   3   18.70    2.60
  -5  -8   3    9.50    2.90
   4   8  -3   -0.50    2.00
   4   8  -3    3.70    2.80
   4   8  -3    2.70    1.90
  -4  -8   3   -0.30    2.60
  -4  -8   3   -0.50    2.00
  -4  -8   3    1.80    1.50
  -4  -8   3    2.10    2.70
   3   8  -3   37.00    3.70
   3   8  -3   41.40    3.70
   3   8  -3   41.60    5.20
  -3  -8   3   45.80    3.30
  -3  -8   3   44.40    4.90
  -3  -8   3   35.20    3.70
  -3  -8   3   40.20    4.30
   2   8  -3   25.80    2.80
   2   8  -3   21.00    3.30
   2   8  -3   22.90    3.00
   2   8  -3   26.90    3.80
  -2  -8   3   25.50    3.50
  -2  -8   3   23.90    3.00
  -2  -8   3   24.00    2.40
  -2  -8   3   25.60    3.50
   1   8  -3    0.00    2.10
   1   8  -3    0.00    1.40
   1   8  -3    2.60    1.90
   1   8  -3   -0.10    1.60
   1   8  -3    0.80    1.80
  -1  -8   3    1.10    1.20
  -1  -8   3    0.50    2.20
  -1  -8   3   -1.70    1.70
  -1  -8   3   -1.90    1.50
   0   8  -3   23.60    2.70
   0   8  -3   21.70    3.40
   0   8  -3   21.50    3.30
   0   8  -3   21.00    2.80
   0   8  -3   20.30    3.10
   0  -8   3   18.50    2.00
   0  -8   3   23.20    2.80
   0  -8   3   26.60    3.70
   0  -8   3   22.90    3.20
  -1   8  -3  122.89    6.60
  -1   8  -3  117.89    7.80
  -1   8  -3  119.79    7.00
  -1   8  -3  127.89    7.30
  -1   8  -3  119.99    5.90
   1  -8   3  110.89    5.00
   1  -8   3  121.69    5.90
   1  -8   3  112.29    6.80
   1  -8   3  122.29    6.70
  -2   8  -3    3.40    2.10
  -2   8  -3    1.60    2.20
  -2   8  -3    1.40    2.60
  -2   8  -3    1.70    1.80
   2  -8   3    1.40    2.10
   2  -8   3    3.40    1.20
   2  -8   3    1.60    1.60
  -3   8  -3  145.89    7.50
  -3   8  -3  133.49    8.10
  -3   8  -3  140.19    6.80
  -3   8  -3  152.48    8.20
   3  -8   3  151.98    6.70
   3  -8   3  128.49    7.70
   3  -8   3  146.59    5.70
  -4   8  -3   12.40    2.30
  -4   8  -3   13.60    2.80
  -4   8  -3   18.00    2.90
  -4   8  -3    9.50    3.10
  -4   8  -3   12.30    3.00
   4  -8   3   10.70    1.50
   4  -8   3   14.50    3.60
  -5   8  -3   14.30    2.90
  -5   8  -3   17.70    3.70
  -5   8  -3   19.90    2.70
  -5   8  -3   19.00    3.80
   5  -8   3   20.90    1.60
   5  -8   3   28.30    4.40
   5  -8   3   21.80    1.70
  -6   8  -3   15.30    3.90
  -6   8  -3   18.00    4.30
  -6   8  -3    7.10    2.70
  -6   8  -3   13.00    2.40
   6  -8   3   16.50    3.90
  -7   8  -3    2.50    2.60
  -7   8  -3    0.60    3.30
   7  -8   3    5.40    3.40
  -8   8  -3    2.60    2.80
  -8   8  -3    7.40    4.30
   8  -8   3    1.00    3.90
   8   7  -3   17.90    4.80
  -8  -7   3   11.40    2.70
  -8  -7   3   16.80    4.60
  -8  -7   3   28.60    4.40
   7   7  -3    6.20    3.50
   7   7  -3    2.20    1.90
  -7  -7   3    2.30    2.70
  -7  -7   3    2.50    2.10
  -7  -7   3    2.30    3.10
  -7  -7   3    3.00    3.30
  -7  -7   3   -1.40    2.60
   6   7  -3   27.40    3.10
   6   7  -3   35.10    5.10
  -6  -7   3   29.60    3.70
  -6  -7   3   33.20    3.30
  -6  -7   3   30.60    4.30
  -6  -7   3   32.60    4.70
   5   7  -3   15.40    3.60
   5   7  -3   13.30    2.30
   5   7  -3   15.40    2.80
  -5  -7   3    8.90    2.90
  -5  -7   3   14.40    3.30
  -5  -7   3   12.70    2.90
  -5  -7   3   10.50    2.00
   4   7  -3    6.00    2.50
   4   7  -3    1.00    1.90
   4   7  -3    2.50    1.80
  -4  -7   3    6.60    2.40
  -4  -7   3    3.80    2.00
  -4  -7   3    2.20    1.40
  -4  -7   3    3.70    2.40
   3   7  -3   36.90    3.40
   3   7  -3   33.40    3.80
   3   7  -3   33.10    4.10
   3   7  -3   38.50    3.40
  -3  -7   3   39.70    4.10
  -3  -7   3   35.70    3.30
  -3  -7   3   30.10    2.70
  -3  -7   3   34.60    3.60
  -3  -7   3   35.50    3.90
   2   7  -3   67.79    4.90
   2   7  -3   66.19    4.10
   2   7  -3   71.69    4.20
   2   7  -3   60.69    4.50
   2   7  -3   52.39    4.50
  -2  -7   3   65.69    3.50
  -2  -7   3   71.49    5.00
  -2  -7   3   71.59    4.20
  -2  -7   3   61.99    4.50
   1   7  -3    3.20    1.80
   1   7  -3    0.60    1.80
   1   7  -3    2.80    1.70
   1   7  -3    1.30    1.30
   1   7  -3    3.90    2.00
  -1  -7   3    1.20    2.30
  -1  -7   3    0.40    0.90
  -1  -7   3    1.20    1.40
  -1  -7   3    3.70    2.10
  -1  -7   3   -0.10    1.60
   0   7  -3  150.08    7.60
   0   7  -3  146.59    7.20
   0   7  -3  151.98    7.60
   0   7  -3  159.78    7.30
   0   7  -3  150.18    6.60
   0  -7   3  142.09    6.00
   0  -7   3  156.38    7.40
   0  -7   3  143.19    7.00
   0  -7   3  151.28    5.80
   0  -7   3  145.59    7.40
   0  -7   3  140.19    6.50
  -1   7  -3   17.30    2.50
  -1   7  -3   24.20    3.20
  -1   7  -3   17.40    2.90
  -1   7  -3   12.20    2.30
  -1   7  -3   16.60    2.30
  -1   7  -3   14.50    2.90
   1  -7   3   21.20    3.00
   1  -7   3   22.80    2.90
   1  -7   3   20.90    1.90
   1  -7   3   18.60    1.90
   1  -7   3   15.80    2.70
   1  -7   3   18.00    2.40
  -2   7  -3    2.50    2.00
  -2   7  -3    0.90    1.50
  -2   7  -3    1.60    1.80
  -2   7  -3    1.90    1.60
  -2   7  -3   -1.90    1.70
  -2   7  -3    0.90    1.40
   2  -7   3    0.20    0.80
   2  -7   3    0.10    0.90
   2  -7   3    2.20    1.50
   2  -7   3    2.80    2.00
   2  -7   3    3.50    2.00
  -3   7  -3   66.99    4.20
  -3   7  -3   69.79    5.20
  -3   7  -3   70.79    4.80
  -3   7  -3   74.49    4.10
  -3   7  -3   76.29    5.10
   3  -7   3   69.19    5.10
   3  -7   3   67.79    3.20
   3  -7   3   71.39    3.30
   3  -7   3   68.79    4.00
   3  -7   3   62.99    5.30
  -4   7  -3   61.79    4.50
  -4   7  -3   53.19    5.10
  -4   7  -3   50.89    4.10
  -4   7  -3   48.30    4.90
  -4   7  -3   55.49    3.70
   4  -7   3   61.39    5.40
   4  -7   3   50.79    2.60
   4  -7   3   56.89    3.60
   4  -7   3   55.69    2.70
  -5   7  -3   31.50    3.40
  -5   7  -3   37.40    4.60
  -5   7  -3   32.40    3.70
  -5   7  -3   42.80    4.80
  -5   7  -3   34.90    3.60
   5  -7   3   33.80    4.50
  -6   7  -3   30.70    3.50
  -6   7  -3   27.80    3.20
  -6   7  -3   39.00    4.20
  -6   7  -3   41.00    5.10
  -6   7  -3   31.80    4.50
   6  -7   3   37.40    4.70
  -7   7  -3    5.10    2.50
  -7   7  -3    0.00    3.20
   7  -7   3    0.20    3.10
  -8   7  -3    3.10    2.70
  -8   7  -3    6.50    3.90
   8  -7   3    8.70    4.10
   8   6  -3    8.00    1.90
   8   6  -3    3.70    3.90
   8   6  -3    9.80    3.60
  -8  -6   3    5.20    3.10
  -8  -6   3   10.40    4.00
  -8  -6   3    9.70    3.50
  -8  -6   3    3.70    2.40
   7   6  -3    1.50    1.80
   7   6  -3   -1.90    2.90
  -7  -6   3    3.90    2.70
  -7  -6   3    4.50    3.00
  -7  -6   3    2.90    1.90
  -7  -6   3   -3.50    2.30
   6   6  -3   48.20    5.30
   6   6  -3   45.90    3.80
   6   6  -3   32.40    3.70
  -6  -6   3   43.20    4.50
  -6  -6   3   52.49    4.50
  -6  -6   3   41.50    3.50
  -6  -6   3   42.10    4.90
   5   6  -3   83.39    6.70
   5   6  -3   69.99    4.70
   5   6  -3   75.39    4.50
  -5  -6   3   75.69    4.80
  -5  -6   3   75.19    5.30
  -5  -6   3   69.09    5.10
  -5  -6   3   79.59    4.20
  -5  -6   3   76.19    5.40
   4   6  -3   23.70    2.70
   4   6  -3   14.80    3.00
   4   6  -3   15.90    2.90
   4   6  -3   23.00    2.90
  -4  -6   3   15.20    2.60
  -4  -6   3   18.40    2.10
  -4  -6   3   13.30    2.70
  -4  -6   3   18.20    2.60
  -4  -6   3   16.60    2.80
   3   6  -3  299.87   11.90
   3   6  -3  298.57   11.20
   3   6  -3  291.57   12.20
   3   6  -3  296.57   11.10
  -3  -6   3  300.07   11.80
  -3  -6   3  301.07   10.70
  -3  -6   3  294.17   11.20
  -3  -6   3  283.27   11.70
  -3  -6   3  303.57   12.00
   2   6  -3   59.09    3.50
   2   6  -3   53.69    3.60
   2   6  -3   57.59    4.30
   2   6  -3   64.29    4.10
   2   6  -3   49.20    3.90
   2   6  -3   54.29    3.00
   2   6  -3   54.69    4.00
  -2  -6   3   66.59    3.80
  -2  -6   3   56.89    3.00
  -2  -6   3   63.49    3.10
  -2  -6   3   56.59    4.00
  -2  -6   3   62.49    4.20
  -2  -6   3   55.89    4.20
  -2  -6   3   61.49    3.30
  -2  -6   3   57.09    4.10
   1   6  -3  119.39    6.10
   1   6  -3  132.49    6.40
   1   6  -3  124.79    6.10
   1   6  -3  122.69    5.50
   1   6  -3  127.69    6.20
   1   6  -3  120.59    6.30
   1   6  -3  124.09    5.40
  -1  -6   3  129.19    5.30
  -1  -6   3  125.99    5.50
  -1  -6   3  123.89    5.00
  -1  -6   3  113.99    6.20
  -1  -6   3  128.49    6.30
  -1  -6   3  115.89    5.00
  -1  -6   3  130.59    6.10
  -1  -6   3  131.39    6.20
   0   6  -3  228.68   10.30
   0   6  -3  258.27   10.40
   0   6  -3  256.77    9.60
   0   6  -3  245.38   10.10
   0   6  -3  263.07   10.50
   0   6  -3  272.37   10.20
   0  -6   3  257.47    9.40
   0  -6   3  251.37    9.50
   0  -6   3  264.57   10.30
   0  -6   3  253.27    9.20
   0  -6   3  256.07   10.10
   0  -6   3  249.28    8.90
   0  -6   3  263.97   10.50
   0  -6   3  251.97   10.30
  -1   6  -3  131.19    6.60
  -1   6  -3  137.19    6.40
  -1   6  -3  149.19    5.90
  -1   6  -3  132.59    6.30
  -1   6  -3  135.49    6.60
  -1   6  -3  126.69    6.60
  -1   6  -3  144.39    6.40
   1  -6   3  132.59    5.30
   1  -6   3  135.49    5.70
   1  -6   3  121.39    6.30
   1  -6   3  142.79    6.80
   1  -6   3  129.39    5.10
   1  -6   3  138.19    6.60
   1  -6   3  134.99    6.30
  -2   6  -3  185.38    7.10
  -2   6  -3  171.08    7.90
  -2   6  -3  164.98    7.90
  -2   6  -3  177.68    7.70
  -2   6  -3  158.18    7.50
  -2   6  -3  177.38    7.10
  -2   6  -3  164.48    7.60
  -2   6  -3  191.88    8.50
  -2   6  -3  158.18    7.10
   2  -6   3  176.18    7.90
   2  -6   3  179.58    6.30
   2  -6   3  176.68    7.90
   2  -6   3  168.68    6.90
   2  -6   3  184.98    6.50
   2  -6   3  182.68    8.10
   2  -6   3  170.38    8.00
  -3   6  -3  385.16   14.30
  -3   6  -3  367.26   14.70
  -3   6  -3  363.16   14.50
  -3   6  -3  372.36   13.70
  -3   6  -3  400.16   14.50
  -3   6  -3  377.66   13.70
   3  -6   3  395.36   14.80
   3  -6   3  380.56   13.40
   3  -6   3  371.96   14.80
   3  -6   3  393.36   14.70
   3  -6   3  382.56   12.70
   3  -6   3  382.66   12.80
   3  -6   3  390.26   14.70
  -4   6  -3    0.80    1.50
  -4   6  -3    0.50    1.10
  -4   6  -3    0.30    1.80
  -4   6  -3    1.30    1.90
  -4   6  -3   -0.90    1.30
   4  -6   3    2.50    1.30
   4  -6   3    0.60    1.50
   4  -6   3    1.60    1.80
   4  -6   3   -0.90    1.60
   4  -6   3    2.40    0.70
   4  -6   3    0.40    0.60
  -5   6  -3  134.19    6.00
  -5   6  -3  123.99    7.10
  -5   6  -3  115.59    6.50
  -5   6  -3  122.29    6.50
  -5   6  -3  112.89    5.70
   5  -6   3  121.39    7.00
  -6   6  -3   53.49    4.50
  -6   6  -3   51.09    4.00
  -6   6  -3   46.30    4.90
  -6   6  -3   39.90    4.60
   6  -6   3   45.20    5.00
  -7   6  -3   -1.20    2.00
  -7   6  -3    2.40    3.10
  -7   6  -3    4.40    2.20
   7  -6   3    2.90    3.10
  -8   6  -3   12.50    2.80
  -8   6  -3    8.40    3.70
   8  -6   3    9.00    3.70
  -9   6  -3    2.30    2.60
   9  -6   3    5.90    3.90
   9   5  -3   -2.00    3.20
  -9  -5   3   -0.40    3.10
  -9  -5   3    0.20    2.10
  -9  -5   3   -5.50    3.10
   8   5  -3   14.40    4.10
   8   5  -3   11.30    2.20
  -8  -5   3    6.20    3.30
  -8  -5   3    9.40    2.40
  -8  -5   3    8.40    3.60
  -8  -5   3    7.90    2.90
   7   5  -3    6.00    3.00
   7   5  -3    2.90    1.70
  -7  -5   3    3.40    2.50
  -7  -5   3    0.90    2.70
  -7  -5   3    4.90    1.80
  -7  -5   3    3.70    2.50
   6   5  -3   15.50    2.40
   6   5  -3   18.90    2.90
   6   5  -3    8.80    3.10
  -6  -5   3   14.70    3.10
  -6  -5   3   14.80    2.30
  -6  -5   3   16.60    4.50
  -6  -5   3   15.70    2.80
  -6  -5   3   13.30    3.00
  -6  -5   3   17.30    2.90
   5   5  -3   82.49    5.50
   5   5  -3   88.79    6.30
   5   5  -3   90.59    4.70
   5   5  -3   89.79    5.60
   5   5  -3   91.59    5.10
  -5  -5   3   84.99    5.40
  -5  -5   3   96.79    5.60
  -5  -5   3   95.89    4.60
  -5  -5   3   89.19    5.50
  -5  -5   3   90.99    5.10
   4   5  -3    1.60    1.30
   4   5  -3    0.60    1.50
   4   5  -3    1.30    1.40
   4   5  -3    2.80    2.00
   4   5  -3    1.30    1.50
  -4  -5   3    2.50    1.60
  -4  -5   3    1.60    1.70
  -4  -5   3    1.30    1.60
  -4  -5   3    2.90    1.70
  -4  -5   3    1.80    1.30
  -4  -5   3    1.80    1.10
   3   5  -3  145.59    7.10
   3   5  -3  145.89    5.90
   3   5  -3  149.99    7.00
   3   5  -3  154.68    7.00
   3   5  -3  154.18    6.00
   3   5  -3  150.78    6.40
   3   5  -3  150.38    6.30
   3   5  -3  148.39    6.90
  -3  -5   3  152.18    6.50
  -3  -5   3  153.48    7.10
  -3  -5   3  147.69    7.10
  -3  -5   3  151.68    6.90
  -3  -5   3  158.08    6.10
  -3  -5   3  161.18    6.00
  -3  -5   3  144.99    6.70
  -3  -5   3  148.09    6.90
   2   5  -3  137.49    5.40
   2   5  -3  125.39    6.00
   2   5  -3  136.89    5.60
   2   5  -3  129.39    6.10
   2   5  -3  124.89    6.00
   2   5  -3  119.69    6.10
  -2  -5   3  128.09    5.10
  -2  -5   3  139.69    5.20
  -2  -5   3  145.99    5.90
  -2  -5   3  135.99    6.10
  -2  -5   3  131.29    6.30
  -2  -5   3  127.19    5.30
  -2  -5   3  124.39    5.60
  -2  -5   3  126.19    6.00
  -2  -5   3  128.09    6.30
   1   5  -3   -0.70    1.00
   1   5  -3   -0.20    0.90
   1   5  -3    0.50    1.40
   1   5  -3   -0.20    0.80
   1   5  -3    0.90    1.20
   1   5  -3    0.30    1.00
   1   5  -3   -0.40    1.20
  -1  -5   3    1.50    1.00
  -1  -5   3    0.40    1.00
  -1  -5   3    1.10    0.70
  -1  -5   3   -0.50    1.20
  -1  -5   3    0.60    1.20
  -1  -5   3    1.00    0.70
  -1  -5   3    1.20    1.00
  -1  -5   3    3.90    1.00
  -1  -5   3    1.30    1.40
   0   5  -3  297.97   11.50
   0   5  -3  294.37   11.60
   0   5  -3  309.87   12.00
   0   5  -3  316.27   11.60
   0   5  -3  323.07   11.10
   0   5  -3  307.57   11.00
   0   5  -3  312.17   11.80
   0  -5   3  321.17   11.70
   0  -5   3  306.47   11.80
   0  -5   3  318.27   11.50
   0  -5   3  323.17   10.60
   0  -5   3  318.77   11.80
   0  -5   3  308.67   11.00
   0  -5   3  292.37   10.60
   0  -5   3  308.17   11.70
  -1   5  -3   96.89    4.80
  -1   5  -3   86.99    5.00
  -1   5  -3   97.89    4.40
  -1   5  -3   94.99    4.80
  -1   5  -3  102.79    4.30
  -1   5  -3   98.49    5.00
  -1   5  -3   89.29    4.90
  -1   5  -3   97.49    4.80
  -1   5  -3  104.99    4.40
   1  -5   3   91.09    4.80
   1  -5   3  108.89    5.30
   1  -5   3   99.09    5.00
   1  -5   3   93.89    3.90
   1  -5   3   92.59    3.70
   1  -5   3  104.89    4.90
   1  -5   3  105.19    4.30
  -2   5  -3    8.50    1.30
  -2   5  -3    7.30    1.40
  -2   5  -3    8.10    2.00
  -2   5  -3    6.30    1.40
  -2   5  -3    5.70    1.40
  -2   5  -3    7.20    1.30
  -2   5  -3   10.20    1.90
  -2   5  -3    4.50    1.40
   2  -5   3    7.50    1.00
   2  -5   3    7.00    0.80
   2  -5   3    6.90    1.50
   2  -5   3    5.90    1.60
   2  -5   3    6.70    1.60
   2  -5   3    6.10    1.20
  -3   5  -3  183.28    7.70
  -3   5  -3  182.68    7.10
  -3   5  -3  178.18    7.40
  -3   5  -3  178.58    7.00
  -3   5  -3  174.88    7.00
  -3   5  -3  177.38    7.70
  -3   5  -3  178.68    7.90
   3  -5   3  176.08    7.90
   3  -5   3  183.88    6.10
   3  -5   3  184.08    7.90
   3  -5   3  176.68    7.80
   3  -5   3  174.08    6.70
   3  -5   3  173.58    6.20
  -4   5  -3   70.29    4.40
  -4   5  -3   74.49    4.60
  -4   5  -3   72.59    4.70
  -4   5  -3   65.59    3.70
  -4   5  -3   65.59    3.60
  -4   5  -3   59.39    4.00
   4  -5   3   67.29    3.40
   4  -5   3   69.59    4.40
   4  -5   3   62.69    4.50
   4  -5   3   65.69    4.50
   4  -5   3   78.19    4.70
  -5   5  -3   35.90    3.30
  -5   5  -3   32.80    3.70
  -5   5  -3   36.10    3.10
  -5   5  -3   32.70    3.80
   5  -5   3   36.30    3.90
   5  -5   3   34.60    3.90
   5  -5   3   29.00    3.30
   5  -5   3   38.70    2.50
  -6   5  -3   52.39    3.90
  -6   5  -3   63.69    4.40
  -6   5  -3   62.89    5.20
  -6   5  -3   50.69    4.90
   6  -5   3   46.00    4.70
  -7   5  -3   10.40    2.30
  -7   5  -3    9.30    3.00
  -7   5  -3    3.60    2.00
   7  -5   3    6.70    3.10
  -8   5  -3   10.60    2.80
  -8   5  -3   19.50    3.10
  -8   5  -3   13.10    3.60
   8  -5   3    9.20    3.80
  -9   5  -3    7.00    2.80
   9  -5   3    8.90    4.10
   9   4  -3    4.20    1.80
   9   4  -3    5.60    3.40
  -9  -4   3    3.10    2.20
  -9  -4   3    6.20    3.20
  -9  -4   3    1.80    3.40
  -9  -4   3    6.20    3.40
   8   4  -3    6.70    1.90
   8   4  -3    1.30    3.20
  -8  -4   3    9.30    2.50
  -8  -4   3   10.90    3.50
  -8  -4   3    5.10    2.80
  -8  -4   3    6.50    2.80
   7   4  -3   -1.00    1.40
   7   4  -3   -3.30    1.60
   7   4  -3   -4.00    2.50
  -7  -4   3    1.50    2.40
  -7  -4   3    3.40    2.40
  -7  -4   3   -0.30    1.60
  -7  -4   3    1.80    2.10
   6   4  -3   58.29    3.70
   6   4  -3   52.09    5.10
   6   4  -3   63.29    4.20
  -6  -4   3   60.69    4.50
  -6  -4   3   59.89    4.60
  -6  -4   3   63.59    3.80
  -6  -4   3   65.69    4.70
  -6  -4   3   57.09    4.90
   5   4  -3   24.10    3.10
   5   4  -3   31.70    3.00
   5   4  -3   31.90    3.40
   5   4  -3   31.50    3.90
   5   4  -3   21.20    2.30
  -5  -4   3   29.10    2.60
  -5  -4   3   27.20    3.10
  -5  -4   3   28.40    3.20
  -5  -4   3   18.70    2.60
  -5  -4   3   28.20    3.30
   4   4  -3    1.40    1.60
   4   4  -3    2.10    1.60
   4   4  -3    3.70    1.50
   4   4  -3    4.30    1.40
   4   4  -3    7.00    1.80
   4   4  -3    5.00    1.00
   4   4  -3    4.60    1.10
   4   4  -3    2.30    1.30
  -4  -4   3    8.00    2.00
  -4  -4   3    5.00    1.50
  -4  -4   3    4.00    1.50
  -4  -4   3    1.20    1.50
  -4  -4   3    3.60    1.50
  -4  -4   3    0.70    1.40
  -4  -4   3    3.70    1.50
  -4  -4   3    3.60    1.10
  -4  -4   3    3.40    1.00
   3   4  -3   64.79    4.00
   3   4  -3   68.29    2.40
   3   4  -3   57.79    3.70
   3   4  -3   65.39    3.80
   3   4  -3   59.69    3.30
   3   4  -3   59.99    3.80
   3   4  -3   66.49    3.10
   3   4  -3   66.99    3.30
   3   4  -3   59.29    4.00
  -3  -4   3   60.29    3.90
  -3  -4   3   60.99    3.70
  -3  -4   3   66.89    3.50
  -3  -4   3   63.49    3.70
  -3  -4   3   55.39    3.70
  -3  -4   3   62.29    3.50
  -3  -4   3   66.19    3.80
  -3  -4   3   66.49    3.10
  -3  -4   3   66.19    3.10
   2   4  -3  653.63   20.70
   2   4  -3  623.44   20.70
   2   4  -3  633.34   21.40
   2   4  -3  619.64   21.40
   2   4  -3  630.64   21.30
   2   4  -3  623.14   20.80
   2   4  -3  576.24   21.40
  -2  -4   3  660.43   20.60
  -2  -4   3  624.14   21.60
  -2  -4   3  610.54   21.20
  -2  -4   3  655.33   21.10
  -2  -4   3  622.34   20.50
  -2  -4   3  631.74   20.90
  -2  -4   3  602.14   21.30
  -2  -4   3  606.84   21.20
  -2  -4   3  629.74   20.60
  -2  -4   3  617.84   21.60
   1   4  -3    3.60    1.10
   1   4  -3    4.10    1.20
   1   4  -3    4.60    1.10
   1   4  -3    4.10    0.80
   1   4  -3    3.50    1.50
   1   4  -3    5.30    1.00
   1   4  -3    3.80    1.10
  -1  -4   3    6.30    1.40
  -1  -4   3    3.60    0.70
  -1  -4   3    5.90    1.50
  -1  -4   3    3.80    0.90
  -1  -4   3    4.00    0.70
  -1  -4   3    2.30    1.10
  -1  -4   3    1.70    1.10
  -1  -4   3    2.50    0.90
  -1  -4   3    3.90    1.00
   0   4  -3 1655.63   53.69
   0   4  -3 1629.14   54.59
   0   4  -3 1737.33   53.79
   0   4  -3 1726.73   53.79
   0   4  -3 1651.43   54.29
   0   4  -3 1687.03   54.19
   0   4  -3 1703.43   54.39
   0   4  -3 1530.85   54.29
   0  -4   3 1688.23   54.19
   0  -4   3 1706.93   54.49
   0  -4   3 1780.72   54.09
   0  -4   3 1664.73   53.39
   0  -4   3 1692.13   54.29
   0  -4   3 1628.34   53.69
   0  -4   3 1606.94   54.29
   0  -4   3 1735.23   53.29
   0  -4   3 1686.63   54.29
  -1   4  -3  347.47   12.30
  -1   4  -3  338.27   12.30
  -1   4  -3  350.06   12.50
  -1   4  -3  339.17   12.30
  -1   4  -3  346.87   12.40
  -1   4  -3  340.97   11.80
  -1   4  -3  361.26   12.30
  -1   4  -3  352.36   11.90
  -1   4  -3  341.87   11.80
   1  -4   3  338.17   12.20
   1  -4   3  345.57   12.30
   1  -4   3  326.97   11.90
   1  -4   3  352.66   12.50
   1  -4   3  350.66   11.30
   1  -4   3  331.37   11.70
   1  -4   3  333.97   12.60
   1  -4   3  337.97   12.50
   1  -4   3  355.16   11.30
  -2   4  -3  961.10   30.90
  -2   4  -3  928.31   30.40
  -2   4  -3  929.61   30.90
  -2   4  -3  966.30   30.80
  -2   4  -3  930.21   30.40
  -2   4  -3  896.01   30.60
  -2   4  -3  925.21   31.40
  -2   4  -3  929.91   31.00
  -2   4  -3  921.21   30.30
   2  -4   3  983.90   30.90
   2  -4   3  900.21   31.20
   2  -4   3  907.01   31.00
   2  -4   3  948.71   31.10
   2  -4   3  906.41   30.20
   2  -4   3  973.20   29.70
   2  -4   3  930.81   29.70
   2  -4   3  915.81   31.00
  -3   4  -3  277.77   10.10
  -3   4  -3  253.67    9.80
  -3   4  -3  246.08    9.10
  -3   4  -3  260.07    9.80
  -3   4  -3  257.17    9.20
  -3   4  -3  267.17    9.30
  -3   4  -3  268.77    9.60
   3  -4   3  259.97   10.00
   3  -4   3  254.27    9.90
   3  -4   3  253.77    9.70
   3  -4   3  257.07   10.00
   3  -4   3  237.98    8.90
   3  -4   3  260.57   10.20
  -4   4  -3    7.50    1.40
  -4   4  -3    5.80    1.50
  -4   4  -3    6.60    1.80
  -4   4  -3    5.50    1.30
  -4   4  -3    5.30    1.20
  -4   4  -3    5.70    1.60
  -4   4  -3    6.10    1.80
   4  -4   3    7.80    1.80
   4  -4   3    6.80    1.90
   4  -4   3    5.80    1.60
   4  -4   3    4.90    1.70
   4  -4   3    7.60    1.10
  -5   4  -3   25.20    2.90
  -5   4  -3   30.30    3.40
  -5   4  -3   33.30    2.50
  -5   4  -3   41.20    3.40
  -5   4  -3   33.60    2.80
  -5   4  -3   42.50    3.60
   5  -4   3   33.90    3.60
   5  -4   3   32.10    2.80
   5  -4   3   31.10    3.20
   5  -4   3   37.70    3.90
   5  -4   3   26.60    3.10
   5  -4   3   33.10    2.20
  -6   4  -3   62.09    3.90
  -6   4  -3   63.89    4.60
  -6   4  -3   63.09    4.30
  -6   4  -3   61.29    5.10
   6  -4   3   67.79    5.10
   6  -4   3   70.79    4.80
  -7   4  -3    0.60    2.30
  -7   4  -3    0.90    2.10
  -7   4  -3    6.10    2.00
  -7   4  -3   -0.30    1.80
   7  -4   3    2.70    2.50
  -8   4  -3   13.40    2.70
  -8   4  -3   12.00    2.80
  -8   4  -3   19.00    3.90
   8  -4   3   13.00    3.70
  -9   4  -3    0.70    2.50
   9  -4   3    1.00    3.40
  10   3  -3    1.10    3.40
 -10  -3   3   -0.90    3.50
 -10  -3   3    1.40    2.40
 -10  -3   3    2.80    3.00
   9   3  -3    2.60    1.80
   9   3  -3    6.00    3.60
  -9  -3   3    0.00    2.50
  -9  -3   3    3.20    3.30
  -9  -3   3    0.20    2.60
  -9  -3   3    2.20    2.00
   8   3  -3    9.50    2.50
   8   3  -3   12.60    3.80
   8   3  -3   11.30    2.10
  -8  -3   3   13.30    3.40
  -8  -3   3    9.20    3.20
  -8  -3   3    6.40    2.60
  -8  -3   3   10.50    2.20
   7   3  -3    2.00    2.60
   7   3  -3    2.40    1.50
   7   3  -3    1.40    1.80
  -7  -3   3    1.30    1.50
  -7  -3   3    0.90    1.90
  -7  -3   3   -0.10    2.10
  -7  -3   3    0.00    2.10
  -7  -3   3   -1.10    2.20
   6   3  -3   42.10    3.50
   6   3  -3   29.40    2.70
   6   3  -3   31.50    4.10
   6   3  -3   31.30    3.30
  -6  -3   3   35.00    3.10
  -6  -3   3   49.40    4.10
  -6  -3   3   31.60    3.40
  -6  -3   3   34.90    3.30
  -6  -3   3   48.70    4.30
   5   3  -3   30.60    2.20
   5   3  -3   42.30    3.80
   5   3  -3   33.90    3.30
   5   3  -3   40.60    3.30
   5   3  -3   34.90    2.30
   5   3  -3   32.50    3.60
   5   3  -3   37.50    3.10
   5   3  -3   30.60    3.10
  -5  -3   3   36.10    3.30
  -5  -3   3   40.30    3.40
  -5  -3   3   34.90    3.10
  -5  -3   3   37.10    3.30
  -5  -3   3   35.10    3.40
  -5  -3   3   34.30    2.30
  -5  -3   3   38.30    3.10
  -5  -3   3   39.00    2.60
   4   3  -3    3.70    0.90
   4   3  -3    4.60    1.50
   4   3  -3    4.30    1.00
   4   3  -3    4.30    1.20
   4   3  -3    3.60    1.70
   4   3  -3    4.00    1.30
   4   3  -3    4.10    1.20
   4   3  -3    3.50    1.30
  -4  -3   3    3.50    1.40
  -4  -3   3    3.90    1.40
  -4  -3   3    3.70    1.30
  -4  -3   3    4.90    1.10
  -4  -3   3    4.20    1.40
  -4  -3   3    3.40    1.40
  -4  -3   3    5.60    1.40
  -4  -3   3    4.50    1.40
  -4  -3   3    3.20    0.80
  -4  -3   3    3.90    1.60
  -4  -3   3    2.00    0.80
  -4  -3   3    2.40    1.30
   3   3  -3  255.37    9.90
   3   3  -3  266.97   10.00
   3   3  -3  275.07   10.10
   3   3  -3  257.57    9.20
   3   3  -3  261.97   10.30
   3   3  -3  272.87    9.50
  -3  -3   3  276.57    9.60
  -3  -3   3  260.77   10.00
  -3  -3   3  273.37    9.30
  -3  -3   3  266.57    9.70
  -3  -3   3  275.07    9.90
  -3  -3   3  262.27    9.30
  -3  -3   3  268.57   10.00
  -3  -3   3  246.08    9.80
   2   3  -3   47.40    2.20
   2   3  -3   46.90    2.80
   2   3  -3   47.90    2.90
   2   3  -3   41.20    2.90
   2   3  -3   42.50    2.70
   2   3  -3   45.10    2.70
   2   3  -3   49.99    2.40
   2   3  -3   48.30    2.50
  -2  -3   3   48.00    2.80
  -2  -3   3   43.80    2.70
  -2  -3   3   46.20    2.20
  -2  -3   3   49.70    2.20
  -2  -3   3   44.90    2.90
  -2  -3   3   44.70    2.50
  -2  -3   3   45.40    2.70
  -2  -3   3   46.30    2.50
  -2  -3   3   48.40    2.80
   1   3  -3   60.89    3.20
   1   3  -3   54.19    2.60
   1   3  -3   56.29    2.50
   1   3  -3   52.29    2.90
   1   3  -3   60.39    3.10
   1   3  -3   49.90    2.90
   1   3  -3   55.69    2.60
  -1  -3   3   60.19    2.30
  -1  -3   3   54.39    2.40
  -1  -3   3   62.19    3.00
  -1  -3   3   55.59    3.10
  -1  -3   3   59.59    2.80
  -1  -3   3   65.09    3.20
  -1  -3   3   57.59    3.20
   0   3  -3  610.14   20.10
   0   3  -3  614.04   20.60
   0   3  -3  631.54   20.20
   0   3  -3  606.84   20.50
   0   3  -3  629.94   20.60
   0   3  -3  641.94   20.10
   0   3  -3  598.94   20.50
   0   3  -3  625.24   20.20
   0   3  -3  602.54   20.00
   0  -3   3  631.94   20.60
   0  -3   3  635.94   19.70
   0  -3   3  588.14   20.00
   0  -3   3  603.54   20.40
   0  -3   3  607.04   19.70
   0  -3   3  603.04   20.70
   0  -3   3  622.84   20.30
   0  -3   3  620.04   20.70
  -1   3  -3   33.40    2.10
  -1   3  -3   33.10    2.40
  -1   3  -3   31.90    2.30
  -1   3  -3   33.00    2.20
  -1   3  -3   29.50    2.00
  -1   3  -3   31.40    2.00
  -1   3  -3   34.40    1.80
  -1   3  -3   33.40    1.80
  -1   3  -3   34.50    1.70
  -1   3  -3   33.10    1.90
   1  -3   3   32.50    2.20
   1  -3   3   34.50    1.80
   1  -3   3   36.90    2.20
   1  -3   3   34.40    2.20
   1  -3   3   35.60    2.10
   1  -3   3   29.50    2.20
   1  -3   3   31.80    1.90
   1  -3   3   33.70    2.40
  -2   3  -3  152.48    5.80
  -2   3  -3  159.98    6.00
  -2   3  -3  143.99    6.40
  -2   3  -3  153.88    5.70
  -2   3  -3  151.98    5.90
  -2   3  -3  150.88    5.50
  -2   3  -3  152.18    5.50
  -2   3  -3  145.89    5.60
  -2   3  -3  155.58    6.10
  -2   3  -3  157.98    6.10
   2  -3   3  147.09    6.00
   2  -3   3  159.58    5.70
   2  -3   3  154.48    6.10
   2  -3   3  150.18    6.10
   2  -3   3  158.38    6.00
   2  -3   3  146.19    6.30
   2  -3   3  156.68    5.40
  -3   3  -3  393.36   13.80
  -3   3  -3  390.96   13.90
  -3   3  -3  387.56   13.60
  -3   3  -3  410.76   13.90
  -3   3  -3  394.96   13.20
  -3   3  -3  401.96   13.30
  -3   3  -3  397.56   13.30
   3  -3   3  391.26   13.90
   3  -3   3  391.46   14.00
   3  -3   3  410.76   13.80
   3  -3   3  387.76   14.20
   3  -3   3  402.06   13.80
   3  -3   3  388.46   13.90
   3  -3   3  379.86   13.00
  -4   3  -3    1.00    1.00
  -4   3  -3    2.00    0.90
  -4   3  -3    3.20    0.90
  -4   3  -3    1.50    1.40
  -4   3  -3    2.80    1.20
  -4   3  -3    1.90    1.00
  -4   3  -3    2.80    1.40
   4  -3   3    2.30    1.40
   4  -3   3    2.50    1.40
   4  -3   3    2.40    1.20
   4  -3   3    0.30    0.40
   4  -3   3    2.30    1.20
   4  -3   3    2.60    0.80
   4  -3   3    2.40    1.00
  -5   3  -3  155.98    6.70
  -5   3  -3  152.28    6.30
  -5   3  -3  160.88    7.20
  -5   3  -3  147.29    6.20
  -5   3  -3  165.68    6.30
  -5   3  -3  163.08    7.00
  -5   3  -3  148.89    6.90
   5  -3   3  160.38    7.30
   5  -3   3  154.48    6.40
   5  -3   3  157.58    7.40
   5  -3   3  160.68    7.10
   5  -3   3  154.78    5.80
   5  -3   3  152.28    7.20
  -6   3  -3   47.20    4.20
  -6   3  -3   34.90    2.90
  -6   3  -3   39.90    3.40
  -6   3  -3   45.10    4.00
   6  -3   3   50.49    4.00
   6  -3   3   42.60    4.10
   6  -3   3   44.20    4.30
  -7   3  -3    1.10    2.10
  -7   3  -3    1.50    1.70
  -7   3  -3    1.80    2.30
  -7   3  -3    1.00    1.70
   7  -3   3    0.00    1.70
   7  -3   3    0.20    2.20
  -8   3  -3   23.70    3.70
  -8   3  -3   20.40    3.00
  -8   3  -3   33.30    3.90
   8  -3   3   24.50    4.30
  -9   3  -3    6.50    2.80
  -9   3  -3   12.20    2.90
   9  -3   3    7.70    3.60
 -10   3  -3   -3.70    2.60
  10  -3   3   -2.50    3.50
  10   2  -3    1.60    3.60
  10   2  -3   -1.20    1.60
 -10  -2   3    1.00    2.90
 -10  -2   3   -1.00    2.00
 -10  -2   3    2.00    3.20
 -10  -2   3   -1.60    3.30
   9   2  -3    5.00    1.90
   9   2  -3    2.80    3.40
  -9  -2   3    6.90    3.10
  -9  -2   3    1.40    2.10
  -9  -2   3    3.20    3.00
  -9  -2   3    5.40    2.70
   8   2  -3  107.09    5.50
   8   2  -3   98.49    7.10
   8   2  -3  103.59    6.00
  -8  -2   3  116.89    6.30
  -8  -2   3  120.09    6.90
  -8  -2   3  110.39    5.80
  -8  -2   3  107.59    6.80
   7   2  -3    6.70    2.10
   7   2  -3    8.50    1.90
   7   2  -3   10.70    3.00
  -7  -2   3    8.70    2.30
  -7  -2   3    9.50    2.30
  -7  -2   3    7.90    2.60
  -7  -2   3    9.10    2.80
  -7  -2   3   10.10    1.80
   6   2  -3  997.10   33.60
   6   2  -3 1038.40   35.00
   6   2  -3  994.00   33.40
  -6  -2   3 1021.70   34.20
  -6  -2   3  957.50   33.30
  -6  -2   3 1061.99   33.70
  -6  -2   3 1024.10   34.40
  -6  -2   3  980.90   32.20
  -6  -2   3 1037.30   34.20
   5   2  -3  216.98    8.40
   5   2  -3  216.88    8.90
   5   2  -3  243.58    9.00
   5   2  -3  236.78    9.30
   5   2  -3  208.48    8.10
   5   2  -3  215.38    8.50
   5   2  -3  235.58    9.20
   5   2  -3  224.58    9.50
   5   2  -3  227.98    8.10
  -5  -2   3  213.28    8.80
  -5  -2   3  220.08    8.30
  -5  -2   3  212.88    8.00
  -5  -2   3  215.78    8.90
  -5  -2   3  235.18    9.00
  -5  -2   3  213.68    9.20
  -5  -2   3  229.98    8.60
  -5  -2   3  218.08    8.90
  -5  -2   3  213.18    7.40
  -5  -2   3  221.18    9.10
   4   2  -3 2024.80   65.89
   4   2  -3 2052.19   65.49
   4   2  -3 1976.30   66.09
   4   2  -3 2083.39   65.79
   4   2  -3 2049.09   66.49
   4   2  -3 2178.08   66.89
   4   2  -3 1999.70   66.19
   4   2  -3 2029.20   66.39
  -4  -2   3 1873.11   64.99
  -4  -2   3 2084.99   66.59
  -4  -2   3 2112.19   66.39
  -4  -2   3 2070.99   66.29
  -4  -2   3 2062.79   66.19
  -4  -2   3 2194.58   66.29
  -4  -2   3 1957.20   65.59
  -4  -2   3 2064.69   65.49
  -4  -2   3 2140.79   65.89
   3   2  -3  402.36   14.40
   3   2  -3  399.36   13.50
   3   2  -3  378.76   13.70
   3   2  -3  409.96   14.30
   3   2  -3  390.36   14.10
   3   2  -3  389.36   14.00
   3   2  -3  416.36   14.00
  -3  -2   3  404.86   14.10
  -3  -2   3  408.46   14.00
  -3  -2   3  422.76   14.10
  -3  -2   3  408.76   13.20
  -3  -2   3  397.46   13.60
  -3  -2   3  396.46   13.70
  -3  -2   3  408.86   14.10
  -3  -2   3  426.56   13.60
  -3  -2   3  431.96   14.20
   2   2  -3  133.09    5.40
   2   2  -3  133.29    5.20
   2   2  -3  129.99    4.70
   2   2  -3  124.29    5.10
   2   2  -3  126.29    4.80
   2   2  -3  135.29    4.80
   2   2  -3  130.39    5.10
   2   2  -3  134.79    4.70
   2   2  -3  126.59    5.10
  -2  -2   3  124.09    4.60
  -2  -2   3  125.09    5.30
  -2  -2   3  129.19    5.00
  -2  -2   3  138.59    4.90
  -2  -2   3  120.89    4.80
  -2  -2   3  132.59    4.70
  -2  -2   3  130.39    5.10
  -2  -2   3  131.69    4.60
  -2  -2   3  130.79    5.10
  -2  -2   3  122.19    5.30
  -2  -2   3  130.89    5.20
   1   2  -3  129.49    5.10
   1   2  -3  135.89    5.10
   1   2  -3  138.79    4.90
   1   2  -3  137.89    4.90
   1   2  -3  139.09    5.20
   1   2  -3  138.69    5.40
   1   2  -3  129.09    4.70
   1   2  -3  129.09    4.90
   1   2  -3  146.19    5.20
   1   2  -3  129.09    5.10
  -1  -2   3  141.09    5.00
  -1  -2   3  135.69    5.30
  -1  -2   3  129.09    5.00
  -1  -2   3  147.59    4.80
  -1  -2   3  136.29    5.20
  -1  -2   3  135.69    5.10
   0   2  -3  877.61   28.70
   0   2  -3  919.31   28.70
   0   2  -3  917.71   28.20
   0   2  -3  894.21   28.60
   0   2  -3  861.31   28.60
   0   2  -3  909.41   28.40
   0   2  -3  849.81   28.50
   0   2  -3  910.91   28.30
   0   2  -3  870.01   29.10
   0   2  -3  896.41   28.40
   0   2  -3  884.41   28.20
   0  -2   3  823.42   28.10
   0  -2   3  891.41   28.80
   0  -2   3  888.41   28.70
   0  -2   3  890.41   28.70
   0  -2   3  879.11   28.40
   0  -2   3  903.51   28.80
  -1   2  -3  349.27   11.70
  -1   2  -3  341.87   11.30
  -1   2  -3  356.06   11.60
  -1   2  -3  369.36   12.20
  -1   2  -3  348.17   11.60
  -1   2  -3  339.67   11.40
  -1   2  -3  348.27   11.70
  -1   2  -3  340.37   11.10
  -1   2  -3  348.77   11.30
  -1   2  -3  338.27   11.50
  -1   2  -3  340.97   11.50
   1  -2   3  350.16   11.70
   1  -2   3  339.07   11.70
   1  -2   3  358.56   11.70
   1  -2   3  322.47   11.00
   1  -2   3  337.67   12.00
   1  -2   3  362.96   11.00
   1  -2   3  335.17   11.60
  -2   2  -3 1202.98   38.00
  -2   2  -3 1168.28   38.30
  -2   2  -3 1208.58   37.90
  -2   2  -3 1200.28   38.10
  -2   2  -3 1195.58   37.70
  -2   2  -3 1161.78   38.20
  -2   2  -3 1177.28   38.30
  -2   2  -3 1239.28   37.90
   2  -2   3 1191.48   37.60
   2  -2   3 1167.58   38.60
   2  -2   3 1174.38   38.20
   2  -2   3 1161.08   38.30
   2  -2   3 1140.49   38.50
   2  -2   3 1227.08   38.40
   2  -2   3 1197.68   38.30
   2  -2   3 1182.08   38.30
  -3   2  -3  401.66   12.90
  -3   2  -3  392.76   13.10
  -3   2  -3  408.76   13.50
  -3   2  -3  386.76   13.30
  -3   2  -3  381.66   13.50
  -3   2  -3  376.56   13.60
  -3   2  -3  399.46   13.00
  -3   2  -3  384.36   13.10
   3  -2   3  394.66   13.10
   3  -2   3  392.96   12.70
   3  -2   3  375.46   13.90
   3  -2   3  396.76   13.70
   3  -2   3  405.26   13.50
   3  -2   3  399.76   13.70
   3  -2   3  377.16   13.50
  -4   2  -3   42.10    2.40
  -4   2  -3   44.10    3.00
  -4   2  -3   47.10    2.30
  -4   2  -3   42.90    2.90
  -4   2  -3   47.00    2.90
  -4   2  -3   45.10    2.70
  -4   2  -3   42.30    2.30
   4  -2   3   43.50    1.90
   4  -2   3   41.90    3.10
   4  -2   3   42.90    2.80
   4  -2   3   48.90    2.50
   4  -2   3   45.80    2.80
   4  -2   3   40.60    2.90
   4  -2   3   39.20    3.00
  -5   2  -3  133.29    6.20
  -5   2  -3  134.79    5.40
  -5   2  -3  134.59    6.00
  -5   2  -3  134.99    5.40
  -5   2  -3  137.09    6.20
  -5   2  -3  132.29    6.20
  -5   2  -3  137.89    5.60
   5  -2   3  130.39    5.60
   5  -2   3  136.59    6.50
   5  -2   3  130.49    6.30
   5  -2   3  137.49    4.90
   5  -2   3  141.39    6.10
   5  -2   3  144.89    6.40
  -6   2  -3   72.59    4.50
  -6   2  -3   74.49    3.90
  -6   2  -3   77.39    4.80
  -6   2  -3   68.39    4.20
   6  -2   3   67.29    4.70
   6  -2   3   67.69    4.80
   6  -2   3   66.69    4.50
  -7   2  -3   25.40    3.50
  -7   2  -3   25.80    3.00
  -7   2  -3   22.80    2.70
   7  -2   3   23.60    3.60
   7  -2   3   28.80    3.40
  -8   2  -3   26.60    3.90
  -8   2  -3   32.90    3.80
  -8   2  -3   28.40    3.30
   8  -2   3   35.60    4.60
  -9   2  -3   -1.50    2.20
  -9   2  -3    0.60    2.20
   9  -2   3    0.30    2.90
 -10   2  -3    2.20    2.90
  10  -2   3    1.90    3.70
  10   1  -3    1.50    1.70
  10   1  -3    2.40    3.70
 -10  -1   3   -2.50    2.30
 -10  -1   3    3.00    3.10
 -10  -1   3    2.60    3.50
 -10  -1   3   -1.10    2.00
   9   1  -3    4.20    3.50
   9   1  -3   10.10    2.10
  -9  -1   3    6.00    2.10
  -9  -1   3    6.20    3.00
  -9  -1   3   11.10    3.40
  -9  -1   3    7.00    2.60
   8   1  -3   23.20    4.20
   8   1  -3   17.90    3.00
   8   1  -3   15.20    2.30
  -8  -1   3   23.40    3.20
  -8  -1   3   18.00    2.80
  -8  -1   3   17.50    3.40
  -8  -1   3   19.20    3.40
   7   1  -3    2.10    1.40
   7   1  -3    4.40    2.00
   7   1  -3    8.10    2.30
   7   1  -3    3.60    2.50
  -7  -1   3    3.10    1.50
  -7  -1   3    5.20    2.00
  -7  -1   3    1.70    1.80
  -7  -1   3    6.30    2.10
  -7  -1   3    3.60    2.20
   6   1  -3   69.09    4.40
   6   1  -3   71.59    3.90
   6   1  -3   70.79    5.00
   6   1  -3   74.19    5.10
   6   1  -3   68.59    4.10
   6   1  -3   65.49    4.50
   6   1  -3   67.59    4.60
  -6  -1   3   77.19    4.80
  -6  -1   3   72.09    3.60
  -6  -1   3   70.69    3.80
  -6  -1   3   70.39    4.40
  -6  -1   3   82.99    5.00
  -6  -1   3   66.99    4.30
  -6  -1   3   76.39    4.60
  -6  -1   3   62.89    3.90
   5   1  -3  121.89    6.10
   5   1  -3  121.09    5.20
   5   1  -3  120.79    5.50
   5   1  -3  127.49    5.90
   5   1  -3  120.09    5.90
   5   1  -3  115.89    5.50
   5   1  -3  124.59    5.40
   5   1  -3  118.99    4.80
  -5  -1   3  129.79    5.60
  -5  -1   3  121.79    5.80
  -5  -1   3  115.19    5.20
  -5  -1   3  114.39    5.00
  -5  -1   3  128.49    5.70
  -5  -1   3  112.79    4.80
  -5  -1   3  123.39    5.60
  -5  -1   3  124.09    5.60
  -5  -1   3  120.29    5.80
   4   1  -3   14.40    1.80
   4   1  -3   18.60    2.00
   4   1  -3   19.90    1.70
   4   1  -3   20.60    2.30
   4   1  -3   18.30    2.30
   4   1  -3   18.10    1.80
   4   1  -3   18.40    1.90
  -4  -1   3   17.70    2.20
  -4  -1   3   17.60    2.20
  -4  -1   3   15.10    1.80
  -4  -1   3   19.70    2.10
  -4  -1   3   13.40    1.70
  -4  -1   3   16.10    1.50
  -4  -1   3   17.10    1.90
  -4  -1   3   17.50    1.70
  -4  -1   3   17.60    1.30
   3   1  -3 1399.96   46.20
   3   1  -3 1419.96   45.70
   3   1  -3 1459.25   46.40
   3   1  -3 1482.85   46.50
   3   1  -3 1404.86   46.00
   3   1  -3 1493.85   46.30
   3   1  -3 1413.76   46.60
   3   1  -3 1452.05   45.90
  -3  -1   3 1482.35   46.30
  -3  -1   3 1485.55   46.20
  -3  -1   3 1406.06   46.50
  -3  -1   3 1433.66   46.40
  -3  -1   3 1403.36   46.50
  -3  -1   3 1441.06   45.70
  -3  -1   3 1416.16   46.30
  -3  -1   3 1472.65   46.20
  -3  -1   3 1391.96   45.60
  -3  -1   3 1388.96   45.80
  -3  -1   3 1422.16   46.60
  -3  -1   3 1420.26   45.90
   2   1  -3   56.79    2.70
   2   1  -3   62.89    2.40
   2   1  -3   55.59    2.40
   2   1  -3   60.09    2.80
   2   1  -3   55.59    2.80
   2   1  -3   61.29    2.50
   2   1  -3   58.39    2.70
   2   1  -3   56.69    2.50
   2   1  -3   59.69    2.70
   2   1  -3   60.99    2.40
   2   1  -3   59.49    2.80
  -2  -1   3   65.49    2.70
  -2  -1   3   58.99    2.90
  -2  -1   3   58.39    2.40
  -2  -1   3   61.99    2.80
  -2  -1   3   63.19    2.60
  -2  -1   3   62.19    2.90
  -2  -1   3   56.99    2.40
  -2  -1   3   57.19    2.20
  -2  -1   3   57.69    2.70
   1   1  -3 1409.66   45.40
   1   1  -3 1493.05   45.20
   1   1  -3 1385.06   45.30
   1   1  -3 1456.35   45.30
   1   1  -3 1459.05   45.50
   1   1  -3 1459.35   45.50
   1   1  -3 1444.26   45.60
   1   1  -3 1376.66   45.20
   1   1  -3 1446.66   45.50
   1   1  -3 1421.86   45.40
   1   1  -3 1395.26   45.50
  -1  -1   3 1383.46   45.40
  -1  -1   3 1474.45   45.30
  -1  -1   3 1420.16   45.50
  -1  -1   3 1402.56   45.60
  -1  -1   3 1448.76   45.10
  -1  -1   3 1446.36   45.10
  -1  -1   3 1386.56   45.40
  -1  -1   3 1412.36   45.60
   0   1  -3  923.91   28.90
   0   1  -3  888.51   28.60
   0   1  -3  930.41   28.80
   0   1  -3  886.01   28.80
   0   1  -3  937.41   29.00
   0   1  -3  886.41   29.00
   0   1  -3  922.91   28.50
   0   1  -3  885.11   28.60
   0  -1   3  937.21   28.90
   0  -1   3  900.91   28.90
   0  -1   3  858.91   28.90
   0  -1   3  897.11   29.10
   0  -1   3  923.61   28.90
   0  -1   3  898.01   28.90
  -1   1  -3  157.18    5.00
  -1   1  -3  155.78    5.10
  -1   1  -3  148.59    5.40
  -1   1  -3  160.68    5.30
  -1   1  -3  150.28    5.30
  -1   1  -3  161.58    5.20
  -1   1  -3  159.48    5.80
  -1   1  -3  155.18    5.30
   1  -1   3  156.18    5.80
   1  -1   3  149.59    5.40
   1  -1   3  157.08    5.40
   1  -1   3  150.38    5.30
   1  -1   3  155.48    5.30
  -2   1  -3   52.39    2.40
  -2   1  -3   53.19    2.00
  -2   1  -3   54.99    2.10
  -2   1  -3   53.69    2.40
  -2   1  -3   52.59    2.30
  -2   1  -3   54.99    2.40
  -2   1  -3   53.29    2.50
  -2   1  -3   52.59    2.10
   2  -1   3   54.99    2.50
   2  -1   3   53.19    2.70
   2  -1   3   52.59    2.50
   2  -1   3   53.59    2.40
   2  -1   3   52.49    2.40
   2  -1   3   51.69    2.40
  -3   1  -3  256.27    9.30
  -3   1  -3  265.07    9.10
  -3   1  -3  259.87    9.20
  -3   1  -3  257.67    8.80
  -3   1  -3  265.27    8.90
  -3   1  -3  254.47    8.70
  -3   1  -3  260.77    9.20
   3  -1   3  256.47    8.80
   3  -1   3  261.07    9.20
   3  -1   3  251.87    9.50
   3  -1   3  268.87    9.40
   3  -1   3  264.17    9.40
   3  -1   3  263.77    9.20
  -4   1  -3  107.09    4.00
  -4   1  -3  102.29    4.60
  -4   1  -3  102.99    4.80
  -4   1  -3  104.19    4.60
  -4   1  -3  109.79    4.10
  -4   1  -3   99.19    4.70
  -4   1  -3  104.19    4.50
  -4   1  -3  101.19    4.20
   4  -1   3  104.29    4.60
   4  -1   3  106.19    4.20
   4  -1   3  101.99    4.90
   4  -1   3  104.69    4.60
   4  -1   3  107.19    4.90
   4  -1   3   99.59    4.70
  -5   1  -3  217.08    8.70
  -5   1  -3  207.38    8.00
  -5   1  -3  226.88    8.80
  -5   1  -3  221.78    8.50
  -5   1  -3  209.88    7.70
  -5   1  -3  213.48    8.50
  -5   1  -3  217.18    7.80
   5  -1   3  235.18    8.70
   5  -1   3  212.88    8.80
   5  -1   3  214.08    8.90
   5  -1   3  210.88    7.20
   5  -1   3  220.78    8.90
   5  -1   3  202.38    8.40
  -6   1  -3   86.69    5.10
  -6   1  -3   84.99    4.00
  -6   1  -3   87.79    4.80
  -6   1  -3   80.09    4.60
  -6   1  -3   86.89    4.30
  -6   1  -3   72.09    5.30
   6  -1   3   91.29    5.20
   6  -1   3   78.79    4.90
   6  -1   3   82.39    5.10
  -7   1  -3   23.20    3.00
  -7   1  -3   22.70    2.60
  -7   1  -3   17.20    3.10
   7  -1   3   24.90    3.30
   7  -1   3   21.20    3.40
  -8   1  -3   12.10    3.20
  -8   1  -3   19.70    2.90
  -8   1  -3   21.50    3.20
   8  -1   3   16.60    3.50
  -9   1  -3    6.80    2.60
  -9   1  -3    6.10    2.60
   9  -1   3    3.60    3.10
 -10   1  -3    1.10    2.80
  10  -1   3    0.90    3.20
  10   0  -3    1.80    1.80
  10   0  -3   10.20    4.20
 -10   0   3    9.50    3.60
 -10   0   3    7.90    2.90
 -10   0   3    6.60    2.50
 -10   0   3    9.30    3.70
   9   0  -3    8.80    2.10
   9   0  -3    8.00    3.50
  -9   0   3    9.50    2.70
  -9   0   3   10.90    3.40
  -9   0   3   10.40    2.60
  -9   0   3   13.80    3.90
   8   0  -3    2.40    2.10
   8   0  -3    1.70    1.50
   8   0  -3   -0.30    2.50
  -8   0   3    1.30    2.50
  -8   0   3    2.10    1.50
  -8   0   3    1.10    2.30
  -8   0   3    1.00    1.90
   7   0  -3    0.10    1.20
   7   0  -3    0.10    1.60
   7   0  -3    3.50    2.10
   7   0  -3   -2.40    2.00
  -7   0   3    3.10    2.20
  -7   0   3   -2.60    2.00
  -7   0   3    0.90    1.50
  -7   0   3    1.40    1.30
  -7   0   3    0.70    1.60
   6   0  -3   89.79    4.00
   6   0  -3   90.89    5.40
   6   0  -3   86.69    4.60
   6   0  -3   81.89    4.70
   6   0  -3   79.49    4.90
   6   0  -3   82.99    4.30
   6   0  -3   85.89    4.80
   6   0  -3   87.99    4.30
   6   0  -3   87.79    5.10
  -6   0   3   78.29    4.60
  -6   0   3   84.29    4.90
  -6   0   3   80.59    4.30
  -6   0   3   84.49    4.70
  -6   0   3   85.79    5.10
  -6   0   3   85.49    4.20
  -6   0   3   77.79    3.90
  -6   0   3   93.19    5.00
   5   0  -3   92.09    4.60
   5   0  -3   91.49    5.00
   5   0  -3   93.39    4.60
   5   0  -3   89.49    3.90
   5   0  -3   94.09    4.80
   5   0  -3   90.59    4.20
   5   0  -3   88.79    4.80
   5   0  -3   94.59    4.90
   5   0  -3   90.19    4.40
  -5   0   3   90.99    4.90
  -5   0   3   91.89    4.90
  -5   0   3   87.29    3.90
  -5   0   3   99.89    4.70
  -5   0   3   88.09    4.20
  -5   0   3   91.59    4.70
  -5   0   3   89.69    4.60
  -5   0   3   91.69    4.10
  -5   0   3   97.19    4.60
   4   0  -3   87.19    3.70
   4   0  -3   89.29    4.20
   4   0  -3   88.29    4.50
   4   0  -3   94.49    3.90
   4   0  -3   87.19    4.40
   4   0  -3   88.49    4.00
   4   0  -3   87.49    4.20
   4   0  -3   92.59    4.40
   4   0  -3   89.49    4.40
  -4   0   3   87.59    3.60
  -4   0   3   91.69    3.80
  -4   0   3   90.09    4.30
  -4   0   3   95.19    3.90
  -4   0   3   80.19    4.00
  -4   0   3  100.79    4.30
  -4   0   3   88.69    4.50
  -4   0   3   90.09    4.20
  -4   0   3   97.19    4.40
   3   0  -3  380.56   13.40
   3   0  -3  407.66   13.40
   3   0  -3  380.66   13.20
   3   0  -3  387.96   12.70
   3   0  -3  394.66   13.10
   3   0  -3  394.36   12.80
   3   0  -3  373.16   13.10
   3   0  -3  370.66   12.90
  -3   0   3  379.66   13.00
  -3   0   3  402.36   13.10
  -3   0   3  388.56   12.70
  -3   0   3  364.36   13.30
  -3   0   3  371.76   12.60
  -3   0   3  353.46   12.40
  -3   0   3  367.96   13.10
  -3   0   3  381.96   13.30
  -3   0   3  396.56   13.20
   2   0  -3  247.58    8.70
   2   0  -3  254.07    8.50
   2   0  -3  256.97    8.70
   2   0  -3  246.28    8.40
   2   0  -3  263.47    8.90
   2   0  -3  253.17    8.60
   2   0  -3  248.18    8.50
   2   0  -3  264.67    9.00
   2   0  -3  258.47    8.90
   2   0  -3  255.47    8.90
  -2   0   3  260.67    9.00
  -2   0   3  261.87    8.40
  -2   0   3  260.07    8.70
  -2   0   3  243.98    8.90
  -2   0   3  269.47    8.80
  -2   0   3  247.98    8.60
   1   0  -3 1254.57   38.10
   1   0  -3 1208.68   38.50
   1   0  -3 1195.58   38.50
   1   0  -3 1225.08   38.30
   1   0  -3 1200.68   38.30
   1   0  -3 1233.78   38.40
   1   0  -3 1220.48   38.30
   1   0  -3 1207.98   38.40
   1   0  -3 1247.98   38.30
   1   0  -3 1254.27   38.40
  -1   0   3 1176.18   38.40
  -1   0   3 1175.68   38.40
  -1   0   3 1196.48   38.20
  -1   0   3 1160.38   38.50
  -1   0   3 1214.38   38.40
  -1   0   3 1251.57   38.20
  -1   0   3 1145.59   38.60
  -1   0   3 1179.28   38.50
   0   0  -3  659.13   20.40
   0   0  -3  604.74   20.40
   0   0  -3  662.83   20.40
   0   0   3  659.03   21.00
  -1   0  -3  467.25   15.10
  -1   0  -3  475.05   14.80
  -1   0  -3  429.76   14.80
  -1   0  -3  462.85   14.80
   1   0   3  466.65   15.10
   1   0   3  482.85   14.60
   1   0   3  459.45   14.70
   1   0   3  456.25   15.30
   1   0   3  452.45   14.70
   1   0   3  467.35   14.80
  -2   0  -3  667.13   21.80
  -2   0  -3  670.53   21.90
  -2   0  -3  663.73   22.00
  -2   0  -3  687.83   22.00
  -2   0  -3  684.73   21.60
  -2   0  -3  659.83   21.60
  -2   0  -3  702.93   21.60
  -2   0  -3  686.93   21.90
   2   0   3  678.53   22.20
   2   0   3  693.33   22.00
   2   0   3  691.73   22.10
   2   0   3  666.23   21.90
   2   0   3  668.93   21.90
  -3   0  -3    2.80    0.80
  -3   0  -3    3.40    1.00
  -3   0  -3    3.30    0.50
  -3   0  -3    3.10    0.70
  -3   0  -3    2.50    0.70
  -3   0  -3    2.50    0.80
  -3   0  -3    3.00    0.70
   3   0   3    4.40    0.90
   3   0   3    3.80    0.90
   3   0   3    3.00    1.00
   3   0   3    3.70    0.80
   3   0   3    1.10    0.80
  -4   0  -3   65.59    2.70
  -4   0  -3   64.49    3.10
  -4   0  -3   61.79    3.40
  -4   0  -3   58.19    3.20
  -4   0  -3   64.79    3.30
  -4   0  -3   65.09    3.40
  -4   0  -3   62.59    3.00
  -4   0  -3   61.99    2.80
   4   0   3   65.09    3.30
   4   0   3   70.09    3.70
   4   0   3   65.39    3.60
   4   0   3   71.69    3.40
   4   0   3   64.19    3.40
  -5   0  -3   15.70    1.50
  -5   0  -3   19.30    2.20
  -5   0  -3   18.10    2.20
  -5   0  -3   15.50    2.30
  -5   0  -3   13.80    1.70
  -5   0  -3   15.00    1.90
  -5   0  -3   15.50    1.50
   5   0   3   18.00    2.10
   5   0   3   13.20    1.90
   5   0   3   21.20    2.50
   5   0   3   12.50    2.00
   5   0   3   17.90    2.10
  -6   0  -3   25.40    2.20
  -6   0  -3   22.00    2.50
  -6   0  -3   25.10    3.00
  -6   0  -3   29.50    3.00
  -6   0  -3   25.60    2.70
   6   0   3   20.90    2.80
   6   0   3   23.60    3.10
   6   0   3   24.40    2.70
  -7   0  -3    3.40    2.20
  -7   0  -3    2.50    1.70
  -7   0  -3    6.50    2.10
   7   0   3    0.60    2.20
   7   0   3    2.30    1.90
  -8   0  -3    8.70    2.60
  -8   0  -3   11.50    3.00
  -8   0  -3    7.50    2.30
   8   0   3    5.60    2.80
  -9   0  -3    1.60    2.40
  -9   0  -3    6.20    2.70
   9   0   3    3.40    3.10
 -10   0  -3    1.00    2.80
  10   0   3   -2.00    3.30
  10  -1  -3    1.70    1.90
  10  -1  -3    2.40    3.60
 -10   1   3    2.30    3.30
 -10   1   3    5.10    2.60
 -10   1   3    1.40    2.10
 -10   1   3   -1.20    2.70
   9  -1  -3    7.10    3.40
   9  -1  -3    9.20    2.10
   9  -1  -3    7.30    2.60
  -9   1   3    8.40    3.30
  -9   1   3    5.30    3.20
  -9   1   3    7.40    2.50
  -9   1   3    9.50    2.30
   8  -1  -3    8.60    1.90
   8  -1  -3    7.00    3.00
   8  -1  -3   11.60    2.70
  -8   1   3    4.70    2.50
  -8   1   3    3.90    1.90
  -8   1   3    5.50    2.60
  -8   1   3    8.00    2.10
   7  -1  -3   34.60    3.10
   7  -1  -3   38.20    3.70
   7  -1  -3   31.80    3.90
   7  -1  -3   37.70    3.90
  -7   1   3   46.20    4.50
  -7   1   3   39.20    3.40
  -7   1   3   40.30    3.20
  -7   1   3   34.90    3.90
  -7   1   3   31.50    3.30
   6  -1  -3  117.59    6.10
   6  -1  -3   91.69    5.10
   6  -1  -3  103.39    5.40
   6  -1  -3  108.59    5.40
   6  -1  -3  107.29    4.90
   6  -1  -3   97.39    5.60
   6  -1  -3  104.39    5.70
   6  -1  -3  105.29    4.60
  -6   1   3  106.39    5.20
  -6   1   3  104.89    4.60
  -6   1   3  105.89    5.70
  -6   1   3  101.69    4.80
  -6   1   3  108.79    5.80
  -6   1   3  114.29    5.00
  -6   1   3  104.69    5.40
  -6   1   3  106.69    5.60
   5  -1  -3    6.00    1.50
   5  -1  -3    2.60    1.20
   5  -1  -3    6.10    1.60
   5  -1  -3    4.50    1.60
   5  -1  -3    6.80    1.50
   5  -1  -3    6.50    1.10
   5  -1  -3    3.10    1.40
   5  -1  -3    5.00    1.20
  -5   1   3    2.90    1.10
  -5   1   3    5.60    1.20
  -5   1   3    6.50    1.20
  -5   1   3    5.10    1.60
  -5   1   3    5.20    1.80
  -5   1   3    4.70    1.30
  -5   1   3    4.80    1.60
  -5   1   3    5.90    1.10
   4  -1  -3  106.69    4.60
   4  -1  -3  111.29    4.60
   4  -1  -3  104.89    5.00
   4  -1  -3  109.69    4.20
   4  -1  -3  100.09    4.60
   4  -1  -3   98.29    4.80
   4  -1  -3  102.59    4.80
  -4   1   3  108.39    4.80
  -4   1   3   94.89    4.00
  -4   1   3  101.49    4.20
  -4   1   3  103.59    4.90
  -4   1   3  110.19    4.80
  -4   1   3  104.89    4.20
  -4   1   3   99.89    4.80
  -4   1   3  108.39    4.70
  -4   1   3  105.69    4.50
   3  -1  -3  145.99    5.90
   3  -1  -3  149.88    5.60
   3  -1  -3  150.18    5.40
   3  -1  -3  152.68    5.80
   3  -1  -3  138.79    5.20
   3  -1  -3  147.89    5.70
   3  -1  -3  139.19    5.40
   3  -1  -3  142.19    5.80
  -3   1   3  148.69    5.20
  -3   1   3  141.39    5.50
  -3   1   3  148.09    5.90
  -3   1   3  147.99    5.20
  -3   1   3  144.99    5.80
  -3   1   3  139.19    5.70
  -3   1   3  138.79    5.60
  -3   1   3  140.29    5.00
  -3   1   3  152.08    5.70
   2  -1  -3  128.69    4.90
   2  -1  -3  141.09    5.30
   2  -1  -3  139.39    4.80
   2  -1  -3  138.19    5.10
   2  -1  -3  138.59    5.00
   2  -1  -3  142.39    5.20
   2  -1  -3  138.39    4.70
   2  -1  -3  142.09    4.90
   2  -1  -3  139.09    4.80
   2  -1  -3  138.69    5.10
  -2   1   3  133.49    5.10
  -2   1   3  132.79    4.90
  -2   1   3  134.79    5.00
  -2   1   3  133.39    5.10
  -2   1   3  133.39    4.70
  -2   1   3  128.09    5.10
   1  -1  -3   38.60    1.30
   1  -1  -3   35.50    1.60
   1  -1  -3   35.70    1.60
   1  -1  -3   35.70    1.60
   1  -1  -3   37.80    1.50
   1  -1  -3   33.00    1.30
   1  -1  -3   37.40    1.70
   1  -1  -3   34.00    1.50
   1  -1  -3   37.70    1.50
  -1   1   3   34.20    1.60
  -1   1   3   34.30    1.60
  -1   1   3   34.90    1.60
  -1   1   3   33.70    1.60
  -1   1   3   32.70    1.30
  -1   1   3   36.10    1.30
  -1   1   3   34.30    1.60
   0  -1  -3 3146.29   94.99
   0  -1  -3 2929.41   94.89
   0   1   3 3117.99   95.09
   0   1   3 2979.50   94.89
   0   1   3 2931.61   94.99
   0   1   3 2796.02   94.89
   0   1   3 3084.59   94.89
  -1  -1  -3    4.90    0.50
  -1  -1  -3    5.10    0.60
  -1  -1  -3    4.70    0.40
  -1  -1  -3    4.40    0.40
  -1  -1  -3    4.40    0.60
   1   1   3    4.30    0.80
   1   1   3    4.70    0.50
   1   1   3    3.90    0.50
   1   1   3    4.80    0.50
   1   1   3    5.00    0.60
  -2  -1  -3 1311.27   40.20
  -2  -1  -3 1305.97   40.30
  -2  -1  -3 1280.67   40.60
  -2  -1  -3 1265.67   40.60
  -2  -1  -3 1256.97   40.60
  -2  -1  -3 1283.07   40.20
  -2  -1  -3 1346.07   40.80
   2   1   3 1228.48   40.60
   2   1   3 1281.37   40.80
   2   1   3 1147.69   40.60
   2   1   3 1275.27   40.70
   2   1   3 1282.87   40.50
   2   1   3 1251.77   40.70
  -3  -1  -3   18.20    1.10
  -3  -1  -3   19.00    1.40
  -3  -1  -3   19.30    1.60
  -3  -1  -3   17.90    1.40
  -3  -1  -3   14.10    1.50
  -3  -1  -3   13.60    1.30
  -3  -1  -3   13.90    1.50
   3   1   3   14.50    1.40
   3   1   3   16.60    1.70
   3   1   3   19.20    1.60
   3   1   3   19.30    1.90
   3   1   3   16.60    1.60
  -4  -1  -3   10.50    1.40
  -4  -1  -3   12.20    1.50
  -4  -1  -3   10.80    1.50
  -4  -1  -3   13.00    1.50
  -4  -1  -3    9.60    1.30
  -4  -1  -3   12.40    1.20
  -4  -1  -3   11.20    1.60
   4   1   3   10.70    1.60
   4   1   3    8.20    1.60
   4   1   3   10.50    1.50
   4   1   3   11.30    1.60
   4   1   3   10.00    1.50
  -5  -1  -3   17.80    2.30
  -5  -1  -3   14.10    1.50
  -5  -1  -3   19.40    2.40
  -5  -1  -3   19.10    2.20
  -5  -1  -3   17.40    1.90
  -5  -1  -3   18.90    1.60
  -5  -1  -3   22.60    2.30
   5   1   3   19.50    2.30
   5   1   3   19.90    2.30
   5   1   3   19.90    2.60
   5   1   3   14.70    2.20
   5   1   3   19.60    2.30
   5   1   3   21.90    1.80
  -6  -1  -3   47.40    3.00
  -6  -1  -3   55.59    4.00
  -6  -1  -3   46.30    3.50
  -6  -1  -3   47.80    3.60
  -6  -1  -3   49.30    3.40
   6   1   3   49.60    4.40
   6   1   3   48.80    4.30
   6   1   3   45.40    3.70
   6   1   3   52.89    4.50
  -7  -1  -3   -0.40    2.00
  -7  -1  -3    1.00    1.70
  -7  -1  -3    1.40    1.90
   7   1   3    0.40    1.70
   7   1   3   -0.60    2.00
  -8  -1  -3   36.80    3.70
  -8  -1  -3   46.80    4.50
   8   1   3   39.10    4.80
  -9  -1  -3   -0.30    2.40
  -9  -1  -3    0.90    2.50
   9   1   3    0.80    3.00
 -10  -1  -3    4.80    3.10
  10   1   3   -0.60    3.40
  10  -2  -3   -2.60    3.20
  10  -2  -3   -1.20    1.80
 -10   2   3   -0.10    2.00
 -10   2   3    1.80    3.40
 -10   2   3    0.70    3.40
   9  -2  -3   27.30    3.10
   9  -2  -3   25.40    3.70
   9  -2  -3   34.70    5.30
  -9   2   3   32.80    4.50
  -9   2   3   32.10    3.50
  -9   2   3   20.90    3.00
  -9   2   3   29.10    4.70
   8  -2  -3   19.70    3.70
   8  -2  -3   17.90    2.40
   8  -2  -3   16.40    2.80
  -8   2   3   18.00    3.60
  -8   2   3   15.90    2.50
  -8   2   3   18.10    3.20
  -8   2   3   23.00    2.90
   7  -2  -3   61.99    4.20
   7  -2  -3   49.80    3.50
   7  -2  -3   55.29    4.60
   7  -2  -3   60.59    5.20
  -7   2   3   56.49    3.70
  -7   2   3   51.19    3.90
  -7   2   3   48.80    3.60
  -7   2   3   49.40    4.50
  -7   2   3   62.29    5.20
   6  -2  -3  256.57   10.90
   6  -2  -3  272.77   10.30
   6  -2  -3  258.97    9.40
   6  -2  -3  241.88    9.90
   6  -2  -3  272.37    9.70
   6  -2  -3  232.38   12.50
   6  -2  -3  253.77   10.50
  -6   2   3  259.37    9.60
  -6   2   3  260.57    9.70
  -6   2   3  260.17   10.70
  -6   2   3  248.78   10.60
  -6   2   3  265.67   10.40
  -6   2   3  239.48    9.30
  -6   2   3  265.77   10.50
  -6   2   3  244.98    9.90
   5  -2  -3   -1.20    0.90
   5  -2  -3   -0.50    0.70
   5  -2  -3   -0.60    1.30
   5  -2  -3    0.30    1.10
   5  -2  -3    1.90    1.20
   5  -2  -3    0.10    1.30
   5  -2  -3    0.40    1.00
   5  -2  -3    0.70    0.90
  -5   2   3    0.50    1.40
  -5   2   3   -0.50    0.80
  -5   2   3    1.80    1.40
  -5   2   3    0.40    1.00
  -5   2   3   -0.20    1.10
  -5   2   3    0.80    1.00
  -5   2   3   -0.30    1.00
  -5   2   3   -0.30    0.70
   4  -2  -3  501.35   18.00
   4  -2  -3  522.05   17.20
   4  -2  -3  529.95   17.50
   4  -2  -3  499.75   17.10
   4  -2  -3  502.85   17.70
   4  -2  -3  498.65   17.30
   4  -2  -3  517.55   17.70
  -4   2   3  535.75   17.10
  -4   2   3  544.15   18.10
  -4   2   3  489.25   17.40
  -4   2   3  489.85   16.80
  -4   2   3  502.65   17.80
  -4   2   3  526.35   17.80
  -4   2   3  509.25   17.70
  -4   2   3  527.95   17.10
  -4   2   3  499.55   17.90
   3  -2  -3  296.07   10.60
   3  -2  -3  289.97   10.60
   3  -2  -3  307.77   10.40
   3  -2  -3  300.17   10.80
   3  -2  -3  312.87   10.20
   3  -2  -3  289.37   10.30
   3  -2  -3  291.07   10.60
   3  -2  -3  302.27   10.20
  -3   2   3  296.77   10.10
  -3   2   3  284.47   10.70
  -3   2   3  301.17    9.80
  -3   2   3  322.57    9.90
  -3   2   3  304.47   10.60
  -3   2   3  298.07   10.70
  -3   2   3  290.17   10.60
  -3   2   3  293.37   10.40
  -3   2   3  287.87   10.70
  -3   2   3  281.27   10.50
   2  -2  -3   50.09    2.10
   2  -2  -3   52.39    2.30
   2  -2  -3   47.80    2.60
   2  -2  -3   49.70    2.40
   2  -2  -3   54.39    2.60
   2  -2  -3   50.99    2.40
   2  -2  -3   52.89    2.70
   2  -2  -3   50.49    2.70
   2  -2  -3   53.69    2.20
  -2   2   3   50.89    2.40
  -2   2   3   46.90    2.50
  -2   2   3   47.10    2.70
  -2   2   3   51.99    2.40
  -2   2   3   50.89    2.60
  -2   2   3   47.50    2.10
  -2   2   3   53.19    2.60
   1  -2  -3  938.51   31.20
   1  -2  -3  941.71   31.20
   1  -2  -3  975.40   31.30
   1  -2  -3  989.70   31.30
   1  -2  -3  969.30   31.00
   1  -2  -3  984.80   31.00
   1  -2  -3  947.51   31.30
  -1   2   3 1019.90   31.40
  -1   2   3  949.40   31.30
  -1   2   3  960.40   31.40
  -1   2   3  971.30   31.00
  -1   2   3 1027.10   31.50
  -1   2   3  976.40   31.20
   0  -2  -3   93.39    3.30
   0  -2  -3   88.89    3.40
   0  -2  -3   91.39    3.10
   0  -2  -3   96.59    3.50
   0  -2  -3   92.29    3.40
   0  -2  -3   92.79    3.10
   0  -2  -3   88.59    3.10
   0   2   3   96.29    3.60
   0   2   3   87.79    3.40
   0   2   3   91.79    3.50
   0   2   3   90.19    3.40
   0   2   3   88.79    3.50
   0   2   3   89.89    3.40
  -1  -2  -3    3.60    0.80
  -1  -2  -3    2.20    0.60
  -1  -2  -3    2.60    0.40
  -1  -2  -3    3.20    0.70
  -1  -2  -3    3.60    0.80
  -1  -2  -3    3.50    0.40
   1   2   3    4.00    0.70
   1   2   3    2.50    0.70
   1   2   3    3.70    0.80
   1   2   3    2.20    0.60
  -2  -2  -3  191.88    6.80
  -2  -2  -3  192.78    6.90
  -2  -2  -3  190.48    6.90
  -2  -2  -3  195.58    6.60
  -2  -2  -3  205.68    6.70
   2   2   3  183.68    7.00
   2   2   3  201.68    7.10
   2   2   3  191.28    6.80
   2   2   3  189.58    7.00
   2   2   3  196.18    7.10
   2   2   3  192.48    6.90
  -3  -2  -3  688.83   22.50
  -3  -2  -3  712.03   22.80
  -3  -2  -3  692.13   22.60
  -3  -2  -3  725.73   23.00
  -3  -2  -3  695.83   23.00
  -3  -2  -3  689.33   22.80
   3   2   3  714.03   22.50
   3   2   3  703.23   22.80
   3   2   3  671.73   22.80
   3   2   3  685.43   23.30
   3   2   3  688.03   23.00
   3   2   3  661.73   23.00
   3   2   3  693.43   23.30
  -4  -2  -3   13.10    1.70
  -4  -2  -3   13.00    1.70
  -4  -2  -3   12.00    1.70
  -4  -2  -3   16.00    2.00
  -4  -2  -3   14.10    1.70
  -4  -2  -3   15.60    1.40
   4   2   3   17.90    2.20
   4   2   3   16.30    1.90
   4   2   3   15.10    1.80
   4   2   3   18.00    1.50
   4   2   3   18.70    2.20
   4   2   3   16.80    2.00
  -5  -2  -3  279.47   10.90
  -5  -2  -3  289.37   10.70
  -5  -2  -3  284.77   10.00
  -5  -2  -3  281.57   10.50
  -5  -2  -3  282.67   10.90
  -5  -2  -3  279.67   10.80
   5   2   3  286.07   11.30
   5   2   3  293.57   11.40
   5   2   3  289.17   11.00
  -6  -2  -3   17.30    2.50
  -6  -2  -3   21.10    2.90
  -6  -2  -3   19.30    2.40
   6   2   3   18.30    2.90
   6   2   3   21.50    2.80
   6   2   3   18.50    3.00
  -7  -2  -3   24.20    3.10
  -7  -2  -3   23.20    3.10
  -7  -2  -3   26.10    3.50
   7   2   3   25.20    3.30
   7   2   3   30.40    4.10
  -8  -2  -3    5.20    2.40
  -8  -2  -3    5.40    2.50
   8   2   3    5.30    2.90
  -9  -2  -3    0.90    2.50
  -9  -2  -3    3.40    2.90
   9   2   3    6.60    3.60
  10  -3  -3    3.10    2.00
  10  -3  -3   -3.40    3.50
 -10   3   3    6.90    3.70
 -10   3   3    1.30    2.30
 -10   3   3    1.60    3.40
   9  -3  -3    7.20    3.50
   9  -3  -3   13.40    2.50
   9  -3  -3   18.30    3.30
  -9   3   3   19.80    3.20
  -9   3   3   17.60    3.10
  -9   3   3   18.80    3.60
  -9   3   3   15.10    3.80
   8  -3  -3   10.80    2.10
   8  -3  -3    6.00    2.50
   8  -3  -3    6.80    3.20
  -8   3   3    6.90    2.10
  -8   3   3    7.30    2.30
  -8   3   3   10.00    3.00
  -8   3   3    4.30    3.00
   7  -3  -3    3.00    1.90
   7  -3  -3    3.10    2.00
   7  -3  -3    0.70    1.40
   7  -3  -3    3.00    2.50
  -7   3   3   -0.40    1.50
  -7   3   3    1.50    2.30
  -7   3   3    4.40    1.60
  -7   3   3    2.80    2.10
   6  -3  -3  212.88    8.90
   6  -3  -3  207.68    8.30
   6  -3  -3  187.58    9.10
   6  -3  -3  193.48    7.70
   6  -3  -3  198.08    8.30
   6  -3  -3  200.58    7.90
  -6   3   3  185.38    7.80
  -6   3   3  200.38    8.90
  -6   3   3  212.48    9.10
  -6   3   3  201.68    7.80
  -6   3   3  197.08    8.70
  -6   3   3  195.78    8.20
  -6   3   3  193.18    7.50
   5  -3  -3  207.28    8.60
   5  -3  -3  202.68    7.90
   5  -3  -3  184.18    8.20
   5  -3  -3  196.58    7.60
   5  -3  -3  196.48    8.30
   5  -3  -3  195.08    7.50
   5  -3  -3  206.78    8.10
  -5   3   3  207.18    7.50
  -5   3   3  196.38    8.50
  -5   3   3  185.48    7.40
  -5   3   3  207.68    8.50
  -5   3   3  207.58    8.30
  -5   3   3  194.88    7.20
  -5   3   3  187.38    8.30
  -5   3   3  190.08    7.80
   4  -3  -3  612.54   21.20
   4  -3  -3  654.73   21.10
   4  -3  -3  618.44   21.60
   4  -3  -3  663.03   21.50
   4  -3  -3  661.03   21.90
   4  -3  -3  595.74   21.60
   4  -3  -3  645.14   21.10
  -4   3   3  609.44   20.60
  -4   3   3  658.83   21.80
  -4   3   3  639.54   21.00
  -4   3   3  644.64   20.80
  -4   3   3  616.04   21.30
  -4   3   3  605.14   21.80
  -4   3   3  643.54   21.70
  -4   3   3  621.14   21.90
   3  -3  -3 1124.09   37.30
   3  -3  -3 1164.08   37.00
   3  -3  -3 1105.69   37.20
   3  -3  -3 1158.38   37.30
   3  -3  -3 1138.89   36.90
   3  -3  -3 1178.48   36.80
   3  -3  -3 1145.39   36.80
  -3   3   3 1129.39   37.00
  -3   3   3 1143.69   37.40
  -3   3   3 1153.38   37.30
  -3   3   3 1140.79   37.60
  -3   3   3 1091.59   36.20
  -3   3   3 1132.49   37.50
  -3   3   3 1106.49   36.70
  -3   3   3 1163.28   37.30
   2  -3  -3  776.72   25.20
   2  -3  -3  783.22   25.30
   2  -3  -3  780.22   25.00
   2  -3  -3  793.12   25.60
   2  -3  -3  787.62   25.50
   2  -3  -3  790.12   25.50
   2  -3  -3  773.62   25.00
  -2   3   3  787.32   24.80
  -2   3   3  664.63   25.20
  -2   3   3  761.32   25.30
  -2   3   3  744.43   25.50
  -2   3   3  744.23   25.60
  -2   3   3  826.42   25.40
  -2   3   3  774.22   25.40
  -2   3   3  763.52   25.50
  -2   3   3  806.62   25.60
   1  -3  -3  344.07   12.10
   1  -3  -3  369.96   11.90
   1  -3  -3  346.37   12.10
   1  -3  -3  345.67   11.50
   1  -3  -3  360.06   11.70
   1  -3  -3  357.36   12.10
   1  -3  -3  330.07   11.80
  -1   3   3  354.06   12.10
  -1   3   3  338.87   12.10
  -1   3   3  350.16   11.30
  -1   3   3  355.56   12.20
  -1   3   3  370.46   12.10
  -1   3   3  362.56   11.80
  -1   3   3  355.76   12.40
  -1   3   3  356.86   12.10
  -1   3   3  356.06   12.00
   0  -3  -3   70.29    2.80
   0  -3  -3   68.69    2.60
   0  -3  -3   68.49    3.00
   0  -3  -3   69.09    3.10
   0  -3  -3   71.39    3.00
   0  -3  -3   70.59    2.70
   0  -3  -3   73.69    3.10
   0  -3  -3   66.39    2.70
   0   3   3   67.69    3.10
   0   3   3   70.19    3.30
   0   3   3   67.69    2.80
   0   3   3   68.79    2.60
   0   3   3   67.79    3.10
   0   3   3   64.79    3.10
   0   3   3   72.89    3.20
  -1  -3  -3    1.10    0.60
  -1  -3  -3    2.10    0.80
  -1  -3  -3    1.00    0.80
  -1  -3  -3    0.70    0.60
  -1  -3  -3    0.40    0.50
   1   3   3   -0.60    0.80
   1   3   3    0.40    0.60
   1   3   3    0.70    0.70
   1   3   3    1.30    0.80
   1   3   3    0.80    0.70
   1   3   3   -0.20    0.60
  -2  -3  -3   34.20    1.90
  -2  -3  -3   33.40    1.70
  -2  -3  -3   31.60    2.00
  -2  -3  -3   33.00    2.20
  -2  -3  -3   32.90    2.10
   2   3   3   36.10    2.40
   2   3   3   33.70    2.40
   2   3   3   32.70    2.00
   2   3   3   30.50    2.00
   2   3   3   30.90    1.90
   2   3   3   32.20    2.30
  -3  -3  -3   25.00    1.90
  -3  -3  -3   21.80    1.60
  -3  -3  -3   22.80    2.20
  -3  -3  -3   24.10    2.20
  -3  -3  -3   26.10    2.20
  -3  -3  -3   28.90    2.20
   3   3   3   22.00    2.30
   3   3   3   21.20    2.10
   3   3   3   24.80    1.90
   3   3   3   22.20    2.00
   3   3   3   24.20    2.20
   3   3   3   23.60    1.60
   3   3   3   25.80    2.40
  -4  -3  -3    0.70    0.60
  -4  -3  -3    0.90    1.20
  -4  -3  -3    0.50    0.80
  -4  -3  -3    1.90    1.30
  -4  -3  -3    0.40    1.10
  -4  -3  -3    1.70    1.10
  -4  -3  -3    0.20    1.20
   4   3   3    0.40    1.00
   4   3   3    0.40    1.20
   4   3   3   -1.30    1.00
   4   3   3    0.50    0.80
   4   3   3   -0.10    1.20
   4   3   3    2.10    1.50
  -5  -3  -3   41.00    3.50
  -5  -3  -3   38.30    3.50
  -5  -3  -3   42.60    3.50
  -5  -3  -3   36.90    2.50
  -5  -3  -3   38.20    3.20
  -5  -3  -3   41.90    3.40
   5   3   3   42.40    4.00
   5   3   3   44.50    3.50
   5   3   3   34.90    3.40
  -6  -3  -3    3.80    1.70
  -6  -3  -3    7.80    2.20
  -6  -3  -3    3.40    2.00
   6   3   3    7.00    2.50
   6   3   3    7.30    2.30
   6   3   3    4.50    1.90
  -7  -3  -3    1.40    1.90
  -7  -3  -3    1.50    2.00
  -7  -3  -3    5.60    2.90
   7   3   3    5.10    2.40
   7   3   3   -0.60    2.40
  -8  -3  -3    7.60    2.70
  -8  -3  -3    9.60    3.00
   8   3   3   12.00    3.50
  -9  -3  -3    2.90    2.90
  -9  -3  -3   -2.10    2.30
   9   3   3    1.80    3.40
  10  -4  -3   -1.50    3.50
  10  -4  -3   -0.10    1.90
 -10   4   3   -4.00    2.80
 -10   4   3    4.00    3.70
 -10   4   3    1.00    2.10
   9  -4  -3   17.40    3.20
   9  -4  -3    7.90    2.20
   9  -4  -3   13.20    4.00
  -9   4   3   17.30    4.30
  -9   4   3   16.90    3.90
  -9   4   3   10.00    2.50
   8  -4  -3   -3.20    2.50
   8  -4  -3    0.20    1.60
   8  -4  -3    2.60    2.20
  -8   4   3    0.70    1.60
  -8   4   3    2.20    2.50
  -8   4   3    4.80    2.70
  -8   4   3    1.00    1.80
   7  -4  -3   32.60    2.90
   7  -4  -3   38.20    4.60
   7  -4  -3   28.60    3.40
   7  -4  -3   23.10    3.20
  -7   4   3   29.30    4.00
  -7   4   3   33.40    3.10
  -7   4   3   29.80    3.00
  -7   4   3   44.40    4.50
   6  -4  -3   31.00    3.10
   6  -4  -3   35.80    2.90
   6  -4  -3   36.90    3.70
   6  -4  -3   33.50    4.10
  -6   4   3   33.10    3.20
  -6   4   3   37.80    3.10
  -6   4   3   37.60    4.10
  -6   4   3   40.40    4.10
  -6   4   3   31.20    2.80
  -6   4   3   32.00    2.40
   5  -4  -3    3.10    2.00
   5  -4  -3    5.40    1.60
   5  -4  -3    5.10    1.80
   5  -4  -3    5.00    1.30
   5  -4  -3    5.50    1.80
   5  -4  -3    6.10    1.40
   5  -4  -3    5.20    1.60
  -5   4   3    3.90    1.70
  -5   4   3    4.30    1.60
  -5   4   3    4.90    1.70
  -5   4   3    1.10    1.60
  -5   4   3    5.00    1.20
  -5   4   3    5.10    1.60
  -5   4   3    5.70    1.50
  -5   4   3    5.80    1.10
   4  -4  -3  100.39    4.30
   4  -4  -3   84.19    4.00
   4  -4  -3   88.49    4.40
   4  -4  -3   85.99    4.80
   4  -4  -3   87.79    4.90
   4  -4  -3   92.29    4.80
   4  -4  -3   90.69    4.50
  -4   4   3   88.59    4.70
  -4   4   3   92.59    4.90
  -4   4   3   93.19    4.20
  -4   4   3   86.89    3.60
  -4   4   3   96.19    4.60
  -4   4   3   95.39    5.00
   3  -4  -3  367.06   12.60
   3  -4  -3  355.66   12.80
   3  -4  -3  348.97   12.80
   3  -4  -3  348.77   12.10
   3  -4  -3  351.26   12.40
   3  -4  -3  370.56   14.80
  -3   4   3  336.37   11.40
  -3   4   3  365.66   12.90
  -3   4   3  341.07   12.60
  -3   4   3  365.66   12.90
  -3   4   3  334.77   12.80
  -3   4   3  369.16   13.10
  -3   4   3  332.07   12.00
  -3   4   3  358.46   12.90
   2  -4  -3    0.00    0.60
   2  -4  -3    0.80    0.80
   2  -4  -3    1.50    1.10
   2  -4  -3    1.00    0.80
   2  -4  -3    0.10    0.90
   2  -4  -3    0.90    0.90
  -2   4   3    0.40    0.80
  -2   4   3    1.60    1.10
  -2   4   3    0.50    1.00
  -2   4   3    2.40    1.00
  -2   4   3    1.30    0.70
  -2   4   3    1.00    0.90
  -2   4   3    1.10    0.90
  -2   4   3    2.00    1.10
   1  -4  -3  992.20   32.40
   1  -4  -3  996.80   32.40
   1  -4  -3  994.10   32.10
   1  -4  -3 1050.99   32.10
   1  -4  -3  985.80   32.40
   1  -4  -3  969.30   31.80
   1  -4  -3  973.90   32.10
   1  -4  -3  963.90   32.10
  -1   4   3  956.20   32.80
  -1   4   3  971.70   32.50
  -1   4   3 1040.30   32.20
  -1   4   3  974.20   32.40
  -1   4   3 1021.40   32.50
  -1   4   3  963.50   31.50
   0  -4  -3  106.19    4.00
   0  -4  -3   97.19    4.30
   0  -4  -3  105.69    3.80
   0  -4  -3  101.99    4.40
   0  -4  -3  104.49    4.00
   0  -4  -3   97.99    4.40
   0  -4  -3  102.29    4.50
   0  -4  -3  102.19    4.10
   0   4   3  107.49    4.90
   0   4   3  101.39    4.00
   0   4   3  105.39    4.50
   0   4   3  106.99    4.50
   0   4   3   99.89    4.50
   0   4   3   98.49    4.50
   0   4   3   95.79    4.50
  -1  -4  -3  148.79    5.70
  -1  -4  -3  144.69    6.00
  -1  -4  -3  149.59    5.90
  -1  -4  -3  139.09    5.30
  -1  -4  -3  140.59    5.30
  -1  -4  -3  150.38    5.50
   1   4   3  141.79    6.10
   1   4   3  145.99    6.10
   1   4   3  137.29    6.00
   1   4   3  145.79    5.80
   1   4   3  148.49    5.80
  -2  -4  -3  107.69    4.20
  -2  -4  -3  106.79    4.90
  -2  -4  -3  103.79    4.70
  -2  -4  -3  109.69    4.70
  -2  -4  -3  105.69    4.40
   2   4   3  104.69    4.10
   2   4   3   98.39    5.10
   2   4   3  105.49    4.90
   2   4   3  113.99    4.50
   2   4   3  105.49    4.60
   2   4   3  108.39    5.10
   2   4   3  107.09    4.60
  -3  -4  -3   65.99    3.70
  -3  -4  -3   72.39    3.80
  -3  -4  -3   71.39    3.20
  -3  -4  -3   76.89    3.90
  -3  -4  -3   71.29    2.90
  -3  -4  -3   69.59    3.70
   3   4   3   73.99    4.20
   3   4   3   70.49    4.10
   3   4   3   68.79    4.10
   3   4   3   69.49    3.70
   3   4   3   71.19    3.60
   3   4   3   69.09    3.30
   3   4   3   67.29    3.20
  -4  -4  -3   19.80    1.80
  -4  -4  -3   16.20    2.20
  -4  -4  -3   11.10    1.90
  -4  -4  -3   17.10    2.20
  -4  -4  -3   17.90    2.30
  -4  -4  -3   16.50    2.40
   4   4   3   14.10    2.20
   4   4   3   16.40    1.60
   4   4   3   19.90    2.70
   4   4   3   11.00    2.20
  -5  -4  -3   60.79    4.20
  -5  -4  -3   58.89    4.30
  -5  -4  -3   67.39    4.20
   5   4   3   71.19    4.60
   5   4   3   63.99    4.60
   5   4   3   64.59    4.60
  -6  -4  -3   10.30    2.40
  -6  -4  -3    8.40    2.20
  -6  -4  -3   11.50    2.60
   6   4   3    7.70    2.80
   6   4   3   13.20    2.70
   6   4   3   12.30    2.80
  -7  -4  -3    9.70    2.70
  -7  -4  -3   11.20    2.50
   7   4   3    7.10    3.10
  -8  -4  -3   15.30    3.60
  -8  -4  -3    8.40    2.90
  -8  -4  -3    7.40    3.20
   8   4   3    2.80    3.30
  -9  -4  -3    0.80    3.00
   9   4   3    2.60    3.50
  10  -5  -3   16.00    2.60
  10  -5  -3   17.20    4.50
 -10   5   3   12.90    2.90
 -10   5   3   10.20    4.20
 -10   5   3   15.60    4.10
   9  -5  -3   11.80    2.50
   9  -5  -3    8.10    3.90
   9  -5  -3   10.80    3.00
  -9   5   3   18.90    4.10
  -9   5   3   20.40    4.50
  -9   5   3   12.70    2.50
   8  -5  -3   18.50    2.60
   8  -5  -3   18.10    3.90
   8  -5  -3   16.60    3.20
  -8   5   3   17.40    2.60
  -8   5   3   20.50    3.90
  -8   5   3   20.30    3.90
   7  -5  -3   20.40    4.00
   7  -5  -3   20.50    2.60
   7  -5  -3   25.50    3.50
  -7   5   3   18.90    2.40
  -7   5   3   22.00    3.70
  -7   5   3   21.80    2.70
  -7   5   3   19.70    3.70
   6  -5  -3    0.90    1.70
   6  -5  -3    1.20    1.30
   6  -5  -3    0.70    2.30
   6  -5  -3    2.70    1.90
  -6   5   3    2.80    1.60
  -6   5   3    4.20    2.30
  -6   5   3    2.40    2.00
  -6   5   3    2.50    1.30
   5  -5  -3   10.90    2.00
   5  -5  -3   10.80    1.80
   5  -5  -3    9.60    2.20
   5  -5  -3    6.50    1.40
   5  -5  -3    9.70    2.50
  -5   5   3    4.60    2.00
  -5   5   3    6.30    2.20
  -5   5   3    8.20    1.70
  -5   5   3    8.30    1.90
  -5   5   3    6.10    2.00
  -5   5   3   10.00    1.40
   4  -5  -3    1.40    1.30
   4  -5  -3    1.30    0.80
   4  -5  -3    5.40    1.70
   4  -5  -3    1.50    1.60
   4  -5  -3    4.20    1.30
   4  -5  -3    1.40    1.40
  -4   5   3    5.40    1.70
  -4   5   3    2.40    1.80
  -4   5   3    2.20    1.70
  -4   5   3    2.40    1.50
  -4   5   3    3.50    0.90
  -4   5   3    4.60    1.50
  -4   5   3    4.90    1.40
   3  -5  -3  335.77   12.20
   3  -5  -3  332.47   12.30
   3  -5  -3  317.77   11.90
   3  -5  -3  341.37   11.80
   3  -5  -3  325.57   11.40
   3  -5  -3  330.87   12.20
   3  -5  -3  294.97   11.60
  -3   5   3  316.97   12.20
  -3   5   3  334.97   12.40
  -3   5   3  332.67   12.10
  -3   5   3  314.47   11.30
  -3   5   3  314.27   12.30
   2  -5  -3    2.30    1.20
   2  -5  -3    0.40    1.30
   2  -5  -3    0.60    1.00
   2  -5  -3    2.10    1.10
   2  -5  -3    1.00    0.70
   2  -5  -3    0.30    0.90
   2  -5  -3    2.50    1.30
  -2   5   3    1.30    1.20
  -2   5   3    1.90    1.10
  -2   5   3    0.90    1.40
  -2   5   3    4.10    1.40
  -2   5   3    1.20    1.00
  -2   5   3    0.40    0.90
  -2   5   3    2.20    0.80
   1  -5  -3  391.06   13.80
   1  -5  -3  378.36   13.00
   1  -5  -3  383.06   13.40
   1  -5  -3  392.06   13.40
   1  -5  -3  386.96   13.70
   1  -5  -3  388.26   13.80
   1  -5  -3  365.66   13.30
   1  -5  -3  390.06   13.60
  -1   5   3  397.36   13.50
  -1   5   3  398.76   14.40
  -1   5   3  391.26   14.00
  -1   5   3  384.46   13.90
  -1   5   3  395.66   12.80
  -1   5   3  370.76   13.70
   0  -5  -3  157.28    6.20
   0  -5  -3  147.59    5.80
   0  -5  -3  149.29    5.50
   0  -5  -3  144.09    5.90
   0  -5  -3  152.48    6.30
   0  -5  -3  156.88    6.40
   0   5   3  136.49    6.20
   0   5   3  150.28    5.10
   0   5   3  144.49    6.70
   0   5   3  151.58    6.40
   0   5   3  144.79    6.20
   0   5   3  144.39    5.70
   0   5   3  154.98    6.50
  -1  -5  -3   98.99    3.90
  -1  -5  -3  106.59    4.80
  -1  -5  -3   97.69    4.20
  -1  -5  -3  100.69    4.40
  -1  -5  -3   96.99    4.90
  -1  -5  -3   95.99    4.60
   1   5   3   94.89    4.70
   1   5   3  101.59    5.10
   1   5   3  101.99    4.60
   1   5   3   93.09    4.90
  -2  -5  -3  245.78    9.30
  -2  -5  -3  252.37    9.70
  -2  -5  -3  235.18    8.50
  -2  -5  -3  243.58    9.10
  -2  -5  -3  244.48    8.90
  -2  -5  -3  250.67    9.50
   2   5   3  240.58    9.30
   2   5   3  240.58    8.60
   2   5   3  241.78    9.00
   2   5   3  245.98    9.30
   2   5   3  230.48    9.80
   2   5   3  260.17    9.90
   2   5   3  259.87   10.10
   2   5   3  246.88    8.80
  -3  -5  -3   -2.40    1.30
  -3  -5  -3    0.20    1.00
  -3  -5  -3    1.50    1.40
  -3  -5  -3   -0.60    1.10
  -3  -5  -3    0.50    0.90
  -3  -5  -3   -0.70    1.30
   3   5   3    1.20    1.50
   3   5   3    0.50    1.30
   3   5   3    0.60    0.90
   3   5   3    1.00    1.00
   3   5   3    1.50    1.80
  -4  -5  -3   34.50    3.20
  -4  -5  -3   53.89    4.30
  -4  -5  -3   42.00    3.70
  -4  -5  -3   39.80    2.90
   4   5   3   37.10    3.80
   4   5   3   38.60    2.50
   4   5   3   48.60    3.90
   4   5   3   43.30    3.90
  -5  -5  -3   13.00    2.50
  -5  -5  -3   21.00    3.00
  -5  -5  -3   22.40    3.00
   5   5   3   22.10    3.20
   5   5   3   16.30    3.10
   5   5   3   29.90    3.70
  -6  -5  -3    0.30    2.10
  -6  -5  -3   -0.20    2.00
   6   5   3    1.40    2.30
   6   5   3    0.30    2.00
  -7  -5  -3    2.80    2.50
  -7  -5  -3   -2.00    2.00
   7   5   3    2.40    2.70
  -8  -5  -3   -1.20    2.50
  -8  -5  -3   -0.20    2.60
   8   5   3    3.20    3.20
   9  -6  -3   12.40    2.50
   9  -6  -3   11.70    4.20
  -9   6   3   12.00    4.20
  -9   6   3    8.70    2.50
  -9   6   3   16.30    4.10
   8  -6  -3   -2.10    3.10
   8  -6  -3   -1.20    1.60
   8  -6  -3    2.30    2.50
  -8   6   3    1.20    1.70
  -8   6   3    2.00    2.90
  -8   6   3    2.90    3.10
   7  -6  -3   17.80    2.40
   7  -6  -3   10.30    2.70
   7  -6  -3   12.60    3.60
  -7   6   3   21.20    3.70
  -7   6   3   16.60    3.60
   6  -6  -3   41.90    4.10
   6  -6  -3   47.10    5.00
   6  -6  -3   45.00    3.30
   6  -6  -3   41.90    3.90
  -6   6   3   42.70    4.50
  -6   6   3   45.90    4.90
  -6   6   3   39.80    3.40
   5  -6  -3   14.40    2.80
   5  -6  -3   16.20    2.60
   5  -6  -3   23.80    2.50
   5  -6  -3   19.20    3.30
   5  -6  -3   16.90    2.60
  -5   6   3   21.20    3.40
  -5   6   3   22.60    2.60
  -5   6   3   17.10    3.10
  -5   6   3   17.30    1.70
   4  -6  -3  151.68    6.20
   4  -6  -3  146.99    7.20
   4  -6  -3  156.78    7.20
   4  -6  -3  144.59    6.70
   4  -6  -3  150.68    7.40
  -4   6   3  158.98    5.50
  -4   6   3  141.09    7.90
  -4   6   3  148.89    7.50
  -4   6   3  149.19    5.40
  -4   6   3  148.99    7.10
  -4   6   3  132.49    7.00
  -4   6   3  164.58    7.50
  -4   6   3  144.09    6.20
   3  -6  -3  211.58    8.70
   3  -6  -3  199.08    7.90
   3  -6  -3  199.18    7.50
   3  -6  -3  210.18    8.50
   3  -6  -3  180.78    7.80
   3  -6  -3  201.18    8.30
   3  -6  -3  195.18    8.10
  -3   6   3  189.88    8.40
  -3   6   3  190.98    8.50
  -3   6   3  177.28    7.30
  -3   6   3  174.38    8.30
  -3   6   3  185.88    8.10
  -3   6   3  200.98    8.70
   2  -6  -3    0.40    1.30
   2  -6  -3    1.40    0.90
   2  -6  -3   -0.90    1.20
   2  -6  -3    3.60    1.60
   2  -6  -3    3.20    1.20
   2  -6  -3   -0.10    1.20
   2  -6  -3    1.70    1.30
  -2   6   3    1.20    1.50
  -2   6   3    0.30    0.90
  -2   6   3   -0.20    1.50
  -2   6   3    0.20    0.50
  -2   6   3   -0.20    1.60
  -2   6   3    0.40    1.20
   1  -6  -3  199.28    7.80
   1  -6  -3  201.88    7.30
   1  -6  -3  190.88    8.00
   1  -6  -3  191.88    7.70
   1  -6  -3  205.88    8.30
   1  -6  -3  193.38    7.70
   1  -6  -3  205.08    8.20
  -1   6   3  206.68    7.90
  -1   6   3  181.98    8.00
  -1   6   3  170.58    9.10
  -1   6   3  198.28    8.40
  -1   6   3  198.08    8.80
  -1   6   3  200.18    7.00
  -1   6   3  199.78    8.40
   0  -6  -3  190.48    7.90
   0  -6  -3  194.38    8.20
   0  -6  -3  188.08    7.50
   0  -6  -3  192.28    7.10
   0  -6  -3  201.38    8.10
   0  -6  -3  182.38    7.40
   0   6   3  199.18    8.30
   0   6   3  198.98    8.70
   0   6   3  190.08    8.20
   0   6   3  191.28    6.70
   0   6   3  191.88    8.00
   0   6   3  190.48    7.50
  -1  -6  -3    2.10    1.30
  -1  -6  -3    1.30    1.50
  -1  -6  -3    1.00    1.10
  -1  -6  -3    2.50    1.30
  -1  -6  -3    1.30    1.50
  -1  -6  -3    0.40    0.70
   1   6   3    1.70    1.50
   1   6   3    0.90    1.40
   1   6   3    0.30    1.30
  -2  -6  -3  241.48    9.80
  -2  -6  -3  245.78    9.40
  -2  -6  -3  248.98    9.20
  -2  -6  -3  267.87   10.40
  -2  -6  -3  261.77    9.80
  -2  -6  -3  268.77   10.20
   2   6   3  266.07   10.60
   2   6   3  252.67    9.20
   2   6   3  245.68   10.50
   2   6   3  260.87   10.80
   2   6   3  245.88    9.50
  -3  -6  -3   99.79    5.60
  -3  -6  -3  105.99    5.40
  -3  -6  -3  103.49    5.80
  -3  -6  -3   92.69    4.80
   3   6   3  100.29    4.60
   3   6   3  102.19    6.00
   3   6   3  105.89    5.90
   3   6   3  106.39    6.10
  -4  -6  -3   65.29    4.80
  -4  -6  -3   66.89    4.00
  -4  -6  -3   64.59    4.50
   4   6   3   66.29    5.60
   4   6   3   68.69    5.20
   4   6   3   65.69    4.90
  -5  -6  -3   30.30    3.50
  -5  -6  -3   29.80    3.20
  -5  -6  -3   39.70    4.30
  -5  -6  -3   42.00    4.40
   5   6   3   37.60    4.40
   5   6   3   28.70    3.80
  -6  -6  -3    3.30    2.10
  -6  -6  -3    0.70    2.20
  -6  -6  -3    1.70    2.30
   6   6   3   -3.00    2.40
  -7  -6  -3    1.70    2.50
  -7  -6  -3    1.00    2.50
   7   6   3    1.70    3.00
  -8  -6  -3   10.60    3.20
   8   6   3    8.90    3.70
   9  -7  -3   13.40    4.60
   9  -7  -3   13.30    2.70
  -9   7   3   14.10    4.40
  -9   7   3    4.10    3.60
   8  -7  -3    1.20    2.40
   8  -7  -3    0.90    1.80
   8  -7  -3   -6.10    3.10
  -8   7   3    1.30    3.30
  -8   7   3    2.60    3.40
   7  -7  -3   33.60    3.40
   7  -7  -3   32.60    3.80
   7  -7  -3   29.20    5.00
  -7   7   3   32.10    5.00
  -7   7   3   34.10    4.90
   6  -7  -3   34.20    3.70
   6  -7  -3   33.10    3.00
   6  -7  -3   33.60    4.60
  -6   7   3   43.50    4.80
  -6   7   3   37.90    4.80
   5  -7  -3   18.50    2.90
   5  -7  -3   14.60    2.20
   5  -7  -3   12.30    3.00
   5  -7  -3   14.80    3.20
  -5   7   3   16.60    1.60
  -5   7   3    9.30    2.90
  -5   7   3   20.20    1.80
  -5   7   3   13.10    3.10
   4  -7  -3   81.89    4.30
   4  -7  -3   76.49    4.90
   4  -7  -3   81.19    5.30
   4  -7  -3   87.49    5.50
   4  -7  -3   82.09    5.20
  -4   7   3   77.19    5.30
  -4   7   3   88.29    5.80
   3  -7  -3   21.20    3.20
   3  -7  -3   27.60    3.10
   3  -7  -3   19.60    2.50
   3  -7  -3   24.20    3.10
   3  -7  -3   29.10    3.10
   3  -7  -3   23.00    2.20
  -3   7   3   21.40    3.30
  -3   7   3   23.20    3.20
   2  -7  -3   44.50    4.20
   2  -7  -3   41.00    3.70
   2  -7  -3   45.80    2.80
   2  -7  -3   46.00    3.60
   2  -7  -3   41.80    3.40
   2  -7  -3   47.40    3.40
  -2   7   3   45.80    4.50
  -2   7   3   42.40    4.20
  -2   7   3   48.10    4.30
  -2   7   3   50.29    4.00
   1  -7  -3   80.49    4.70
   1  -7  -3   82.49    4.90
   1  -7  -3   73.59    4.30
   1  -7  -3   69.49    4.20
  -1   7   3   67.89    4.80
  -1   7   3   75.69    4.90
  -1   7   3   86.49    5.40
  -1   7   3   68.79    4.90
   0  -7  -3    4.90    1.50
   0  -7  -3    4.20    1.90
   0  -7  -3    7.10    1.80
   0  -7  -3   10.40    2.20
   0   7   3    5.00    2.20
   0   7   3    5.80    2.10
   0   7   3   10.00    2.30
   0   7   3    6.10    2.00
  -1  -7  -3   22.00    2.90
  -1  -7  -3   23.30    3.20
  -1  -7  -3   27.90    2.70
  -1  -7  -3   21.90    2.60
   1   7   3   22.10    3.30
   1   7   3   21.00    3.10
   1   7   3   20.70    3.00
   1   7   3   19.20    3.00
  -2  -7  -3   33.20    3.30
  -2  -7  -3   31.20    2.80
  -2  -7  -3   36.50    3.80
   2   7   3   31.60    3.70
   2   7   3   36.60    3.00
   2   7   3   31.10    3.70
   2   7   3   23.30    3.20
  -3  -7  -3    1.40    1.80
  -3  -7  -3    1.20    1.50
  -3  -7  -3    3.00    2.30
   3   7   3    2.00    2.20
   3   7   3    2.30    1.40
   3   7   3   -0.30    1.80
  -4  -7  -3    0.20    2.10
  -4  -7  -3    3.40    1.70
  -4  -7  -3    0.20    2.30
   4   7   3   -0.60    2.00
   4   7   3   -0.40    2.30
  -5  -7  -3   25.90    3.90
  -5  -7  -3   20.40    2.80
  -5  -7  -3   25.40    3.60
   5   7   3   36.50    4.90
  -6  -7  -3   -0.20    2.60
  -6  -7  -3    2.70    2.80
   6   7   3   -0.30    3.10
  -7  -7  -3    2.10    2.80
  -7  -7  -3    7.60    3.10
   7   7   3    9.20    3.80
   8  -8  -3    5.00    3.70
   8  -8  -3   -0.40    2.70
   8  -8  -3   -1.50    1.90
  -8   8   3   -5.40    2.80
  -8   8   3   -2.90    3.10
   7  -8  -3    9.00    3.60
   7  -8  -3    7.90    2.20
   7  -8  -3   12.30    3.20
  -7   8   3   12.40    3.90
  -7   8   3   15.80    3.80
   6  -8  -3   35.60    4.10
   6  -8  -3   38.50    5.20
   6  -8  -3   42.00    3.50
  -6   8   3   27.00    4.60
  -6   8   3   41.00    5.30
  -6   8   3   32.50    2.20
   5  -8  -3    7.50    4.00
   5  -8  -3    4.70    2.70
   5  -8  -3    3.10    1.60
   5  -8  -3    1.50    2.30
  -5   8   3    2.60    2.60
  -5   8   3    5.00    3.00
   4  -8  -3  157.68    8.40
   4  -8  -3  159.58    6.90
   4  -8  -3  178.28    8.40
   4  -8  -3  167.18    7.80
  -4   8   3  145.19    8.40
  -4   8   3  153.28    8.30
   3  -8  -3   62.39    4.70
   3  -8  -3   63.19    4.60
   3  -8  -3   80.49    5.40
  -3   8   3   70.19    5.70
  -3   8   3   71.79    6.00
   2  -8  -3   82.49    5.70
   2  -8  -3   81.09    5.00
   2  -8  -3   79.19    4.80
   2  -8  -3   78.69    4.80
  -2   8   3   86.19    5.50
  -2   8   3   76.29    5.60
   1  -8  -3  108.79    5.70
   1  -8  -3  111.29    5.80
   1  -8  -3  116.89    6.40
  -1   8   3  103.99    6.40
  -1   8   3  107.69    6.60
  -1   8   3  122.29    6.70
   0  -8  -3    1.60    1.80
   0  -8  -3    1.10    2.10
   0  -8  -3    1.10    2.30
   0  -8  -3    1.70    1.70
   0   8   3    4.30    2.00
   0   8   3    3.00    2.10
   0   8   3    3.10    2.30
  -1  -8  -3   22.70    3.00
  -1  -8  -3   26.70    3.70
  -1  -8  -3   20.50    2.70
   1   8   3   26.20    3.90
   1   8   3   21.40    3.40
   1   8   3   21.90    3.50
  -2  -8  -3   56.79    4.00
  -2  -8  -3   66.59    4.50
  -2  -8  -3   61.89    5.40
   2   8   3   57.19    3.90
   2   8   3   51.49    5.00
   2   8   3   49.50    5.30
  -3  -8  -3    4.00    2.40
  -3  -8  -3    1.80    1.80
  -3  -8  -3    2.30    2.40
   3   8   3   -0.20    2.30
  -4  -8  -3   46.10    4.50
   4   8   3   45.80    5.20
  -5  -8  -3    3.60    2.80
  -5  -8  -3    6.30    2.90
   5   8   3    6.90    3.40
  -6  -8  -3    1.70    2.90
  -6  -8  -3    3.30    2.90
   6   8   3   -0.50    3.20
   7  -9  -3    5.40    4.20
   7  -9  -3    7.90    2.30
   7  -9  -3    0.30    2.80
  -7   9   3   -0.50    2.90
  -7   9   3    7.70    3.90
   6  -9  -3    4.90    3.00
   6  -9  -3    5.80    2.10
   6  -9  -3   11.30    3.80
  -6   9   3    5.60    3.50
  -6   9   3    5.80    3.30
   5  -9  -3    2.10    2.60
   5  -9  -3    2.40    1.90
   5  -9  -3    1.30    3.30
  -5   9   3    1.40    2.70
  -5   9   3    4.90    3.40
   4  -9  -3   34.30    4.10
   4  -9  -3   33.70    5.00
  -4   9   3   34.20    4.70
  -4   9   3   31.90    4.70
   3  -9  -3   42.70    4.80
   3  -9  -3   26.40    3.60
  -3   9   3   37.20    4.50
  -3   9   3   32.30    4.40
   2  -9  -3   22.80    3.40
   2  -9  -3   16.90    3.40
  -2   9   3   13.60    3.50
  -2   9   3   18.80    3.50
   1  -9  -3   95.99    6.30
   1  -9  -3   98.69    5.80
  -1   9   3  106.89    7.00
  -1   9   3   92.29    6.50
   0  -9  -3    0.30    2.10
   0  -9  -3    1.70    2.60
   0   9   3    1.20    2.50
   0   9   3    2.70    2.70
  -1  -9  -3   51.09    4.70
  -1  -9  -3   50.39    5.10
   1   9   3   46.60    5.20
   1   9   3   48.20    5.50
  -2  -9  -3   18.60    3.30
   2   9   3   22.20    4.00
   2   9   3   20.30    4.00
  -3  -9  -3    7.60    2.80
   3   9   3    0.50    2.60
  -4  -9  -3   -1.20    2.40
   4   9   3    8.80    3.30
  -5  -9  -3    0.60    2.90
   5   9   3   -0.80    3.30
   6 -10  -3    0.30    2.00
   6 -10  -3    3.80    3.10
   6 -10  -3   -1.00    3.40
  -6  10   3    5.80    3.60
  -6  10   3    3.30    3.90
   5 -10  -3    2.30    2.90
   5 -10  -3    3.70    3.50
  -5  10   3   -3.10    3.30
  -5  10   3    0.50    3.00
   4 -10  -3   16.90    3.60
   4 -10  -3   27.00    5.00
  -4  10   3   13.00    4.10
  -4  10   3   12.20    3.90
   3 -10  -3   12.20    4.00
   3 -10  -3   12.50    3.30
  -3  10   3   20.40    4.30
  -3  10   3   17.10    3.90
   2 -10  -3   -0.50    2.50
   2 -10  -3    2.20    3.10
  -2  10   3   -0.80    2.90
  -2  10   3   -4.60    2.40
   1 -10  -3   51.79    4.80
   1 -10  -3   49.30    5.80
  -1  10   3   42.20    5.50
  -1  10   3   43.10    5.40
   0 -10  -3   20.20    4.10
   0 -10  -3   23.90    3.70
   0  10   3   15.30    3.70
   0  10   3   15.60    3.80
  -1 -10  -3   18.70    3.30
   1  10   3   17.40    4.00
   1  10   3   13.90    4.10
  -2 -10  -3   25.80    4.10
   2  10   3   26.70    4.40
   2  10   3   26.40    4.80
  -3 -10  -3   -1.00    2.60
   3  10   3   -0.10    3.30
   3  10   3   -1.90    3.00
  -4 -10  -3    8.20    3.20
   4  10   3   13.00    4.00
   4 -11  -3    1.40    3.60
   4 -11  -3    2.30    3.00
  -4  11   3    0.60    3.60
  -4  11   3   -0.20    3.30
   3 -11  -3    1.40    2.90
   3 -11  -3   -2.70    3.50
  -3  11   3    3.20    3.50
  -3  11   3    1.60    3.60
   2 -11  -3    0.60    2.90
  -2  11   3    0.80    3.40
  -2  11   3   -0.90    3.10
   1 -11  -3   24.50    4.30
  -1  11   3   26.10    5.10
  -1  11   3   14.80    4.30
   0 -11  -3    0.70    2.70
   0  11   3   -0.10    3.40
   0  11   3   -2.20    3.00
  -1 -11  -3   12.10    3.50
   1  11   3    0.00    3.40
   1  11   3    9.00    3.70
  -2 -11  -3    2.60    2.90
   2  11   3    5.60    3.50
   2  11   3    0.20    4.00
   0  12  -4   14.10    4.70
   0  12  -4    5.80    3.90
   0 -12   4   14.40    4.20
   0 -12   4    1.90    3.60
  -1  12  -4   -2.20    3.70
  -1  12  -4   -2.00    2.40
  -1  12  -4   -3.90    3.20
   1 -12   4    0.70    1.80
   1 -12   4   -2.60    3.70
   3  11  -4   10.80    4.10
   3  11  -4    9.40    3.10
  -3 -11   4    7.10    3.60
  -3 -11   4    8.30    2.50
  -3 -11   4   16.50    4.00
   2  11  -4    5.40    2.80
   2  11  -4   -2.00    3.30
  -2 -11   4    2.40    3.30
  -2 -11   4    0.00    1.90
  -2 -11   4   -3.00    3.10
   1  11  -4   25.00    4.70
   1  11  -4   20.20    3.50
   1  11  -4   20.90    4.60
  -1 -11   4   20.00    4.40
  -1 -11   4   25.20    3.00
  -1 -11   4   22.20    4.20
   0  11  -4   14.00    3.10
   0  11  -4   10.90    4.10
   0  11  -4   10.40    3.50
   0  11  -4   12.60    3.70
   0 -11   4    8.30    3.70
   0 -11   4   13.10    2.30
   0 -11   4   11.80    4.10
  -1  11  -4    3.00    3.20
  -1  11  -4    8.00    2.70
  -1  11  -4    7.90    2.80
  -1  11  -4   10.60    4.20
   1 -11   4    4.00    3.20
   1 -11   4    2.30    1.80
  -2  11  -4   17.10    3.00
  -2  11  -4   19.50    4.80
  -2  11  -4   18.10    4.70
  -2  11  -4   21.90    3.70
   2 -11   4   22.10    2.40
   2 -11   4   17.40    4.60
  -3  11  -4    5.60    2.80
  -3  11  -4    3.10    3.80
   3 -11   4    1.30    1.50
   3 -11   4    2.30    3.40
  -4  11  -4    2.40    2.70
  -4  11  -4    2.50    4.10
   4 -11   4    6.10    3.60
   5  10  -4    0.70    3.60
   5  10  -4   -3.10    2.30
  -5 -10   4   -2.70    3.40
  -5 -10   4   -0.80    2.10
  -5 -10   4   -3.30    3.50
   4  10  -4   17.00    3.20
   4  10  -4   14.50    4.40
  -4 -10   4   17.70    4.00
  -4 -10   4   16.50    4.10
  -4 -10   4   16.30    2.70
   3  10  -4   11.30    3.70
   3  10  -4   13.90    3.10
  -3 -10   4   16.70    3.80
  -3 -10   4   10.10    2.30
  -3 -10   4   19.10    4.10
   2  10  -4   -1.10    2.80
   2  10  -4   -0.90    2.30
   2  10  -4   -3.10    2.10
  -2 -10   4   -0.70    1.60
  -2 -10   4   -0.30    3.00
  -2 -10   4    2.20    2.70
   1  10  -4   26.80    3.60
   1  10  -4   18.10    3.20
   1  10  -4   16.20    3.90
  -1 -10   4   19.90    2.50
  -1 -10   4   17.90    3.80
  -1 -10   4   22.60    4.10
   0  10  -4   40.40    5.40
   0  10  -4   47.70    4.50
   0  10  -4   58.99    4.70
   0  10  -4   46.50    5.60
   0 -10   4   47.00    5.50
   0 -10   4   56.79    5.80
   0 -10   4   58.49    3.80
  -1  10  -4    0.10    2.70
  -1  10  -4    4.90    3.20
  -1  10  -4   -1.80    2.00
  -1  10  -4   -1.40    1.90
   1 -10   4    1.20    2.50
   1 -10   4   -0.80    2.60
   1 -10   4    1.10    1.40
  -2  10  -4   71.19    7.00
  -2  10  -4   67.69    6.80
  -2  10  -4   57.09    5.00
   2 -10   4   64.69    3.70
   2 -10   4   57.29    6.10
  -3  10  -4   10.00    3.90
  -3  10  -4   20.00    4.40
  -3  10  -4   12.70    3.00
   3 -10   4   18.60    1.90
   3 -10   4   16.40    4.50
  -4  10  -4   -0.30    2.90
  -4  10  -4   -0.20    2.50
   4 -10   4    0.80    3.50
  -5  10  -4   30.30    5.50
  -5  10  -4   22.70    3.90
   5 -10   4   26.80    5.40
  -6  10  -4    8.00    4.30
  -6  10  -4   10.30    3.40
   6 -10   4    7.50    4.20
   6   9  -4    4.70    2.50
   6   9  -4    7.10    4.10
  -6  -9   4    8.50    4.00
  -6  -9   4   10.40    4.20
  -6  -9   4    8.30    2.40
   5   9  -4   -0.90    2.20
   5   9  -4   -2.80    3.00
  -5  -9   4    1.10    3.00
  -5  -9   4   -2.50    2.70
  -5  -9   4   -0.80    1.90
  -5  -9   4   -0.40    2.60
   4   9  -4    7.80    2.60
   4   9  -4    7.10    3.20
  -4  -9   4   11.70    3.40
  -4  -9   4    8.10    3.30
  -4  -9   4    6.40    2.00
  -4  -9   4    8.60    2.60
   3   9  -4   12.70    3.10
   3   9  -4   21.50    4.10
   3   9  -4   10.50    2.70
  -3  -9   4   18.80    3.00
  -3  -9   4   19.90    3.90
  -3  -9   4   17.70    2.40
  -3  -9   4   17.00    3.90
   2   9  -4    2.40    2.10
   2   9  -4    6.20    2.60
   2   9  -4    6.60    2.90
  -2  -9   4    1.40    2.50
  -2  -9   4    8.00    3.00
  -2  -9   4    3.30    1.60
  -2  -9   4    5.10    2.30
   1   9  -4   72.49    6.30
   1   9  -4   76.49    5.00
   1   9  -4   71.49    5.40
  -1  -9   4   84.59    5.90
  -1  -9   4   77.59    4.90
  -1  -9   4   78.99    5.80
  -1  -9   4   71.29    4.10
   0   9  -4   40.30    4.00
   0   9  -4   39.00    3.70
   0   9  -4   37.60    4.80
   0   9  -4   35.70    4.60
   0  -9   4   35.20    3.50
   0  -9   4   44.90    4.90
   0  -9   4   39.00    2.90
   0  -9   4   42.40    4.70
  -1   9  -4   18.80    3.80
  -1   9  -4    9.60    3.40
  -1   9  -4   17.50    2.80
   1  -9   4   20.40    3.60
   1  -9   4   14.50    1.80
   1  -9   4   15.50    2.70
   1  -9   4   16.40    3.50
  -2   9  -4   30.20    4.40
  -2   9  -4   35.40    4.60
  -2   9  -4   29.50    3.40
   2  -9   4   31.80    2.40
   2  -9   4   29.50    4.40
  -3   9  -4   33.20    3.80
  -3   9  -4   25.10    4.40
  -3   9  -4   24.00    4.60
   3  -9   4   19.00    3.90
   3  -9   4   28.00    2.20
   3  -9   4   24.20    1.90
  -4   9  -4    3.40    3.10
  -4   9  -4   -1.70    2.30
  -4   9  -4   -2.10    2.20
   4  -9   4    0.10    3.00
  -5   9  -4   48.70    5.90
  -5   9  -4   40.80    3.90
  -5   9  -4   43.50    4.50
   5  -9   4   51.09    5.80
  -6   9  -4    4.80    3.90
  -6   9  -4    5.10    2.80
   6  -9   4    7.80    3.80
  -7   9  -4   23.70    3.90
  -7   9  -4   13.80    4.70
   7  -9   4   16.60    4.60
   7   8  -4   -0.30    2.20
   7   8  -4    2.20    3.80
  -7  -8   4   -0.70    3.30
  -7  -8   4    1.70    2.10
  -7  -8   4   -5.00    3.30
   6   8  -4   12.50    2.80
   6   8  -4   12.80    4.00
  -6  -8   4    5.90    3.60
  -6  -8   4   14.50    2.50
  -6  -8   4   13.60    3.20
  -6  -8   4   18.10    4.20
   5   8  -4    2.40    2.20
   5   8  -4    0.40    2.90
   5   8  -4    9.00    2.90
  -5  -8   4    1.60    3.00
  -5  -8   4    1.20    3.10
  -5  -8   4    1.50    2.30
  -5  -8   4    4.90    1.90
   4   8  -4   41.40    4.30
   4   8  -4   35.10    3.80
   4   8  -4   44.40    5.20
  -4  -8   4   50.69    5.30
  -4  -8   4   47.90    4.20
  -4  -8   4   43.20    4.80
  -4  -8   4   40.20    3.40
   3   8  -4   36.20    3.80
   3   8  -4   39.50    4.90
   3   8  -4   36.20    3.60
  -3  -8   4   37.40    3.10
  -3  -8   4   34.20    3.60
  -3  -8   4   39.60    4.70
  -3  -8   4   33.70    4.30
   2   8  -4   28.50    4.20
   2   8  -4   25.50    5.10
   2   8  -4   26.60    3.10
   2   8  -4   24.10    3.20
  -2  -8   4   21.80    2.80
  -2  -8   4   22.80    2.30
  -2  -8   4   23.70    3.50
  -2  -8   4   24.70    3.60
   1   8  -4   22.20    3.30
   1   8  -4   21.20    3.40
   1   8  -4   28.40    3.10
   1   8  -4   29.60    3.00
  -1  -8   4   29.80    3.80
  -1  -8   4   22.50    3.40
  -1  -8   4   22.30    2.20
  -1  -8   4   23.30    2.80
   0   8  -4   17.30    2.40
   0   8  -4   14.40    2.60
   0   8  -4   19.70    3.10
   0   8  -4   20.10    3.40
   0  -8   4   17.80    3.20
   0  -8   4   16.50    3.20
   0  -8   4   13.90    1.70
   0  -8   4   15.50    2.40
  -1   8  -4    0.90    1.70
  -1   8  -4    2.50    1.90
  -1   8  -4    0.50    2.10
  -1   8  -4    0.90    2.30
   1  -8   4    0.90    1.60
   1  -8   4    2.20    2.20
   1  -8   4    1.30    1.00
   1  -8   4    2.10    2.40
   1  -8   4    1.20    1.00
  -2   8  -4   67.09    5.00
  -2   8  -4   71.49    4.50
  -2   8  -4   70.29    6.10
  -2   8  -4   70.49    5.90
   2  -8   4   73.59    6.00
   2  -8   4   69.69    4.30
   2  -8   4   73.39    3.30
   2  -8   4   74.49    3.30
  -3   8  -4    5.40    2.10
  -3   8  -4    3.00    2.40
  -3   8  -4    8.00    2.90
  -3   8  -4    7.70    2.00
  -3   8  -4    3.20    2.10
   3  -8   4    6.90    1.10
   3  -8   4    6.10    1.00
   3  -8   4    4.80    2.90
  -4   8  -4   17.00    3.80
  -4   8  -4   12.60    2.60
  -4   8  -4   11.70    2.30
  -4   8  -4    8.10    2.80
  -4   8  -4   14.30    3.00
   4  -8   4   14.70    3.20
  -5   8  -4   11.40    3.90
  -5   8  -4   11.90    3.60
  -5   8  -4   11.10    2.80
  -5   8  -4   13.10    3.00
   5  -8   4   10.70    3.30
  -6   8  -4   -1.30    2.20
  -6   8  -4    3.90    3.60
   6  -8   4   -1.30    2.40
  -7   8  -4   -1.20    2.50
  -7   8  -4   -0.80    3.30
   7  -8   4   -4.70    3.10
  -8   8  -4    6.50    3.30
   8  -8   4    8.60    7.80
   8   7  -4   -0.50    2.00
   8   7  -4   -1.70    3.50
  -8  -7   4   -1.20    2.00
  -8  -7   4    2.80    3.60
  -8  -7   4    5.80    3.50
   7   7  -4   16.30    4.50
   7   7  -4   11.30    2.60
  -7  -7   4   17.90    4.10
  -7  -7   4   18.90    3.50
  -7  -7   4   17.60    4.30
  -7  -7   4   12.80    2.50
   6   7  -4    6.70    2.40
   6   7  -4    3.30    2.70
   6   7  -4   12.30    3.40
  -6  -7   4    4.50    2.40
  -6  -7   4    7.10    3.20
  -6  -7   4    5.80    2.00
  -6  -7   4    8.20    3.40
   5   7  -4    8.30    2.30
   5   7  -4    5.20    2.80
   5   7  -4    6.70    2.50
  -5  -7   4    7.60    1.90
  -5  -7   4    6.70    2.80
  -5  -7   4    7.60    2.70
  -5  -7   4    6.90    2.50
   4   7  -4   39.70    4.70
   4   7  -4   44.20    4.00
   4   7  -4   42.90    3.70
  -4  -7   4   32.20    2.90
  -4  -7   4   40.50    4.60
  -4  -7   4   38.30    4.30
  -4  -7   4   39.50    3.70
   3   7  -4   55.69    5.40
   3   7  -4   55.99    4.30
   3   7  -4   57.99    4.10
   3   7  -4   61.19    5.20
  -3  -7   4   59.69    5.20
  -3  -7   4   50.99    4.80
  -3  -7   4   58.49    3.40
  -3  -7   4   71.69    4.30
   2   7  -4    3.00    1.80
   2   7  -4    7.20    2.10
   2   7  -4    7.30    2.50
   2   7  -4    4.90    1.90
   2   7  -4    3.60    1.60
  -2  -7   4    3.40    1.80
  -2  -7   4    7.60    2.50
  -2  -7   4    4.10    1.30
  -2  -7   4    5.40    2.20
   1   7  -4  431.16   16.10
   1   7  -4  439.56   16.30
   1   7  -4  419.26   15.00
   1   7  -4  429.06   16.40
   1   7  -4  416.86   15.20
  -1  -7   4  431.36   14.40
  -1  -7   4  422.16   16.00
  -1  -7   4  431.66   15.80
  -1  -7   4  400.06   14.50
  -1  -7   4  397.66   16.30
  -1  -7   4  424.76   15.00
   0   7  -4   13.10    2.40
   0   7  -4   14.30    2.70
   0   7  -4   16.10    2.60
   0   7  -4   17.70    2.30
   0   7  -4   15.40    2.80
   0  -7   4   17.70    1.70
   0  -7   4   18.60    3.00
   0  -7   4   15.30    2.20
   0  -7   4   15.90    1.70
   0  -7   4   20.20    3.00
   0  -7   4   17.20    2.70
  -1   7  -4  339.67   12.90
  -1   7  -4  318.47   13.40
  -1   7  -4  337.67   13.30
  -1   7  -4  310.47   11.90
  -1   7  -4  325.97   13.20
   1  -7   4  342.37   13.30
   1  -7   4  322.47   11.20
   1  -7   4  329.17   12.80
   1  -7   4  331.27   13.00
   1  -7   4  313.97   11.80
   1  -7   4  316.57   11.10
  -2   7  -4   29.40    3.70
  -2   7  -4   28.20    2.80
  -2   7  -4   21.90    2.80
  -2   7  -4   19.30    3.20
  -2   7  -4   23.60    2.40
  -2   7  -4   22.30    3.40
   2  -7   4   26.10    1.70
   2  -7   4   26.70    3.60
   2  -7   4   21.90    3.20
   2  -7   4   24.80    1.70
   2  -7   4   23.40    2.40
  -3   7  -4   13.40    2.70
  -3   7  -4   13.10    2.20
  -3   7  -4   19.30    3.40
  -3   7  -4   15.20    2.00
  -3   7  -4   13.90    2.70
   3  -7   4   14.50    2.90
   3  -7   4   15.90    2.10
   3  -7   4   15.20    3.10
  -4   7  -4    0.70    1.40
  -4   7  -4   -1.90    2.10
  -4   7  -4    0.20    1.80
  -4   7  -4   -2.70    1.50
  -4   7  -4    1.30    2.40
   4  -7   4    6.60    2.60
  -5   7  -4    7.40    3.00
  -5   7  -4   11.80    2.90
  -5   7  -4   11.20    2.50
  -5   7  -4    5.50    2.30
   5  -7   4   14.80    3.50
  -6   7  -4   12.10    2.60
  -6   7  -4   14.30    3.10
  -6   7  -4    9.00    3.60
   6  -7   4    8.80    3.60
  -7   7  -4   18.10    3.30
  -7   7  -4   14.50    4.10
   7  -7   4   11.20    3.70
  -8   7  -4    4.20    2.80
   8  -7   4    2.40    3.90
   8   6  -4    1.90    3.40
   8   6  -4    0.70    2.10
   8   6  -4   -0.80    3.50
  -8  -6   4    2.40    2.60
  -8  -6   4   -0.40    2.90
  -8  -6   4    1.40    2.10
  -8  -6   4   -1.60    3.10
   7   6  -4    4.00    2.20
   7   6  -4    7.60    3.40
   7   6  -4   10.60    4.00
  -7  -6   4    9.20    3.30
  -7  -6   4    3.70    2.90
  -7  -6   4    8.60    2.70
  -7  -6   4    5.30    2.10
   6   6  -4   33.10    4.50
   6   6  -4   28.00    3.20
   6   6  -4   24.90    3.50
  -6  -6   4   30.20    3.50
  -6  -6   4   27.60    3.30
  -6  -6   4   30.90    3.10
  -6  -6   4   19.40    3.60
  -6  -6   4   26.50    4.20
   5   6  -4    1.30    1.80
   5   6  -4   -0.90    2.10
   5   6  -4    0.80    2.00
  -5  -6   4    2.20    1.30
  -5  -6   4   -0.70    1.70
  -5  -6   4    2.00    2.30
  -5  -6   4    1.70    2.30
   4   6  -4   76.19    4.50
   4   6  -4   81.39    5.30
   4   6  -4   72.69    5.40
   4   6  -4   85.69    4.80
  -4  -6   4   74.49    5.30
  -4  -6   4   70.09    4.80
  -4  -6   4   74.09    4.90
  -4  -6   4   75.19    3.90
  -4  -6   4   75.29    4.60
   3   6  -4  134.59    7.00
   3   6  -4  123.39    5.80
   3   6  -4  133.69    6.10
   3   6  -4  130.29    6.70
  -3  -6   4  128.09    5.30
  -3  -6   4  113.49    6.30
  -3  -6   4  122.19    6.80
  -3  -6   4  123.09    6.50
  -3  -6   4  121.89    6.30
  -3  -6   4  116.79    6.50
  -3  -6   4  135.29    6.00
   2   6  -4   23.90    2.60
   2   6  -4   24.20    3.30
   2   6  -4   23.80    2.50
   2   6  -4   16.30    2.50
   2   6  -4   24.50    2.90
  -2  -6   4   20.80    2.30
  -2  -6   4   23.70    3.00
  -2  -6   4   20.90    3.00
  -2  -6   4   25.50    3.20
  -2  -6   4   20.40    1.90
  -2  -6   4   27.50    3.10
  -2  -6   4   24.00    2.00
   1   6  -4  232.88    9.60
   1   6  -4  223.08    8.70
   1   6  -4  221.88    9.20
   1   6  -4  197.38    9.10
   1   6  -4  224.28    9.70
  -1  -6   4  218.68    9.40
  -1  -6   4  226.48    7.90
  -1  -6   4  217.08    9.50
  -1  -6   4  228.08    9.20
  -1  -6   4  211.18    8.00
  -1  -6   4  235.78    8.60
  -1  -6   4  227.78    9.40
   0   6  -4  178.68    8.00
   0   6  -4  165.38    8.10
   0   6  -4  172.68    7.70
   0   6  -4  164.58    7.00
   0   6  -4  179.28    7.20
   0   6  -4  178.08    7.70
   0  -6   4  186.78    6.50
   0  -6   4  171.18    6.50
   0  -6   4  177.08    7.60
   0  -6   4  176.28    7.00
   0  -6   4  189.78    8.10
   0  -6   4  194.28    8.20
  -1   6  -4   49.40    4.40
  -1   6  -4   52.09    3.10
  -1   6  -4   62.09    3.90
  -1   6  -4   52.19    3.20
  -1   6  -4   53.79    3.30
  -1   6  -4   48.00    3.70
  -1   6  -4   47.40    4.10
  -1   6  -4   50.39    4.20
   1  -6   4   52.19    4.00
   1  -6   4   58.19    2.50
   1  -6   4   58.69    4.20
   1  -6   4   54.49    2.50
   1  -6   4   48.00    3.10
   1  -6   4   56.79    3.90
  -2   6  -4  514.35   19.10
  -2   6  -4  488.85   18.00
  -2   6  -4  471.55   17.90
  -2   6  -4  505.85   18.50
  -2   6  -4  524.75   18.30
  -2   6  -4  502.65   17.40
  -2   6  -4  495.55   17.40
  -2   6  -4  505.15   18.40
   2  -6   4  491.95   18.50
   2  -6   4  514.35   17.20
   2  -6   4  516.15   18.60
   2  -6   4  552.54   16.30
   2  -6   4  445.66   18.60
   2  -6   4  507.65   18.70
   2  -6   4  505.55   16.30
  -3   6  -4   19.20    2.70
  -3   6  -4   19.50    3.10
  -3   6  -4   15.60    2.50
  -3   6  -4   20.10    3.00
  -3   6  -4   14.50    2.00
  -3   6  -4   18.30    2.10
   3  -6   4   18.10    3.00
   3  -6   4   16.80    2.90
   3  -6   4   16.90    2.80
   3  -6   4   18.00    2.60
   3  -6   4   22.50    2.10
  -4   6  -4  135.09    6.40
  -4   6  -4  133.19    5.90
  -4   6  -4  120.89    6.50
  -4   6  -4  124.19    5.80
  -4   6  -4  129.39    6.80
   4  -6   4   92.49    6.10
   4  -6   4  123.09    8.60
   4  -6   4  134.19    6.90
   4  -6   4  141.49    7.90
  -5   6  -4  102.49    5.20
  -5   6  -4  104.59    6.40
  -5   6  -4   93.09    5.70
  -5   6  -4  107.89    6.20
   5  -6   4   91.79    6.60
   5  -6   4   97.59    6.30
  -6   6  -4   -0.30    2.40
  -6   6  -4    0.40    1.80
  -6   6  -4    1.90    1.80
   6  -6   4    2.30    2.70
  -7   6  -4   14.40    3.00
  -7   6  -4   12.50    2.80
  -7   6  -4   14.40    3.50
   7  -6   4   13.10    3.90
  -8   6  -4    6.90    2.70
   8  -6   4   10.20    4.00
  -9   6  -4    0.50    2.80
   9  -6   4    1.30    3.90
   9   5  -4    6.00    3.90
   9   5  -4    3.60    2.10
  -9  -5   4    3.10    3.60
  -9  -5   4    5.30    2.40
  -9  -5   4    2.10    3.40
   8   5  -4    0.30    1.90
   8   5  -4    1.20    3.30
  -8  -5   4    1.20    2.00
  -8  -5   4    4.50    3.20
  -8  -5   4    0.00    2.60
  -8  -5   4    0.10    2.90
   7   5  -4   16.70    2.70
   7   5  -4   16.80    3.80
   7   5  -4   15.80    3.00
  -7  -5   4   14.80    3.10
  -7  -5   4   19.50    3.60
  -7  -5   4   18.30    2.60
  -7  -5   4   21.80    3.60
   6   5  -4   53.19    4.50
   6   5  -4   52.39    5.60
   6   5  -4   50.49    4.00
  -6  -5   4   57.89    3.70
  -6  -5   4   59.49    5.10
  -6  -5   4   61.29    5.40
  -6  -5   4   46.50    4.20
   5   5  -4    1.20    1.50
   5   5  -4    1.70    1.90
   5   5  -4    1.00    1.80
   5   5  -4    1.50    2.30
   5   5  -4    3.30    2.00
  -5  -5   4    1.80    1.80
  -5  -5   4   -0.10    2.00
  -5  -5   4    1.10    1.80
  -5  -5   4    4.80    2.10
  -5  -5   4    2.20    1.20
   4   5  -4  278.17   10.30
   4   5  -4  270.97   10.30
   4   5  -4  262.97   11.10
   4   5  -4  262.37   11.00
  -4  -5   4  252.57   10.80
  -4  -5   4  259.87   10.70
  -4  -5   4  263.67   10.80
  -4  -5   4  257.27   10.20
  -4  -5   4  286.17    9.80
   3   5  -4   34.10    2.70
   3   5  -4   41.30    3.40
   3   5  -4   38.30    3.10
   3   5  -4   40.10    3.60
   3   5  -4   38.30    2.50
   3   5  -4   44.30    3.80
   3   5  -4   32.40    3.60
  -3  -5   4   37.10    3.60
  -3  -5   4   32.80    3.30
  -3  -5   4   36.80    3.00
  -3  -5   4   39.80    2.40
  -3  -5   4   44.90    3.90
  -3  -5   4   38.00    3.20
  -3  -5   4   40.60    2.30
  -3  -5   4   42.60    3.70
   2   5  -4  137.49    6.20
   2   5  -4  122.49    6.20
   2   5  -4  134.69    5.40
   2   5  -4  138.89    5.80
   2   5  -4  125.09    5.50
   2   5  -4  126.69    6.20
   2   5  -4  129.19    5.50
  -2  -5   4  138.69    6.10
  -2  -5   4  128.19    5.10
  -2  -5   4  137.89    5.70
  -2  -5   4  121.49    6.10
  -2  -5   4  139.39    5.20
  -2  -5   4  141.69    6.50
  -2  -5   4  133.79    6.50
  -2  -5   4  137.99    6.10
   1   5  -4  135.19    6.40
   1   5  -4  138.69    6.80
   1   5  -4  139.09    5.90
   1   5  -4  143.39    5.90
   1   5  -4  150.88    6.70
   1   5  -4  141.59    6.30
  -1  -5   4  149.88    5.80
  -1  -5   4  147.09    5.30
  -1  -5   4  135.19    6.60
  -1  -5   4  142.39    5.40
  -1  -5   4  158.78    6.50
  -1  -5   4  158.28    6.80
   0   5  -4    7.30    1.30
   0   5  -4    4.80    1.40
   0   5  -4    6.90    1.80
   0   5  -4    8.30    1.60
   0   5  -4    5.70    1.30
   0   5  -4    4.10    1.40
   0  -5   4    7.30    1.70
   0  -5   4    5.90    0.80
   0  -5   4    6.50    0.90
   0  -5   4    5.30    1.50
   0  -5   4    6.60    1.20
   0  -5   4    5.00    1.60
  -1   5  -4   17.30    1.90
  -1   5  -4   19.90    2.50
  -1   5  -4   14.20    2.00
  -1   5  -4   18.20    1.80
  -1   5  -4   23.10    2.00
  -1   5  -4   17.90    2.10
  -1   5  -4   21.50    2.60
   1  -5   4   13.70    2.10
   1  -5   4   21.90    1.10
   1  -5   4   17.00    2.20
   1  -5   4   21.60    1.90
   1  -5   4   17.90    2.40
  -2   5  -4  160.78    6.90
  -2   5  -4  155.88    6.90
  -2   5  -4  163.18    7.20
  -2   5  -4  163.98    6.40
  -2   5  -4  167.98    7.20
  -2   5  -4  169.88    6.50
  -2   5  -4  158.18    6.40
   2  -5   4  162.68    7.50
   2  -5   4  158.98    7.50
   2  -5   4  162.58    7.20
   2  -5   4  173.98    7.40
   2  -5   4  156.58    6.20
  -3   5  -4   35.30    2.40
  -3   5  -4   38.10    2.80
  -3   5  -4   44.40    3.60
  -3   5  -4   27.00    2.40
  -3   5  -4   32.10    2.90
  -3   5  -4   39.50    3.60
  -3   5  -4   34.70    3.30
   3  -5   4   36.40    2.30
   3  -5   4   36.20    3.70
   3  -5   4   36.50    3.40
   3  -5   4   42.10    3.40
  -4   5  -4  128.89    6.50
  -4   5  -4  126.29    5.60
  -4   5  -4  139.19    6.60
  -4   5  -4  126.59    5.60
  -4   5  -4  130.69    6.20
  -4   5  -4  131.59    6.70
   4  -5   4  135.99    5.20
   4  -5   4  134.99    6.50
   4  -5   4  133.89    6.70
   4  -5   4  130.99    6.70
   4  -5   4  138.09    7.00
  -5   5  -4   10.60    2.20
  -5   5  -4   12.10    2.60
  -5   5  -4   15.80    2.80
  -5   5  -4   11.70    1.90
   5  -5   4   10.90    2.80
   5  -5   4   11.90    2.40
   5  -5   4   12.10    2.80
   5  -5   4   10.50    2.40
  -6   5  -4    2.00    2.30
  -6   5  -4    6.10    2.00
  -6   5  -4    7.20    2.70
  -6   5  -4    5.10    1.90
   6  -5   4    1.50    2.00
   6  -5   4    2.00    2.40
  -7   5  -4    1.40    2.30
  -7   5  -4    4.10    2.10
  -7   5  -4    1.80    2.00
   7  -5   4    2.40    2.80
  -8   5  -4    3.90    2.40
  -8   5  -4    2.60    2.30
   8  -5   4   -2.70    2.90
  -9   5  -4   -0.10    2.60
   9  -5   4    0.30    3.40
   9   4  -4    4.80    3.70
   9   4  -4   -0.30    2.00
  -9  -4   4   -1.90    3.10
  -9  -4   4    1.70    2.80
  -9  -4   4    0.30    3.40
  -9  -4   4    0.80    2.10
   8   4  -4   -0.70    1.80
   8   4  -4    0.50    2.10
   8   4  -4    0.00    2.80
  -8  -4   4    0.60    2.70
  -8  -4   4   -3.50    2.70
  -8  -4   4   -1.50    2.30
  -8  -4   4    1.80    1.90
   7   4  -4   11.30    3.30
   7   4  -4   11.10    2.70
   7   4  -4   11.40    2.20
  -7  -4   4   15.70    2.80
  -7  -4   4   14.60    3.20
  -7  -4   4   15.30    3.40
  -7  -4   4   14.10    2.30
   6   4  -4   42.50    4.90
   6   4  -4   34.80    3.20
   6   4  -4   45.10    4.40
   6   4  -4   42.60    3.70
  -6  -4   4   31.50    2.90
  -6  -4   4   44.20    4.20
  -6  -4   4   38.80    4.30
  -6  -4   4   43.10    4.20
  -6  -4   4   37.80    3.60
   5   4  -4   18.60    2.60
   5   4  -4   20.60    2.90
   5   4  -4   16.50    3.00
   5   4  -4   15.30    2.20
  -5  -4   4   13.20    2.50
  -5  -4   4   10.60    2.10
  -5  -4   4   15.40    2.40
  -5  -4   4   15.00    1.80
  -5  -4   4   19.80    2.80
   4   4  -4  250.07   10.00
   4   4  -4  216.48    9.60
   4   4  -4  243.48    9.40
   4   4  -4  257.57   10.10
   4   4  -4  254.87    9.30
   4   4  -4  247.78   10.50
   4   4  -4  246.48    8.90
  -4  -4   4  246.98    8.90
  -4  -4   4  238.48    9.70
  -4  -4   4  234.68    9.60
  -4  -4   4  245.18   10.20
  -4  -4   4  241.08    9.00
  -4  -4   4  246.28    9.80
  -4  -4   4  238.68    9.30
  -4  -4   4  256.97   10.00
   3   4  -4   47.20    3.40
   3   4  -4   49.99    3.70
   3   4  -4   50.99    3.40
   3   4  -4   52.89    2.70
   3   4  -4   51.69    3.60
   3   4  -4   47.30    3.00
   3   4  -4   51.29    2.90
  -3  -4   4   49.20    3.60
  -3  -4   4   55.49    3.50
  -3  -4   4   43.20    3.20
  -3  -4   4   53.49    2.60
  -3  -4   4   47.60    3.00
  -3  -4   4   52.99    3.40
  -3  -4   4   51.59    3.50
   2   4  -4  321.87   12.20
   2   4  -4  337.77   11.40
   2   4  -4  323.37   11.90
   2   4  -4  319.77   11.20
   2   4  -4  337.17   11.50
   2   4  -4  313.07   11.80
   2   4  -4  328.27   11.30
   2   4  -4  315.07   12.00
  -2  -4   4  322.57   11.80
  -2  -4   4  310.47   10.90
  -2  -4   4  345.47   12.00
  -2  -4   4  332.87   12.30
  -2  -4   4  314.87   11.40
  -2  -4   4  332.17   12.10
  -2  -4   4  302.67   11.70
  -2  -4   4  337.47   11.00
   1   4  -4  214.28    8.70
   1   4  -4  215.88    8.40
   1   4  -4  217.98    8.00
   1   4  -4  208.88    8.00
   1   4  -4  209.68    8.50
   1   4  -4  228.38    7.90
  -1  -4   4  235.28    7.50
  -1  -4   4  224.58    8.80
  -1  -4   4  223.98    8.40
  -1  -4   4  212.78    8.60
  -1  -4   4  212.88    7.90
  -1  -4   4  234.58    7.50
   0   4  -4    1.50    0.90
   0   4  -4    6.20    1.40
   0   4  -4    3.80    1.10
   0   4  -4    4.90    1.10
   0   4  -4    4.70    1.00
   0   4  -4    5.20    1.00
   0  -4   4    4.00    0.80
   0  -4   4    4.90    1.30
   0  -4   4    2.70    1.20
   0  -4   4    3.60    1.20
   0  -4   4    4.20    1.20
   0  -4   4    4.20    1.30
  -1   4  -4   74.59    4.10
  -1   4  -4   66.59    4.10
  -1   4  -4   79.59    3.40
  -1   4  -4   73.59    3.40
  -1   4  -4   83.29    3.50
  -1   4  -4   74.49    3.90
  -1   4  -4   78.89    3.80
   1  -4   4   79.39    4.00
   1  -4   4   79.79    3.20
   1  -4   4   73.69    3.90
   1  -4   4   71.29    3.90
   1  -4   4   79.49    3.80
   1  -4   4   74.69    4.00
  -2   4  -4  256.47    9.10
  -2   4  -4  252.47   10.30
  -2   4  -4  268.97    9.70
  -2   4  -4  263.87    9.20
  -2   4  -4  260.97    9.50
  -2   4  -4  255.57    9.90
  -2   4  -4  251.77    9.10
  -2   4  -4  266.27    9.80
   2  -4   4  267.77    9.90
   2  -4   4  246.88   10.10
   2  -4   4  249.88    9.60
   2  -4   4  265.87    8.90
   2  -4   4  259.87    9.90
  -3   4  -4   28.00    2.70
  -3   4  -4   23.90    1.80
  -3   4  -4   24.60    2.30
  -3   4  -4   28.00    2.80
  -3   4  -4   24.20    2.40
  -3   4  -4   27.70    2.20
  -3   4  -4   23.10    1.90
   3  -4   4   25.80    2.70
   3  -4   4   19.60    2.50
   3  -4   4   24.90    2.40
   3  -4   4   27.80    2.80
   3  -4   4   28.90    2.70
   3  -4   4   24.10    1.60
  -4   4  -4   47.60    3.70
  -4   4  -4   51.19    3.40
  -4   4  -4   53.09    3.00
  -4   4  -4   48.80    3.50
  -4   4  -4   52.59    2.80
  -4   4  -4   52.19    3.00
  -4   4  -4   51.59    3.60
   4  -4   4   50.49    3.40
   4  -4   4   57.49    4.10
   4  -4   4   61.49    3.90
   4  -4   4   56.19    2.50
   4  -4   4   51.69    3.70
   4  -4   4   49.80    3.70
  -5   4  -4  200.48    7.90
  -5   4  -4  201.58    8.90
  -5   4  -4  202.08    8.40
  -5   4  -4  198.58    8.70
   5  -4   4  204.78    8.90
   5  -4   4  207.08    9.10
   5  -4   4  219.78    9.40
   5  -4   4  189.68    8.90
  -6   4  -4   -0.30    1.80
  -6   4  -4    0.40    1.40
  -6   4  -4    2.90    2.20
  -6   4  -4   -1.10    1.60
   6  -4   4   -0.90    1.90
   6  -4   4   -0.50    1.60
  -7   4  -4   68.99    4.50
  -7   4  -4   69.69    5.00
  -7   4  -4   73.99    5.50
   7  -4   4   67.19    5.90
  -8   4  -4    1.70    2.20
  -8   4  -4    4.40    2.20
   8  -4   4    5.10    3.20
  -9   4  -4    3.80    2.70
   9  -4   4    3.70    3.30
  10   3  -4   19.10    2.80
  10   3  -4   15.60    5.10
 -10  -3   4   25.00    4.70
 -10  -3   4   21.20    4.90
 -10  -3   4   16.00    3.10
   9   3  -4    0.10    3.60
   9   3  -4    2.70    2.10
  -9  -3   4    3.40    3.00
  -9  -3   4    6.80    2.70
  -9  -3   4    8.90    3.10
  -9  -3   4    3.40    2.30
   8   3  -4   67.09    6.60
   8   3  -4   67.89    5.40
   8   3  -4   73.99    4.80
  -8  -3   4   79.79    5.50
  -8  -3   4   79.79    4.90
  -8  -3   4   83.89    6.50
  -8  -3   4   80.79    6.60
   7   3  -4   15.90    3.50
   7   3  -4   23.10    3.10
   7   3  -4   22.50    2.70
  -7  -3   4   18.00    3.00
  -7  -3   4   22.00    3.60
  -7  -3   4   19.30    2.40
  -7  -3   4   17.10    2.80
   6   3  -4   52.09    5.10
   6   3  -4   49.20    4.10
   6   3  -4   42.00    4.10
   6   3  -4   42.10    3.30
  -6  -3   4   37.30    3.90
  -6  -3   4   53.89    4.40
  -6  -3   4   43.90    3.70
  -6  -3   4   45.50    3.10
  -6  -3   4   33.90    3.60
   5   3  -4    1.00    1.00
   5   3  -4    1.90    1.20
   5   3  -4    2.70    1.80
   5   3  -4    2.30    1.60
   5   3  -4    0.70    1.50
   5   3  -4   -0.70    1.40
   5   3  -4    3.10    1.50
  -5  -3   4    1.70    1.10
  -5  -3   4    1.70    1.30
  -5  -3   4    0.00    1.40
  -5  -3   4    2.70    1.60
  -5  -3   4    0.90    1.80
  -5  -3   4    0.20    1.40
  -5  -3   4    1.80    1.50
   4   3  -4   80.79    4.70
   4   3  -4   71.29    4.30
   4   3  -4   75.89    4.30
   4   3  -4   82.99    4.40
   4   3  -4   76.19    4.00
   4   3  -4   75.79    3.80
   4   3  -4   80.59    3.50
  -4  -3   4   84.59    3.60
  -4  -3   4   76.39    4.40
  -4  -3   4   72.39    3.80
  -4  -3   4   79.29    4.30
  -4  -3   4   72.99    4.50
  -4  -3   4   76.89    4.20
  -4  -3   4   81.99    4.40
   3   3  -4  105.79    5.00
   3   3  -4  130.99    5.80
   3   3  -4  113.49    4.50
   3   3  -4  116.79    4.80
   3   3  -4  113.79    4.70
   3   3  -4  120.89    5.30
   3   3  -4  117.59    5.30
  -3  -3   4  118.19    4.50
  -3  -3   4  115.39    5.50
  -3  -3   4  117.39    5.20
  -3  -3   4  115.89    5.10
  -3  -3   4  112.39    5.20
  -3  -3   4  116.29    5.20
  -3  -3   4  101.99    4.70
   2   3  -4  418.36   14.20
   2   3  -4  427.86   14.10
   2   3  -4  420.16   14.70
   2   3  -4  399.86   14.60
   2   3  -4  417.66   14.60
   2   3  -4  413.96   14.70
   2   3  -4  412.96   15.00
   2   3  -4  423.76   14.00
   2   3  -4  441.96   14.30
  -2  -3   4  430.36   14.60
  -2  -3   4  419.16   13.80
  -2  -3   4  418.06   14.90
  -2  -3   4  432.86   14.80
  -2  -3   4  413.76   14.90
  -2  -3   4  445.56   13.80
  -2  -3   4  395.46   14.10
  -2  -3   4  430.56   14.40
  -2  -3   4  418.66   14.60
   1   3  -4  544.55   18.10
   1   3  -4  549.54   18.50
   1   3  -4  554.34   18.70
   1   3  -4  548.95   18.20
   1   3  -4  545.55   18.60
   1   3  -4  560.74   18.00
  -1  -3   4  548.75   18.80
  -1  -3   4  556.64   18.60
  -1  -3   4  580.64   18.60
  -1  -3   4  473.95   17.90
  -1  -3   4  547.25   18.40
  -1  -3   4  536.15   18.80
  -1  -3   4  555.74   18.70
  -1  -3   4  612.44   18.40
   0   3  -4  247.98    9.10
   0   3  -4  267.17    8.90
   0   3  -4  264.37   10.00
   0   3  -4  300.77   10.70
   0   3  -4  253.37    9.00
   0   3  -4  250.77    9.30
   0   3  -4  270.77    9.00
   0   3  -4  252.07    9.50
   0  -3   4  256.57    9.50
   0  -3   4  268.07    9.10
   0  -3   4  262.67    9.50
   0  -3   4  275.97    9.70
   0  -3   4  271.57    9.60
   0  -3   4  249.58    8.70
  -1   3  -4  377.16   13.20
  -1   3  -4  381.06   13.80
  -1   3  -4  399.96   12.80
  -1   3  -4  385.16   13.30
  -1   3  -4  405.56   12.90
  -1   3  -4  378.16   12.70
  -1   3  -4  384.56   13.00
  -1   3  -4  386.86   12.60
   1  -3   4  372.66   13.30
   1  -3   4  399.36   13.30
   1  -3   4  365.96   13.30
   1  -3   4  374.96   13.20
   1  -3   4  372.76   13.10
   1  -3   4  376.66   12.40
  -2   3  -4    2.90    0.90
  -2   3  -4    0.90    0.90
  -2   3  -4    4.00    0.90
  -2   3  -4    2.50    1.10
  -2   3  -4    3.20    0.70
  -2   3  -4    5.20    1.40
  -2   3  -4    2.90    0.60
  -2   3  -4    2.40    0.70
  -2   3  -4    3.40    1.00
   2  -3   4    3.30    1.10
   2  -3   4    4.80    1.40
   2  -3   4    2.90    0.90
   2  -3   4    2.30    0.90
   2  -3   4    4.50    0.50
   2  -3   4    0.10    0.60
  -3   3  -4   14.70    1.30
  -3   3  -4   13.10    1.50
  -3   3  -4   12.60    1.30
  -3   3  -4   10.00    1.20
  -3   3  -4   13.10    1.80
  -3   3  -4   14.70    1.90
  -3   3  -4   13.40    1.70
   3  -3   4   12.50    1.70
   3  -3   4   13.10    1.80
   3  -3   4   11.50    1.70
   3  -3   4   13.10    0.70
   3  -3   4   13.70    1.70
   3  -3   4    9.30    1.50
   3  -3   4   11.50    1.80
  -4   3  -4  120.69    5.40
  -4   3  -4  110.39    4.70
  -4   3  -4  114.29    4.70
  -4   3  -4  116.19    5.30
  -4   3  -4  113.89    5.50
  -4   3  -4  113.29    5.10
  -4   3  -4  103.59    4.50
   4  -3   4  117.99    5.50
   4  -3   4  116.09    5.40
   4  -3   4  114.19    5.20
   4  -3   4  121.69    5.90
   4  -3   4  118.09    5.20
   4  -3   4  109.59    5.40
  -5   3  -4    2.80    1.70
  -5   3  -4    1.20    1.50
  -5   3  -4    3.10    1.10
  -5   3  -4    1.40    1.40
  -5   3  -4    0.10    1.30
  -5   3  -4    1.30    1.20
   5  -3   4   -0.20    1.60
   5  -3   4    1.10    1.50
   5  -3   4    0.80    1.30
   5  -3   4    2.70    1.60
  -6   3  -4    3.60    2.00
  -6   3  -4   -0.20    1.90
  -6   3  -4    0.20    1.40
  -6   3  -4    2.70    1.40
   6  -3   4    4.80    2.00
   6  -3   4    1.20    1.90
   6  -3   4    1.50    1.50
   6  -3   4    1.00    1.80
  -7   3  -4   -2.10    2.00
  -7   3  -4    0.60    1.70
  -7   3  -4    1.80    1.70
   7  -3   4    1.30    2.40
   7  -3   4    0.00    1.70
  -8   3  -4   12.60    2.70
  -8   3  -4   16.10    3.00
   8  -3   4    8.80    3.30
  -9   3  -4    1.20    2.30
  -9   3  -4    0.80    2.40
   9  -3   4    2.10    3.10
  10   2  -4    4.70    2.20
  10   2  -4    2.80    3.80
 -10  -2   4    8.70    3.80
 -10  -2   4    5.60    3.70
 -10  -2   4    5.40    2.40
   9   2  -4    0.30    1.90
   9   2  -4   -0.90    3.00
  -9  -2   4    2.70    2.40
  -9  -2   4   -0.30    2.90
  -9  -2   4   -0.70    2.90
  -9  -2   4   -2.30    1.60
   8   2  -4    0.00    1.60
   8   2  -4    3.40    2.10
   8   2  -4   -0.40    2.50
  -8  -2   4   -0.60    1.90
  -8  -2   4    1.40    2.40
  -8  -2   4    4.10    2.50
  -8  -2   4    0.90    1.60
   7   2  -4   34.30    3.70
   7   2  -4   24.20    2.70
   7   2  -4   27.30    3.40
   7   2  -4   39.30    4.70
  -7  -2   4   29.00    3.20
  -7  -2   4   25.00    2.60
  -7  -2   4   32.90    4.00
  -7  -2   4   31.10    3.70
   6   2  -4  107.69    6.10
   6   2  -4  111.99    5.60
   6   2  -4  119.99    5.40
   6   2  -4  102.79    6.40
  -6  -2   4  105.09    7.10
  -6  -2   4  110.19    4.20
  -6  -2   4  108.99    5.10
  -6  -2   4  116.99    5.80
  -6  -2   4  115.39    6.20
  -6  -2   4  110.19    5.80
  -6  -2   4  119.49    5.50
   5   2  -4   46.20    2.60
   5   2  -4   56.29    4.30
   5   2  -4   47.10    3.40
   5   2  -4   46.50    3.40
   5   2  -4   45.40    4.00
   5   2  -4   47.80    3.50
   5   2  -4   50.09    3.30
   5   2  -4   46.40    3.00
  -5  -2   4   47.00    3.40
  -5  -2   4   47.40    3.40
  -5  -2   4   46.70    3.10
  -5  -2   4   50.29    2.80
  -5  -2   4   45.70    2.40
  -5  -2   4   43.70    3.30
  -5  -2   4   48.50    3.40
  -5  -2   4   44.90    3.70
  -5  -2   4   47.90    2.20
   4   2  -4  381.96   13.50
   4   2  -4  376.16   13.50
   4   2  -4  363.66   12.80
   4   2  -4  380.06   13.70
   4   2  -4  369.76   13.10
   4   2  -4  380.16   13.70
   4   2  -4  379.86   14.00
   4   2  -4  388.76   13.10
  -4  -2   4  373.16   13.00
  -4  -2   4  367.06   12.50
  -4  -2   4  363.06   13.60
  -4  -2   4  373.56   13.50
  -4  -2   4  372.26   13.90
  -4  -2   4  379.96   12.80
  -4  -2   4  388.06   13.60
  -4  -2   4  385.56   13.50
  -4  -2   4  386.96   13.90
   3   2  -4  138.79    5.80
   3   2  -4  138.99    5.70
   3   2  -4  135.69    5.10
   3   2  -4  133.19    5.30
   3   2  -4  136.09    5.80
   3   2  -4  143.59    5.70
   3   2  -4  147.99    6.10
  -3  -2   4  136.69    6.00
  -3  -2   4  135.69    5.70
  -3  -2   4  134.79    5.30
  -3  -2   4  142.39    5.60
  -3  -2   4  138.29    5.00
  -3  -2   4  144.59    5.60
  -3  -2   4  138.69    5.70
  -3  -2   4  141.89    5.00
   2   2  -4   41.00    1.90
   2   2  -4   40.80    2.10
   2   2  -4   43.70    2.40
   2   2  -4   43.30    2.20
   2   2  -4   39.30    2.60
   2   2  -4   36.70    2.20
   2   2  -4   42.60    2.30
   2   2  -4   42.40    2.50
   2   2  -4   38.80    2.60
  -2  -2   4   42.30    2.40
  -2  -2   4   39.60    2.00
  -2  -2   4   44.20    2.20
  -2  -2   4   47.80    2.50
  -2  -2   4   43.70    2.30
  -2  -2   4   41.40    2.00
  -2  -2   4   37.90    2.50
  -2  -2   4   47.00    2.70
  -2  -2   4   45.80    2.40
   1   2  -4  998.60   32.50
   1   2  -4  932.31   31.80
   1   2  -4  996.10   32.00
   1   2  -4 1026.60   31.80
   1   2  -4 1021.50   32.40
   1   2  -4 1022.10   32.00
   1   2  -4  993.20   32.30
   1   2  -4 1045.30   32.00
   1   2  -4 1005.90   32.10
  -1  -2   4  996.10   32.30
  -1  -2   4 1012.20   32.20
  -1  -2   4 1010.90   32.00
  -1  -2   4  992.00   32.50
  -1  -2   4 1000.70   32.50
  -1  -2   4 1059.49   32.10
  -1  -2   4 1015.60   31.70
  -1  -2   4  834.92   32.20
   0   2  -4  841.52   26.10
   0   2  -4  850.11   26.60
   0   2  -4  802.22   27.10
   0   2  -4  780.52   26.50
   0   2  -4  847.62   26.10
   0   2  -4  810.32   26.10
   0   2  -4  840.32   26.40
   0  -2   4  805.22   26.50
   0  -2   4  790.92   26.60
   0  -2   4  785.32   26.60
   0  -2   4  817.12   26.10
   0  -2   4  815.02   26.50
  -1   2  -4  884.51   28.10
  -1   2  -4  905.41   28.60
  -1   2  -4  902.21   28.10
  -1   2  -4  863.61   28.50
  -1   2  -4  876.51   29.10
  -1   2  -4  864.81   28.30
  -1   2  -4  853.71   28.10
  -1   2  -4  894.81   28.20
   1  -2   4  920.11   28.00
   1  -2   4  898.11   28.50
   1  -2   4  854.01   28.00
   1  -2   4  855.61   28.60
  -2   2  -4 1205.18   40.70
  -2   2  -4 1229.58   40.60
  -2   2  -4 1286.27   40.20
  -2   2  -4 1260.37   41.30
  -2   2  -4 1291.47   40.60
  -2   2  -4 1264.57   40.50
  -2   2  -4 1295.07   40.30
  -2   2  -4 1286.37   40.20
   2  -2   4 1238.78   40.80
   2  -2   4 1374.56   40.30
   2  -2   4 1236.48   40.70
   2  -2   4 1210.48   40.60
   2  -2   4 1254.77   41.20
   2  -2   4 1247.28   40.70
  -3   2  -4  213.08    7.30
  -3   2  -4  211.58    7.40
  -3   2  -4  214.58    7.80
  -3   2  -4  215.28    8.00
  -3   2  -4  208.88    7.60
  -3   2  -4  203.98    7.80
  -3   2  -4  211.88    7.40
   3  -2   4  198.98    7.90
   3  -2   4  215.28    7.90
   3  -2   4  217.58    7.80
   3  -2   4  208.58    7.80
   3  -2   4  208.98    8.00
   3  -2   4  206.78    8.30
  -4   2  -4   92.19    3.60
  -4   2  -4   83.69    4.30
  -4   2  -4   95.39    3.80
  -4   2  -4   92.69    4.20
  -4   2  -4   89.89    4.30
  -4   2  -4   86.29    4.40
  -4   2  -4   91.49    3.90
   4  -2   4   94.39    4.60
   4  -2   4   81.99    4.70
   4  -2   4   91.19    4.30
   4  -2   4   87.79    4.40
   4  -2   4   91.19    4.30
   4  -2   4   91.39    4.60
  -5   2  -4    1.70    1.10
  -5   2  -4    0.30    0.90
  -5   2  -4    2.70    1.40
  -5   2  -4    0.10    1.20
  -5   2  -4    1.00    1.50
  -5   2  -4   -2.20    1.10
   5  -2   4    2.10    1.30
   5  -2   4    1.30    1.30
   5  -2   4    2.50    1.40
   5  -2   4    0.80    0.80
   5  -2   4   -0.10    1.10
   5  -2   4    0.00    1.40
   5  -2   4    0.50    1.60
  -6   2  -4   16.80    2.60
  -6   2  -4   15.00    2.00
  -6   2  -4   15.70    2.40
  -6   2  -4   10.00    2.30
   6  -2   4   13.80    2.60
   6  -2   4   13.90    2.60
   6  -2   4   12.80    2.60
   6  -2   4   14.60    2.40
  -7   2  -4   -1.20    1.50
  -7   2  -4    0.90    1.80
  -7   2  -4    2.20    2.30
   7  -2   4    0.70    2.10
   7  -2   4    1.40    2.00
  -8   2  -4   29.60    3.30
  -8   2  -4   26.10    3.40
   8  -2   4   29.40    4.40
  -9   2  -4    4.60    2.80
  -9   2  -4   -0.60    2.30
   9  -2   4    2.70    3.20
  10   1  -4   -0.20    2.00
  10   1  -4   -1.60    3.20
 -10  -1   4   -0.30    2.80
 -10  -1   4    3.50    3.00
 -10  -1   4    3.00    2.10
   9   1  -4   12.60    2.40
   9   1  -4    9.20    3.90
   9   1  -4   18.30    3.30
  -9  -1   4   11.20    3.40
  -9  -1   4    7.20    2.60
  -9  -1   4   11.60    2.60
  -9  -1   4   12.40    3.40
   8   1  -4    6.50    1.90
   8   1  -4    5.40    2.90
   8   1  -4    6.70    2.40
  -8  -1   4    6.60    3.00
  -8  -1   4    6.50    2.50
  -8  -1   4   10.50    2.60
  -8  -1   4    6.40    2.00
   7   1  -4   40.30    4.50
   7   1  -4   40.70    3.70
   7   1  -4   42.00    3.30
   7   1  -4   39.00    4.10
  -7  -1   4   43.80    4.40
  -7  -1   4   41.60    4.00
  -7  -1   4   32.20    2.90
  -7  -1   4   52.29    3.90
   6   1  -4    4.70    1.90
   6   1  -4    2.30    1.40
   6   1  -4    3.20    1.60
   6   1  -4    1.70    1.50
   6   1  -4    0.50    1.00
   6   1  -4    1.70    2.00
  -6  -1   4    2.10    1.80
  -6  -1   4    1.90    1.50
  -6  -1   4    3.90    1.80
  -6  -1   4    2.80    1.50
  -6  -1   4    1.50    1.70
  -6  -1   4    0.80    1.10
  -6  -1   4    1.80    0.90
  -6  -1   4    4.40    2.10
   5   1  -4    5.90    1.60
   5   1  -4   10.70    1.90
   5   1  -4   10.00    1.90
   5   1  -4   10.50    1.90
   5   1  -4    8.70    1.70
   5   1  -4    8.50    1.40
   5   1  -4    6.40    2.00
  -5  -1   4    8.90    1.60
  -5  -1   4    9.80    1.50
  -5  -1   4    6.70    1.70
  -5  -1   4    7.80    1.90
  -5  -1   4    9.10    1.80
  -5  -1   4    8.40    1.10
  -5  -1   4   10.70    1.90
  -5  -1   4    7.00    1.20
   4   1  -4  214.28    7.60
   4   1  -4  216.38    8.50
   4   1  -4  223.68    8.50
   4   1  -4  212.88    7.90
   4   1  -4  215.58    8.30
   4   1  -4  224.98    8.80
   4   1  -4  225.78    8.30
   4   1  -4  216.28    8.00
  -4  -1   4  213.48    8.60
  -4  -1   4  217.58    7.80
  -4  -1   4  193.98    8.20
  -4  -1   4  218.28    8.30
  -4  -1   4  201.38    7.50
  -4  -1   4  210.78    8.10
  -4  -1   4  218.08    7.60
  -4  -1   4  219.28    8.40
   3   1  -4    0.20    0.60
   3   1  -4    0.10    0.80
   3   1  -4    0.10    1.00
   3   1  -4   -0.50    0.50
   3   1  -4   -0.10    0.60
   3   1  -4   -0.30    0.70
   3   1  -4    0.20    0.70
   3   1  -4    0.10    0.80
  -3  -1   4    0.40    0.60
  -3  -1   4    0.00    0.80
  -3  -1   4    1.00    0.90
  -3  -1   4    0.10    0.60
  -3  -1   4    0.40    0.70
  -3  -1   4    0.20    0.70
  -3  -1   4    0.80    0.50
  -3  -1   4    0.30    0.90
  -3  -1   4   -0.10    0.90
  -3  -1   4   -0.40    0.60
  -3  -1   4    0.70    0.80
   2   1  -4  236.98    7.90
   2   1  -4  207.18    8.30
   2   1  -4  237.48    8.10
   2   1  -4  235.18    8.10
   2   1  -4  228.48    8.20
   2   1  -4  234.58    7.90
   2   1  -4  232.08    7.80
  -2  -1   4  231.68    8.00
  -2  -1   4  232.58    8.20
  -2  -1   4  238.78    8.40
  -2  -1   4  233.28    7.70
  -2  -1   4  220.28    8.20
  -2  -1   4  230.78    8.40
  -2  -1   4  230.18    8.00
  -2  -1   4  240.38    8.00
   1   1  -4   13.70    0.90
   1   1  -4   18.20    0.90
   1   1  -4   15.50    1.30
   1   1  -4   16.60    1.10
   1   1  -4   16.60    1.20
   1   1  -4   16.20    1.20
   1   1  -4   17.80    1.00
  -1  -1   4   17.00    1.10
  -1  -1   4   15.40    1.20
  -1  -1   4   18.30    1.20
  -1  -1   4   18.90    1.50
  -1  -1   4   15.80    1.30
  -1  -1   4   15.90    0.80
   0   1  -4   49.30    1.80
   0   1  -4   46.50    2.00
   0   1  -4   48.00    1.80
   0   1  -4   47.90    2.10
   0  -1   4   47.00    2.00
   0  -1   4   49.70    1.90
   0  -1   4   44.10    2.00
   0  -1   4   48.30    2.40
   0  -1   4   48.30    2.00
  -1   1  -4   65.19    2.60
  -1   1  -4   63.59    2.60
  -1   1  -4   69.99    2.60
  -1   1  -4   68.79    2.40
  -1   1  -4   70.19    3.20
   1  -1   4   65.39    2.60
   1  -1   4   66.49    2.60
   1  -1   4   68.19    2.60
  -2   1  -4  484.95   15.70
  -2   1  -4  503.45   15.70
  -2   1  -4  486.35   16.10
  -2   1  -4  506.75   16.00
  -2   1  -4  481.05   16.00
  -2   1  -4  500.35   15.70
  -2   1  -4  475.95   16.20
   2  -1   4  478.25   16.10
   2  -1   4  495.25   16.10
   2  -1   4  473.15   16.10
   2  -1   4  504.65   16.60
   2  -1   4  497.65   16.20
  -3   1  -4   17.90    1.60
  -3   1  -4   17.70    1.80
  -3   1  -4   20.40    1.60
  -3   1  -4   20.30    1.80
  -3   1  -4   17.80    1.30
  -3   1  -4   20.90    1.40
  -3   1  -4   19.30    1.20
   3  -1   4   21.20    1.90
   3  -1   4   19.60    1.70
   3  -1   4   20.90    1.70
   3  -1   4   21.00    1.80
   3  -1   4   19.40    1.80
   3  -1   4   21.90    2.10
  -4   1  -4  421.06   14.00
  -4   1  -4  426.36   13.90
  -4   1  -4  418.86   14.60
  -4   1  -4  414.76   14.40
  -4   1  -4  419.76   14.10
  -4   1  -4  404.46   14.50
  -4   1  -4  419.96   14.40
   4  -1   4  421.26   14.70
   4  -1   4  405.46   14.90
   4  -1   4  400.76   14.30
   4  -1   4  409.66   14.50
   4  -1   4  422.86   14.40
   4  -1   4  429.66   14.80
  -5   1  -4   50.19    2.60
  -5   1  -4   50.49    3.40
  -5   1  -4   44.60    2.80
  -5   1  -4   50.79    3.50
  -5   1  -4   46.80    3.10
  -5   1  -4   48.80    3.20
   5  -1   4   44.50    3.00
   5  -1   4   44.50    3.50
   5  -1   4   47.70    3.10
   5  -1   4   47.50    3.50
   5  -1   4   42.80    3.20
   5  -1   4   41.80    3.40
  -6   1  -4   19.10    2.80
  -6   1  -4   19.00    2.40
  -6   1  -4   16.20    2.10
  -6   1  -4   22.80    2.10
  -6   1  -4   24.40    3.00
   6  -1   4   17.30    2.60
   6  -1   4   20.10    3.00
   6  -1   4   21.60    2.80
   6  -1   4   18.20    2.70
  -7   1  -4   26.50    3.20
  -7   1  -4   23.40    2.80
  -7   1  -4   22.70    3.30
   7  -1   4   26.20    3.60
   7  -1   4   29.60    3.80
   7  -1   4   27.30    3.50
  -8   1  -4    6.20    2.20
  -8   1  -4    8.50    2.60
   8  -1   4    2.30    2.80
  -9   1  -4    6.00    2.70
  -9   1  -4    1.20    2.30
   9  -1   4    4.40    3.10
  10   0  -4    4.70    2.30
  10   0  -4    6.00    4.00
 -10   0   4    6.40    2.50
 -10   0   4    9.20    3.90
 -10   0   4    7.40    3.40
   9   0  -4    5.30    2.20
   9   0  -4    3.00    2.40
   9   0  -4    9.80    4.00
  -9   0   4    5.60    2.20
  -9   0   4    0.60    2.70
  -9   0   4    4.90    2.30
  -9   0   4    8.90    3.40
   8   0  -4    4.00    2.90
   8   0  -4    1.60    2.00
   8   0  -4    3.30    1.70
  -8   0   4    0.80    1.80
  -8   0   4    2.30    2.40
  -8   0   4    2.00    1.60
  -8   0   4    1.60    2.30
   7   0  -4   59.19    5.40
   7   0  -4   50.29    4.20
   7   0  -4   62.49    3.90
   7   0  -4   69.79    5.40
  -7   0   4   48.50    4.70
  -7   0   4   76.09    7.60
  -7   0   4   55.19    3.80
  -7   0   4   62.19    4.90
  -7   0   4   54.69    3.60
   6   0  -4   86.19    5.10
   6   0  -4   79.49    3.90
   6   0  -4   84.69    5.30
   6   0  -4   83.49    4.30
   6   0  -4   82.59    4.50
   6   0  -4   82.79    4.70
  -6   0   4   76.19    4.10
  -6   0   4   86.39    4.80
  -6   0   4   84.29    5.20
  -6   0   4   83.89    3.70
  -6   0   4   86.19    4.60
  -6   0   4   76.89    4.80
  -6   0   4   79.09    4.00
  -6   0   4   80.99    4.80
   5   0  -4  102.59    4.90
   5   0  -4  114.29    5.70
   5   0  -4  102.09    4.70
   5   0  -4  109.49    4.50
   5   0  -4  106.49    5.10
   5   0  -4  110.29    5.10
   5   0  -4  109.39    5.40
  -5   0   4  107.99    5.20
  -5   0   4  103.99    5.30
  -5   0   4  108.19    4.60
  -5   0   4  103.29    4.90
  -5   0   4  116.79    5.30
  -5   0   4  107.09    5.50
  -5   0   4  103.79    4.50
  -5   0   4  100.59    4.20
   4   0  -4  432.96   15.20
   4   0  -4  436.56   15.00
   4   0  -4  425.46   14.60
   4   0  -4  432.76   15.60
   4   0  -4  450.25   15.50
   4   0  -4  434.96   14.80
   4   0  -4  451.45   15.20
  -4   0   4  430.16   15.00
  -4   0   4  450.65   15.60
  -4   0   4  443.96   14.50
  -4   0   4  449.66   15.30
  -4   0   4  445.36   15.30
  -4   0   4  430.26   14.60
  -4   0   4  414.76   14.20
   3   0  -4   26.10    1.50
   3   0  -4   25.20    1.50
   3   0  -4   23.00    2.00
   3   0  -4   24.40    1.80
   3   0  -4   23.70    1.80
   3   0  -4   25.90    1.80
   3   0  -4   24.10    2.20
  -3   0   4   28.20    2.10
  -3   0   4   27.10    2.20
  -3   0   4   23.70    2.00
  -3   0   4   30.40    1.60
  -3   0   4   27.80    1.90
  -3   0   4   27.00    2.00
  -3   0   4   31.30    1.90
  -3   0   4   27.40    1.80
   2   0  -4  473.05   15.10
   2   0  -4  446.26   14.90
   2   0  -4  423.26   15.00
   2   0  -4  454.85   14.70
   2   0  -4  450.85   15.20
   2   0  -4  457.15   14.70
  -2   0   4  438.86   14.40
  -2   0   4  456.25   15.00
  -2   0   4  462.35   15.20
  -2   0   4  444.06   15.10
  -2   0   4  455.25   14.70
  -2   0   4  460.55   15.10
  -2   0   4  452.45   15.20
   1   0  -4  253.37    8.60
   1   0  -4  263.57    8.40
   1   0  -4  253.07    8.60
   1   0  -4  263.77    8.40
  -1   0   4  248.08    8.50
  -1   0   4  262.87    8.60
  -1   0   4  249.58    8.50
  -1   0   4  253.17    8.60
  -1   0   4  253.37    8.90
  -1   0   4  257.67    8.50
   0   0  -4   25.00    1.00
   0   0  -4   22.40    0.90
   0   0  -4   23.70    1.00
   0   0  -4   25.70    0.90
   0   0   4   23.60    1.60
  -1   0  -4   19.80    0.90
  -1   0  -4   20.00    0.90
  -1   0  -4   21.00    1.40
  -1   0  -4   20.60    1.00
   1   0   4   22.30    1.60
  -2   0  -4  908.21   28.80
  -2   0  -4  937.21   29.00
  -2   0  -4  874.11   28.80
  -2   0  -4  897.11   29.00
  -2   0  -4  910.41   28.90
   2   0   4  890.21   29.20
   2   0   4  909.21   29.00
   2   0   4  884.61   28.90
   2   0   4  910.31   28.90
   2   0   4  905.21   28.90
   2   0   4  898.11   29.00
  -3   0  -4    4.10    0.60
  -3   0  -4    4.60    0.90
  -3   0  -4    4.70    0.90
  -3   0  -4    3.00    0.70
  -3   0  -4    3.40    0.90
  -3   0  -4    2.30    0.70
  -3   0  -4    4.40    0.70
   3   0   4    3.20    0.80
   3   0   4    2.70    0.80
   3   0   4    2.50    0.90
   3   0   4    2.50    0.80
   3   0   4    2.70    0.80
   3   0   4    3.50    1.00
  -4   0  -4  455.45   15.50
  -4   0  -4  453.25   14.90
  -4   0  -4  465.85   15.70
  -4   0  -4  466.95   15.70
  -4   0  -4  468.75   15.20
  -4   0  -4  447.26   15.20
  -4   0  -4  457.55   15.50
   4   0   4  434.46   15.60
   4   0   4  454.35   15.80
   4   0   4  434.36   15.40
   4   0   4  454.55   15.90
   4   0   4  462.45   15.90
   4   0   4  441.46   15.50
  -5   0  -4   64.89    3.70
  -5   0  -4   70.09    4.00
  -5   0  -4   58.19    3.60
  -5   0  -4   65.79    3.10
  -5   0  -4   65.89    3.40
  -5   0  -4   60.79    3.80
   5   0   4   63.69    3.80
   5   0   4   66.89    4.00
   5   0   4   66.19    3.70
   5   0   4   61.79    3.60
   5   0   4   56.89    3.90
  -6   0  -4   80.59    3.90
  -6   0  -4   93.09    5.20
  -6   0  -4   74.89    4.50
  -6   0  -4   83.79    4.30
   6   0   4   76.59    5.00
   6   0   4   82.39    4.90
   6   0   4   86.19    5.20
  -7   0  -4   30.70    3.70
  -7   0  -4   25.70    3.20
  -7   0  -4   29.90    3.10
   7   0   4   29.30    3.60
   7   0   4   26.00    3.50
  -8   0  -4   -0.10    2.00
  -8   0  -4    0.00    1.90
   8   0   4   -1.20    2.50
  -9   0  -4    3.90    2.50
  -9   0  -4   -2.10    2.20
   9   0   4    3.50    3.10
  10  -1  -4    1.40    3.40
  10  -1  -4    5.00    2.20
 -10   1   4    8.00    3.70
 -10   1   4    2.20    3.30
 -10   1   4    7.90    2.50
   9  -1  -4   -1.30    1.70
   9  -1  -4    2.90    3.00
   9  -1  -4   -1.90    2.30
  -9   1   4   -1.40    3.00
  -9   1   4    0.00    2.00
  -9   1   4   -2.30    2.70
  -9   1   4   -1.60    1.60
   8  -1  -4   25.20    3.30
   8  -1  -4   22.10    3.90
   8  -1  -4   28.70    3.10
  -8   1   4   27.80    4.00
  -8   1   4   33.20    3.40
  -8   1   4   28.30    3.10
  -8   1   4   29.30    4.10
   7  -1  -4   31.50    3.60
   7  -1  -4   36.70    4.10
   7  -1  -4   41.90    3.20
   7  -1  -4   44.50    4.00
  -7   1   4   42.20    4.20
  -7   1   4   36.00    3.90
  -7   1   4   30.60    2.90
  -7   1   4   32.80    2.90
   6  -1  -4    1.00    1.20
   6  -1  -4    0.60    1.00
   6  -1  -4    1.50    1.80
   6  -1  -4    1.30    1.60
   6  -1  -4    1.10    1.50
   6  -1  -4    1.00    1.20
  -6   1   4    2.20    1.40
  -6   1   4    0.40    0.80
  -6   1   4    0.80    1.30
  -6   1   4   -0.50    1.60
  -6   1   4   -0.30    1.00
  -6   1   4   -0.50    1.10
  -6   1   4    1.40    1.90
  -6   1   4    0.20    1.40
   5  -1  -4   75.09    3.90
   5  -1  -4   69.29    3.40
   5  -1  -4   70.69    4.30
   5  -1  -4   74.09    3.70
   5  -1  -4   75.09    4.00
   5  -1  -4   71.49    4.10
   5  -1  -4   72.49    4.60
  -5   1   4   72.09    3.10
  -5   1   4   72.89    4.10
  -5   1   4   69.59    4.30
  -5   1   4   76.29    3.50
  -5   1   4   77.19    3.60
  -5   1   4   70.29    3.80
  -5   1   4   75.99    4.20
   4  -1  -4  329.77   11.90
   4  -1  -4  345.77   12.40
   4  -1  -4  340.37   12.10
   4  -1  -4  353.56   12.60
   4  -1  -4  355.66   11.90
   4  -1  -4  344.37   12.20
   4  -1  -4  344.07   11.70
  -4   1   4  332.77   12.20
  -4   1   4  321.17   11.20
  -4   1   4  329.57   11.90
  -4   1   4  337.47   12.60
  -4   1   4  369.56   11.40
  -4   1   4  341.57   12.30
  -4   1   4  341.07   11.60
   3  -1  -4   -0.20    0.10
   3  -1  -4    0.00    0.50
   3  -1  -4    0.10    0.70
   3  -1  -4    0.70    0.90
   3  -1  -4   -0.30    0.60
   3  -1  -4   -0.30    0.90
   3  -1  -4   -0.30    0.70
  -3   1   4    0.20    0.70
  -3   1   4    0.70    0.80
  -3   1   4    1.10    0.70
  -3   1   4    0.20    0.70
  -3   1   4    0.00    0.60
  -3   1   4   -0.10    0.50
  -3   1   4    0.90    0.90
  -3   1   4   -0.40    0.70
   2  -1  -4  855.51   27.00
   2  -1  -4  851.31   26.70
   2  -1  -4  843.02   27.10
   2  -1  -4  856.71   26.60
   2  -1  -4  829.22   26.80
  -2   1   4  842.32   26.70
  -2   1   4  825.42   27.00
  -2   1   4  789.52   27.10
  -2   1   4  821.82   27.00
  -2   1   4  787.72   27.40
   1  -1  -4  846.22   26.40
   1  -1  -4  811.52   26.60
   1  -1  -4  856.81   26.50
   1  -1  -4  864.41   26.70
  -1   1   4  796.42   26.50
  -1   1   4  820.52   26.60
  -1   1   4  843.42   26.50
  -1   1   4  812.72   27.00
  -1   1   4  805.62   26.50
   0  -1  -4   33.80    1.40
   0  -1  -4   39.40    1.40
   0   1   4   32.50    1.20
   0   1   4   36.10    2.10
   0   1   4   36.00    1.30
  -1  -1  -4 1378.66   43.80
  -1  -1  -4 1342.77   43.70
  -1  -1  -4 1386.36   43.70
   1   1   4 1275.47   43.60
   1   1   4 1438.96   43.60
   1   1   4 1380.56   44.40
   1   1   4 1456.05   43.60
  -2  -1  -4  155.38    5.40
  -2  -1  -4  151.88    5.30
  -2  -1  -4  147.99    5.30
   2   1   4  121.79    5.30
   2   1   4  149.39    5.30
   2   1   4  153.78    5.40
   2   1   4  150.58    5.40
   2   1   4  158.28    5.30
   2   1   4  155.08    5.30
   2   1   4  153.88    5.80
  -3  -1  -4   90.59    3.50
  -3  -1  -4   89.99    3.80
  -3  -1  -4   88.99    3.90
  -3  -1  -4   95.39    3.90
  -3  -1  -4   99.09    3.70
  -3  -1  -4   91.79    3.40
  -3  -1  -4   90.09    3.80
   3   1   4   91.29    3.90
   3   1   4   96.69    4.10
   3   1   4   95.79    3.90
   3   1   4   92.09    3.80
   3   1   4   91.69    3.90
   3   1   4   94.29    4.10
  -4  -1  -4  128.29    5.00
  -4  -1  -4  125.19    5.40
  -4  -1  -4  128.09    5.40
  -4  -1  -4  130.19    5.30
  -4  -1  -4  122.69    5.30
  -4  -1  -4  133.09    5.10
  -4  -1  -4  129.99    4.80
   4   1   4  127.29    5.40
   4   1   4  123.09    5.30
   4   1   4  126.09    5.60
   4   1   4  132.99    5.70
   4   1   4  121.59    5.20
  -5  -1  -4   20.80    2.00
  -5  -1  -4   20.70    2.20
  -5  -1  -4   20.70    1.70
  -5  -1  -4   21.20    2.50
  -5  -1  -4   25.70    2.60
  -5  -1  -4   21.70    2.30
   5   1   4   21.00    2.60
   5   1   4   21.30    3.30
   5   1   4   21.90    2.80
   5   1   4   17.20    2.50
   5   1   4   19.50    2.30
  -6  -1  -4    1.00    1.40
  -6  -1  -4   -0.10    1.50
  -6  -1  -4    0.60    1.40
  -6  -1  -4   -0.50    1.60
  -6  -1  -4   -0.50    1.00
   6   1   4   -1.70    1.40
   6   1   4    0.50    1.70
   6   1   4    3.00    1.80
  -7  -1  -4   41.90    3.50
  -7  -1  -4   41.60    3.90
   7   1   4   35.10    3.70
   7   1   4   44.10    4.50
  -8  -1  -4   11.10    2.50
  -8  -1  -4   13.00    2.80
   8   1   4   18.10    3.60
  -9  -1  -4   10.90    3.00
  -9  -1  -4   16.30    3.40
   9   1   4   14.70    4.10
  10  -2  -4    8.70    2.50
  10  -2  -4   13.10    4.40
 -10   2   4    9.20    3.60
 -10   2   4   10.80    2.80
 -10   2   4    9.10    4.10
   9  -2  -4   10.40    2.30
   9  -2  -4    7.30    3.30
   9  -2  -4    8.00    2.90
  -9   2   4    5.90    2.20
  -9   2   4   10.70    3.30
  -9   2   4   11.40    3.70
   8  -2  -4   22.80    2.80
   8  -2  -4   20.50    3.80
   8  -2  -4   24.90    3.40
  -8   2   4   27.20    2.90
  -8   2   4   18.60    2.60
  -8   2   4   27.70    4.10
  -8   2   4   21.00    3.70
   7  -2  -4   84.99    5.20
   7  -2  -4   87.79    4.80
   7  -2  -4   90.19    5.70
   7  -2  -4   91.19    6.20
  -7   2   4   92.39    5.70
  -7   2   4   83.69    4.60
  -7   2   4   84.39    5.60
  -7   2   4   85.29    4.60
   6  -2  -4    0.90    1.60
   6  -2  -4   -0.50    0.90
   6  -2  -4    1.00    2.00
   6  -2  -4    0.30    1.30
   6  -2  -4   -0.20    1.50
   6  -2  -4    0.40    1.20
  -6   2   4   -1.60    1.10
  -6   2   4   -0.70    1.70
  -6   2   4    0.30    0.80
  -6   2   4    0.90    1.40
  -6   2   4    0.70    1.80
  -6   2   4    0.90    1.20
  -6   2   4   -0.50    1.00
  -6   2   4    0.90    1.40
   5  -2  -4   85.39    4.60
   5  -2  -4  106.39    5.30
   5  -2  -4  104.49    5.00
   5  -2  -4  100.49    5.40
   5  -2  -4   96.29    4.80
   5  -2  -4   97.59    4.50
   5  -2  -4   94.29    4.30
  -5   2   4  100.99    5.00
  -5   2   4   95.89    3.80
  -5   2   4   91.59    4.20
  -5   2   4   98.19    4.60
  -5   2   4   96.89    4.10
  -5   2   4  104.39    5.40
  -5   2   4   96.99    5.00
   4  -2  -4   18.90    2.00
   4  -2  -4   20.40    2.30
   4  -2  -4   21.70    2.10
   4  -2  -4   18.30    2.40
   4  -2  -4   21.60    1.90
   4  -2  -4   19.20    2.40
  -4   2   4   15.50    2.10
  -4   2   4   16.80    2.00
  -4   2   4   15.10    1.80
  -4   2   4   15.90    1.70
  -4   2   4   16.50    1.00
  -4   2   4   16.90    2.10
  -4   2   4   21.70    1.70
   3  -2  -4  183.88    7.10
   3  -2  -4  180.38    6.50
   3  -2  -4  173.88    6.60
   3  -2  -4  185.68    7.00
   3  -2  -4  183.08    6.50
   3  -2  -4  188.58    6.80
  -3   2   4  169.78    6.60
  -3   2   4  179.08    6.90
  -3   2   4  174.78    6.90
  -3   2   4  170.28    6.30
  -3   2   4  180.48    7.10
  -3   2   4  185.88    7.00
  -3   2   4  183.18    7.00
   2  -2  -4   49.80    2.60
   2  -2  -4   49.10    2.30
   2  -2  -4   46.50    2.20
   2  -2  -4   50.89    2.20
   2  -2  -4   52.89    2.10
   2  -2  -4   51.39    2.60
  -2   2   4   44.70    2.50
  -2   2   4   45.30    2.50
  -2   2   4   45.80    2.60
  -2   2   4   45.90    2.40
  -2   2   4   46.10    2.20
   1  -2  -4  828.82   27.40
   1  -2  -4  845.32   27.70
   1  -2  -4  887.41   27.40
   1  -2  -4  883.41   28.00
   1  -2  -4  847.72   27.70
   1  -2  -4  856.91   27.80
   1  -2  -4  874.51   27.40
  -1   2   4  867.01   27.70
  -1   2   4  815.12   27.80
  -1   2   4  886.91   27.90
  -1   2   4  842.22   27.70
  -1   2   4  891.21   27.80
   0  -2  -4   23.80    1.40
   0  -2  -4   27.20    1.30
   0  -2  -4   24.30    1.20
   0  -2  -4   25.20    1.30
   0   2   4   27.00    1.40
   0   2   4   22.60    1.40
   0   2   4   27.60    2.10
   0   2   4   25.00    1.30
   0   2   4   22.90    1.30
   0   2   4   23.60    1.30
  -1  -2  -4  247.08    8.30
  -1  -2  -4  250.67    8.50
  -1  -2  -4  256.17    8.60
  -1  -2  -4  256.47    8.60
  -1  -2  -4  240.98    8.30
   1   2   4  254.17    8.90
   1   2   4  257.27    8.50
   1   2   4  253.77    8.50
   1   2   4  245.98    8.50
   1   2   4  245.38    8.30
   1   2   4  244.28    8.30
  -2  -2  -4   70.59    2.70
  -2  -2  -4   71.19    2.70
  -2  -2  -4   74.19    3.10
  -2  -2  -4   70.49    3.00
  -2  -2  -4   68.69    3.00
   2   2   4   72.09    2.60
   2   2   4   72.99    3.20
   2   2   4   68.29    3.30
   2   2   4   70.99    3.20
   2   2   4   70.29    3.00
   2   2   4   70.99    3.00
   2   2   4   75.99    3.30
  -3  -2  -4   18.20    1.40
  -3  -2  -4   17.50    1.70
  -3  -2  -4   17.90    1.30
  -3  -2  -4   16.40    1.60
  -3  -2  -4   18.90    1.80
  -3  -2  -4   19.00    1.70
   3   2   4   16.60    1.90
   3   2   4   19.20    1.90
   3   2   4   16.40    1.70
   3   2   4   19.00    1.60
   3   2   4   16.90    1.60
   3   2   4   14.50    1.60
  -4  -2  -4   75.09    3.70
  -4  -2  -4   74.09    3.50
  -4  -2  -4   82.09    4.00
  -4  -2  -4   76.79    3.30
  -4  -2  -4   78.19    3.90
  -4  -2  -4   80.09    3.70
  -4  -2  -4   73.79    3.90
   4   2   4   79.09    4.30
   4   2   4   82.09    4.30
   4   2   4   77.29    3.80
   4   2   4   70.79    3.90
   4   2   4   74.79    3.80
   4   2   4   73.89    4.20
  -5  -2  -4    9.70    1.90
  -5  -2  -4    9.30    1.90
  -5  -2  -4    9.50    1.70
  -5  -2  -4   13.10    1.90
  -5  -2  -4   11.80    1.80
  -5  -2  -4   12.00    1.50
   5   2   4    8.70    2.20
   5   2   4   15.00    2.20
   5   2   4    8.60    2.00
  -6  -2  -4   11.40    2.30
  -6  -2  -4    9.70    2.00
  -6  -2  -4    9.20    2.20
   6   2   4   13.60    2.80
   6   2   4    7.10    2.00
   6   2   4    7.60    2.20
  -7  -2  -4   -0.40    1.80
  -7  -2  -4    1.00    1.90
   7   2   4    3.30    2.50
   7   2   4    2.10    2.10
  -8  -2  -4   -2.30    2.00
  -8  -2  -4   -1.70    2.10
   8   2   4    2.80    2.70
  -9  -2  -4    2.00    2.70
  -9  -2  -4   -1.50    2.60
   9   2   4    3.20    3.30
  10  -3  -4   15.10    4.50
  10  -3  -4    8.30    2.50
 -10   3   4    7.80    3.80
 -10   3   4   14.60    4.20
 -10   3   4    9.70    2.70
   9  -3  -4    5.30    2.80
   9  -3  -4    4.50    2.10
   9  -3  -4    7.80    3.50
  -9   3   4    4.10    2.00
  -9   3   4    5.30    3.20
  -9   3   4    0.30    2.90
   8  -3  -4   21.90    3.80
   8  -3  -4   25.10    2.90
   8  -3  -4   21.20    3.30
  -8   3   4   28.20    3.90
  -8   3   4   21.90    2.80
  -8   3   4   22.70    3.80
  -8   3   4   25.90    2.90
   7  -3  -4   72.09    4.20
   7  -3  -4   69.79    5.10
   7  -3  -4   68.49    5.20
   7  -3  -4   78.09    6.40
  -7   3   4   70.89    5.90
  -7   3   4   73.69    5.30
  -7   3   4   74.19    4.20
  -7   3   4   67.39    3.90
   6  -3  -4    3.90    1.30
   6  -3  -4    5.20    2.10
   6  -3  -4    3.70    1.80
   6  -3  -4    1.80    1.40
   6  -3  -4    8.00    2.40
  -6   3   4    8.30    2.30
  -6   3   4    4.30    1.20
  -6   3   4    2.90    2.20
  -6   3   4    4.00    1.40
  -6   3   4    3.20    2.00
  -6   3   4    4.80    1.10
  -6   3   4    3.80    1.50
   5  -3  -4   74.99    4.70
   5  -3  -4   62.09    4.20
   5  -3  -4   65.69    3.80
   5  -3  -4   63.79    3.90
   5  -3  -4   63.99    3.50
  -5   3   4   68.99    4.20
  -5   3   4   65.29    4.30
  -5   3   4   66.59    2.80
  -5   3   4   69.79    3.00
  -5   3   4   65.99    3.70
  -5   3   4   63.49    4.00
  -5   3   4   64.39    3.40
   4  -3  -4  125.09    5.20
   4  -3  -4  123.59    5.90
   4  -3  -4  131.19    5.50
   4  -3  -4  132.49    5.30
   4  -3  -4  131.09    6.10
   4  -3  -4  139.39    5.70
  -4   3   4  123.29    5.10
  -4   3   4  130.39    5.90
  -4   3   4  127.99    5.50
  -4   3   4  127.69    5.90
  -4   3   4  134.99    6.10
   3  -3  -4   28.10    2.00
   3  -3  -4   27.10    2.10
   3  -3  -4   20.40    2.20
   3  -3  -4   29.50    1.80
   3  -3  -4   30.70    2.50
   3  -3  -4   25.80    1.90
  -3   3   4   29.40    2.20
  -3   3   4   25.70    1.60
  -3   3   4   26.00    2.50
  -3   3   4   26.20    2.40
  -3   3   4   29.20    2.10
  -3   3   4   23.50    2.30
   2  -3  -4  156.38    5.80
   2  -3  -4  154.78    5.80
   2  -3  -4  157.08    6.20
   2  -3  -4  164.38    6.00
   2  -3  -4  160.88    5.60
   2  -3  -4  156.38    5.70
   2  -3  -4  159.88    6.20
  -2   3   4  152.58    6.10
  -2   3   4  166.78    6.30
  -2   3   4  158.38    6.00
  -2   3   4  155.38    6.20
  -2   3   4  158.38    5.10
  -2   3   4  156.58    6.20
  -2   3   4  149.69    5.80
   1  -3  -4  948.51   30.90
   1  -3  -4  972.30   30.50
   1  -3  -4  930.21   30.90
   1  -3  -4  960.60   30.60
   1  -3  -4  976.20   30.90
   1  -3  -4  944.41   30.50
  -1   3   4  986.50   30.90
  -1   3   4  959.00   31.20
  -1   3   4  922.51   30.80
  -1   3   4  976.30   31.00
  -1   3   4  910.61   30.90
  -1   3   4  926.01   31.00
   0  -3  -4    8.10    0.70
   0  -3  -4    7.40    0.80
   0  -3  -4    6.70    0.60
   0  -3  -4    6.80    1.00
   0  -3  -4    7.10    1.10
   0  -3  -4    5.90    0.70
   0  -3  -4    6.40    1.00
   0  -3  -4    4.90    0.80
   0   3   4    5.40    0.90
   0   3   4    4.70    0.90
   0   3   4    5.70    1.00
   0   3   4    6.00    1.00
   0   3   4    6.40    1.10
   0   3   4    5.70    1.00
  -1  -3  -4 1183.48   39.10
  -1  -3  -4 1242.48   38.70
  -1  -3  -4 1234.28   38.70
  -1  -3  -4 1242.08   39.30
  -1  -3  -4 1196.08   39.00
   1   3   4 1227.88   39.40
   1   3   4 1222.78   39.30
   1   3   4 1202.78   39.30
   1   3   4 1187.98   38.90
   1   3   4 1192.08   39.00
   1   3   4 1235.98   39.20
  -2  -3  -4   76.99    3.10
  -2  -3  -4   79.29    3.50
  -2  -3  -4   80.59    3.20
  -2  -3  -4   80.09    3.50
  -2  -3  -4   75.59    3.60
   2   3   4   80.39    3.70
   2   3   4   78.79    3.70
   2   3   4   76.29    3.80
   2   3   4   75.69    3.40
   2   3   4   81.69    3.40
   2   3   4   79.39    3.90
  -3  -3  -4  216.68    8.20
  -3  -3  -4  215.88    8.20
  -3  -3  -4  218.28    7.70
  -3  -3  -4  221.18    8.10
  -3  -3  -4  219.78    7.80
  -3  -3  -4  215.78    8.00
   3   3   4  215.38    8.10
   3   3   4  231.58    8.20
   3   3   4  210.98    8.00
   3   3   4  221.58    8.50
   3   3   4  217.68    8.50
   3   3   4  220.48    8.50
  -4  -3  -4   94.89    4.70
  -4  -3  -4   89.69    4.50
  -4  -3  -4   90.59    4.40
  -4  -3  -4   87.09    4.40
  -4  -3  -4   95.99    3.90
  -4  -3  -4   89.19    4.50
   4   3   4   92.19    4.90
   4   3   4   89.99    4.80
   4   3   4   87.09    4.40
   4   3   4   87.09    4.30
   4   3   4  103.49    4.90
  -5  -3  -4    3.40    1.50
  -5  -3  -4    2.40    1.10
  -5  -3  -4    5.30    1.80
  -5  -3  -4    3.30    1.60
   5   3   4    3.20    2.00
   5   3   4    4.10    1.70
   5   3   4    5.70    1.80
  -6  -3  -4   14.30    2.60
  -6  -3  -4   16.10    2.50
   6   3   4   16.60    2.90
   6   3   4   19.40    2.80
   6   3   4   22.70    3.40
  -7  -3  -4   -0.30    1.90
  -7  -3  -4    2.10    2.00
   7   3   4    3.30    2.50
   7   3   4    5.30    2.40
  -8  -3  -4    1.40    2.50
  -8  -3  -4   -2.80    2.10
   8   3   4    0.70    2.60
  -9  -3  -4    5.10    2.80
  -9  -3  -4    3.50    2.90
   9   3   4    2.60    3.30
  10  -4  -4    0.30    3.80
  10  -4  -4   -0.50    2.00
 -10   4   4   -0.20    3.20
 -10   4   4    0.30    3.70
 -10   4   4    2.30    2.30
   9  -4  -4   15.70    4.10
   9  -4  -4   16.70    2.70
   9  -4  -4   15.40    3.30
  -9   4   4   21.70    2.90
  -9   4   4   22.80    4.70
  -9   4   4    9.20    3.70
   8  -4  -4   -0.10    1.70
   8  -4  -4    1.80    2.30
   8  -4  -4    0.90    2.60
  -8   4   4    1.20    1.40
  -8   4   4    2.70    2.70
  -8   4   4    2.20    2.80
   7  -4  -4  131.79    6.00
   7  -4  -4  125.39    6.40
   7  -4  -4  122.59    7.40
   7  -4  -4  112.49    6.70
  -7   4   4  104.09    6.70
  -7   4   4  130.19    5.80
  -7   4   4  111.09    6.60
  -7   4   4  112.59    5.20
   6  -4  -4    3.80    1.50
   6  -4  -4    5.10    2.20
   6  -4  -4    4.80    1.60
   6  -4  -4    5.30    2.00
   6  -4  -4    3.40    2.00
  -6   4   4    3.20    2.80
  -6   4   4    4.80    1.20
  -6   4   4    3.60    2.10
  -6   4   4    3.90    1.00
  -6   4   4    4.50    2.30
  -6   4   4    2.50    1.50
   5  -4  -4  297.57   11.70
   5  -4  -4  299.77   11.00
   5  -4  -4  310.07   12.10
   5  -4  -4  303.17   11.50
   5  -4  -4  308.57   11.30
  -5   4   4  300.77   12.00
  -5   4   4  298.77   12.00
  -5   4   4  303.17   11.80
  -5   4   4  297.57   11.80
  -5   4   4  299.67   10.80
  -5   4   4  287.37   10.00
  -5   4   4  296.47   11.30
   4  -4  -4   58.99    3.80
   4  -4  -4   57.19    3.20
   4  -4  -4   67.99    3.70
   4  -4  -4   65.49    3.40
   4  -4  -4   67.79    4.10
   4  -4  -4   58.89    3.50
  -4   4   4   56.29    3.00
  -4   4   4   58.59    4.00
  -4   4   4   53.09    3.70
  -4   4   4   62.39    3.80
  -4   4   4   58.59    3.50
   3  -4  -4   49.50    3.30
   3  -4  -4   48.70    3.20
   3  -4  -4   53.49    2.70
   3  -4  -4   51.69    2.80
   3  -4  -4   49.30    3.00
   3  -4  -4   50.99    2.90
  -3   4   4   48.10    2.30
  -3   4   4   47.00    2.90
  -3   4   4   39.90    2.80
  -3   4   4   44.90    3.30
  -3   4   4   48.80    3.20
   2  -4  -4  207.68    7.80
   2  -4  -4  206.88    7.80
   2  -4  -4  220.88    8.20
   2  -4  -4  211.48    8.20
   2  -4  -4  207.48    8.00
   2  -4  -4  219.58    7.60
  -2   4   4  206.58    8.30
  -2   4   4  217.88    8.00
  -2   4   4  213.68    8.30
  -2   4   4  211.48    8.20
  -2   4   4  207.58    8.10
  -2   4   4  211.28    7.10
  -2   4   4  223.28    7.90
  -2   4   4  222.08    8.40
   1  -4  -4   87.39    3.90
   1  -4  -4   88.39    3.90
   1  -4  -4   84.19    3.40
   1  -4  -4   78.29    3.50
   1  -4  -4   78.69    3.50
   1  -4  -4   80.69    3.80
   1  -4  -4   85.59    3.60
  -1   4   4   81.29    4.20
  -1   4   4   88.49    3.90
  -1   4   4   78.39    3.90
  -1   4   4   79.69    3.90
  -1   4   4   85.59    4.00
  -1   4   4   84.09    4.00
   0  -4  -4   57.89    2.60
   0  -4  -4   61.89    3.10
   0  -4  -4   61.89    2.60
   0  -4  -4   60.79    2.80
   0  -4  -4   63.89    3.10
   0  -4  -4   60.49    3.00
   0  -4  -4   61.69    3.10
   0   4   4   58.39    3.40
   0   4   4   61.49    3.20
   0   4   4   57.19    2.30
   0   4   4   54.99    3.00
   0   4   4   52.59    3.00
   0   4   4   58.89    3.20
   0   4   4   57.29    3.10
  -1  -4  -4  130.79    5.10
  -1  -4  -4  141.19    5.80
  -1  -4  -4  136.49    5.10
  -1  -4  -4  144.09    5.30
  -1  -4  -4  145.59    5.50
  -1  -4  -4  135.39    5.60
   1   4   4  143.59    5.50
   1   4   4  132.99    5.80
   1   4   4  144.69    5.90
   1   4   4  140.49    5.50
   1   4   4  135.79    5.70
   1   4   4  135.29    5.70
  -2  -4  -4  132.79    5.00
  -2  -4  -4  122.99    5.30
  -2  -4  -4  124.09    5.10
  -2  -4  -4  140.89    5.60
  -2  -4  -4  128.89    5.60
   2   4   4  134.79    5.30
   2   4   4  114.59    5.60
   2   4   4  137.39    5.40
   2   4   4  129.29    5.90
   2   4   4  132.59    5.70
   2   4   4  124.59    5.20
  -3  -4  -4   19.60    2.10
  -3  -4  -4   17.10    1.60
  -3  -4  -4   22.50    2.30
  -3  -4  -4   18.60    2.00
  -3  -4  -4   19.80    2.40
   3   4   4   17.00    1.90
   3   4   4   18.80    2.30
   3   4   4   18.80    1.90
   3   4   4   16.60    2.20
   3   4   4   15.50    2.30
   3   4   4   18.40    2.00
  -4  -4  -4  164.98    6.40
  -4  -4  -4  186.08    7.20
  -4  -4  -4  163.18    7.10
  -4  -4  -4  164.08    7.10
   4   4   4  160.08    6.60
   4   4   4  169.48    7.60
   4   4   4  164.98    7.50
   4   4   4  164.88    7.50
  -5  -4  -4   15.50    2.50
  -5  -4  -4   11.70    2.30
  -5  -4  -4   16.90    2.50
   5   4   4   14.60    2.70
   5   4   4   18.30    3.00
   5   4   4   19.80    2.90
  -6  -4  -4   29.70    3.40
  -6  -4  -4   36.90    3.60
   6   4   4   32.50    3.60
   6   4   4   40.80    4.40
  -7  -4  -4   13.30    2.80
  -7  -4  -4   20.00    3.40
   7   4   4   19.30    3.70
  -8  -4  -4    2.50    2.60
  -8  -4  -4    2.00    2.40
  -8  -4  -4    1.00    2.50
   8   4   4    2.20    3.00
  10  -5  -4    4.70    2.40
  10  -5  -4    6.50    4.00
 -10   5   4    4.40    2.40
 -10   5   4    5.00    3.90
 -10   5   4    0.00    3.30
   9  -5  -4   10.30    3.80
   9  -5  -4    5.90    2.80
   9  -5  -4    7.60    2.30
  -9   5   4    6.10    3.70
  -9   5   4    7.70    2.30
  -9   5   4   14.20    3.70
   8  -5  -4   15.70    2.60
   8  -5  -4   15.50    3.20
   8  -5  -4   11.50    3.70
  -8   5   4   14.10    3.70
  -8   5   4   11.40    2.10
  -8   5   4   15.70    3.90
   7  -5  -4  160.58    7.70
   7  -5  -4  147.79    8.10
   7  -5  -4  151.18    8.70
   7  -5  -4  154.78    7.00
  -7   5   4  164.68    8.40
  -7   5   4  156.78    8.60
   6  -5  -4    1.30    2.00
   6  -5  -4    0.70    1.40
   6  -5  -4    2.70    2.00
   6  -5  -4   -0.60    1.70
  -6   5   4    1.50    0.90
  -6   5   4    1.50    2.20
  -6   5   4   -0.50    2.10
  -6   5   4    2.60    1.50
   5  -5  -4  286.97   10.80
   5  -5  -4  288.77   10.70
   5  -5  -4  288.97   12.00
   5  -5  -4  289.57   11.70
   5  -5  -4  294.37   11.20
  -5   5   4  276.37   10.50
  -5   5   4  280.47   11.60
  -5   5   4  293.57   11.90
  -5   5   4  302.77   12.10
   4  -5  -4  142.29    6.20
   4  -5  -4  146.99    6.40
   4  -5  -4  141.79    6.00
   4  -5  -4  141.79    5.80
   4  -5  -4  140.39    6.60
   4  -5  -4  139.09    6.70
  -4   5   4  130.29    6.30
  -4   5   4  138.79    6.70
  -4   5   4  143.69    6.90
  -4   5   4  128.49    5.60
  -4   5   4  140.59    6.70
   3  -5  -4   76.69    4.20
   3  -5  -4   75.69    4.00
   3  -5  -4   78.19    4.50
   3  -5  -4   79.19    4.40
   3  -5  -4   79.79    4.10
   3  -5  -4   75.29    3.60
  -3   5   4   76.59    4.10
  -3   5   4   73.39    4.40
  -3   5   4   82.09    3.40
  -3   5   4   86.29    4.70
  -3   5   4   77.39    4.60
  -3   5   4   81.79    4.60
  -3   5   4   78.89    4.60
   2  -5  -4  329.97   11.90
   2  -5  -4  329.37   11.60
   2  -5  -4  302.97   11.00
   2  -5  -4  314.37   11.40
   2  -5  -4  317.87   11.80
   2  -5  -4  329.47   11.70
   2  -5  -4  313.67   11.40
  -2   5   4  304.27   11.30
  -2   5   4  315.97   12.00
  -2   5   4  317.77   11.90
  -2   5   4  330.17   12.20
  -2   5   4  323.97   10.50
  -2   5   4  313.07   11.60
   1  -5  -4   89.09    4.30
   1  -5  -4   84.49    4.20
   1  -5  -4   80.39    3.50
   1  -5  -4   77.99    3.90
   1  -5  -4   83.09    3.80
   1  -5  -4   82.59    3.90
   1  -5  -4   86.59    4.30
  -1   5   4   86.89    4.40
  -1   5   4   91.79    4.30
  -1   5   4   87.09    4.70
  -1   5   4   77.39    4.30
  -1   5   4   77.89    4.20
   0  -5  -4   70.89    3.60
   0  -5  -4   67.49    3.70
   0  -5  -4   66.59    3.40
   0  -5  -4   59.79    3.10
   0  -5  -4   74.59    3.70
   0   5   4   65.79    2.90
   0   5   4   62.49    3.60
   0   5   4   64.69    3.70
   0   5   4   65.09    3.80
   0   5   4   71.29    3.80
   0   5   4   64.29    3.60
   0   5   4   64.89    4.10
  -1  -5  -4  291.07   10.80
  -1  -5  -4  289.17   10.50
  -1  -5  -4  283.27   10.00
  -1  -5  -4  279.67   10.10
  -1  -5  -4  292.07   10.50
   1   5   4  269.47   10.40
   1   5   4  286.97   10.40
   1   5   4  262.07   10.40
   1   5   4  274.67   10.70
   1   5   4  294.97   11.10
   1   5   4  299.87   11.10
   1   5   4  298.67   10.90
  -2  -5  -4    8.10    1.90
  -2  -5  -4   10.10    1.90
  -2  -5  -4   10.00    1.40
  -2  -5  -4   10.70    1.70
  -2  -5  -4   11.10    1.70
   2   5   4    8.10    1.70
   2   5   4   10.30    1.70
   2   5   4   12.40    1.80
   2   5   4    7.70    1.50
   2   5   4    9.90    2.00
   2   5   4    9.30    2.10
  -3  -5  -4   32.70    2.90
  -3  -5  -4   38.60    2.40
  -3  -5  -4   37.40    3.00
  -3  -5  -4   33.30    3.20
  -3  -5  -4   34.30    3.50
   3   5   4   39.30    3.70
   3   5   4   36.20    1.80
   3   5   4   36.10    2.70
   3   5   4   26.80    2.90
   3   5   4   36.50    3.50
  -4  -5  -4   91.39    4.30
  -4  -5  -4   90.39    5.00
  -4  -5  -4   90.39    5.10
   4   5   4   95.79    5.40
   4   5   4   82.39    5.50
   4   5   4   87.19    5.50
   4   5   4   85.59    4.20
  -5  -5  -4    4.80    2.10
  -5  -5  -4    4.40    2.10
   5   5   4    4.30    2.10
   5   5   4    5.70    2.30
   5   5   4    3.50    2.40
  -6  -5  -4   46.50    4.50
  -6  -5  -4   50.79    4.50
   6   5   4   50.89    5.10
   6   5   4   49.90    4.90
  -7  -5  -4   10.50    3.10
  -7  -5  -4   12.00    3.00
   7   5   4   12.20    3.50
  -8  -5  -4    9.30    3.10
  -8  -5  -4    0.90    2.50
   8   5   4   12.50    3.90
   9  -6  -4   -2.00    2.60
   9  -6  -4    1.40    2.00
   9  -6  -4    0.90    3.30
  -9   6   4    1.60    3.30
  -9   6   4    1.70    3.60
   8  -6  -4   15.60    3.40
   8  -6  -4   15.90    2.60
   8  -6  -4   16.60    4.40
  -8   6   4   32.40    4.90
  -8   6   4   27.40    4.50
   7  -6  -4    4.10    2.40
   7  -6  -4   -2.00    1.50
   7  -6  -4    6.30    3.30
  -7   6   4    3.30    1.10
  -7   6   4   -0.50    2.70
  -7   6   4    4.90    2.70
   6  -6  -4    1.90    2.00
   6  -6  -4    0.30    1.40
   6  -6  -4    4.80    2.60
   6  -6  -4    0.10    2.00
  -6   6   4    2.50    2.30
  -6   6   4    1.30    2.30
   5  -6  -4   12.60    2.10
   5  -6  -4   14.80    2.70
   5  -6  -4   16.70    3.10
   5  -6  -4   19.70    2.40
   5  -6  -4   25.00    3.10
  -5   6   4   15.20    2.90
  -5   6   4   11.40    2.70
   4  -6  -4   74.99    4.90
   4  -6  -4   72.79    4.20
   4  -6  -4   76.69    5.10
   4  -6  -4   72.29    4.40
   4  -6  -4   79.59    4.80
   4  -6  -4   77.09    3.90
  -4   6   4   81.19    5.20
  -4   6   4   62.39    4.50
  -4   6   4   78.59    4.90
   3  -6  -4    1.30    1.70
   3  -6  -4   -0.10    1.40
   3  -6  -4    0.30    1.50
   3  -6  -4   -0.40    1.20
   3  -6  -4   -2.30    1.30
   3  -6  -4    1.10    1.00
   3  -6  -4    2.20    1.40
  -3   6   4    0.30    1.60
  -3   6   4   -0.20    1.10
  -3   6   4    3.50    1.80
  -3   6   4   -0.50    1.60
  -3   6   4   -0.30    1.40
   2  -6  -4  260.27   10.90
   2  -6  -4  277.47   10.50
   2  -6  -4  287.47   10.50
   2  -6  -4  283.07   10.90
   2  -6  -4  275.97   10.40
   2  -6  -4  276.27   10.70
   2  -6  -4  266.97    9.90
  -2   6   4  287.77   11.10
  -2   6   4  286.17   11.20
  -2   6   4  274.17   10.90
  -2   6   4  296.77   11.50
   1  -6  -4   50.59    3.60
   1  -6  -4   48.00    3.50
   1  -6  -4   55.09    3.10
   1  -6  -4   49.70    3.50
   1  -6  -4   46.10    3.20
   1  -6  -4   48.70    3.20
  -1   6   4   49.80    3.70
  -1   6   4   49.60    4.00
  -1   6   4   46.40    3.50
  -1   6   4   47.20    3.60
  -1   6   4   62.39    3.70
   0  -6  -4  123.79    5.60
   0  -6  -4  107.59    5.10
   0  -6  -4  108.99    5.00
   0  -6  -4  116.29    5.60
   0  -6  -4  114.99    5.40
   0   6   4  120.09    5.70
   0   6   4  105.29    6.00
   0   6   4  107.29    5.50
   0   6   4  115.29    5.80
  -1  -6  -4   29.70    3.20
  -1  -6  -4   30.00    2.90
  -1  -6  -4   33.70    2.80
  -1  -6  -4   33.20    3.10
  -1  -6  -4   30.10    2.50
   1   6   4   33.60    3.30
   1   6   4   28.70    3.00
   1   6   4   23.70    3.10
   1   6   4   27.20    3.00
  -2  -6  -4    8.30    1.60
  -2  -6  -4   11.30    2.30
  -2  -6  -4    9.10    1.90
   2   6   4    7.40    1.90
   2   6   4   14.60    2.60
   2   6   4    9.00    2.20
   2   6   4    8.60    1.80
  -3  -6  -4    5.20    1.50
  -3  -6  -4    4.90    2.20
  -3  -6  -4    5.60    1.90
   3   6   4    2.00    1.90
   3   6   4    6.10    1.60
   3   6   4    5.40    2.00
   3   6   4    1.00    2.10
  -4  -6  -4   25.40    3.10
  -4  -6  -4   35.40    3.10
   4   6   4   30.30    3.90
   4   6   4   29.80    3.60
   4   6   4   30.80    3.90
  -5  -6  -4    0.90    2.20
  -5  -6  -4    1.70    1.90
  -5  -6  -4    1.00    2.00
   5   6   4    1.80    2.60
   5   6   4   -1.80    1.90
  -6  -6  -4    4.30    2.50
  -6  -6  -4    7.50    2.80
   6   6   4    5.80    3.10
  -7  -6  -4    0.70    2.60
  -7  -6  -4    2.20    2.80
   7   6   4   -3.10    2.80
   9  -7  -4    1.80    2.10
   9  -7  -4    4.60    3.20
   9  -7  -4    2.80    3.90
  -9   7   4   -4.30    2.80
  -9   7   4    1.90    3.20
   8  -7  -4   17.90    3.70
   8  -7  -4   22.40    3.00
   8  -7  -4   31.20    5.40
  -8   7   4   20.80    4.30
  -8   7   4   19.70    4.30
   7  -7  -4   26.50    4.00
   7  -7  -4   24.60    3.10
   7  -7  -4   29.30    4.80
  -7   7   4   26.50    4.30
  -7   7   4   27.60    4.80
   6  -7  -4   28.00    3.70
   6  -7  -4   25.40    4.30
   6  -7  -4   27.70    3.80
   6  -7  -4   26.00    2.80
  -6   7   4   23.00    4.10
  -6   7   4   27.60    4.00
   5  -7  -4   55.19    5.10
   5  -7  -4   49.80    4.50
   5  -7  -4   48.20    4.30
   5  -7  -4   50.99    4.80
  -5   7   4   63.29    5.50
  -5   7   4   57.29    5.40
   4  -7  -4    0.80    1.60
   4  -7  -4    3.90    2.20
   4  -7  -4    2.10    2.30
   4  -7  -4    1.70    1.80
   4  -7  -4    4.60    1.80
  -4   7   4    4.30    2.40
  -4   7   4    6.80    2.50
   3  -7  -4    8.50    2.30
   3  -7  -4   11.20    2.60
   3  -7  -4   10.50    2.30
   3  -7  -4    9.40    1.90
   3  -7  -4    9.70    2.00
  -3   7   4   10.20    2.50
  -3   7   4    7.40    2.30
  -3   7   4    7.50    2.20
   2  -7  -4   95.09    5.20
   2  -7  -4   97.59    5.60
   2  -7  -4  103.79    5.30
   2  -7  -4  103.09    5.60
   2  -7  -4  100.89    5.10
  -2   7   4   97.49    5.70
  -2   7   4   97.39    5.70
  -2   7   4  102.99    6.20
  -2   7   4   98.59    5.90
   1  -7  -4   47.90    3.60
   1  -7  -4   44.30    3.50
   1  -7  -4   44.30    4.00
  -1   7   4   42.70    4.10
  -1   7   4   42.20    3.80
  -1   7   4   36.40    3.70
  -1   7   4   44.60    4.30
   0  -7  -4  113.29    5.30
   0  -7  -4  109.29    5.80
   0  -7  -4  106.79    6.10
   0  -7  -4  116.49    5.50
   0   7   4  108.49    6.00
   0   7   4  115.39    6.10
   0   7   4  112.29    6.20
   0   7   4  111.49    6.60
  -1  -7  -4  117.89    5.80
  -1  -7  -4  121.19    6.50
  -1  -7  -4  133.09    5.80
   1   7   4  128.09    6.90
   1   7   4  121.19    6.50
   1   7   4  121.79    6.60
   1   7   4  129.39    7.10
  -2  -7  -4   47.10    4.20
  -2  -7  -4   40.80    3.30
  -2  -7  -4   30.10    3.20
   2   7   4   47.70    4.70
   2   7   4   41.50    4.20
   2   7   4   39.20    4.20
   2   7   4   45.00    3.50
  -3  -7  -4   35.70    3.20
  -3  -7  -4   29.40    3.30
   3   7   4   26.60    3.70
   3   7   4   25.40    3.50
   3   7   4   26.60    2.80
  -4  -7  -4   -1.70    1.90
  -4  -7  -4   -0.40    1.70
   4   7   4   -1.80    2.20
   4   7   4    2.80    2.40
  -5  -7  -4   -1.30    2.20
  -5  -7  -4    0.70    1.90
  -5  -7  -4    2.20    2.50
   5   7   4    0.10    2.60
  -6  -7  -4    0.60    2.70
  -6  -7  -4    3.00    2.60
   6   7   4    7.90    3.60
  -7  -7  -4    0.20    2.90
   7   7   4    2.10    3.20
   8  -8  -4   13.20    3.50
   8  -8  -4    8.80    2.40
   8  -8  -4    6.80    4.40
  -8   8   4   12.30    4.30
  -8   8   4   13.00    4.30
   7  -8  -4   13.20    3.40
   7  -8  -4   18.30    4.30
   7  -8  -4   18.80    2.80
  -7   8   4   11.70    4.00
  -7   8   4   14.60    3.90
   6  -8  -4    7.90    2.80
   6  -8  -4    4.30    3.00
  -6   8   4    6.80    3.30
  -6   8   4    8.90    3.40
   5  -8  -4   50.99    5.50
   5  -8  -4   65.69    5.30
   5  -8  -4   71.89    5.50
  -5   8   4   58.09    5.70
  -5   8   4   72.99    6.50
   4  -8  -4    5.20    2.30
   4  -8  -4    2.70    1.90
   4  -8  -4   -0.60    2.50
   4  -8  -4    3.20    2.20
  -4   8   4    2.00    2.40
  -4   8   4    6.60    2.90
   3  -8  -4   22.20    3.00
   3  -8  -4   19.60    3.40
   3  -8  -4   23.60    3.30
   3  -8  -4   18.60    2.60
   3  -8  -4   25.40    3.30
  -3   8   4   24.00    3.40
  -3   8   4   28.70    4.00
   2  -8  -4   28.90    3.30
   2  -8  -4   25.10    3.70
   2  -8  -4   30.70    4.00
   2  -8  -4   28.90    3.10
  -2   8   4   24.30    3.40
  -2   8   4   24.80    3.60
  -2   8   4   34.20    4.10
   1  -8  -4   16.20    2.60
   1  -8  -4   16.10    3.10
   1  -8  -4   15.00    2.60
  -1   8   4   13.50    2.80
  -1   8   4   17.60    3.30
  -1   8   4   13.20    2.80
   0  -8  -4    8.90    2.00
   0  -8  -4   10.80    2.40
   0  -8  -4    9.30    2.70
   0   8   4   12.00    2.80
   0   8   4   10.50    2.70
   0   8   4   12.00    2.90
  -1  -8  -4   46.90    3.80
  -1  -8  -4   46.70    4.50
  -1  -8  -4   46.50    4.00
   1   8   4   47.40    4.60
   1   8   4   38.90    4.40
   1   8   4   53.09    5.10
  -2  -8  -4   11.20    2.60
  -2  -8  -4    7.50    2.10
   2   8   4   12.20    2.30
   2   8   4   10.20    3.10
   2   8   4   14.50    3.10
   2   8   4   12.30    3.00
  -3  -8  -4   24.00    3.50
  -3  -8  -4   25.30    3.20
   3   8   4   19.10    3.60
  -4  -8  -4   15.30    3.10
  -4  -8  -4   21.80    3.10
   4   8   4   14.50    3.50
  -5  -8  -4    3.70    2.80
  -5  -8  -4    1.10    2.40
   5   8   4    3.20    3.30
  -6  -8  -4    0.70    2.80
  -6  -8  -4    5.10    3.20
   6   8   4    4.50    3.70
   7  -9  -4   12.40    3.60
   7  -9  -4   24.70    5.00
   7  -9  -4   18.00    3.10
  -7   9   4   11.40    4.20
  -7   9   4   22.50    4.60
   6  -9  -4    3.60    3.20
   6  -9  -4    0.90    3.00
  -6   9   4   -0.30    3.30
  -6   9   4    2.10    3.20
   5  -9  -4   68.59    6.70
   5  -9  -4   72.19    5.80
  -5   9   4   61.19    6.20
  -5   9   4   65.09    6.60
   4  -9  -4   24.30    4.20
   4  -9  -4   12.10    3.20
   4  -9  -4   11.30    3.10
  -4   9   4   16.10    3.80
  -4   9   4   17.60    3.90
   3  -9  -4   48.90    4.70
   3  -9  -4   53.09    5.80
  -3   9   4   50.89    5.30
  -3   9   4   57.99    5.80
   2  -9  -4   60.39    5.00
   2  -9  -4   69.49    6.10
  -2   9   4   64.29    5.70
  -2   9   4   73.79    6.30
   1  -9  -4   -1.30    2.20
   1  -9  -4   -1.70    1.90
  -1   9   4    2.90    2.60
  -1   9   4    8.20    2.80
   0  -9  -4   24.10    3.30
   0  -9  -4   15.40    2.70
   0   9   4   16.80    3.50
   0   9   4   16.60    3.20
  -1  -9  -4   15.20    2.90
  -1  -9  -4   15.30    2.60
   1   9   4    9.50    3.00
   1   9   4   21.70    3.80
  -2  -9  -4   -2.50    2.00
   2   9   4   -1.20    2.60
   2   9   4   -1.00    2.50
  -3  -9  -4    5.80    2.80
   3   9   4   10.90    3.60
   3   9   4    6.80    3.00
  -4  -9  -4   11.70    3.20
   4   9   4   13.10    3.90
  -5  -9  -4   -1.40    2.80
   5   9   4   -3.80    2.90
   6 -10  -4    2.30    3.30
   6 -10  -4    0.40    3.40
  -6  10   4   -2.50    3.20
  -6  10   4    5.50    3.70
   5 -10  -4   17.70    4.70
   5 -10  -4   29.20    4.30
  -5  10   4   28.50    5.10
  -5  10   4   19.50    4.30
   4 -10  -4   13.30    4.00
   4 -10  -4   12.40    3.40
  -4  10   4   15.30    4.30
  -4  10   4    5.10    3.20
   3 -10  -4   30.20    4.20
   3 -10  -4   25.00    4.50
  -3  10   4   25.20    4.40
  -3  10   4   26.80    4.70
   2 -10  -4   21.10    3.60
  -2  10   4   13.30    3.90
  -2  10   4   19.30    4.10
   1 -10  -4   -1.70    2.40
  -1  10   4    3.40    2.90
  -1  10   4    2.40    3.10
   0 -10  -4    6.60    3.00
   0  10   4    7.00    3.50
   0  10   4    4.20    3.00
  -1 -10  -4    0.30    2.50
   1  10   4    6.10    3.30
   1  10   4    9.70    3.40
  -2 -10  -4   -0.40    2.50
   2  10   4    1.50    3.30
   2  10   4    1.70    2.90
  -3 -10  -4    3.00    3.00
   3  10   4    5.20    3.20
   3  10   4    4.50    3.40
   4 -11  -4    2.50    3.30
  -4  11   4    0.50    3.50
   3 -11  -4    1.50    3.10
  -3  11   4   -0.80    3.00
  -3  11   4    0.40    3.40
   2 -11  -4   16.50    3.90
  -2  11   4   19.60    4.30
  -2  11   4   21.30    4.70
   1 -11  -4   -2.60    3.00
  -1  11   4    1.80    3.30
  -1  11   4    0.70    3.20
   0 -11  -4   12.50    3.40
   0  11   4   14.00    4.20
   0  11   4   13.90    4.10
  -1 -11  -4    5.20    3.10
   1  11   4    4.10    3.60
   1  11   4    6.70    3.40
   3  11  -5   -2.10    2.70
   3  11  -5   -2.80    2.70
  -3 -11   5    7.80    3.80
  -3 -11   5   -1.00    1.90
  -3 -11   5    0.30    3.10
   2  11  -5   16.20    4.20
   2  11  -5   18.30    3.60
  -2 -11   5   20.30    4.50
  -2 -11   5   15.10    3.90
  -2 -11   5   16.70    2.50
   1  11  -5    6.00    3.10
   1  11  -5   14.10    4.00
   1  11  -5    8.90    3.10
   1  11  -5    7.70    3.80
  -1 -11   5   14.30    4.20
  -1 -11   5   12.90    4.00
  -1 -11   5    9.70    2.00
   0  11  -5   -0.80    2.80
   0  11  -5    2.00    3.10
   0  11  -5    2.00    2.50
   0  11  -5    4.40    3.40
   0 -11   5    3.50    3.50
   0 -11   5    2.90    3.50
   0 -11   5    3.40    1.60
  -1  11  -5   15.00    4.20
  -1  11  -5   27.10    4.00
  -1  11  -5    4.30    5.20
  -1  11  -5   27.20    3.70
   1 -11   5   21.90    2.00
   1 -11   5   21.60    4.70
  -2  11  -5   10.20    4.10
  -2  11  -5    4.20    2.70
  -2  11  -5   10.10    2.80
   2 -11   5    3.50    3.60
  -3  11  -5    9.60    4.00
  -3  11  -5   20.00    3.70
   3 -11   5   10.80    4.30
  -4  11  -5   19.40    3.70
  -4  11  -5   12.30    4.60
   4 -11   5   13.40    5.10
   5  10  -5    2.90    3.40
   5  10  -5    1.80    2.90
  -5 -10   5   -2.60    3.30
  -5 -10   5    3.80    3.70
  -5 -10   5    1.40    2.10
   4  10  -5   15.80    4.40
   4  10  -5   20.90    3.70
  -4 -10   5   20.20    2.70
  -4 -10   5   20.60    4.30
  -4 -10   5   16.50    4.50
   3  10  -5   -1.10    2.50
   3  10  -5    1.10    2.80
   3  10  -5   -2.80    2.90
  -3 -10   5    2.70    3.20
  -3 -10   5    0.90    1.80
  -3 -10   5    0.50    2.90
   2  10  -5   33.70    5.20
   2  10  -5   24.90    3.60
   2  10  -5   31.20    4.20
  -2 -10   5   25.40    4.60
  -2 -10   5   23.80    4.20
  -2 -10   5   25.10    2.60
   1  10  -5   23.60    3.30
   1  10  -5   18.40    3.40
   1  10  -5   20.00    4.30
  -1 -10   5   17.00    4.00
  -1 -10   5   24.30    4.20
  -1 -10   5   22.50    2.40
   0  10  -5   -2.20    2.00
   0  10  -5    1.60    2.70
   0  10  -5   -1.50    3.00
   0  10  -5    4.50    2.50
   0 -10   5    0.30    3.00
   0 -10   5    0.50    3.00
   0 -10   5    1.10    1.30
  -1  10  -5   51.29    4.40
  -1  10  -5   53.29    6.30
  -1  10  -5   56.09    5.00
  -1  10  -5   50.59    5.90
   1 -10   5   39.50    5.00
   1 -10   5   55.49    3.00
   1 -10   5   52.29    5.80
  -2  10  -5    8.40    2.80
  -2  10  -5    6.30    3.50
  -2  10  -5    5.00    3.80
   2 -10   5    8.80    3.60
  -3  10  -5   10.70    4.00
  -3  10  -5   12.80    3.10
   3 -10   5   12.60    4.10
  -4  10  -5    4.20    3.00
  -4  10  -5    4.10    3.90
   4 -10   5    4.80    3.90
  -5  10  -5   -2.20    3.80
  -5  10  -5    0.80    2.80
   5 -10   5    1.40    3.70
   6   9  -5   -2.00    3.40
   6   9  -5    1.10    2.70
  -6  -9   5    2.80    3.70
  -6  -9   5    1.60    2.00
  -6  -9   5    0.40    3.70
   5   9  -5    5.30    3.70
   5   9  -5    2.10    2.80
  -5  -9   5    0.60    3.10
  -5  -9   5    9.00    2.20
  -5  -9   5   14.70    4.10
   4   9  -5    0.60    2.40
   4   9  -5   -0.40    3.00
   4   9  -5   -0.10    2.50
  -4  -9   5    4.80    3.50
  -4  -9   5    0.20    2.80
  -4  -9   5    1.90    1.60
   3   9  -5    2.90    2.80
   3   9  -5    0.00    2.20
   3   9  -5    0.40    2.40
  -3  -9   5    2.40    2.80
  -3  -9   5    1.00    2.60
  -3  -9   5    0.90    1.50
   2   9  -5    7.00    2.60
   2   9  -5    7.10    3.30
   2   9  -5    6.30    2.40
  -2  -9   5    7.60    3.30
  -2  -9   5    7.80    1.60
  -2  -9   5    6.40    2.90
   1   9  -5   28.80    4.20
   1   9  -5   38.60    3.80
   1   9  -5   28.30    3.70
  -1  -9   5   37.30    4.70
  -1  -9   5   38.60    4.30
  -1  -9   5   27.10    2.40
   0   9  -5   -1.90    2.30
   0   9  -5    5.30    2.30
   0   9  -5    3.80    1.90
   0   9  -5    2.50    2.70
   0  -9   5    0.90    2.40
   0  -9   5    3.30    2.70
   0  -9   5    3.00    1.20
  -1   9  -5   43.40    5.10
  -1   9  -5   36.10    5.20
  -1   9  -5   38.60    5.20
  -1   9  -5   50.29    4.20
   1  -9   5   43.80    4.70
   1  -9   5   41.70    2.30
   1  -9   5   44.30    4.90
   1  -9   5   43.10    2.40
  -2   9  -5   12.30    2.60
  -2   9  -5    5.20    2.80
  -2   9  -5   15.30    4.00
  -2   9  -5    7.60    2.80
   2  -9   5   15.20    3.60
  -3   9  -5   14.20    3.80
  -3   9  -5    8.90    2.60
  -3   9  -5   10.60    3.40
   3  -9   5    7.00    3.10
  -4   9  -5   18.50    3.30
  -4   9  -5    8.80    3.30
   4  -9   5   11.30    3.90
  -5   9  -5    7.40    3.00
  -5   9  -5    4.60    3.50
   5  -9   5    5.30    3.60
  -6   9  -5    1.70    2.80
  -6   9  -5    7.40    3.80
   6  -9   5    4.90    3.60
   7   8  -5    4.10    2.90
   7   8  -5   -0.50    3.40
  -7  -8   5   -0.60    2.00
  -7  -8   5    6.20    3.40
  -7  -8   5    5.70    3.90
   6   8  -5    0.40    3.10
   6   8  -5    0.80    2.50
  -6  -8   5    0.60    1.80
  -6  -8   5    1.80    3.00
  -6  -8   5   -5.80    3.00
   5   8  -5   23.30    4.30
   5   8  -5   24.30    3.90
   5   8  -5   31.10    4.00
  -5  -8   5   28.60    4.70
  -5  -8   5   21.10    4.10
  -5  -8   5   23.90    2.80
   4   8  -5    8.70    3.20
   4   8  -5   15.10    3.20
   4   8  -5   13.10    2.90
  -4  -8   5   10.50    3.40
  -4  -8   5   10.00    1.90
  -4  -8   5    6.00    2.20
  -4  -8   5   13.90    3.40
   3   8  -5   44.50    4.00
   3   8  -5   39.00    4.10
   3   8  -5   44.50    5.20
  -3  -8   5   47.00    4.90
  -3  -8   5   43.20    3.00
  -3  -8   5   50.39    5.10
  -3  -8   5   40.80    3.70
   2   8  -5    8.90    3.00
   2   8  -5   12.40    2.60
   2   8  -5   11.30    2.20
   2   8  -5   11.00    2.70
  -2  -8   5    9.50    1.50
  -2  -8   5    8.30    2.10
  -2  -8   5    8.40    2.70
  -2  -8   5    5.90    2.70
   1   8  -5    8.30    2.60
   1   8  -5    4.50    2.40
   1   8  -5    4.50    1.80
   1   8  -5    6.50    2.30
  -1  -8   5   10.30    2.80
  -1  -8   5    6.80    1.60
  -1  -8   5    7.00    1.30
  -1  -8   5    5.50    1.90
  -1  -8   5    4.80    2.30
   0   8  -5   16.20    3.30
   0   8  -5   14.00    2.80
   0   8  -5   15.80    2.70
   0  -8   5   15.60    1.50
   0  -8   5   17.30    1.60
   0  -8   5   18.20    3.00
   0  -8   5   17.00    3.30
   0  -8   5   13.70    2.20
  -1   8  -5   21.20    3.30
  -1   8  -5   21.00    3.40
  -1   8  -5   26.40    4.10
  -1   8  -5   28.60    3.10
   1  -8   5   22.70    1.50
   1  -8   5   24.10    3.50
   1  -8   5   23.70    1.50
   1  -8   5   24.20    3.40
  -2   8  -5   59.39    4.40
  -2   8  -5   61.59    4.80
  -2   8  -5   75.19    6.30
  -2   8  -5   63.09    5.60
   2  -8   5   63.19    5.40
  -3   8  -5   17.40    3.70
  -3   8  -5   20.90    3.30
  -3   8  -5   18.10    2.90
  -3   8  -5   27.90    4.20
   3  -8   5   14.40    3.30
  -4   8  -5   57.79    4.50
  -4   8  -5   51.79    5.00
  -4   8  -5   58.09    5.80
   4  -8   5   52.59    5.60
  -5   8  -5    1.40    3.10
  -5   8  -5   10.10    2.80
  -5   8  -5   -1.20    2.20
   5  -8   5    4.40    3.20
  -6   8  -5    7.90    2.90
  -6   8  -5    6.80    3.50
   6  -8   5    3.70    3.30
  -7   8  -5   -2.00    2.60
   7  -8   5    3.10    4.00
   8   7  -5    4.00    2.80
   8   7  -5   11.50    4.40
  -8  -7   5    8.20    2.40
  -8  -7   5   12.90    4.00
  -8  -7   5    4.90    3.60
   7   7  -5    8.50    3.00
   7   7  -5    9.70    3.90
  -7  -7   5   11.60    2.50
  -7  -7   5   11.40    3.90
  -7  -7   5   23.90    4.60
   6   7  -5   -0.40    2.50
   6   7  -5   -0.20    2.20
   6   7  -5    2.40    2.80
  -6  -7   5    3.10    1.70
  -6  -7   5    2.40    3.10
  -6  -7   5    4.20    3.20
  -6  -7   5    3.40    2.60
   5   7  -5   51.79    4.90
   5   7  -5   65.89    4.90
   5   7  -5   48.50    5.40
  -5  -7   5   58.19    5.40
  -5  -7   5   64.69    4.80
  -5  -7   5   58.19    5.80
  -5  -7   5   62.79    3.80
   4   7  -5   31.00    4.30
   4   7  -5   31.70    3.70
   4   7  -5   28.10    3.30
  -4  -7   5   26.40    3.00
  -4  -7   5   34.60    4.10
  -4  -7   5   21.90    3.80
  -4  -7   5   22.70    2.30
   3   7  -5   17.10    2.80
   3   7  -5   16.70    3.40
   3   7  -5   10.90    2.70
   3   7  -5   16.70    2.80
  -3  -7   5   15.20    2.40
  -3  -7   5   14.20    1.70
  -3  -7   5   19.10    3.10
  -3  -7   5   13.90    2.90
   2   7  -5  231.18   10.50
   2   7  -5  209.18    9.80
   2   7  -5  222.98    9.00
   2   7  -5  225.48    9.30
   2   7  -5  218.98   10.10
  -2  -7   5  221.08    8.10
  -2  -7   5  220.18    8.20
  -2  -7   5  218.98    9.70
  -2  -7   5  226.88    8.90
  -2  -7   5  234.88    9.90
   1   7  -5   56.49    3.80
   1   7  -5   47.90    4.60
   1   7  -5   53.89    4.70
   1   7  -5   53.09    4.50
   1   7  -5   47.30    3.50
  -1  -7   5   50.59    2.70
  -1  -7   5   47.50    2.60
  -1  -7   5   45.80    4.30
  -1  -7   5   59.19    4.70
  -1  -7   5   60.79    4.70
  -1  -7   5   56.29    3.50
   0   7  -5  228.48   10.30
   0   7  -5  224.58   10.00
   0   7  -5  228.28    9.80
   0   7  -5  229.78    9.10
   0  -7   5  234.78   10.20
   0  -7   5  215.08    7.80
   0  -7   5  229.28    7.80
   0  -7   5  226.28    9.80
   0  -7   5  237.48    9.70
   0  -7   5  226.48    8.70
  -1   7  -5  140.89    7.70
  -1   7  -5  141.29    6.30
  -1   7  -5  136.19    7.20
  -1   7  -5  123.19    6.90
  -1   7  -5  127.99    6.80
   1  -7   5  140.19    7.00
   1  -7   5  146.69    7.40
   1  -7   5  133.29    6.90
   1  -7   5  141.29    5.80
  -2   7  -5    0.30    1.60
  -2   7  -5    0.40    2.20
  -2   7  -5    1.40    1.60
  -2   7  -5    0.40    1.20
  -2   7  -5   -2.00    1.80
   2  -7   5    0.70    2.00
  -3   7  -5   58.99    4.00
  -3   7  -5   60.89    5.60
  -3   7  -5   52.09    4.60
  -3   7  -5   67.99    5.40
   3  -7   5   66.09    5.60
   3  -7   5   57.79    5.30
  -4   7  -5   62.69    4.80
  -4   7  -5   67.89    5.90
  -4   7  -5   71.39    5.80
  -4   7  -5   59.39    4.20
   4  -7   5   55.39    5.40
  -5   7  -5    2.70    2.00
  -5   7  -5    0.50    1.90
  -5   7  -5    0.60    2.50
   5  -7   5    1.00    2.80
  -6   7  -5   33.90    4.10
  -6   7  -5   27.00    3.50
  -6   7  -5   34.60    4.80
   6  -7   5   40.10    5.20
  -7   7  -5   20.10    3.50
   7  -7   5   17.80    4.30
  -8   7  -5    6.50    3.00
   8  -7   5    4.50    4.00
   8   6  -5    3.50    2.50
   8   6  -5    1.90    3.70
   8   6  -5   -1.80    3.30
  -8  -6   5    6.10    3.50
  -8  -6   5    2.50    3.40
  -8  -6   5    6.00    2.30
   7   6  -5   13.90    3.70
   7   6  -5   13.10    3.10
   7   6  -5    5.90    3.40
   7   6  -5    8.40    2.70
  -7  -6   5   12.00    3.70
  -7  -6   5    9.90    2.30
  -7  -6   5   12.50    3.70
   6   6  -5   -2.40    2.20
   6   6  -5   -0.60    1.90
   6   6  -5    2.50    2.70
  -6  -6   5    5.30    2.30
  -6  -6   5    4.10    2.60
  -6  -6   5    2.50    2.70
  -6  -6   5    3.40    1.70
   5   6  -5   21.00    3.30
   5   6  -5   21.40    3.00
   5   6  -5   26.60    4.00
  -5  -6   5   22.80    2.80
  -5  -6   5   19.50    2.80
  -5  -6   5   25.50    3.60
  -5  -6   5   26.40    3.90
  -5  -6   5   20.00    2.20
   4   6  -5   34.00    3.30
   4   6  -5   22.80    3.50
   4   6  -5   23.30    2.90
   4   6  -5   22.40    3.40
  -4  -6   5   20.50    3.20
  -4  -6   5   20.40    2.10
  -4  -6   5   22.60    3.50
  -4  -6   5   25.80    2.80
   3   6  -5    1.30    1.90
   3   6  -5    4.90    1.40
   3   6  -5    3.20    1.40
   3   6  -5    2.50    1.80
   3   6  -5    4.50    2.10
  -3  -6   5    3.40    1.00
  -3  -6   5    2.50    1.60
  -3  -6   5    2.80    1.90
  -3  -6   5    0.20    1.50
  -3  -6   5    2.20    0.90
  -3  -6   5    0.90    1.80
  -3  -6   5    3.90    2.20
   2   6  -5   70.79    4.10
   2   6  -5   70.79    4.80
   2   6  -5   77.29    5.00
   2   6  -5   79.19    4.40
  -2  -6   5   88.49    4.20
  -2  -6   5   78.39    5.30
  -2  -6   5   81.09    5.10
  -2  -6   5   83.89    4.60
  -2  -6   5   71.19    4.70
  -2  -6   5   79.19    4.90
  -2  -6   5   81.89    3.50
  -2  -6   5   81.59    3.40
   1   6  -5   31.40    3.40
   1   6  -5   30.50    3.20
   1   6  -5   35.00    3.80
   1   6  -5   29.30    2.80
  -1  -6   5   34.80    2.70
  -1  -6   5   31.50    1.70
  -1  -6   5   27.80    1.80
  -1  -6   5   29.20    3.30
  -1  -6   5   34.80    3.40
  -1  -6   5   33.90    3.70
  -1  -6   5   34.60    3.50
   0   6  -5   18.30    2.10
   0   6  -5   18.00    2.90
   0   6  -5   14.80    1.80
   0   6  -5   16.40    2.50
   0   6  -5   17.30    2.50
   0  -6   5   18.80    2.70
   0  -6   5   18.10    2.50
   0  -6   5   24.40    3.00
   0  -6   5   16.10    2.40
   0  -6   5   18.00    1.90
  -1   6  -5  117.59    5.90
  -1   6  -5  107.49    6.30
  -1   6  -5  113.59    6.30
  -1   6  -5  123.49    6.20
  -1   6  -5  123.19    5.30
  -1   6  -5  118.49    5.90
  -1   6  -5  122.79    5.30
  -1   6  -5  119.49    5.20
   1  -6   5  101.99    5.90
   1  -6   5  116.59    6.20
   1  -6   5  111.29    5.80
   1  -6   5  118.49    4.90
  -2   6  -5    1.70    2.00
  -2   6  -5    2.50    1.40
  -2   6  -5   -1.30    1.10
  -2   6  -5    0.80    1.70
  -2   6  -5   -0.30    0.90
  -2   6  -5    2.80    2.00
  -2   6  -5    0.80    1.50
   2  -6   5    0.30    1.70
   2  -6   5    1.60    1.80
   2  -6   5    0.40    1.50
   2  -6   5    0.80    0.90
  -3   6  -5   11.70    2.40
  -3   6  -5   10.50    2.20
  -3   6  -5   16.40    2.80
  -3   6  -5   11.60    1.90
  -3   6  -5   10.60    2.50
   3  -6   5   12.70    2.50
   3  -6   5   14.00    2.50
   3  -6   5   12.20    2.60
   3  -6   5   14.30    2.80
  -4   6  -5   30.40    3.20
  -4   6  -5   30.80    2.90
  -4   6  -5   42.90    4.40
  -4   6  -5   34.80    3.70
   4  -6   5   36.10    4.00
   4  -6   5   34.90    4.00
  -5   6  -5    3.70    2.50
  -5   6  -5    6.00    1.80
  -5   6  -5    1.50    1.90
   5  -6   5    5.10    2.50
   5  -6   5    1.10    1.90
  -6   6  -5   14.10    2.80
  -6   6  -5   14.70    3.50
  -6   6  -5   12.20    2.40
   6  -6   5   15.10    3.50
  -7   6  -5    2.70    2.50
  -7   6  -5    4.30    2.30
   7  -6   5    2.90    3.30
  -8   6  -5   -0.90    2.50
   8  -6   5    1.90    3.20
   9   5  -5   -3.50    2.20
   9   5  -5    0.20    3.90
  -9  -5   5   -0.40    3.30
  -9  -5   5    2.60    3.40
  -9  -5   5    3.70    2.30
   8   5  -5   14.10    4.10
   8   5  -5   14.10    2.90
  -8  -5   5   17.90    2.80
  -8  -5   5    8.30    3.40
  -8  -5   5   11.30    3.70
   7   5  -5   -1.20    2.70
   7   5  -5   -0.50    2.30
   7   5  -5   -2.20    1.90
  -7  -5   5    2.10    2.20
  -7  -5   5    1.30    2.70
  -7  -5   5    0.00    2.40
  -7  -5   5    2.50    1.60
   6   5  -5   12.80    2.60
   6   5  -5   13.20    2.80
   6   5  -5    9.40    3.40
  -6  -5   5   10.20    3.10
  -6  -5   5    9.80    1.90
  -6  -5   5   10.10    2.30
  -6  -5   5    6.30    2.60
   5   5  -5   22.00    3.50
   5   5  -5   12.60    2.60
   5   5  -5   19.90    3.50
   5   5  -5   15.40    2.70
   5   5  -5   17.90    2.50
  -5  -5   5   17.20    2.50
  -5  -5   5   18.00    2.00
  -5  -5   5   18.30    3.00
  -5  -5   5   17.30    3.00
   4   5  -5   20.20    2.70
   4   5  -5   27.40    3.40
   4   5  -5   20.40    3.10
   4   5  -5   28.90    2.80
   4   5  -5   28.10    2.50
  -4  -5   5   16.90    2.60
  -4  -5   5   19.30    2.90
  -4  -5   5   19.80    2.30
  -4  -5   5   24.90    1.90
  -4  -5   5   21.60    3.00
  -4  -5   5   28.60    3.30
  -4  -5   5   22.70    2.00
  -4  -5   5   22.60    2.60
   3   5  -5    7.30    1.90
   3   5  -5    4.50    1.60
   3   5  -5    6.40    2.10
   3   5  -5    5.30    1.90
   3   5  -5    6.10    1.30
   3   5  -5    6.10    1.50
  -3  -5   5    4.90    1.70
  -3  -5   5    4.50    1.00
  -3  -5   5    4.90    2.00
  -3  -5   5    6.60    1.80
  -3  -5   5    4.00    1.70
  -3  -5   5    5.20    1.00
  -3  -5   5    6.50    1.50
  -3  -5   5    3.40    1.70
   2   5  -5  240.58    9.90
   2   5  -5  229.28    9.00
   2   5  -5  232.98    9.20
   2   5  -5  247.88    9.20
   2   5  -5  243.78   10.00
  -2  -5   5  239.58    9.00
  -2  -5   5  235.28   10.20
  -2  -5   5  256.27   10.10
  -2  -5   5  252.27    9.60
  -2  -5   5  265.97    9.90
  -2  -5   5  251.77    8.50
  -2  -5   5  248.98    8.40
   1   5  -5  252.97    9.50
   1   5  -5  264.27    9.30
   1   5  -5  248.98   10.20
   1   5  -5  257.57    9.50
   1   5  -5  269.47   10.20
  -1  -5   5  276.37    9.30
  -1  -5   5  244.18    9.90
  -1  -5   5  268.97   10.60
  -1  -5   5  260.07    9.80
  -1  -5   5  250.97   10.30
   0   5  -5  251.47    9.10
   0   5  -5  241.58    9.00
   0   5  -5  244.08    9.70
   0   5  -5  247.38    9.10
   0   5  -5  243.38    9.80
   0  -5   5  241.48    9.70
   0  -5   5  231.48    9.60
   0  -5   5  260.67    8.80
   0  -5   5  247.08    9.60
   0  -5   5  262.17   10.00
  -1   5  -5  342.07   11.90
  -1   5  -5  351.06   12.50
  -1   5  -5  356.06   12.00
  -1   5  -5  335.07   11.90
  -1   5  -5  354.86   12.90
  -1   5  -5  351.86   12.80
   1  -5   5  289.47   12.60
   1  -5   5  354.26   12.70
   1  -5   5  343.57   11.50
   1  -5   5  319.47   12.50
   1  -5   5  333.27   12.80
  -2   5  -5    2.90    1.20
  -2   5  -5    1.30    1.60
  -2   5  -5    2.20    1.00
  -2   5  -5    1.30    1.20
  -2   5  -5    3.40    1.50
  -2   5  -5    6.40    2.00
  -2   5  -5    4.20    1.70
  -2   5  -5    3.00    1.00
   2  -5   5    3.10    1.40
   2  -5   5    7.20    1.60
   2  -5   5    5.40    0.90
   2  -5   5    1.50    1.40
   2  -5   5    4.20    1.70
  -3   5  -5  190.68    7.80
  -3   5  -5  177.48    7.20
  -3   5  -5  191.98    8.10
  -3   5  -5  187.28    8.20
  -3   5  -5  175.78    7.30
  -3   5  -5  187.98    8.10
  -3   5  -5  185.88    7.30
   3  -5   5  191.98    8.30
   3  -5   5  190.08    8.30
   3  -5   5  195.78    8.70
   3  -5   5  197.58    7.10
   3  -5   5  188.58    8.20
  -4   5  -5   39.00    3.30
  -4   5  -5   40.30    3.80
  -4   5  -5   37.00    2.80
  -4   5  -5   46.20    4.00
   4  -5   5   42.00    4.00
   4  -5   5   42.70    3.90
   4  -5   5   32.50    3.40
   4  -5   5   45.60    4.10
  -5   5  -5    9.40    2.10
  -5   5  -5    9.20    2.60
  -5   5  -5   11.60    1.90
  -5   5  -5   15.20    3.10
   5  -5   5    6.50    2.20
   5  -5   5   12.20    2.60
   5  -5   5   19.20    3.10
  -6   5  -5    8.40    2.00
  -6   5  -5    9.40    2.20
  -6   5  -5    8.70    2.90
   6  -5   5    6.90    2.30
   6  -5   5    7.30    2.90
  -7   5  -5    3.50    2.20
  -7   5  -5    0.00    2.10
   7  -5   5    3.00    3.00
  -8   5  -5    1.40    2.40
  -8   5  -5    4.10    2.40
   8  -5   5    1.50    2.90
  -9   5  -5   -1.40    2.50
   9  -5   5   -1.20    3.50
   9   4  -5   -1.00    2.20
   9   4  -5   -1.50    3.00
  -9  -4   5   -1.00    2.00
  -9  -4   5    0.40    3.20
  -9  -4   5   -3.50    2.60
   8   4  -5   -1.90    2.50
   8   4  -5    4.10    2.50
   8   4  -5   -0.10    2.00
  -8  -4   5    1.00    2.70
  -8  -4   5    1.30    2.80
  -8  -4   5   -0.90    2.90
  -8  -4   5    1.10    1.70
   7   4  -5    9.20    2.60
   7   4  -5    6.30    3.00
   7   4  -5   13.20    2.70
  -7  -4   5   10.80    2.80
  -7  -4   5   12.70    2.10
  -7  -4   5    9.40    2.70
  -7  -4   5   14.40    3.30
   6   4  -5    6.50    1.90
   6   4  -5    7.40    2.90
   6   4  -5    2.50    2.10
   6   4  -5    4.70    2.30
  -6  -4   5    4.00    2.40
  -6  -4   5    5.50    1.50
  -6  -4   5    5.60    1.90
  -6  -4   5    4.00    2.20
   5   4  -5   58.39    4.50
   5   4  -5   47.90    3.80
   5   4  -5   73.69    5.80
   5   4  -5   55.29    3.50
   5   4  -5   63.79    3.80
  -5  -4   5   54.59    4.50
  -5  -4   5   48.20    3.70
  -5  -4   5   50.79    4.40
  -5  -4   5   61.29    3.20
  -5  -4   5   57.79    4.10
  -5  -4   5   66.99    4.40
  -5  -4   5   57.19    4.50
   4   4  -5    0.00    1.70
   4   4  -5    0.90    1.60
   4   4  -5    0.60    1.30
   4   4  -5    0.10    1.20
   4   4  -5    0.50    1.50
   4   4  -5    1.00    0.90
  -4  -4   5   -0.10    1.60
  -4  -4   5    1.20    0.80
  -4  -4   5    1.70    1.60
  -4  -4   5   -0.10    1.50
  -4  -4   5    0.90    0.90
  -4  -4   5    0.80    1.30
  -4  -4   5   -0.20    1.20
  -4  -4   5    0.00    1.20
   3   4  -5   70.19    3.40
   3   4  -5   74.19    4.10
   3   4  -5   75.09    4.30
   3   4  -5   67.49    4.30
   3   4  -5   74.79    3.60
   3   4  -5   70.49    3.80
   3   4  -5   70.09    4.60
  -3  -4   5   72.19    3.60
  -3  -4   5   70.89    4.10
  -3  -4   5   71.79    4.50
  -3  -4   5   73.99    3.00
  -3  -4   5   70.49    3.00
  -3  -4   5   65.19    4.00
  -3  -4   5   69.89    4.20
   2   4  -5   39.60    3.20
   2   4  -5   31.90    2.80
   2   4  -5   34.20    2.30
   2   4  -5   32.90    2.50
  -2  -4   5   31.30    2.60
  -2  -4   5   36.40    3.00
  -2  -4   5   34.50    3.50
  -2  -4   5   33.10    3.10
  -2  -4   5   39.20    3.20
  -2  -4   5   27.60    2.20
   1   4  -5    0.10    0.80
   1   4  -5   -1.10    1.00
   1   4  -5    0.80    0.70
   1   4  -5   -0.20    1.00
   1   4  -5    1.00    0.70
  -1  -4   5    0.20    1.00
  -1  -4   5    2.10    0.70
  -1  -4   5    0.20    1.10
  -1  -4   5    0.30    1.10
  -1  -4   5    1.80    1.00
  -1  -4   5    0.00    1.20
  -1  -4   5    1.10    1.10
   0   4  -5    2.80    0.80
   0   4  -5    0.80    1.10
   0   4  -5    2.30    1.00
   0   4  -5    2.10    0.80
   0   4  -5    1.70    0.70
   0   4  -5    2.60    1.10
   0   4  -5    1.00    1.10
   0  -4   5    3.40    0.70
   0  -4   5    2.50    1.20
   0  -4   5    2.40    1.30
   0  -4   5    4.00    1.30
   0  -4   5    1.20    1.10
   0  -4   5   -0.10    0.40
  -1   4  -5  195.88    8.10
  -1   4  -5  194.58    8.00
  -1   4  -5  205.18    8.70
  -1   4  -5  210.68    7.50
  -1   4  -5  203.28    7.90
  -1   4  -5  215.28    7.50
  -1   4  -5  206.08    7.30
   1  -4   5  207.28    8.20
   1  -4   5  205.38    6.80
   1  -4   5  192.28    7.80
   1  -4   5  201.58    7.90
   1  -4   5  201.28    8.10
   1  -4   5  215.98    8.00
  -2   4  -5   12.70    1.80
  -2   4  -5   14.50    1.90
  -2   4  -5   15.00    1.40
  -2   4  -5   13.80    2.30
  -2   4  -5   12.10    1.40
  -2   4  -5   11.90    1.60
  -2   4  -5   10.90    1.30
  -2   4  -5   15.20    2.00
   2  -4   5   17.10    2.40
   2  -4   5   17.90    2.20
   2  -4   5   18.30    2.00
   2  -4   5   13.10    1.90
   2  -4   5   11.00    1.80
  -3   4  -5   49.80    2.80
  -3   4  -5   43.40    3.20
  -3   4  -5   49.00    2.50
  -3   4  -5   45.30    3.00
  -3   4  -5   52.89    3.50
  -3   4  -5   49.20    2.70
  -3   4  -5   49.80    3.30
   3  -4   5   50.79    3.10
   3  -4   5   50.09    3.40
   3  -4   5   53.29    3.90
   3  -4   5   49.10    3.40
   3  -4   5   48.20    3.40
  -4   4  -5  162.18    7.30
  -4   4  -5  156.28    7.20
  -4   4  -5  161.08    6.50
  -4   4  -5  167.38    6.50
  -4   4  -5  153.88    6.80
  -4   4  -5  155.78    7.10
   4  -4   5  167.78    7.40
   4  -4   5  165.38    7.40
   4  -4   5  174.78    7.90
   4  -4   5  172.18    7.60
  -5   4  -5    6.50    2.00
  -5   4  -5    3.10    1.60
  -5   4  -5    6.10    2.20
  -5   4  -5    4.70    1.50
   5  -4   5    4.10    1.80
   5  -4   5    3.40    2.00
   5  -4   5    3.00    1.90
   5  -4   5    4.30    1.90
  -6   4  -5   92.09    4.80
  -6   4  -5   91.09    5.30
  -6   4  -5   92.09    5.80
   6  -4   5   91.89    6.10
   6  -4   5   89.49    5.70
  -7   4  -5   10.00    2.20
  -7   4  -5    9.50    2.40
   7  -4   5   11.00    3.10
  -8   4  -5    1.90    2.20
  -8   4  -5    3.10    2.30
   8  -4   5    3.00    3.00
  -9   4  -5    5.10    2.90
  -9   4  -5    5.10    2.80
   9  -4   5    3.60    3.70
  10   3  -5   12.90    2.90
  10   3  -5   18.50    5.00
 -10  -3   5    8.90    2.60
 -10  -3   5   16.40    4.30
 -10  -3   5    9.70    3.70
   9   3  -5   -0.90    3.10
   9   3  -5    5.50    2.40
  -9  -3   5    1.30    3.20
  -9  -3   5    9.30    3.50
  -9  -3   5    6.70    2.20
   8   3  -5  114.09    8.10
   8   3  -5  114.89    6.30
   8   3  -5  106.99    6.60
  -8  -3   5  116.09    6.30
  -8  -3   5  110.69    5.80
  -8  -3   5  112.69    7.40
  -8  -3   5  122.79    7.30
   7   3  -5   44.50    3.90
   7   3  -5   58.89    6.00
   7   3  -5   55.69    4.60
  -7  -3   5   55.79    4.40
  -7  -3   5   54.29    3.60
  -7  -3   5   50.19    4.80
  -7  -3   5   59.79    5.00
   6   3  -5   98.29    6.40
   6   3  -5  108.69    5.40
   6   3  -5  104.19    6.30
   6   3  -5  109.69    5.70
  -6  -3   5  114.59    5.00
  -6  -3   5  106.39    5.80
  -6  -3   5  106.39    5.40
  -6  -3   5  112.09    6.10
   5   3  -5  233.18    9.90
   5   3  -5  239.98    8.60
   5   3  -5  221.98    9.10
   5   3  -5  239.78   10.20
   5   3  -5  232.78    9.00
  -5  -3   5  225.88    9.40
  -5  -3   5  224.48    8.90
  -5  -3   5  245.38    9.80
  -5  -3   5  219.88    9.50
  -5  -3   5  233.08   10.00
  -5  -3   5  228.98    9.40
  -5  -3   5  224.38   10.00
  -5  -3   5  243.08    8.50
   4   3  -5   24.40    3.10
   4   3  -5   25.70    2.60
   4   3  -5   25.10    2.40
   4   3  -5   19.10    2.10
   4   3  -5   24.60    2.00
   4   3  -5   22.80    2.60
  -4  -3   5   20.50    2.00
  -4  -3   5   24.70    2.50
  -4  -3   5   26.20    1.70
  -4  -3   5   20.70    2.80
  -4  -3   5   26.60    2.80
  -4  -3   5   20.90    2.40
   3   3  -5  182.08    7.20
   3   3  -5  189.48    7.70
   3   3  -5  191.88    7.00
   3   3  -5  183.18    7.90
  -3  -3   5  203.18    6.40
  -3  -3   5  171.98    8.20
  -3  -3   5  190.58    8.00
  -3  -3   5  180.38    6.30
  -3  -3   5  183.88    7.40
  -3  -3   5  176.08    6.90
  -3  -3   5  195.98    7.40
  -3  -3   5  193.58    7.70
   2   3  -5  509.25   16.80
   2   3  -5  502.25   17.90
   2   3  -5  517.35   17.10
   2   3  -5  515.65   17.60
   2   3  -5  524.25   17.10
   2   3  -5  539.25   17.60
  -2  -3   5  504.05   17.60
  -2  -3   5  491.15   17.40
  -2  -3   5  496.65   17.80
  -2  -3   5  484.25   16.80
  -2  -3   5  517.65   17.90
  -2  -3   5  540.25   17.30
  -2  -3   5  501.75   17.40
   1   3  -5    0.10    0.60
   1   3  -5    0.20    0.50
   1   3  -5    0.00    0.80
   1   3  -5    0.30    0.70
   1   3  -5    1.80    0.60
   1   3  -5    1.00    0.60
   1   3  -5    0.80    0.90
  -1  -3   5    0.60    0.90
  -1  -3   5   -0.20    0.30
  -1  -3   5    0.20    0.50
  -1  -3   5    0.80    0.70
  -1  -3   5    0.40    0.80
  -1  -3   5    0.50    0.90
  -1  -3   5    1.50    0.90
   0   3  -5  453.25   15.40
   0   3  -5  464.95   15.80
   0   3  -5  466.65   15.90
   0   3  -5  480.55   15.40
   0   3  -5  466.65   15.40
   0   3  -5  457.75   16.50
   0   3  -5  458.15   15.20
   0  -3   5  443.06   15.30
   0  -3   5  484.15   16.10
   0  -3   5  468.85   16.00
   0  -3   5  468.15   15.80
   0  -3   5  473.85   16.10
   0  -3   5  466.25   15.90
   0  -3   5  457.25   15.70
  -1   3  -5   31.00    2.20
  -1   3  -5   32.10    1.70
  -1   3  -5   35.00    2.10
  -1   3  -5   36.00    2.80
  -1   3  -5   34.30    1.90
  -1   3  -5   32.50    1.70
  -1   3  -5   31.60    2.30
   1  -3   5   31.40    2.10
   1  -3   5   30.50    2.20
   1  -3   5   33.10    2.30
   1  -3   5   32.10    2.20
   1  -3   5   32.30    2.20
  -2   3  -5   83.69    3.80
  -2   3  -5   82.99    4.10
  -2   3  -5   93.79    4.10
  -2   3  -5   93.29    3.60
  -2   3  -5   90.89    3.70
  -2   3  -5   84.69    4.00
  -2   3  -5   89.69    4.70
  -2   3  -5   83.99    3.50
   2  -3   5   87.49    4.60
   2  -3   5   87.59    4.00
   2  -3   5   87.79    4.00
   2  -3   5   87.79    4.20
   2  -3   5   84.09    4.10
  -3   3  -5  103.29    4.50
  -3   3  -5  100.49    4.00
  -3   3  -5   91.99    4.00
  -3   3  -5   93.49    3.90
  -3   3  -5   96.09    4.30
  -3   3  -5   97.99    4.50
  -3   3  -5   93.19    4.50
   3  -3   5   95.79    4.30
   3  -3   5   93.79    5.00
   3  -3   5   90.99    4.50
   3  -3   5  101.99    4.70
   3  -3   5   86.79    4.40
  -4   3  -5  321.17   12.00
  -4   3  -5  317.17   12.10
  -4   3  -5  320.77   11.70
  -4   3  -5  310.97   11.90
  -4   3  -5  330.87   11.30
  -4   3  -5  323.87   11.30
   4  -3   5  335.07   11.90
   4  -3   5  320.77   12.10
   4  -3   5  327.37   12.60
   4  -3   5  326.37   12.30
   4  -3   5  311.27   11.70
   4  -3   5  332.67   12.10
  -5   3  -5    9.20    1.90
  -5   3  -5    6.40    1.80
  -5   3  -5    6.50    1.40
  -5   3  -5    8.20    1.90
  -5   3  -5    7.30    1.50
  -5   3  -5    9.50    2.10
   5  -3   5    4.00    1.80
   5  -3   5   11.40    2.10
   5  -3   5   10.10    2.30
   5  -3   5    8.60    1.90
  -6   3  -5  127.49    6.80
  -6   3  -5  133.89    6.50
  -6   3  -5  143.89    6.10
   6  -3   5  133.39    7.10
   6  -3   5  140.79    7.10
   6  -3   5  138.29    7.10
   6  -3   5  146.29    7.50
  -7   3  -5    5.60    2.20
  -7   3  -5    7.00    2.00
   7  -3   5    4.80    2.30
   7  -3   5    6.40    2.70
  -8   3  -5   17.80    2.80
  -8   3  -5   17.40    3.20
   8  -3   5   21.00    3.90
  -9   3  -5    6.20    2.70
  -9   3  -5    5.60    2.70
   9  -3   5   -2.50    2.90
  10   2  -5   -0.20    3.60
  10   2  -5   -3.30    2.00
 -10  -2   5    1.70    2.20
 -10  -2   5    7.30    3.80
 -10  -2   5    1.10    3.30
   9   2  -5    1.30    2.00
   9   2  -5   -0.60    3.40
   9   2  -5    2.90    2.60
  -9  -2   5   -1.20    3.00
  -9  -2   5    1.00    1.70
  -9  -2   5    3.90    2.90
   8   2  -5    7.90    2.70
   8   2  -5    4.80    2.00
   8   2  -5    6.30    3.40
  -8  -2   5    6.50    1.90
  -8  -2   5    4.30    2.10
  -8  -2   5    8.30    3.00
  -8  -2   5    5.90    2.70
   7   2  -5   39.40    4.10
   7   2  -5   34.20    3.50
   7   2  -5   31.20    3.10
   7   2  -5   44.30    5.00
  -7  -2   5   34.80    4.00
  -7  -2   5   37.40    4.00
  -7  -2   5   39.20    3.50
  -7  -2   5   37.80    3.00
   6   2  -5   10.00    2.30
   6   2  -5    8.20    1.50
   6   2  -5   12.40    2.10
   6   2  -5    6.20    2.00
   6   2  -5   12.70    2.90
  -6  -2   5    8.50    2.30
  -6  -2   5    9.30    2.30
  -6  -2   5   12.60    2.10
  -6  -2   5   10.00    2.10
  -6  -2   5   10.50    1.30
  -6  -2   5   11.40    1.60
  -6  -2   5   10.40    2.50
   5   2  -5  173.28    7.90
   5   2  -5  172.98    7.60
   5   2  -5  177.08    7.30
   5   2  -5  181.78    8.30
   5   2  -5  181.68    7.20
   5   2  -5  174.48    7.60
  -5  -2   5  173.98    7.50
  -5  -2   5  172.38    7.60
  -5  -2   5  186.38    7.70
  -5  -2   5  179.88    6.70
  -5  -2   5  180.48    6.50
  -5  -2   5  175.68    8.10
  -5  -2   5  164.98    7.60
  -5  -2   5  186.88    7.10
   4   2  -5   79.89    3.80
   4   2  -5   84.39    4.70
   4   2  -5   79.59    4.00
   4   2  -5   77.09    4.40
   4   2  -5   87.99    4.30
   4   2  -5   89.89    4.70
  -4  -2   5   80.49    4.20
  -4  -2   5   85.89    3.30
  -4  -2   5   84.69    4.60
  -4  -2   5   75.69    3.40
  -4  -2   5   75.09    3.70
  -4  -2   5   81.99    4.60
  -4  -2   5   82.69    4.10
  -4  -2   5   84.79    4.40
   3   2  -5  147.69    6.50
   3   2  -5  155.88    5.70
   3   2  -5  157.28    6.40
   3   2  -5  153.28    6.20
   3   2  -5  155.58    5.90
  -3  -2   5  141.19    6.20
  -3  -2   5  165.78    6.20
  -3  -2   5  148.79    5.70
  -3  -2   5  150.78    5.60
  -3  -2   5  157.88    6.30
  -3  -2   5  149.59    6.00
  -3  -2   5  151.68    6.60
  -3  -2   5  159.28    6.50
   2   2  -5  936.71   29.60
   2   2  -5  927.21   29.90
   2   2  -5  930.31   29.60
   2   2  -5  934.41   29.60
   2   2  -5  917.51   30.00
   2   2  -5  896.11   30.20
   2   2  -5  890.71   29.40
  -2  -2   5  914.31   30.20
  -2  -2   5  896.61   29.20
  -2  -2   5  918.51   30.00
  -2  -2   5  956.50   29.70
  -2  -2   5  876.21   30.20
  -2  -2   5  887.61   29.70
  -2  -2   5  932.91   29.90
   1   2  -5    7.80    1.10
   1   2  -5    5.50    0.80
   1   2  -5    5.60    0.80
   1   2  -5    4.40    0.90
   1   2  -5    6.60    0.80
   1   2  -5    6.10    0.70
   1   2  -5    7.00    1.10
  -1  -2   5    5.60    1.00
  -1  -2   5    5.30    0.70
  -1  -2   5    5.10    1.20
  -1  -2   5    3.50    0.90
  -1  -2   5    5.80    0.70
  -1  -2   5    5.20    1.00
  -1  -2   5    5.30    1.10
   0   2  -5  538.95   17.80
   0   2  -5  489.15   16.80
   0   2  -5  504.65   16.50
   0   2  -5  521.25   16.50
   0   2  -5  517.45   16.40
   0   2  -5  510.65   16.40
   0   2  -5  512.95   17.00
   0  -2   5  491.45   16.90
   0  -2   5  508.85   17.00
   0  -2   5  507.35   16.90
   0  -2   5  508.35   17.10
   0  -2   5  532.65   17.00
  -1   2  -5  300.67   10.80
  -1   2  -5  291.37    9.60
  -1   2  -5  292.37    9.60
  -1   2  -5  283.27    9.50
  -1   2  -5  295.97   10.10
  -1   2  -5  297.77   10.10
  -1   2  -5  296.27    9.60
  -1   2  -5  290.07    9.80
   1  -2   5  304.67   10.10
   1  -2   5  299.17   10.00
   1  -2   5  282.97   10.10
   1  -2   5  287.17   10.10
  -2   2  -5   33.90    1.60
  -2   2  -5   33.20    2.10
  -2   2  -5   32.10    2.00
  -2   2  -5   33.30    1.70
  -2   2  -5   32.30    1.60
  -2   2  -5   34.70    1.90
  -2   2  -5   31.50    2.00
  -2   2  -5   31.90    2.50
   2  -2   5   32.40    2.50
   2  -2   5   32.70    1.90
   2  -2   5   33.30    2.00
   2  -2   5   33.60    2.10
   2  -2   5   31.30    2.00
  -3   2  -5  100.19    4.30
  -3   2  -5  102.39    3.80
  -3   2  -5   91.29    4.30
  -3   2  -5   98.69    4.10
  -3   2  -5   91.09    4.20
  -3   2  -5   92.69    3.80
  -3   2  -5  100.59    3.80
   3  -2   5   98.59    4.80
   3  -2   5   98.59    4.40
   3  -2   5   93.79    4.10
   3  -2   5  102.09    4.40
   3  -2   5   96.19    4.20
   3  -2   5   93.79    4.40
  -4   2  -5  108.29    4.60
  -4   2  -5  111.49    4.40
  -4   2  -5  110.69    5.10
  -4   2  -5  102.99    4.90
  -4   2  -5  113.69    4.50
  -4   2  -5  109.99    4.80
  -4   2  -5  110.09    5.10
   4  -2   5  108.29    5.50
   4  -2   5  116.09    4.90
   4  -2   5  110.79    4.90
   4  -2   5  110.09    5.20
   4  -2   5  107.49    5.10
   4  -2   5  107.89    5.20
  -5   2  -5    5.40    1.60
  -5   2  -5    0.40    1.20
  -5   2  -5    4.60    1.30
  -5   2  -5    1.60    1.00
  -5   2  -5    3.30    1.50
  -5   2  -5    4.20    1.70
   5  -2   5    2.20    1.60
   5  -2   5    2.20    1.60
   5  -2   5    2.70    1.50
   5  -2   5    2.60    1.70
  -6   2  -5   78.79    5.00
  -6   2  -5   83.99    4.30
  -6   2  -5   72.69    4.50
   6  -2   5   88.29    5.40
   6  -2   5   80.69    5.10
   6  -2   5   80.19    5.10
   6  -2   5   82.19    5.20
  -7   2  -5   -2.30    1.60
  -7   2  -5    2.30    1.60
   7  -2   5    1.50    2.40
   7  -2   5    1.50    2.00
  -8   2  -5    4.60    2.20
  -8   2  -5    5.60    2.20
   8  -2   5    2.90    2.70
  -9   2  -5    2.80    2.30
  -9   2  -5   -0.90    2.20
   9  -2   5   -3.00    2.90
  10   1  -5   -1.80    3.60
  10   1  -5   -1.70    2.00
 -10  -1   5    1.90    3.00
 -10  -1   5    0.60    3.40
 -10  -1   5    3.40    2.20
   9   1  -5    4.80    2.60
   9   1  -5    1.30    2.10
   9   1  -5    0.80    3.30
  -9  -1   5    0.40    1.90
  -9  -1   5    5.40    3.00
  -9  -1   5   -2.60    2.90
   8   1  -5   22.70    3.00
   8   1  -5   27.40    4.50
   8   1  -5   17.80    3.20
  -8  -1   5   25.20    3.90
  -8  -1   5   25.30    3.90
  -8  -1   5   18.00    2.50
  -8  -1   5   26.30    3.00
   7   1  -5    4.10    1.80
   7   1  -5    4.30    2.30
   7   1  -5    1.30    1.90
   7   1  -5    5.30    2.50
  -7  -1   5    2.90    2.00
  -7  -1   5    2.00    2.00
  -7  -1   5    1.30    1.10
  -7  -1   5    2.90    1.40
  -7  -1   5    2.90    1.70
   6   1  -5    6.20    1.30
   6   1  -5    4.70    1.90
   6   1  -5    4.10    2.20
   6   1  -5    5.60    1.80
   6   1  -5    6.60    2.00
   6   1  -5    4.10    1.40
  -6  -1   5    3.30    1.50
  -6  -1   5    6.50    2.00
  -6  -1   5    5.80    1.60
  -6  -1   5    4.60    1.00
  -6  -1   5    5.60    1.20
  -6  -1   5    5.20    1.30
  -6  -1   5    5.80    1.90
  -6  -1   5    5.90    2.00
   5   1  -5  123.19    5.10
   5   1  -5  111.19    5.40
   5   1  -5  107.29    4.70
   5   1  -5  113.09    5.30
   5   1  -5  113.59    6.00
   5   1  -5  123.29    5.90
  -5  -1   5  118.79    5.60
  -5  -1   5  114.59    4.50
  -5  -1   5  114.89    5.90
  -5  -1   5  119.09    5.40
  -5  -1   5  108.19    5.50
  -5  -1   5  116.89    4.90
  -5  -1   5  109.09    4.70
   4   1  -5   94.99    4.20
   4   1  -5   89.09    4.30
   4   1  -5  100.69    5.00
   4   1  -5  102.89    4.70
   4   1  -5  102.19    4.90
  -4  -1   5  105.39    4.20
  -4  -1   5  102.99    4.70
  -4  -1   5   97.99    4.10
  -4  -1   5  100.09    4.50
  -4  -1   5  100.09    5.00
  -4  -1   5   99.49    4.70
   3   1  -5  278.07    9.30
   3   1  -5  263.07   10.10
   3   1  -5  269.87    9.50
   3   1  -5  274.47    9.30
   3   1  -5  262.57    9.90
   3   1  -5  282.07    9.80
  -3  -1   5  278.17    9.90
  -3  -1   5  284.37    9.90
  -3  -1   5  288.27   10.10
  -3  -1   5  282.97    9.60
  -3  -1   5  273.17    9.10
  -3  -1   5  287.47    9.60
  -3  -1   5  225.28    9.60
  -3  -1   5  272.57   10.10
  -3  -1   5  261.97   10.10
   2   1  -5  678.73   22.10
   2   1  -5  662.23   22.40
   2   1  -5  704.43   22.50
   2   1  -5  697.53   22.10
   2   1  -5  695.93   22.70
   2   1  -5  694.83   22.00
   2   1  -5  690.83   22.10
  -2  -1   5  686.03   22.10
  -2  -1   5  676.53   22.50
  -2  -1   5  657.23   22.40
  -2  -1   5  692.13   22.50
  -2  -1   5  690.63   22.40
  -2  -1   5  665.03   22.60
   1   1  -5   13.40    1.00
   1   1  -5   12.70    0.90
   1   1  -5   12.70    1.30
   1   1  -5   15.10    1.30
   1   1  -5   13.20    0.80
   1   1  -5   13.90    0.80
   1   1  -5   13.10    0.80
   1   1  -5   14.40    1.10
  -1  -1   5   12.50    1.20
  -1  -1   5   12.90    1.10
  -1  -1   5   13.00    1.20
  -1  -1   5   11.60    1.40
  -1  -1   5   13.10    1.20
   0   1  -5 1676.43   49.70
   0   1  -5 1498.65   49.70
   0   1  -5 1526.25   49.90
   0   1  -5 1551.94   49.90
   0  -1   5 1551.04   49.90
   0  -1   5 1606.04   50.49
   0  -1   5 1560.04   49.80
   0  -1   5 1538.95   49.80
   0  -1   5 1631.24   49.80
  -1   1  -5   40.40    1.80
  -1   1  -5   41.80    1.60
  -1   1  -5   40.20    2.40
  -1   1  -5   41.10    1.80
  -1   1  -5   37.40    1.80
   1  -1   5   39.00    1.80
   1  -1   5   41.90    1.80
   1  -1   5   39.00    1.70
   1  -1   5   40.50    1.70
   1  -1   5   39.20    2.40
   1  -1   5   39.40    1.70
  -2   1  -5  283.87   10.00
  -2   1  -5  312.27    9.50
  -2   1  -5  295.87    9.90
  -2   1  -5  302.07    9.90
  -2   1  -5  289.67   10.10
   2  -1   5  304.77   10.10
   2  -1   5  296.97   10.00
   2  -1   5  279.27    9.90
   2  -1   5  305.47   10.70
  -3   1  -5  169.28    5.80
  -3   1  -5  167.08    5.80
  -3   1  -5  162.48    6.20
  -3   1  -5  167.38    5.70
  -3   1  -5  163.88    6.30
  -3   1  -5  159.58    6.10
  -3   1  -5  169.78    5.80
  -3   1  -5  163.08    6.20
   3  -1   5  162.38    6.30
   3  -1   5  175.48    6.50
   3  -1   5  166.88    6.30
   3  -1   5  167.58    6.10
   3  -1   5  166.78    6.70
   3  -1   5  159.18    6.10
  -4   1  -5    0.70    0.80
  -4   1  -5    1.50    0.80
  -4   1  -5    2.60    1.20
  -4   1  -5    0.20    1.00
  -4   1  -5    1.20    0.70
  -4   1  -5    2.10    1.00
  -4   1  -5    1.30    1.10
   4  -1   5   -0.60    0.90
   4  -1   5    1.40    1.20
   4  -1   5    3.20    1.30
   4  -1   5    1.80    1.10
   4  -1   5    0.70    1.00
   4  -1   5    2.10    1.00
  -5   1  -5   34.60    3.10
  -5   1  -5   28.20    2.60
  -5   1  -5   41.60    3.40
  -5   1  -5   38.50    2.80
  -5   1  -5   34.10    2.20
  -5   1  -5   30.80    2.40
   5  -1   5   30.90    3.00
   5  -1   5   37.60    3.30
   5  -1   5   35.50    3.10
   5  -1   5   30.10    3.00
  -6   1  -5    8.30    1.50
  -6   1  -5    5.90    1.60
  -6   1  -5    6.10    2.10
  -6   1  -5    7.30    1.90
   6  -1   5   10.40    2.20
   6  -1   5    8.90    2.20
   6  -1   5    6.10    2.10
   6  -1   5    8.20    2.20
  -7   1  -5    2.40    1.70
  -7   1  -5    5.10    2.10
   7  -1   5    7.80    2.40
   7  -1   5    2.80    1.90
   7  -1   5    7.10    2.50
  -8   1  -5    1.40    2.20
  -8   1  -5    2.50    2.10
   8  -1   5    4.70    2.90
  -9   1  -5    5.10    2.60
  -9   1  -5    4.00    2.40
   9  -1   5    4.10    3.20
  10   0  -5   -4.40    3.20
  10   0  -5    1.60    2.20
 -10   0   5   -0.40    2.20
 -10   0   5   -2.70    3.00
 -10   0   5   -5.40    2.50
   9   0  -5    6.10    2.30
   9   0  -5   12.60    3.00
   9   0  -5    6.70    3.30
  -9   0   5    2.40    2.90
  -9   0   5    6.20    2.20
  -9   0   5   12.10    3.70
   8   0  -5   22.50    4.00
   8   0  -5   26.90    3.70
   8   0  -5   28.30    3.40
  -8   0   5   23.90    3.60
  -8   0   5   25.20    2.80
  -8   0   5   21.50    2.80
  -8   0   5   25.40    3.80
   7   0  -5   -0.30    2.00
   7   0  -5    0.70    1.90
   7   0  -5    0.20    1.30
   7   0  -5    2.40    2.10
  -7   0   5   -0.70    1.20
  -7   0   5    2.00    2.10
  -7   0   5    0.90    2.00
  -7   0   5   -0.90    1.30
  -7   0   5    1.10    1.50
   6   0  -5  114.69    5.70
   6   0  -5  126.69    5.90
   6   0  -5  114.29    5.00
   6   0  -5  123.59    6.60
   6   0  -5  111.59    6.20
   6   0  -5  113.39    5.40
  -6   0   5  116.89    6.00
  -6   0   5  111.09    5.80
  -6   0   5  108.59    5.10
  -6   0   5  110.49    4.40
  -6   0   5  110.19    5.50
  -6   0   5  121.29    6.20
  -6   0   5  122.79    6.40
  -6   0   5  117.19    4.90
   5   0  -5   51.19    3.40
   5   0  -5   52.29    4.00
   5   0  -5   48.20    3.70
   5   0  -5   53.89    3.10
  -5   0   5   52.99    3.20
  -5   0   5   53.89    3.90
  -5   0   5   53.69    3.50
  -5   0   5   57.39    3.70
  -5   0   5   57.39    3.00
  -5   0   5   54.09    2.50
   4   0  -5    2.20    0.80
   4   0  -5    0.60    0.60
   4   0  -5    0.80    1.00
   4   0  -5    0.90    1.20
   4   0  -5    0.80    0.90
   4   0  -5    1.60    1.10
  -4   0   5    0.70    0.70
  -4   0   5    1.00    1.00
  -4   0   5    1.60    1.20
  -4   0   5    1.20    1.10
  -4   0   5    0.80    0.80
  -4   0   5    1.20    1.10
   3   0  -5   40.80    2.10
   3   0  -5   42.60    2.70
   3   0  -5   40.40    2.00
   3   0  -5   45.80    2.40
   3   0  -5   38.20    1.90
   3   0  -5   38.50    2.50
   3   0  -5   41.50    2.20
  -3   0   5   28.60    2.10
  -3   0   5   43.50    2.50
  -3   0   5   44.10    2.10
  -3   0   5   39.80    1.70
  -3   0   5   40.80    2.50
  -3   0   5   41.50    2.40
  -3   0   5   43.60    2.50
   2   0  -5  684.53   23.20
   2   0  -5  724.33   22.90
   2   0  -5  712.43   23.40
   2   0  -5  701.03   22.90
   2   0  -5  717.23   22.80
   2   0  -5  752.82   23.20
  -2   0   5  710.43   23.50
  -2   0   5  747.33   22.80
  -2   0   5  683.93   23.30
  -2   0   5  732.03   23.30
  -2   0   5  688.33   23.40
  -2   0   5  680.03   23.40
  -2   0   5  719.63   23.30
  -2   0   5  715.63   23.20
   1   0  -5    1.20    0.40
   1   0  -5    0.90    0.60
   1   0  -5    0.70    0.40
   1   0  -5    1.60    0.60
  -1   0   5    1.20    0.50
  -1   0   5    0.90    0.50
  -1   0   5    0.30    0.20
  -1   0   5    0.50    0.50
  -1   0   5    0.70    0.40
  -1   0   5    0.70    0.80
   0   0  -5  804.32   24.00
   0   0  -5  794.82   24.00
   0   0  -5  699.63   23.90
   0   0   5  720.33   24.80
  -1   0  -5  188.68    5.80
  -1   0  -5  169.18    5.80
  -1   0  -5  187.98    6.50
  -1   0  -5  171.58    5.70
   1   0   5  173.98    6.80
  -2   0  -5   75.19    3.00
  -2   0  -5   74.89    2.70
  -2   0  -5   72.89    2.80
  -2   0  -5   68.99    2.70
   2   0   5   74.09    3.40
   2   0   5   71.49    2.80
   2   0   5   71.89    2.90
   2   0   5   73.79    2.70
   2   0   5   78.69    2.80
   2   0   5   76.39    3.60
   2   0   5   74.99    2.80
  -3   0  -5  113.19    3.80
  -3   0  -5   98.09    4.10
  -3   0  -5  107.89    4.10
  -3   0  -5  100.79    3.70
  -3   0  -5   97.89    4.10
  -3   0  -5   95.09    4.00
  -3   0  -5  102.29    3.60
   3   0   5   97.09    4.00
   3   0   5  103.69    4.20
   3   0   5   94.29    4.30
   3   0   5  102.69    4.30
   3   0   5   99.79    4.10
   3   0   5  102.39    4.00
  -4   0  -5   51.49    3.00
  -4   0  -5   43.80    2.70
  -4   0  -5   47.00    2.20
  -4   0  -5   49.60    2.50
  -4   0  -5   43.30    2.80
  -4   0  -5   49.50    2.50
  -4   0  -5   45.00    2.80
   4   0   5   48.30    3.00
   4   0   5   49.40    2.80
   4   0   5   53.09    3.10
   4   0   5   48.30    3.10
   4   0   5   47.90    2.90
   4   0   5   53.29    2.80
  -5   0  -5   11.50    1.70
  -5   0  -5   11.70    3.00
  -5   0  -5   12.60    1.90
  -5   0  -5   16.50    2.30
  -5   0  -5   15.30    2.10
  -5   0  -5   16.90    1.60
   5   0   5   15.80    2.30
   5   0   5   14.80    2.10
   5   0   5   14.30    2.30
   5   0   5   17.10    2.10
  -6   0  -5   70.99    3.60
  -6   0  -5   65.19    4.60
  -6   0  -5   71.69    4.40
  -6   0  -5   72.69    4.00
   6   0   5   75.09    4.70
   6   0   5   72.99    4.60
   6   0   5   73.59    4.90
   6   0   5   79.79    4.90
  -7   0  -5    3.30    1.80
  -7   0  -5    6.40    2.20
   7   0   5    2.20    1.80
   7   0   5    3.20    3.00
   7   0   5    1.40    2.00
   7   0   5    7.50    2.60
  -8   0  -5    4.70    2.40
  -8   0  -5    5.00    2.10
   8   0   5    1.40    2.70
  -9   0  -5   -1.50    2.20
  -9   0  -5    0.10    2.20
   9   0   5    0.20    2.80
  10  -1  -5    2.10    2.30
  10  -1  -5   -0.30    3.60
 -10   1   5    1.40    2.20
 -10   1   5    2.10    3.30
 -10   1   5    4.20    3.70
   9  -1  -5   -1.30    2.60
   9  -1  -5    3.80    2.70
   9  -1  -5    7.40    2.30
  -9   1   5    8.60    2.30
  -9   1   5    2.90    3.20
  -9   1   5    3.30    2.90
   8  -1  -5   40.10    4.10
   8  -1  -5   40.50    3.70
   8  -1  -5   45.20    5.40
  -8   1   5   39.40    4.50
  -8   1   5   41.50    3.40
  -8   1   5   47.90    4.30
  -8   1   5   43.10    4.90
   7  -1  -5    3.20    1.60
   7  -1  -5    4.50    2.30
   7  -1  -5    0.70    2.00
   7  -1  -5    3.90    2.30
  -7   1   5    1.40    2.10
  -7   1   5    4.70    1.70
  -7   1   5    5.50    1.10
  -7   1   5    5.80    2.30
  -7   1   5    3.70    1.30
   6  -1  -5   52.99    4.80
   6  -1  -5   45.70    3.60
   6  -1  -5   38.60    2.70
   6  -1  -5   52.09    4.30
   6  -1  -5   45.60    3.20
   6  -1  -5   52.69    3.70
  -6   1   5   54.09    4.20
  -6   1   5   52.99    3.40
  -6   1   5   48.10    2.40
  -6   1   5   55.99    3.90
  -6   1   5   52.59    4.20
  -6   1   5   48.90    3.10
  -6   1   5   51.79    4.30
  -6   1   5   56.59    2.80
   5  -1  -5  283.27   10.60
   5  -1  -5  265.87    9.90
   5  -1  -5  268.27   10.90
   5  -1  -5  273.67   11.10
   5  -1  -5  296.07   10.50
   5  -1  -5  280.67   10.20
  -5   1   5  275.57    9.80
  -5   1   5  270.07   10.60
  -5   1   5  276.37   10.30
  -5   1   5  278.67   10.70
  -5   1   5  290.57   11.20
   4  -1  -5    4.30    1.20
   4  -1  -5    3.00    1.20
   4  -1  -5    5.60    1.60
   4  -1  -5    2.70    0.80
   4  -1  -5    2.50    0.90
   4  -1  -5    2.70    1.00
  -4   1   5    3.80    1.20
  -4   1   5    1.00    1.00
  -4   1   5    1.90    1.10
  -4   1   5    4.60    1.00
  -4   1   5    2.70    0.80
  -4   1   5    3.00    1.20
   3  -1  -5  631.84   19.90
   3  -1  -5  619.34   19.90
   3  -1  -5  590.74   20.40
   3  -1  -5  619.04   20.60
   3  -1  -5  608.44   20.10
   3  -1  -5  605.24   19.80
   3  -1  -5  614.84   20.20
  -3   1   5  607.94   20.40
  -3   1   5  608.14   20.00
  -3   1   5  606.44   20.30
  -3   1   5  600.54   20.40
  -3   1   5  605.14   20.40
  -3   1   5  595.54   19.40
   2  -1  -5   23.70    1.70
   2  -1  -5   22.70    1.20
   2  -1  -5   22.90    1.30
   2  -1  -5   23.60    1.30
   2  -1  -5   23.00    1.70
   2  -1  -5   23.30    1.50
  -2   1   5   26.10    1.70
  -2   1   5   25.50    1.60
  -2   1   5   24.20    1.00
  -2   1   5   23.50    1.70
  -2   1   5   24.10    2.00
  -2   1   5   24.10    1.70
  -2   1   5   22.90    1.60
   1  -1  -5    1.10    0.40
   1  -1  -5    0.80    0.60
   1  -1  -5    1.00    0.40
   1  -1  -5    1.10    0.50
  -1   1   5    1.60    1.00
  -1   1   5    1.20    0.50
  -1   1   5    0.90    0.50
  -1   1   5    1.20    0.50
  -1   1   5    0.50    0.40
  -1   1   5    0.50    0.50
   0  -1  -5   97.59    3.40
   0   1   5  106.69    4.30
  -1  -1  -5  471.35   15.90
  -1  -1  -5  500.65   16.00
  -1  -1  -5  521.15   16.00
   1   1   5  506.95   17.00
  -2  -1  -5    3.10    0.60
  -2  -1  -5    4.40    0.70
  -2  -1  -5    4.70    0.70
   2   1   5    5.30    0.80
   2   1   5    2.60    0.60
   2   1   5    3.60    0.60
   2   1   5    4.80    1.20
   2   1   5    4.60    0.80
   2   1   5    4.10    0.70
  -3  -1  -5  388.46   12.20
  -3  -1  -5  367.36   12.00
  -3  -1  -5  356.66   12.40
  -3  -1  -5  362.86   12.30
  -3  -1  -5  371.26   12.50
  -3  -1  -5  363.76   12.40
  -3  -1  -5  357.56   11.90
   3   1   5  357.36   12.30
   3   1   5  379.76   12.60
   3   1   5  359.26   12.30
   3   1   5  349.87   12.40
   3   1   5  371.36   12.50
   3   1   5  370.06   12.70
  -4  -1  -5   79.99    3.60
  -4  -1  -5   81.89    3.30
  -4  -1  -5   84.89    3.90
  -4  -1  -5   86.79    4.10
  -4  -1  -5   80.19    3.80
  -4  -1  -5   86.89    4.00
  -4  -1  -5   81.79    3.70
   4   1   5   77.19    3.80
   4   1   5   80.29    4.00
   4   1   5   80.39    3.90
   4   1   5   84.59    3.80
   4   1   5   80.69    4.20
   4   1   5   88.89    4.20
  -5  -1  -5   27.70    2.80
  -5  -1  -5   21.20    2.40
  -5  -1  -5   24.70    1.90
  -5  -1  -5   23.00    2.20
  -5  -1  -5   27.00    2.50
   5   1   5   27.00    2.90
   5   1   5   26.10    2.70
   5   1   5   28.40    3.00
   5   1   5   22.30    2.40
  -6  -1  -5   24.50    2.60
  -6  -1  -5   29.10    2.70
  -6  -1  -5   24.60    2.90
  -6  -1  -5   27.60    2.30
   6   1   5   29.50    3.30
   6   1   5   24.20    2.80
   6   1   5   25.30    2.90
   6   1   5   26.90    3.30
  -7  -1  -5   19.50    2.70
  -7  -1  -5   21.60    2.90
   7   1   5   22.30    3.50
   7   1   5   20.50    3.30
  -8  -1  -5    5.20    2.40
  -8  -1  -5    2.50    2.20
   8   1   5    5.20    2.90
  -9  -1  -5    7.80    2.80
  -9  -1  -5    6.80    2.90
   9   1   5   10.50    3.70
  10  -2  -5    2.50    2.80
  10  -2  -5   -1.10    2.10
  10  -2  -5   -2.10    2.90
 -10   2   5   -3.10    3.10
 -10   2   5   -3.50    3.00
 -10   2   5    0.40    2.00
   9  -2  -5   -0.90    1.90
   9  -2  -5   -1.20    2.50
   9  -2  -5   -1.50    3.00
  -9   2   5   -1.00    2.80
  -9   2   5    2.00    3.10
  -9   2   5    0.10    1.70
   8  -2  -5   10.20    3.50
   8  -2  -5   14.50    2.40
   8  -2  -5   24.80    3.40
  -8   2   5   12.00    3.00
  -8   2   5   17.80    2.20
  -8   2   5   17.40    3.40
   7  -2  -5   95.29    5.50
   7  -2  -5   92.59    6.30
   7  -2  -5   91.29    5.90
   7  -2  -5   93.69    4.90
  -7   2   5   90.29    4.60
  -7   2   5   90.79    5.90
  -7   2   5   91.79    4.20
  -7   2   5   84.79    5.60
  -7   2   5   82.29    3.70
   6  -2  -5  109.89    5.10
   6  -2  -5  120.59    6.40
   6  -2  -5   98.99    5.40
   6  -2  -5  103.99    5.90
  -6   2   5  108.99    4.20
  -6   2   5  115.19    5.90
  -6   2   5  104.79    4.80
  -6   2   5   99.89    5.10
  -6   2   5  100.49    3.90
  -6   2   5  104.49    6.00
  -6   2   5  105.39    5.70
  -6   2   5  112.69    5.90
   5  -2  -5  564.94   20.20
   5  -2  -5  581.14   19.70
   5  -2  -5  568.24   19.30
   5  -2  -5  588.44   19.90
   5  -2  -5  568.54   20.40
   5  -2  -5  582.04   19.50
  -5   2   5  574.44   19.60
  -5   2   5  598.64   20.20
  -5   2   5  568.94   20.50
  -5   2   5  553.94   19.00
  -5   2   5  554.74   20.00
   4  -2  -5   61.89    3.30
   4  -2  -5   60.29    3.70
   4  -2  -5   53.69    2.90
   4  -2  -5   57.99    3.00
   4  -2  -5   61.79    3.80
   4  -2  -5   58.89    3.30
  -4   2   5   66.69    3.60
  -4   2   5   58.39    2.70
  -4   2   5   55.09    3.50
  -4   2   5   67.09    3.20
   3  -2  -5  911.81   29.50
   3  -2  -5  926.01   29.70
   3  -2  -5  923.61   29.80
   3  -2  -5  903.61   29.50
   3  -2  -5  949.31   30.20
   3  -2  -5  913.11   29.40
   3  -2  -5  916.51   30.30
  -3   2   5  868.21   30.20
  -3   2   5  926.11   30.00
  -3   2   5  928.81   30.10
  -3   2   5  900.31   30.10
  -3   2   5  937.11   30.10
  -3   2   5  922.01   28.90
  -3   2   5  865.11   29.60
   2  -2  -5   18.00    1.40
   2  -2  -5   17.40    1.30
   2  -2  -5   16.30    1.10
   2  -2  -5   14.70    1.60
   2  -2  -5   16.00    1.20
   2  -2  -5   12.70    1.40
  -2   2   5   16.10    1.50
  -2   2   5   13.90    1.40
  -2   2   5   15.10    0.90
  -2   2   5   16.00    1.60
  -2   2   5   15.60    1.50
  -2   2   5   16.60    1.50
   1  -2  -5  505.35   16.60
   1  -2  -5  505.65   16.10
   1  -2  -5  511.55   16.10
   1  -2  -5  502.25   16.60
   1  -2  -5  501.35   16.50
  -1   2   5  501.35   16.50
  -1   2   5  487.05   16.70
  -1   2   5  493.55   16.50
  -1   2   5  510.55   16.50
  -1   2   5  522.25   17.30
  -1   2   5  515.35   16.70
   0  -2  -5   23.50    1.30
   0  -2  -5   25.30    1.20
   0  -2  -5   26.00    1.30
   0   2   5   23.80    1.30
   0   2   5   25.60    1.40
   0   2   5   27.20    1.30
   0   2   5   21.60    1.20
   0   2   5   24.00    1.30
   0   2   5   24.30    2.10
   0   2   5   23.90    1.10
  -1  -2  -5   14.20    1.00
  -1  -2  -5   15.90    1.20
  -1  -2  -5   17.60    1.10
  -1  -2  -5   16.00    1.00
   1   2   5   15.60    0.90
   1   2   5   18.40    1.90
   1   2   5   18.50    1.10
   1   2   5   14.90    1.10
   1   2   5   16.70    1.00
   1   2   5   17.80    1.00
   1   2   5   15.70    1.00
  -2  -2  -5    1.70    0.70
  -2  -2  -5    3.50    0.80
  -2  -2  -5    3.70    0.40
  -2  -2  -5    3.10    0.80
  -2  -2  -5    3.30    0.40
   2   2   5    3.10    0.70
   2   2   5    2.30    1.00
   2   2   5    3.30    0.80
   2   2   5    3.10    0.70
   2   2   5    3.70    0.90
   2   2   5    2.70    0.80
  -3  -2  -5   26.30    1.80
  -3  -2  -5   26.70    1.50
  -3  -2  -5   26.80    2.00
  -3  -2  -5   26.30    1.60
  -3  -2  -5   25.00    2.00
  -3  -2  -5   25.30    1.80
   3   2   5   25.30    2.00
   3   2   5   26.90    2.30
   3   2   5   26.30    2.20
   3   2   5   29.90    2.30
   3   2   5   23.60    1.80
   3   2   5   29.10    2.40
   3   2   5   24.00    1.80
   3   2   5   25.30    1.50
  -4  -2  -5   12.50    1.70
  -4  -2  -5   11.60    1.70
  -4  -2  -5   12.40    1.30
  -4  -2  -5   12.60    1.80
  -4  -2  -5   12.30    1.60
  -4  -2  -5   11.30    1.60
   4   2   5    9.20    2.00
   4   2   5   11.60    1.60
   4   2   5   11.70    1.90
   4   2   5   12.00    1.60
   4   2   5   13.50    1.80
   4   2   5   10.10    1.40
   4   2   5   10.20    1.90
  -5  -2  -5   10.30    1.90
  -5  -2  -5    9.70    1.90
  -5  -2  -5   10.20    1.80
  -5  -2  -5    9.50    1.70
  -5  -2  -5   10.80    1.40
   5   2   5    6.90    1.70
   5   2   5    7.70    1.50
   5   2   5    6.30    1.90
   5   2   5   12.50    2.40
  -6  -2  -5   23.40    2.60
  -6  -2  -5   21.20    2.70
   6   2   5   30.80    3.30
   6   2   5   20.10    3.10
   6   2   5   21.40    3.10
  -7  -2  -5   -1.50    1.70
  -7  -2  -5    2.60    2.00
  -7  -2  -5    2.80    1.90
   7   2   5    3.80    2.20
   7   2   5    3.30    2.40
  -8  -2  -5    4.20    2.20
  -8  -2  -5    1.60    2.20
   8   2   5    2.90    2.80
  -9  -2  -5    1.50    3.40
  -9  -2  -5    0.80    2.50
   9   2   5    2.10    3.20
  10  -3  -5   -3.10    3.10
  10  -3  -5    0.90    2.90
  10  -3  -5    1.50    2.20
 -10   3   5   -5.60    2.90
 -10   3   5   -0.40    1.90
 -10   3   5    4.30    3.90
   9  -3  -5   26.50    5.10
   9  -3  -5   23.50    3.20
   9  -3  -5   18.00    3.50
  -9   3   5   25.60    2.80
  -9   3   5   22.00    4.30
  -9   3   5   26.50    4.60
   8  -3  -5    9.20    2.20
   8  -3  -5   12.10    3.00
   8  -3  -5    8.70    3.30
  -8   3   5   14.10    3.40
  -8   3   5   12.90    3.40
  -8   3   5   12.60    1.80
   7  -3  -5    5.40    2.40
   7  -3  -5    7.20    3.00
   7  -3  -5    6.80    1.90
   7  -3  -5    8.50    2.60
  -7   3   5   10.30    1.40
  -7   3   5    7.80    1.10
  -7   3   5   12.10    2.90
  -7   3   5    2.50    2.10
   6  -3  -5   11.80    2.60
   6  -3  -5   11.60    1.80
   6  -3  -5   11.70    2.40
   6  -3  -5   14.70    3.00
   6  -3  -5   13.80    2.00
  -6   3   5   12.50    2.50
  -6   3   5   11.00    1.80
  -6   3   5   11.50    2.50
  -6   3   5   19.00    3.00
   5  -3  -5   96.39    4.80
   5  -3  -5   97.49    4.40
   5  -3  -5   92.69    4.80
   5  -3  -5   92.39    5.30
   5  -3  -5   90.09    5.40
   5  -3  -5   94.89    4.50
  -5   3   5   84.99    4.90
  -5   3   5   96.79    5.30
  -5   3   5   96.49    4.20
  -5   3   5   97.19    5.20
  -5   3   5  104.79    4.80
   4  -3  -5    7.80    1.80
   4  -3  -5    9.00    1.50
   4  -3  -5   10.50    1.40
   4  -3  -5    8.60    1.60
   4  -3  -5    6.80    1.20
   4  -3  -5    9.10    1.90
  -4   3   5    9.00    1.70
  -4   3   5   11.10    1.60
  -4   3   5    8.30    1.80
  -4   3   5    8.50    1.90
  -4   3   5    9.10    1.20
   3  -3  -5  477.65   15.90
   3  -3  -5  486.15   16.60
   3  -3  -5  471.45   16.10
   3  -3  -5  468.95   16.40
   3  -3  -5  484.95   15.80
   3  -3  -5  448.56   16.00
  -3   3   5  493.95   16.50
  -3   3   5  471.95   16.30
  -3   3   5  449.36   16.50
  -3   3   5  496.75   16.80
  -3   3   5  438.56   16.00
  -3   3   5  490.75   16.50
   2  -3  -5  298.57   10.00
   2  -3  -5  286.67   10.10
   2  -3  -5  274.47    9.90
   2  -3  -5  280.57   10.30
   2  -3  -5  286.47    9.80
   2  -3  -5  292.57   10.30
  -2   3   5  270.37   10.40
  -2   3   5  291.97   10.20
  -2   3   5  295.77   10.30
  -2   3   5  300.27   10.30
  -2   3   5  270.97   10.00
  -2   3   5  287.57   10.40
  -2   3   5  298.37    9.60
   1  -3  -5  129.99    5.10
   1  -3  -5  125.19    5.10
   1  -3  -5  129.89    4.60
   1  -3  -5  129.69    5.10
   1  -3  -5  125.19    4.70
   1  -3  -5  135.29    4.80
  -1   3   5  131.89    5.20
  -1   3   5  136.29    5.20
  -1   3   5  135.29    5.10
  -1   3   5  134.09    5.20
  -1   3   5  130.49    5.40
  -1   3   5  129.99    5.10
   0  -3  -5  775.22   25.00
   0  -3  -5  760.72   24.60
   0  -3  -5  742.63   24.70
   0  -3  -5  761.72   25.10
   0  -3  -5  783.02   25.10
   0  -3  -5  774.52   24.70
   0  -3  -5  789.12   25.10
   0   3   5  762.82   25.70
   0   3   5  792.62   25.10
   0   3   5  807.82   25.10
   0   3   5  769.12   25.50
   0   3   5  765.32   25.00
   0   3   5  741.13   25.20
   0   3   5  788.52   25.00
  -1  -3  -5   15.50    1.00
  -1  -3  -5   16.20    1.10
  -1  -3  -5   14.80    1.30
  -1  -3  -5   17.20    1.50
  -1  -3  -5   14.50    1.50
   1   3   5   14.10    1.20
   1   3   5   14.60    1.40
   1   3   5   13.50    1.30
   1   3   5   13.40    1.40
   1   3   5   14.00    1.20
   1   3   5   11.10    1.70
   1   3   5   13.50    1.40
  -2  -3  -5  204.18    7.70
  -2  -3  -5  205.78    7.50
  -2  -3  -5  214.88    7.20
  -2  -3  -5  202.98    7.50
  -2  -3  -5  205.48    7.10
   2   3   5  193.58    7.90
   2   3   5  209.18    8.00
   2   3   5  219.28    7.90
   2   3   5  209.68    7.40
   2   3   5  207.08    7.40
   2   3   5  209.98    7.70
  -3  -3  -5   47.90    2.50
  -3  -3  -5   47.80    2.90
  -3  -3  -5   50.49    2.80
  -3  -3  -5   50.29    2.40
  -3  -3  -5   47.90    2.70
  -3  -3  -5   49.60    2.90
   3   3   5   50.49    3.10
   3   3   5   51.49    3.10
   3   3   5   52.59    3.10
   3   3   5   47.60    2.70
   3   3   5   44.30    3.20
   3   3   5   48.90    2.70
  -4  -3  -5    2.60    1.30
  -4  -3  -5    2.30    1.40
  -4  -3  -5    0.20    1.20
  -4  -3  -5    0.30    0.80
  -4  -3  -5    0.70    1.20
   4   3   5    0.80    1.40
   4   3   5    0.70    1.30
   4   3   5    0.80    0.80
   4   3   5    0.00    1.20
  -5  -3  -5    9.60    2.00
  -5  -3  -5   10.00    1.50
  -5  -3  -5   12.80    2.10
   5   3   5   13.30    2.30
   5   3   5   11.30    2.30
   5   3   5    9.20    2.30
  -6  -3  -5    9.50    2.30
  -6  -3  -5   11.20    2.40
   6   3   5   14.70    3.00
   6   3   5   13.90    2.70
   6   3   5   15.40    2.80
  -7  -3  -5    3.20    1.90
  -7  -3  -5    3.70    2.20
   7   3   5    4.50    2.60
   7   3   5   -3.00    1.80
  -8  -3  -5    3.20    2.50
  -8  -3  -5    9.50    2.80
   8   3   5    8.70    3.50
  10  -4  -5    1.60    3.90
  10  -4  -5    4.00    3.40
  10  -4  -5    3.60    2.50
 -10   4   5    1.40    2.00
 -10   4   5   -0.20    3.40
 -10   4   5    5.30    3.40
   9  -4  -5   26.40    4.10
   9  -4  -5   36.10    5.60
   9  -4  -5   35.80    3.70
  -9   4   5   37.20    5.20
  -9   4   5   33.70    3.00
  -9   4   5   29.20    4.70
   8  -4  -5   -3.10    2.20
   8  -4  -5    1.30    1.90
   8  -4  -5   -2.90    2.30
  -8   4   5    4.40    2.80
  -8   4   5    0.00    0.80
  -8   4   5    2.80    3.10
   7  -4  -5    9.40    2.70
   7  -4  -5   10.80    2.60
   7  -4  -5   15.10    2.40
   7  -4  -5   14.60    3.20
  -7   4   5   14.80    3.10
  -7   4   5    9.20    2.80
   6  -4  -5   10.40    2.70
   6  -4  -5   15.30    2.70
   6  -4  -5   13.40    2.50
   6  -4  -5   20.30    2.40
   6  -4  -5   11.30    1.90
  -6   4   5   18.60    3.10
  -6   4   5   15.80    2.90
   5  -4  -5   25.90    3.30
   5  -4  -5   20.70    2.20
   5  -4  -5   20.00    2.50
   5  -4  -5   26.70    2.40
   5  -4  -5   19.00    2.70
  -5   4   5   20.20    2.70
  -5   4   5   26.20    3.30
  -5   4   5   23.90    3.10
  -5   4   5   21.00    2.60
  -5   4   5   24.80    2.60
  -5   4   5   18.90    1.90
   4  -4  -5    0.00    1.00
   4  -4  -5   -0.20    0.90
   4  -4  -5   -0.10    1.20
   4  -4  -5    1.70    1.60
   4  -4  -5   -0.30    1.30
   4  -4  -5    0.30    1.10
  -4   4   5    1.00    1.60
  -4   4   5   -0.40    1.40
  -4   4   5   -0.70    1.00
  -4   4   5   -0.50    1.30
  -4   4   5    0.30    0.70
  -4   4   5    1.40    1.20
   3  -4  -5  151.78    6.10
   3  -4  -5  147.79    5.80
   3  -4  -5  151.08    6.50
   3  -4  -5  155.38    6.20
   3  -4  -5  151.88    6.00
   3  -4  -5  145.29    6.50
  -3   4   5  147.39    6.30
  -3   4   5  157.18    6.70
  -3   4   5  143.29    6.10
  -3   4   5  146.99    6.50
  -3   4   5  150.38    6.60
   2  -4  -5  174.48    6.60
   2  -4  -5  164.38    6.70
   2  -4  -5  166.78    6.30
   2  -4  -5  166.38    6.40
   2  -4  -5  164.28    6.80
   2  -4  -5  159.88    6.40
  -2   4   5  159.68    6.80
  -2   4   5  166.98    6.90
  -2   4   5  168.88    6.80
  -2   4   5  166.78    6.50
  -2   4   5  171.58    6.00
  -2   4   5  170.78    7.00
  -2   4   5  168.18    6.70
   1  -4  -5  126.49    5.10
   1  -4  -5  137.39    5.10
   1  -4  -5  132.99    5.50
   1  -4  -5  137.89    5.00
   1  -4  -5  137.99    5.60
   1  -4  -5  138.09    5.20
   1  -4  -5  136.39    5.50
  -1   4   5  143.29    5.60
  -1   4   5  132.39    5.60
  -1   4   5  129.79    5.40
  -1   4   5  126.49    5.60
  -1   4   5  140.69    6.00
  -1   4   5  124.99    5.50
   0  -4  -5  347.77   11.80
   0  -4  -5  339.37   11.60
   0  -4  -5  333.27   11.20
   0  -4  -5  326.87   11.70
   0  -4  -5  326.17   11.30
   0  -4  -5  335.97   11.40
   0  -4  -5  341.37   11.80
   0   4   5  334.77   12.30
   0   4   5  348.37   11.80
   0   4   5  334.77   11.80
   0   4   5  339.47   11.70
   0   4   5  335.27   11.70
   0   4   5  337.27   12.00
  -1  -4  -5    6.50    1.30
  -1  -4  -5    8.40    1.30
  -1  -4  -5    5.60    1.10
  -1  -4  -5    7.50    1.00
  -1  -4  -5    5.10    1.00
  -1  -4  -5    5.70    0.90
   1   4   5    4.20    1.20
   1   4   5    7.90    1.40
   1   4   5    7.80    1.50
   1   4   5    6.80    1.30
   1   4   5    7.90    1.30
   1   4   5    6.80    1.10
   1   4   5    6.30    1.10
  -2  -4  -5  216.98    8.30
  -2  -4  -5  218.68    7.80
  -2  -4  -5  227.38    8.00
  -2  -4  -5  220.58    8.20
  -2  -4  -5  224.48    8.50
   2   4   5  223.58    8.50
   2   4   5  225.28    8.60
   2   4   5  215.98    8.50
   2   4   5  229.38    8.10
   2   4   5  205.58    8.80
   2   4   5  217.48    8.00
  -3  -4  -5   70.19    3.60
  -3  -4  -5   67.79    3.20
  -3  -4  -5   70.59    4.00
  -3  -4  -5   68.79    3.70
   3   4   5   62.79    3.40
   3   4   5   72.59    4.20
   3   4   5   67.19    4.10
   3   4   5   66.99    3.70
   3   4   5   63.49    4.10
  -4  -4  -5   43.80    3.40
  -4  -4  -5   42.60    3.60
  -4  -4  -5   48.60    3.80
  -4  -4  -5   46.70    2.80
   4   4   5   46.10    3.70
   4   4   5   50.29    3.20
   4   4   5   53.09    4.20
   4   4   5   53.59    3.80
  -5  -4  -5    5.10    2.00
  -5  -4  -5    8.90    2.10
   5   4   5   11.90    2.40
   5   4   5    7.90    2.20
   5   4   5   10.00    2.50
  -6  -4  -5    0.80    1.90
  -6  -4  -5    0.90    1.80
   6   4   5   -2.40    2.10
   6   4   5    1.50    2.00
  -7  -4  -5   -1.90    1.90
  -7  -4  -5    0.60    2.10
   7   4   5   -0.30    2.60
  -8  -4  -5   -1.80    2.10
  -8  -4  -5    5.60    2.70
  -8  -4  -5    0.20    2.40
   8   4   5    0.20    2.90
   9  -5  -5   -1.10    2.10
   9  -5  -5    5.80    3.90
   9  -5  -5    2.40    2.90
  -9   5   5   -0.40    3.10
  -9   5   5    5.50    3.70
   8  -5  -5   21.80    4.40
   8  -5  -5   19.20    3.70
   8  -5  -5   21.90    3.10
  -8   5   5   22.40    4.30
  -8   5   5   20.20    3.90
   7  -5  -5    9.70    3.10
   7  -5  -5    9.10    2.10
   7  -5  -5    4.50    2.60
   7  -5  -5    3.10    2.30
  -7   5   5    5.90    2.90
  -7   5   5    8.70    3.00
   6  -5  -5  100.79    6.50
   6  -5  -5  103.79    6.30
   6  -5  -5  105.29    5.30
   6  -5  -5   93.09    5.60
  -6   5   5  104.59    6.40
  -6   5   5  124.39    6.60
   5  -5  -5   53.09    4.80
   5  -5  -5   59.99    3.60
   5  -5  -5   54.79    4.20
   5  -5  -5   58.09    4.40
   5  -5  -5   63.09    4.10
  -5   5   5   47.30    4.30
  -5   5   5   52.59    4.40
  -5   5   5   57.99    4.90
   4  -5  -5   60.79    3.50
   4  -5  -5   54.59    4.10
   4  -5  -5   60.39    3.80
   4  -5  -5   57.59    4.20
   4  -5  -5   52.99    5.30
  -4   5   5   54.49    3.60
  -4   5   5   60.29    4.30
  -4   5   5   64.59    4.20
  -4   5   5   59.99    4.20
  -4   5   5   61.99    4.40
   3  -5  -5   39.50    3.40
   3  -5  -5   30.10    3.00
   3  -5  -5   25.20    2.00
   3  -5  -5   20.80    2.30
   3  -5  -5   33.60    2.80
   3  -5  -5   24.00    2.40
  -3   5   5   27.20    2.80
  -3   5   5   22.90    2.60
  -3   5   5   32.00    3.20
  -3   5   5   32.60    3.20
   2  -5  -5   24.80    2.50
   2  -5  -5   21.40    2.40
   2  -5  -5   27.60    2.30
   2  -5  -5   20.70    2.20
   2  -5  -5   24.00    2.20
   2  -5  -5   22.90    1.80
   2  -5  -5   20.40    2.10
  -2   5   5   27.70    2.80
  -2   5   5   25.70    2.50
  -2   5   5   23.30    2.60
  -2   5   5   25.60    2.70
  -2   5   5   24.40    2.50
  -2   5   5   24.20    1.80
  -2   5   5   17.00    2.10
   1  -5  -5  103.29    5.10
   1  -5  -5  116.49    4.90
   1  -5  -5  106.79    5.10
   1  -5  -5  115.79    5.20
   1  -5  -5  110.79    4.80
   1  -5  -5  113.69    4.60
  -1   5   5  113.29    5.10
  -1   5   5  108.09    5.20
  -1   5   5  115.59    5.70
  -1   5   5  118.89    5.40
  -1   5   5  100.49    5.10
  -1   5   5  115.29    5.20
   0  -5  -5  275.87    9.90
   0  -5  -5  264.67    9.30
   0  -5  -5  262.37    9.60
   0  -5  -5  252.87    9.10
   0  -5  -5  262.87    9.80
   0  -5  -5  268.37    9.40
   0  -5  -5  263.87    9.90
   0   5   5  252.87    9.70
   0   5   5  259.57    9.80
   0   5   5  249.78   10.30
   0   5   5  262.67    9.70
   0   5   5  258.07   10.00
   0   5   5  259.17    9.80
  -1  -5  -5  235.18    8.80
  -1  -5  -5  233.18    9.10
  -1  -5  -5  233.98    8.90
  -1  -5  -5  224.48    8.30
  -1  -5  -5  239.78    8.60
   1   5   5  236.78    9.00
   1   5   5  238.68    9.00
   1   5   5  223.48    8.70
   1   5   5  251.47    9.60
   1   5   5  237.18    9.40
   1   5   5  224.28    9.10
   1   5   5  226.08    8.70
  -2  -5  -5   98.49    4.50
  -2  -5  -5   98.39    4.80
  -2  -5  -5  101.59    5.10
  -2  -5  -5   97.89    4.30
   2   5   5  111.99    5.40
   2   5   5  101.29    5.00
   2   5   5  101.49    5.50
   2   5   5   90.79    4.70
  -3  -5  -5   54.79    3.80
  -3  -5  -5   54.89    3.60
  -3  -5  -5   60.39    4.00
  -3  -5  -5   61.09    3.10
   3   5   5   63.79    3.70
   3   5   5   63.49    4.20
   3   5   5   57.19    4.30
   3   5   5   49.70    4.10
  -4  -5  -5   -0.20    1.60
  -4  -5  -5    0.10    1.10
   4   5   5   -2.90    1.80
   4   5   5   -0.10    1.30
   4   5   5   -0.10    1.50
   4   5   5   -0.10    1.70
  -5  -5  -5    2.40    1.90
  -5  -5  -5    1.60    1.90
   5   5   5    3.10    2.40
   5   5   5   -1.70    1.50
   5   5   5    0.90    1.90
  -6  -5  -5    7.50    2.60
  -6  -5  -5    7.40    2.60
   6   5   5    9.30    3.10
   6   5   5    8.00    2.70
  -7  -5  -5    7.50    2.80
  -7  -5  -5    7.80    3.00
   7   5   5    8.20    3.30
   9  -6  -5   14.40    4.40
   9  -6  -5   11.40    2.70
   9  -6  -5   10.40    3.50
  -9   6   5   14.30    4.00
  -9   6   5    8.10    3.50
   8  -6  -5    1.90    2.00
   8  -6  -5    1.70    2.80
   8  -6  -5   -1.90    3.20
  -8   6   5    5.40    3.20
  -8   6   5    5.80    3.30
   7  -6  -5   -0.90    2.20
   7  -6  -5    6.00    3.20
  -7   6   5    0.20    2.60
  -7   6   5    1.60    2.60
   6  -6  -5   28.90    3.80
   6  -6  -5   40.20    4.80
   6  -6  -5   32.40    3.70
  -6   6   5   37.00    4.60
  -6   6   5   37.50    4.40
   5  -6  -5   39.60    3.50
   5  -6  -5   36.70    3.80
   5  -6  -5   29.20    3.20
   5  -6  -5   30.80    4.10
  -5   6   5   31.20    4.00
  -5   6   5   34.50    3.70
   4  -6  -5   50.09    3.60
   4  -6  -5   48.60    3.90
   4  -6  -5   51.09    4.00
   4  -6  -5   48.90    4.10
   4  -6  -5   49.70    4.40
  -4   6   5   55.89    4.80
  -4   6   5   53.89    4.50
  -4   6   5   53.79    4.30
  -4   6   5   45.80    4.30
   3  -6  -5  123.09    6.30
   3  -6  -5  131.89    6.00
   3  -6  -5  119.49    5.80
   3  -6  -5  120.19    5.90
   3  -6  -5  134.09    6.40
  -3   6   5  132.39    6.50
  -3   6   5  125.59    6.50
  -3   6   5  119.19    6.20
  -3   6   5  132.59    6.60
   2  -6  -5    8.90    2.00
   2  -6  -5   11.30    1.80
   2  -6  -5    9.80    1.60
   2  -6  -5    5.10    1.50
   2  -6  -5    7.70    1.70
   2  -6  -5   10.20    2.10
  -2   6   5    9.10    2.00
  -2   6   5    8.40    2.10
  -2   6   5    9.20    2.20
  -2   6   5    7.30    2.10
   1  -6  -5  103.19    4.40
   1  -6  -5   96.59    5.00
   1  -6  -5   96.09    4.70
   1  -6  -5  100.69    4.70
   1  -6  -5   96.49    5.10
   1  -6  -5   93.69    5.00
  -1   6   5   90.39    5.00
  -1   6   5  102.89    5.20
  -1   6   5   95.79    5.30
  -1   6   5  100.19    5.60
   0  -6  -5    7.10    1.80
   0  -6  -5    4.40    1.70
   0  -6  -5    4.50    1.30
   0  -6  -5    3.40    1.40
   0  -6  -5    3.90    1.50
   0   6   5    3.20    1.80
   0   6   5    3.40    1.60
   0   6   5    5.60    1.70
   0   6   5    2.10    1.60
  -1  -6  -5    3.60    1.20
  -1  -6  -5    4.40    1.80
  -1  -6  -5    4.50    1.60
  -1  -6  -5    4.40    1.50
   1   6   5    1.60    1.60
   1   6   5    5.60    1.70
   1   6   5    5.00    1.90
   1   6   5    2.30    1.60
   1   6   5    2.80    1.60
  -2  -6  -5    9.60    1.80
  -2  -6  -5    4.80    1.90
  -2  -6  -5    6.00    1.50
   2   6   5    4.40    2.00
   2   6   5    4.70    1.80
   2   6   5    6.90    2.00
   2   6   5    2.30    1.50
  -3  -6  -5   61.59    4.10
  -3  -6  -5   57.59    3.60
   3   6   5   58.99    4.70
   3   6   5   63.29    5.30
   3   6   5   59.99    3.80
   3   6   5   56.59    4.50
  -4  -6  -5    8.80    1.90
  -4  -6  -5    6.00    2.20
   4   6   5    6.20    2.30
   4   6   5    5.70    2.50
   4   6   5    6.70    2.60
  -5  -6  -5   15.40    2.50
  -5  -6  -5   13.00    2.80
  -5  -6  -5   15.10    3.00
   5   6   5   12.80    3.00
   5   6   5   12.80    3.20
  -6  -6  -5    8.20    2.70
  -6  -6  -5    7.10    2.70
   6   6   5   12.10    3.70
  -7  -6  -5    2.70    2.70
  -7  -6  -5    1.50    3.30
   7   6   5   -1.40    3.20
   8  -7  -5   -2.10    2.70
   8  -7  -5   -0.80    3.50
   8  -7  -5    2.70    2.10
  -8   7   5   -0.30    3.40
  -8   7   5    3.70    3.50
   7  -7  -5    2.40    3.20
   7  -7  -5    1.50    2.50
  -7   7   5    3.80    3.10
  -7   7   5   -1.20    2.80
   6  -7  -5   32.90    4.00
   6  -7  -5   23.90    4.30
   6  -7  -5   33.40    4.30
  -6   7   5   29.40    4.50
  -6   7   5   29.20    4.20
   5  -7  -5   59.39    5.60
   5  -7  -5   57.69    5.10
   5  -7  -5   47.40    4.30
  -5   7   5   52.19    5.30
  -5   7   5   52.49    4.90
   4  -7  -5   14.70    2.80
   4  -7  -5   11.80    2.40
   4  -7  -5    8.40    2.70
   4  -7  -5    9.60    2.10
   4  -7  -5    9.20    2.40
  -4   7   5   15.60    3.20
  -4   7   5   10.70    2.70
  -4   7   5   18.50    4.70
   3  -7  -5  156.98    7.10
   3  -7  -5  148.49    7.50
   3  -7  -5  159.18    7.10
   3  -7  -5  152.68    7.10
   3  -7  -5  146.29    7.60
  -3   7   5  157.18    7.90
  -3   7   5  152.28    7.70
  -3   7   5  158.98    7.60
   2  -7  -5    8.90    2.20
   2  -7  -5    9.70    2.60
   2  -7  -5   11.20    1.80
   2  -7  -5    9.60    2.10
   2  -7  -5    9.10    2.10
  -2   7   5    7.80    2.20
  -2   7   5    9.50    2.50
  -2   7   5    8.70    2.50
  -2   7   5    7.20    2.20
   1  -7  -5   59.79    4.20
   1  -7  -5   45.90    3.70
   1  -7  -5   51.49    3.70
  -1   7   5   50.09    4.70
  -1   7   5   53.89    4.60
  -1   7   5   54.69    4.50
  -1   7   5   52.19    4.40
   0  -7  -5  100.99    5.10
   0  -7  -5  107.99    5.80
   0  -7  -5   96.29    5.10
   0   7   5   98.49    5.60
   0   7   5   98.99    6.20
   0   7   5  101.49    5.60
   0   7   5  106.89    6.00
  -1  -7  -5   -1.10    1.40
  -1  -7  -5   -0.10    1.80
  -1  -7  -5    0.10    1.40
   1   7   5    0.20    1.70
   1   7   5    1.80    1.90
   1   7   5    0.20    1.80
   1   7   5    2.40    1.70
   1   7   5    2.30    1.90
  -2  -7  -5   61.09    3.80
  -2  -7  -5   61.19    4.20
   2   7   5   54.69    4.70
   2   7   5   60.79    4.90
   2   7   5   58.39    4.10
   2   7   5   69.29    5.10
   2   7   5   63.69    5.20
  -3  -7  -5    9.80    2.40
  -3  -7  -5    8.00    1.90
   3   7   5    2.30    2.30
   3   7   5    4.30    1.90
   3   7   5    4.20    2.40
  -4  -7  -5    0.80    1.80
  -4  -7  -5    2.90    2.20
   4   7   5   -0.70    2.30
   4   7   5   -0.90    2.40
  -5  -7  -5    1.80    2.50
  -5  -7  -5    4.00    2.50
  -5  -7  -5    2.70    2.00
   5   7   5    2.30    3.00
  -6  -7  -5    1.80    2.50
  -6  -7  -5    0.40    2.70
   6   7   5    2.80    3.20
   8  -8  -5    2.20    3.50
   8  -8  -5    1.50    3.00
  -8   8   5    7.80    3.50
  -8   8   5    4.70    3.70
   7  -8  -5   11.50    3.90
   7  -8  -5    4.50    3.10
  -7   8   5   12.20    3.90
  -7   8   5    8.60    3.30
   6  -8  -5   12.30    3.10
   6  -8  -5   16.00    3.80
  -6   8   5   23.00    4.40
  -6   8   5   17.90    3.80
   5  -8  -5    2.40    2.90
   5  -8  -5    4.70    2.60
   5  -8  -5    1.00    2.40
  -5   8   5   -0.40    2.40
  -5   8   5    2.70    3.00
   4  -8  -5    4.30    2.40
   4  -8  -5    3.50    2.60
   4  -8  -5    2.70    2.20
  -4   8   5    6.80    2.70
  -4   8   5    2.70    2.60
   3  -8  -5   55.09    4.90
   3  -8  -5   42.50    4.00
   3  -8  -5   50.29    5.10
   3  -8  -5   40.50    3.80
  -3   8   5   50.79    4.90
  -3   8   5   53.19    5.00
   2  -8  -5   27.10    3.80
   2  -8  -5   38.00    3.70
   2  -8  -5   31.10    3.50
  -2   8   5   31.50    3.90
  -2   8   5   26.40    3.70
  -2   8   5   27.10    3.60
   1  -8  -5   64.69    5.30
   1  -8  -5   55.79    4.30
   1  -8  -5   50.09    4.10
  -1   8   5   65.29    5.30
  -1   8   5   60.29    5.30
  -1   8   5   59.89    5.10
   0  -8  -5   79.49    4.80
   0  -8  -5   80.89    5.00
   0   8   5   82.09    5.60
   0   8   5   85.69    5.60
   0   8   5   87.69    6.00
  -1  -8  -5   -2.00    1.60
  -1  -8  -5    3.60    1.80
   1   8   5    2.10    2.20
   1   8   5    2.20    2.00
   1   8   5    4.20    2.30
   1   8   5   -1.50    2.00
  -2  -8  -5   38.30    3.90
  -2  -8  -5   44.80    3.70
   2   8   5   39.20    4.40
   2   8   5   37.60    3.70
   2   8   5   41.60    4.80
   2   8   5   40.80    4.50
  -3  -8  -5    2.50    2.00
  -3  -8  -5    7.90    2.60
   3   8   5    1.70    2.60
   3   8   5    2.70    2.80
  -4  -8  -5    4.80    2.50
  -4  -8  -5    9.20    2.50
   4   8   5    0.50    2.60
  -5  -8  -5    4.30    2.60
  -5  -8  -5    0.30    2.50
   5   8   5    7.30    3.40
   7  -9  -5    8.30    3.50
   7  -9  -5    5.80    4.10
  -7   9   5    9.50    4.30
  -7   9   5    4.00    3.50
   6  -9  -5    9.80    3.60
   6  -9  -5    6.90    3.20
  -6   9   5   10.20    3.60
  -6   9   5   16.90    4.20
   5  -9  -5   -3.80    2.50
   5  -9  -5   -5.80    2.70
  -5   9   5   -1.80    2.70
  -5   9   5   -3.90    2.70
   4  -9  -5   -0.20    2.30
   4  -9  -5    4.20    2.90
   4  -9  -5    1.90    2.60
  -4   9   5   -3.00    2.40
  -4   9   5   -3.90    2.20
   3  -9  -5   14.80    3.20
  -3   9   5   17.10    3.70
  -3   9   5   16.60    3.60
   2  -9  -5   28.00    3.70
  -2   9   5   20.10    3.80
  -2   9   5   25.40    3.90
   1  -9  -5   10.50    2.80
   1  -9  -5   10.90    2.50
  -1   9   5    5.70    2.90
  -1   9   5    7.70    2.80
   0  -9  -5   52.89    4.60
   0  -9  -5   49.99    4.50
   0   9   5   53.39    5.40
   0   9   5   49.70    5.10
  -1  -9  -5    1.60    1.90
  -1  -9  -5    2.80    2.20
   1   9   5    1.50    2.30
   1   9   5    2.50    2.70
   1   9   5    1.20    2.60
  -2  -9  -5   22.00    3.10
  -2  -9  -5   21.90    3.40
   2   9   5   25.90    3.90
   2   9   5   20.70    4.00
  -3  -9  -5   11.10    3.00
   3   9   5   17.80    3.80
   3   9   5    5.60    3.20
  -4  -9  -5    1.00    2.60
   4   9   5    2.50    3.30
   4   9   5    3.70    3.30
   5 -10  -5    1.10    3.20
  -5  10   5   -1.40    3.40
  -5  10   5   -0.30    3.10
   4 -10  -5   11.10    3.50
  -4  10   5   14.50    3.80
  -4  10   5    6.20    3.60
   3 -10  -5   13.70    3.50
  -3  10   5    4.90    3.40
  -3  10   5   14.30    3.60
   2 -10  -5   -0.10    2.60
  -2  10   5    3.40    2.90
  -2  10   5   -2.00    2.70
   1 -10  -5    2.20    2.80
  -1  10   5    7.30    3.20
  -1  10   5    2.90    3.00
   0 -10  -5    2.00    2.80
   0  10   5    2.00    2.70
   0  10   5    0.30    3.00
  -1 -10  -5    4.80    2.80
   1  10   5   -2.80    2.90
   1  10   5    0.00    2.70
  -2 -10  -5    5.00    2.80
   2  10   5    8.10    3.40
   2  10   5    4.80    3.30
   3 -11  -5    8.90    3.60
  -3  11   5   11.70    3.80
   2 -11  -5   -2.20    3.00
  -2  11   5    3.00    3.20
  -2  11   5   -0.20    3.30
   1 -11  -5   11.30    3.50
  -1  11   5    8.10    3.50
  -1  11   5   19.40    4.40
   3  11  -6    2.50    3.00
  -3 -11   6    5.70    2.00
  -3 -11   6   11.20    4.70
  -3 -11   6    7.70    4.00
   2  11  -6   10.10    3.20
   2  11  -6    6.50    3.20
  -2 -11   6    8.70    1.80
  -2 -11   6    6.40    3.50
  -2 -11   6    6.20    3.50
   1  11  -6   -3.90    2.60
   1  11  -6    1.50    2.90
   1  11  -6   -2.70    2.50
  -1 -11   6   -0.50    3.20
  -1 -11   6   -1.30    2.90
   0  11  -6    9.00    2.90
   0  11  -6   13.70    3.30
   0  11  -6   18.40    4.40
   0 -11   6   11.90    3.80
   0 -11   6    5.70    3.70
  -1  11  -6    7.10    3.00
  -1  11  -6   12.00    4.10
  -1  11  -6    7.80    2.80
   1 -11   6   11.50    4.10
  -2  11  -6   -1.70    2.70
  -2  11  -6   -2.00    3.30
   2 -11   6   -0.60    3.30
  -3  11  -6   12.70    4.70
  -3  11  -6   11.20    3.40
   3 -11   6   15.00    4.30
   4  10  -6    3.80    2.90
   4  10  -6    8.60    3.90
  -4 -10   6    1.60    1.80
  -4 -10   6    2.90    3.60
  -4 -10   6    9.50    3.90
   3  10  -6   27.00    4.80
   3  10  -6   16.60    3.80
   3  10  -6   21.00    3.70
  -3 -10   6   29.30    4.70
  -3 -10   6   19.70    2.30
  -3 -10   6   19.30    4.50
   2  10  -6    9.60    3.20
   2  10  -6   13.70    3.30
   2  10  -6   17.50    4.10
  -2 -10   6   11.10    3.60
  -2 -10   6   12.80    1.80
  -2 -10   6    9.20    3.40
   1  10  -6    5.70    2.90
   1  10  -6   11.20    3.60
   1  10  -6    8.50    2.60
  -1 -10   6    7.70    3.40
  -1 -10   6    1.20    2.70
   0  10  -6   20.40    3.40
   0  10  -6   19.70    4.40
   0  10  -6   16.30    3.00
   0 -10   6   16.10    3.70
   0 -10   6   17.00    4.00
  -1  10  -6    8.50    3.60
  -1  10  -6    7.40    2.80
   1 -10   6    8.30    3.20
   1 -10   6    4.00    2.90
  -2  10  -6   -0.80    2.30
  -2  10  -6   -3.50    3.00
   2 -10   6    1.20    3.00
  -3  10  -6   34.50    4.10
  -3  10  -6   46.60    6.20
   3 -10   6   32.50    5.20
  -4  10  -6    9.00    3.20
  -4  10  -6    8.70    4.00
   4 -10   6    9.30    4.00
  -5  10  -6   13.60    3.50
   5 -10   6   17.20    4.80
   6   9  -6    4.20    3.10
   6   9  -6   -1.20    3.80
  -6  -9   6   11.30    4.40
  -6  -9   6    3.90    3.70
  -6  -9   6    5.80    2.20
   5   9  -6    1.70    3.40
   5   9  -6    1.40    3.00
   5   9  -6   -0.70    2.50
  -5  -9   6    5.80    3.70
  -5  -9   6    0.30    1.80
  -5  -9   6    2.70    3.40
   4   9  -6   -3.10    2.40
   4   9  -6    0.20    3.00
   4   9  -6    0.40    2.50
  -4  -9   6    4.40    3.30
  -4  -9   6   -1.30    1.40
  -4  -9   6    4.00    3.20
   3   9  -6    1.30    2.40
   3   9  -6    6.30    2.90
   3   9  -6    1.80    3.00
  -3  -9   6    4.30    3.00
  -3  -9   6    0.80    1.20
  -3  -9   6    1.50    2.80
   2   9  -6   29.20    3.50
   2   9  -6   26.30    3.70
   2   9  -6   28.90    4.20
  -2  -9   6   28.10    4.20
  -2  -9   6   26.10    3.90
  -2  -9   6   23.90    2.00
   1   9  -6    2.00    2.30
   1   9  -6    0.10    2.50
   1   9  -6    1.10    1.80
  -1  -9   6    4.40    2.70
  -1  -9   6   -1.20    2.20
   0   9  -6   48.50    4.30
   0   9  -6   45.20    5.30
   0   9  -6   44.10    5.10
   0   9  -6   41.60    5.00
   0  -9   6   43.00    5.00
   0  -9   6   58.99    5.40
  -1   9  -6    1.80    2.20
  -1   9  -6   -0.10    2.40
  -1   9  -6   -2.20    2.00
  -1   9  -6   -2.20    2.50
   1  -9   6    0.60    2.20
   1  -9   6    3.90    2.70
  -2   9  -6   13.20    3.10
  -2   9  -6   25.60    4.30
  -2   9  -6   15.50    2.90
   2  -9   6   16.90    3.80
  -3   9  -6    1.30    2.30
  -3   9  -6    6.40    2.60
  -3   9  -6    1.40    2.80
   3  -9   6    4.10    3.10
  -4   9  -6    1.70    3.10
  -4   9  -6   -4.60    2.20
   4  -9   6   -0.20    3.20
  -5   9  -6    0.20    2.60
   5  -9   6   -4.20    3.30
  -6   9  -6    9.10    3.40
   6  -9   6   11.20    4.30
   7   8  -6   -1.60    2.80
   7   8  -6    0.30    3.40
  -7  -8   6    0.30    3.70
  -7  -8   6    6.70    3.80
  -7  -8   6    4.50    2.10
   6   8  -6   14.00    4.20
   6   8  -6   16.00    3.70
   6   8  -6   12.90    3.30
  -6  -8   6   14.80    4.40
  -6  -8   6   12.80    3.90
  -6  -8   6   10.50    2.20
   5   8  -6    7.80    3.10
   5   8  -6   14.30    3.20
   5   8  -6    8.90    3.80
  -5  -8   6   11.30    3.40
  -5  -8   6   10.20    2.00
  -5  -8   6   10.30    3.50
   4   8  -6    9.60    2.70
   4   8  -6    9.90    3.60
   4   8  -6   11.20    3.10
  -4  -8   6   12.80    3.50
  -4  -8   6    9.30    1.70
  -4  -8   6   14.00    3.70
   3   8  -6   93.19    5.80
   3   8  -6   87.89    5.70
   3   8  -6   89.29    6.60
  -3  -8   6   87.09    4.00
  -3  -8   6   94.49    6.30
  -3  -8   6   88.49    6.40
   2   8  -6   -0.50    2.30
   2   8  -6    1.40    2.10
   2   8  -6    0.90    2.20
   2   8  -6    2.40    1.80
  -2  -8   6    1.90    2.30
  -2  -8   6    0.60    2.20
  -2  -8   6    0.00    0.80
  -2  -8   6    1.90    0.90
   1   8  -6   53.99    4.20
   1   8  -6   52.69    5.10
   1   8  -6   44.00    4.50
   1   8  -6   50.29    3.90
  -1  -8   6   51.29    4.70
  -1  -8   6   48.60    4.50
   0   8  -6   51.09    4.50
   0   8  -6   42.60    4.80
   0   8  -6   50.29    4.10
   0  -8   6   50.99    4.90
   0  -8   6   50.59    4.50
  -1   8  -6   -0.80    1.90
  -1   8  -6    2.60    2.20
  -1   8  -6    1.50    1.80
  -1   8  -6   -0.50    1.80
   1  -8   6    1.40    2.20
   1  -8   6    1.80    2.10
  -2   8  -6   40.10    4.60
  -2   8  -6   31.20    3.70
  -2   8  -6   27.40    4.20
  -2   8  -6   30.60    3.30
   2  -8   6   27.90    3.80
  -3   8  -6   17.10    3.70
  -3   8  -6   21.60    3.10
  -3   8  -6   13.80    2.90
   3  -8   6   17.70    3.60
  -4   8  -6    1.00    2.30
  -4   8  -6   -0.30    1.90
  -4   8  -6   -1.00    2.60
   4  -8   6   -1.90    2.50
  -5   8  -6   15.10    3.20
  -5   8  -6   15.40    4.20
  -5   8  -6   15.60    3.00
   5  -8   6   12.00    3.70
  -6   8  -6   -0.50    2.40
   6  -8   6    3.00    3.50
  -7   8  -6    1.30    3.00
   7  -8   6    0.10    3.60
   8   7  -6   -1.30    2.60
   8   7  -6    1.00    3.80
  -8  -7   6    2.70    3.90
  -8  -7   6    2.20    2.00
  -8  -7   6    2.50    3.60
   7   7  -6    3.00    3.60
   7   7  -6   -1.10    3.00
   7   7  -6   -2.40    2.50
  -7  -7   6   -1.00    3.30
  -7  -7   6    0.10    3.20
  -7  -7   6   -0.90    1.70
   6   7  -6    7.50    2.80
   6   7  -6   10.80    3.30
   6   7  -6    9.80    3.60
  -6  -7   6    8.90    2.00
  -6  -7   6    7.80    3.10
  -6  -7   6    7.20    3.50
   5   7  -6   20.90    3.10
   5   7  -6   14.70    3.20
   5   7  -6   13.40    3.70
  -5  -7   6   19.30    2.20
  -5  -7   6   14.80    3.50
  -5  -7   6   14.70    3.50
   4   7  -6   -1.00    2.00
   4   7  -6   -0.40    1.90
   4   7  -6    1.00    2.30
   4   7  -6    0.70    2.40
  -4  -7   6    1.30    1.20
  -4  -7   6    2.30    2.50
  -4  -7   6   -1.10    2.00
   3   7  -6   47.70    4.80
   3   7  -6   48.90    5.10
   3   7  -6   48.70    4.10
   3   7  -6   50.79    4.00
  -3  -7   6   47.40    2.60
  -3  -7   6   59.89    5.80
  -3  -7   6   47.40    2.60
  -3  -7   6   40.70    4.20
  -3  -7   6   54.29    5.00
   2   7  -6   61.19    5.50
   2   7  -6   64.79    5.00
   2   7  -6   62.99    4.60
   2   7  -6   56.59    4.00
  -2  -7   6   52.49    4.80
  -2  -7   6   54.29    4.40
  -2  -7   6   55.19    4.70
  -2  -7   6   61.89    2.70
   1   7  -6   31.30    3.20
   1   7  -6   25.10    3.40
   1   7  -6   28.60    3.30
  -1  -7   6   31.70    3.40
  -1  -7   6   30.50    3.50
   0   7  -6  112.59    6.20
   0   7  -6  126.79    6.60
   0   7  -6  109.39    5.50
   0  -7   6   91.09    9.30
   0  -7   6  114.59    6.30
   0  -7   6  109.39    6.00
  -1   7  -6   25.00    3.20
  -1   7  -6   22.90    3.40
  -1   7  -6   17.40    3.00
  -1   7  -6   20.90    2.70
   1  -7   6   22.30    3.20
   1  -7   6   30.10    3.80
   1  -7   6   18.40    3.00
  -2   7  -6   37.70    3.80
  -2   7  -6   40.20    4.40
  -2   7  -6   34.60    4.10
  -2   7  -6   34.70    3.30
   2  -7   6   46.90    4.50
   2  -7   6   34.00    4.00
  -3   7  -6   86.69    4.90
  -3   7  -6   92.29    5.70
  -3   7  -6   81.69    5.90
   3  -7   6   76.09    5.80
   3  -7   6   85.29    5.90
  -4   7  -6    1.90    2.70
  -4   7  -6    3.20    1.90
  -4   7  -6    1.40    2.00
   4  -7   6   -0.80    2.40
  -5   7  -6   16.40    3.60
  -5   7  -6   18.20    3.20
  -5   7  -6   20.70    3.10
   5  -7   6   16.80    3.60
  -6   7  -6   14.50    2.90
  -6   7  -6   15.40    3.40
   6  -7   6   18.10    4.10
  -7   7  -6   -1.10    2.40
  -7   7  -6    2.30    2.30
   7  -7   6   -0.50    3.40
   8  -7   6   -3.40    3.60
   8   6  -6    8.80    4.30
   8   6  -6   10.80    4.30
   8   6  -6    6.20    3.10
  -8  -6   6    4.70    2.10
  -8  -6   6    8.40    3.70
  -8  -6   6    8.70    4.00
   7   6  -6   -1.10    2.80
   7   6  -6   -1.50    2.90
   7   6  -6    2.60    2.40
   7   6  -6   -0.80    3.40
  -7  -6   6    1.60    1.60
  -7  -6   6    4.90    3.00
  -7  -6   6    3.70    3.10
   6   6  -6   50.79    4.40
   6   6  -6   47.80    5.20
   6   6  -6   45.40    4.60
  -6  -6   6   40.00    4.70
  -6  -6   6   50.89    3.50
  -6  -6   6   47.10    5.00
   5   6  -6   50.29    5.10
   5   6  -6   44.90    4.30
   5   6  -6   40.90    4.00
   5   6  -6   54.59    5.50
  -5  -6   6   47.00    4.60
  -5  -6   6   41.70    5.20
  -5  -6   6   29.40    4.00
  -5  -6   6   38.50    2.80
   4   6  -6   38.40    4.30
   4   6  -6   44.50    4.00
   4   6  -6   47.50    4.20
   4   6  -6   39.70    4.30
  -4  -6   6   46.70    4.50
  -4  -6   6   51.39    3.50
  -4  -6   6   42.60    2.50
  -4  -6   6   45.20    2.60
  -4  -6   6   39.50    4.10
   3   6  -6  106.09    6.20
   3   6  -6  105.69    5.20
   3   6  -6  107.59    6.30
   3   6  -6  103.29    5.50
  -3  -6   6  107.79    4.10
  -3  -6   6  114.19    5.10
  -3  -6   6  104.09    6.50
  -3  -6   6  102.99    5.90
  -3  -6   6   94.89    5.80
  -3  -6   6  107.59    4.10
   2   6  -6    2.00    1.90
   2   6  -6    1.80    1.30
   2   6  -6    1.70    1.70
   2   6  -6    0.50    1.10
   2   6  -6    0.90    1.50
  -2  -6   6    2.80    1.80
  -2  -6   6    0.90    1.20
  -2  -6   6   -0.10    1.40
  -2  -6   6    1.10    1.80
  -2  -6   6   -0.80    1.70
  -2  -6   6    3.00    1.90
   1   6  -6   13.10    2.50
   1   6  -6   18.10    3.00
   1   6  -6   14.70    2.20
   1   6  -6   17.50    2.90
  -1  -6   6   11.20    2.30
  -1  -6   6   16.10    2.50
  -1  -6   6   13.70    1.70
  -1  -6   6   13.40    2.40
  -1  -6   6   14.50    2.00
   0   6  -6   87.39    4.50
   0   6  -6  101.29    5.50
   0   6  -6   91.19    5.80
   0   6  -6   85.49    5.10
   0  -6   6   99.29    4.10
   0  -6   6   95.89    5.50
   0  -6   6  100.49    5.40
   0  -6   6   92.69    5.50
   0  -6   6   95.39    5.10
  -1   6  -6    6.50    1.70
  -1   6  -6    3.50    1.40
  -1   6  -6    7.10    1.90
  -1   6  -6    7.10    2.30
  -1   6  -6    7.40    2.30
  -1   6  -6    5.00    1.90
  -1   6  -6    8.40    1.50
   1  -6   6    4.30    1.90
   1  -6   6    8.80    2.10
   1  -6   6    6.00    2.10
   1  -6   6    4.10    1.70
  -2   6  -6   71.49    4.50
  -2   6  -6   63.09    3.90
  -2   6  -6   68.99    5.30
  -2   6  -6   68.79    4.60
  -2   6  -6   78.49    5.00
   2  -6   6   75.69    5.00
   2  -6   6   67.29    4.80
   2  -6   6   68.09    4.70
  -3   6  -6   16.40    2.20
  -3   6  -6   19.00    3.10
  -3   6  -6   17.10    2.70
  -3   6  -6   16.30    2.80
   3  -6   6   15.70    2.70
   3  -6   6   15.40    2.90
   3  -6   6   15.30    2.70
  -4   6  -6   -0.20    1.50
  -4   6  -6    1.50    1.60
  -4   6  -6    1.30    2.10
   4  -6   6    3.70    2.20
   4  -6   6    1.80    1.80
  -5   6  -6    8.00    2.10
  -5   6  -6   13.00    2.70
  -5   6  -6   13.50    3.10
   5  -6   6   15.60    3.10
   5  -6   6   11.00    3.00
  -6   6  -6    9.50    2.30
  -6   6  -6    7.50    2.50
   6  -6   6    4.30    2.90
  -7   6  -6    4.00    2.50
  -7   6  -6    1.70    2.20
   7  -6   6    4.90    3.40
  -8   6  -6    9.40    2.90
  -8   6  -6    7.90    2.80
   8  -6   6    5.80    3.90
   9   5  -6    0.00    2.60
   9   5  -6    4.30    4.10
  -9  -5   6    8.00    3.90
  -9  -5   6    1.00    2.00
  -9  -5   6    6.20    4.00
   8   5  -6    4.50    3.80
   8   5  -6    3.40    2.90
   8   5  -6    7.10    2.70
  -8  -5   6    5.60    3.50
  -8  -5   6    4.80    2.00
  -8  -5   6    5.00    3.50
   7   5  -6    4.80    2.80
   7   5  -6    8.00    2.60
   7   5  -6   -0.50    2.90
  -7  -5   6    0.80    2.80
  -7  -5   6    0.40    2.80
  -7  -5   6   -0.60    1.50
   6   5  -6   21.50    3.90
   6   5  -6   24.40    3.40
   6   5  -6   23.60    3.20
  -6  -5   6   20.30    2.20
  -6  -5   6   24.30    3.60
  -6  -5   6   20.20    3.60
  -6  -5   6   29.00    4.80
   5   5  -6   12.00    2.70
   5   5  -6   12.20    2.70
   5   5  -6   11.30    2.40
   5   5  -6   14.30    3.40
   5   5  -6   15.30    3.20
  -5  -5   6   12.30    2.90
  -5  -5   6   10.80    2.10
  -5  -5   6    9.00    1.30
  -5  -5   6   11.00    2.60
  -5  -5   6   10.50    1.50
   4   5  -6   16.00    2.90
   4   5  -6   18.70    3.10
   4   5  -6   14.80    2.30
   4   5  -6   13.30    2.00
  -4  -5   6   12.80    2.50
  -4  -5   6   14.70    1.40
  -4  -5   6   16.30    1.50
  -4  -5   6   14.10    2.70
  -4  -5   6   21.10    3.00
  -4  -5   6   11.80    1.90
   3   5  -6  106.99    5.00
   3   5  -6   97.79    5.70
   3   5  -6   94.99    5.10
   3   5  -6  103.89    4.60
   3   5  -6  106.09    5.80
  -3  -5   6  105.69    5.80
  -3  -5   6  101.99    4.70
  -3  -5   6   95.19    6.00
  -3  -5   6   97.49    5.20
  -3  -5   6  104.59    5.70
  -3  -5   6  105.99    5.50
   2   5  -6   69.29    3.70
   2   5  -6   63.39    3.80
   2   5  -6   71.69    4.50
   2   5  -6   70.09    4.40
   2   5  -6   71.19    3.50
  -2  -5   6   65.89    3.90
  -2  -5   6   67.59    3.30
  -2  -5   6   71.89    3.50
  -2  -5   6   67.19    4.20
  -2  -5   6   74.59    4.60
  -2  -5   6   77.39    4.50
   1   5  -6  152.18    6.80
   1   5  -6  143.29    6.80
   1   5  -6  145.99    6.10
   1   5  -6  148.79    6.10
   1   5  -6  160.08    5.90
  -1  -5   6  151.78    7.00
  -1  -5   6  122.19    7.70
  -1  -5   6  156.78    7.20
  -1  -5   6  145.59    6.70
  -1  -5   6  146.09    6.20
  -1  -5   6  148.49    5.60
   0   5  -6  203.98    7.80
   0   5  -6  204.38    7.80
   0   5  -6  203.28    8.30
   0   5  -6  200.48    8.40
   0   5  -6  197.38    7.50
   0  -5   6  203.88    8.60
   0  -5   6  200.88    7.00
   0  -5   6  205.08    8.40
   0  -5   6  212.38    8.80
   0  -5   6  198.18    7.70
   0  -5   6  209.28    8.40
  -1   5  -6    0.90    0.90
  -1   5  -6    1.60    0.90
  -1   5  -6    1.20    1.30
  -1   5  -6    1.20    1.50
  -1   5  -6    2.50    1.20
  -1   5  -6    0.60    1.50
  -1   5  -6    2.50    1.60
   1  -5   6    4.10    1.40
   1  -5   6    2.40    1.50
   1  -5   6    2.00    1.50
   1  -5   6    0.40    1.20
  -2   5  -6  104.29    5.50
  -2   5  -6  108.59    5.40
  -2   5  -6  106.49    4.70
  -2   5  -6  101.19    6.10
  -2   5  -6  100.29    5.10
  -2   5  -6  112.79    5.40
  -2   5  -6  101.59    4.70
   2  -5   6  106.09    5.50
   2  -5   6  103.99    5.60
   2  -5   6  104.59    5.60
   2  -5   6   97.09    5.60
  -3   5  -6  133.79    6.00
  -3   5  -6  129.89    5.40
  -3   5  -6  127.69    5.50
  -3   5  -6  124.99    6.10
  -3   5  -6  124.79    6.30
  -3   5  -6  128.39    6.20
   3  -5   6  118.89    6.30
   3  -5   6  126.89    6.80
   3  -5   6  124.39    6.20
   3  -5   6  124.79    6.40
  -4   5  -6    2.80    1.80
  -4   5  -6    2.60    1.30
  -4   5  -6    0.80    1.50
   4  -5   6    0.90    1.60
   4  -5   6    1.80    1.90
   4  -5   6    2.10    1.80
   4  -5   6    1.00    1.80
  -5   5  -6   54.89    3.60
  -5   5  -6   53.09    4.70
  -5   5  -6   43.70    3.80
   5  -5   6   64.09    5.20
   5  -5   6   58.79    5.20
   5  -5   6   45.80    4.30
  -6   5  -6   20.00    3.10
  -6   5  -6   22.00    2.70
   6  -5   6   18.70    3.70
   6  -5   6   20.30    3.20
  -7   5  -6    3.30    2.20
  -7   5  -6    7.80    2.30
   7  -5   6    4.00    2.90
  -8   5  -6    6.70    2.70
  -8   5  -6   11.10    2.90
   8  -5   6   11.10    3.80
   9   4  -6    7.20    4.20
   9   4  -6    4.30    2.60
  -9  -4   6    5.60    2.30
  -9  -4   6   10.00    3.50
  -9  -4   6    3.20    3.50
   8   4  -6    8.70    3.00
   8   4  -6   10.50    4.00
   8   4  -6    6.90    2.80
  -8  -4   6    5.30    1.90
  -8  -4   6    5.80    2.90
  -8  -4   6   11.90    3.50
   7   4  -6    5.40    2.30
   7   4  -6    5.20    3.20
   7   4  -6    2.10    2.40
  -7  -4   6    2.80    1.50
  -7  -4   6    3.10    2.70
  -7  -4   6    2.50    2.70
   6   4  -6   23.50    3.10
   6   4  -6   28.10    3.80
   6   4  -6   20.80    3.90
   6   4  -6   22.00    3.10
  -6  -4   6   18.00    3.10
  -6  -4   6   22.50    2.20
  -6  -4   6   18.70    2.60
  -6  -4   6   27.90    3.70
   5   4  -6   17.10    2.70
   5   4  -6   21.00    3.30
   5   4  -6   22.50    2.70
   5   4  -6   18.10    2.50
  -5  -4   6   16.50    2.80
  -5  -4   6   15.80    2.80
  -5  -4   6   19.40    2.40
  -5  -4   6   17.00    2.90
  -5  -4   6   19.00    1.70
  -5  -4   6   18.20    2.80
  -5  -4   6   19.70    1.60
   4   4  -6   88.19    4.10
   4   4  -6   94.49    5.70
   4   4  -6   86.89    5.30
   4   4  -6   88.79    4.70
   4   4  -6   93.99    4.60
  -4  -4   6  101.39    5.30
  -4  -4   6   89.19    5.60
  -4  -4   6   84.39    4.80
  -4  -4   6  107.49    5.50
  -4  -4   6   95.99    3.50
  -4  -4   6   90.79    4.40
  -4  -4   6   89.49    5.00
  -4  -4   6   83.49    3.40
   3   4  -6  185.98    8.10
   3   4  -6  173.68    7.00
   3   4  -6  186.58    7.80
   3   4  -6  177.28    6.60
   3   4  -6  174.08    7.60
   3   4  -6  169.78    6.80
  -3  -4   6  138.09    7.50
  -3  -4   6  182.38    7.40
  -3  -4   6  167.98    6.50
  -3  -4   6  166.68    7.40
  -3  -4   6  165.28    7.10
  -3  -4   6  185.58    7.70
   2   4  -6   27.50    2.00
   2   4  -6   27.80    2.30
   2   4  -6   26.40    2.70
   2   4  -6   33.40    3.10
   2   4  -6   24.10    2.30
  -2  -4   6   28.40    2.80
  -2  -4   6   22.70    2.70
  -2  -4   6   26.90    2.40
  -2  -4   6   21.10    1.70
  -2  -4   6   26.50    2.70
   1   4  -6  135.79    5.30
   1   4  -6  122.29    5.70
   1   4  -6  133.79    5.30
   1   4  -6  126.89    5.10
   1   4  -6  130.29    5.90
   1   4  -6  132.79    5.10
  -1  -4   6  128.89    4.60
  -1  -4   6  134.19    6.00
  -1  -4   6  137.89    6.10
  -1  -4   6  129.19    5.40
  -1  -4   6  130.89    6.10
  -1  -4   6  133.39    5.80
   0   4  -6  233.18    8.70
   0   4  -6  234.38    8.00
   0   4  -6  239.08    8.20
   0   4  -6  222.18    9.40
   0   4  -6  224.88    8.70
   0   4  -6  221.18    8.00
   0   4  -6  229.38    8.20
   0  -4   6  213.38    8.60
   0  -4   6  226.38    9.00
   0  -4   6  220.28    8.90
   0  -4   6  220.78    8.50
   0  -4   6  216.98    8.90
  -1   4  -6   43.10    3.20
  -1   4  -6   45.10    2.50
  -1   4  -6   44.70    3.60
  -1   4  -6   39.90    2.40
  -1   4  -6   43.90    2.50
  -1   4  -6   42.10    2.80
  -1   4  -6   44.50    3.00
   1  -4   6   45.30    2.80
   1  -4   6   48.40    3.20
   1  -4   6   45.40    2.30
   1  -4   6   38.20    2.70
   1  -4   6   41.00    2.90
   1  -4   6   41.40    3.10
  -2   4  -6  375.16   12.80
  -2   4  -6  369.66   13.50
  -2   4  -6  378.36   13.30
  -2   4  -6  372.46   12.80
  -2   4  -6  379.56   13.70
  -2   4  -6  390.56   13.60
  -2   4  -6  368.86   14.40
   2  -4   6  381.36   13.40
   2  -4   6  382.26   13.70
   2  -4   6  368.76   13.50
   2  -4   6  360.96   13.70
  -3   4  -6    2.00    1.40
  -3   4  -6    2.30    1.20
  -3   4  -6   -0.10    1.20
  -3   4  -6    0.10    1.20
  -3   4  -6    0.40    0.90
  -3   4  -6    0.20    1.00
   3  -4   6    1.20    1.40
   3  -4   6    1.70    1.30
   3  -4   6    2.20    1.30
   3  -4   6    2.80    1.80
   3  -4   6    1.60    1.30
  -4   4  -6   56.59    3.20
  -4   4  -6   57.89    3.80
  -4   4  -6   51.29    3.50
  -4   4  -6   55.59    3.20
  -4   4  -6   50.49    3.80
  -4   4  -6   59.39    4.00
   4  -4   6   58.29    4.10
   4  -4   6   56.39    3.90
   4  -4   6   55.69    4.10
   4  -4   6   59.99    4.50
  -5   4  -6    9.40    1.80
  -5   4  -6    9.90    2.50
  -5   4  -6   10.60    2.00
   5  -4   6   10.90    2.40
   5  -4   6   10.10    2.30
   5  -4   6   12.00    2.60
   5  -4   6   13.50    2.80
  -6   4  -6   -1.50    1.40
  -6   4  -6   -0.40    1.70
   6  -4   6    1.20    2.00
   6  -4   6    1.70    2.30
  -7   4  -6    0.20    1.90
  -7   4  -6    0.00    1.70
   7  -4   6   -1.70    2.50
  -8   4  -6    2.80    2.40
  -8   4  -6    6.80    2.50
   8  -4   6    7.90    3.50
  -9   4  -6   -3.30    2.30
  -9   4  -6    0.60    2.60
   9  -4   6   -0.50    3.10
  10   3  -6    2.50    2.50
  10   3  -6    6.70    4.20
 -10  -3   6   -1.30    2.10
 -10  -3   6    1.20    3.50
 -10  -3   6   -1.00    3.10
   9   3  -6    9.40    3.20
   9   3  -6   15.70    3.10
   9   3  -6   10.00    3.90
  -9  -3   6   13.50    3.80
  -9  -3   6   14.10    4.00
  -9  -3   6   12.10    2.50
   8   3  -6   12.40    3.70
   8   3  -6   13.50    2.70
   8   3  -6   10.50    3.00
  -8  -3   6   15.10    3.70
  -8  -3   6   13.90    3.50
  -8  -3   6   12.30    2.10
   7   3  -6   20.00    3.50
   7   3  -6   28.60    3.30
   7   3  -6   36.00    4.00
   7   3  -6   33.00    4.80
  -7  -3   6   25.60    3.70
  -7  -3   6   27.80    2.50
  -7  -3   6   30.00    3.70
   6   3  -6  117.09    5.80
   6   3  -6   89.99    5.20
   6   3  -6  106.89    6.30
   6   3  -6   99.49    6.60
  -6  -3   6  102.49    4.50
  -6  -3   6  115.89    5.90
  -6  -3   6   90.49    5.00
  -6  -3   6  122.09    6.40
   5   3  -6   -0.60    1.70
   5   3  -6   -0.30    0.40
   5   3  -6    0.10    2.10
   5   3  -6    1.80    1.50
   5   3  -6    0.80    1.30
  -5  -3   6    1.60    0.80
  -5  -3   6   -2.10    1.60
  -5  -3   6    0.10    0.60
  -5  -3   6    1.00    1.50
  -5  -3   6    0.60    1.70
  -5  -3   6   -0.20    1.70
  -5  -3   6    0.30    1.30
  -5  -3   6    0.60    0.80
  -5  -3   6   -1.20    1.60
  -5  -3   6    1.30    1.20
   4   3  -6   55.69    3.90
   4   3  -6   63.99    4.90
   4   3  -6   59.69    3.40
   4   3  -6   53.89    2.90
   4   3  -6   59.19    3.20
  -4  -3   6   47.70    2.60
  -4  -3   6   54.79    3.70
  -4  -3   6   51.49    2.90
  -4  -3   6   49.90    4.00
  -4  -3   6   53.79    3.40
  -4  -3   6   48.70    3.70
  -4  -3   6   46.60    3.50
   3   3  -6   94.69    4.10
   3   3  -6   83.19    3.80
   3   3  -6   84.29    3.70
   3   3  -6   88.99    4.80
   3   3  -6   87.09    4.50
  -3  -3   6   85.79    3.80
  -3  -3   6   77.99    3.50
  -3  -3   6   81.99    4.10
  -3  -3   6   91.49    4.50
  -3  -3   6   90.69    4.50
   2   3  -6  170.28    7.00
   2   3  -6  181.28    6.60
   2   3  -6  169.08    6.20
   2   3  -6  176.38    7.30
   2   3  -6  174.58    6.50
   2   3  -6  173.28    7.00
  -2  -3   6  179.18    7.20
  -2  -3   6  178.68    7.00
  -2  -3   6  162.08    5.90
  -2  -3   6  171.28    7.30
  -2  -3   6  177.18    6.60
  -2  -3   6  172.48    7.00
   1   3  -6  217.18    8.10
   1   3  -6  203.28    7.50
   1   3  -6  210.08    7.30
   1   3  -6  209.18    8.00
   1   3  -6  222.68    7.60
   1   3  -6  214.48    7.60
  -1  -3   6  212.68    8.20
  -1  -3   6  200.98    8.30
  -1  -3   6  211.68    8.00
  -1  -3   6  214.58    8.10
  -1  -3   6  219.28    8.10
   0   3  -6  596.54   18.50
   0   3  -6  561.04   18.90
   0   3  -6  563.54   19.00
   0   3  -6  567.54   19.80
   0   3  -6  563.04   18.30
   0   3  -6  573.34   18.50
   0   3  -6  549.15   18.50
   0  -3   6  556.04   18.80
   0  -3   6  562.94   18.90
   0  -3   6  528.95   19.00
   0  -3   6  579.34   19.30
   0  -3   6  547.65   18.10
   0  -3   6  572.04   19.10
  -1   3  -6   28.00    1.60
  -1   3  -6   33.30    3.10
  -1   3  -6   30.70    1.70
  -1   3  -6   29.10    1.80
  -1   3  -6   26.60    2.30
  -1   3  -6   29.50    2.10
  -1   3  -6   29.50    1.70
  -1   3  -6   27.90    2.00
   1  -3   6   33.20    2.20
   1  -3   6   28.00    2.20
   1  -3   6   30.80    2.30
   1  -3   6   33.60    2.20
  -2   3  -6  280.07   10.30
  -2   3  -6  283.67   10.50
  -2   3  -6  291.37   10.00
  -2   3  -6  288.37    9.80
  -2   3  -6  292.57   10.20
  -2   3  -6  297.47   11.40
  -2   3  -6  297.97   10.40
  -2   3  -6  298.37    9.90
   2  -3   6  284.67   10.60
   2  -3   6  274.67   10.50
   2  -3   6  294.67   10.40
   2  -3   6  278.57   10.30
  -3   3  -6    6.10    1.40
  -3   3  -6    4.30    1.20
  -3   3  -6    3.90    0.90
  -3   3  -6    5.50    1.10
  -3   3  -6    7.10    1.10
  -3   3  -6    4.80    1.30
   3  -3   6    8.80    1.80
   3  -3   6    5.80    1.20
   3  -3   6    9.80    1.70
  -4   3  -6   23.30    1.90
  -4   3  -6   16.50    2.20
  -4   3  -6   23.80    2.40
  -4   3  -6   19.30    2.10
  -4   3  -6   18.00    1.90
  -4   3  -6   18.70    2.40
   4  -3   6   17.80    2.40
   4  -3   6   23.50    2.90
   4  -3   6   22.70    2.50
   4  -3   6   22.60    2.60
  -5   3  -6   20.90    2.40
  -5   3  -6   20.20    2.80
  -5   3  -6   16.70    2.00
  -5   3  -6   15.40    1.80
   5  -3   6   16.80    2.50
   5  -3   6   14.50    2.60
   5  -3   6   12.00    2.20
   5  -3   6   15.90    2.60
  -6   3  -6   11.80    2.00
  -6   3  -6   16.90    2.50
   6  -3   6   12.90    2.50
   6  -3   6   11.80    2.70
   6  -3   6   12.40    2.50
  -7   3  -6    8.90    2.10
  -7   3  -6   10.10    2.50
   7  -3   6    6.20    2.80
   7  -3   6   13.30    3.10
  -8   3  -6    0.90    2.10
  -8   3  -6   12.30    2.90
   8  -3   6    5.00    3.00
  -9   3  -6    0.70    2.40
  -9   3  -6    3.70    2.60
   9  -3   6    4.50    3.40
  10   2  -6    0.40    3.30
  10   2  -6    4.50    2.70
 -10  -2   6    2.80    2.20
 -10  -2   6    1.30    3.40
 -10  -2   6    5.20    3.60
   9   2  -6   12.70    4.20
   9   2  -6    5.30    2.40
   9   2  -6    0.30    2.50
  -9  -2   6    4.80    3.30
  -9  -2   6    4.10    2.00
  -9  -2   6    7.20    3.30
   8   2  -6    7.00    2.80
   8   2  -6    1.80    2.90
   8   2  -6    3.10    1.90
  -8  -2   6    4.20    2.90
  -8  -2   6    5.60    1.70
  -8  -2   6    0.50    2.70
   7   2  -6   11.90    2.20
   7   2  -6   18.50    3.00
   7   2  -6   13.80    2.90
   7   2  -6   13.60    3.30
  -7  -2   6   11.50    2.60
  -7  -2   6   15.30    1.90
  -7  -2   6   17.20    3.20
  -7  -2   6   14.30    2.60
   6   2  -6   79.69    5.70
   6   2  -6   81.99    5.40
   6   2  -6   79.69    4.60
   6   2  -6   85.39    5.00
  -6  -2   6   92.29    3.90
  -6  -2   6   87.69    3.80
  -6  -2   6   81.69    5.00
  -6  -2   6   89.39    5.60
  -6  -2   6   84.29    4.40
  -6  -2   6   86.19    5.30
   5   2  -6   13.80    1.80
   5   2  -6   10.80    1.50
   5   2  -6   11.90    2.40
   5   2  -6    9.30    1.80
   5   2  -6   13.30    2.10
   5   2  -6   11.80    2.40
  -5  -2   6   11.70    2.10
  -5  -2   6   11.70    2.20
  -5  -2   6   12.90    2.00
  -5  -2   6   10.90    1.40
  -5  -2   6   16.00    1.90
  -5  -2   6   12.80    2.40
  -5  -2   6   14.70    2.30
   4   2  -6  189.38    7.80
   4   2  -6  170.78    7.20
   4   2  -6  190.68    7.60
   4   2  -6  190.78    8.10
   4   2  -6  184.88    6.90
   4   2  -6  189.28    7.10
  -4  -2   6  175.08    7.30
  -4  -2   6  188.18    7.60
  -4  -2   6  199.88    7.90
  -4  -2   6  187.08    7.70
  -4  -2   6  178.38    6.80
  -4  -2   6  185.48    7.00
   3   2  -6   18.10    1.70
   3   2  -6   16.70    2.00
   3   2  -6   18.30    2.00
   3   2  -6   20.60    2.40
   3   2  -6   15.60    1.40
   3   2  -6   22.00    1.70
  -3  -2   6   21.30    2.30
  -3  -2   6   17.90    2.20
  -3  -2   6   14.80    1.80
  -3  -2   6   17.40    1.20
  -3  -2   6   16.60    2.00
  -3  -2   6   16.20    1.70
  -3  -2   6   17.50    1.70
   2   2  -6  121.79    4.50
   2   2  -6  108.29    5.00
   2   2  -6  112.19    4.40
   2   2  -6  117.19    4.50
   2   2  -6  107.99    4.70
   2   2  -6  109.19    4.80
   2   2  -6  116.49    4.30
  -2  -2   6  113.09    4.80
  -2  -2   6  116.79    4.70
  -2  -2   6  113.09    5.10
  -2  -2   6  119.89    4.90
  -2  -2   6  122.29    4.90
  -2  -2   6  114.69    5.00
   1   2  -6   16.10    1.30
   1   2  -6   15.50    1.00
   1   2  -6   15.70    1.50
   1   2  -6   14.10    1.40
   1   2  -6   15.30    1.20
   1   2  -6   14.20    1.10
   1   2  -6   14.80    1.60
  -1  -2   6   16.60    1.70
  -1  -2   6   14.10    1.50
  -1  -2   6   12.20    1.50
  -1  -2   6   11.00    1.40
  -1  -2   6   16.70    1.60
  -1  -2   6   14.80    1.50
   0   2  -6   62.49    2.30
   0   2  -6   61.39    2.30
   0   2  -6   58.59    3.60
   0   2  -6   59.89    2.30
   0   2  -6   58.79    2.20
   0   2  -6   63.69    2.80
   0   2  -6   59.89    2.90
   0  -2   6   63.49    2.70
   0  -2   6   59.79    2.80
   0  -2   6   58.49    2.80
   0  -2   6   63.39    3.00
   0  -2   6   58.19    2.80
  -1   2  -6    3.30    0.90
  -1   2  -6    3.50    0.90
  -1   2  -6    3.90    0.50
  -1   2  -6    4.00    0.50
  -1   2  -6    3.30    1.20
  -1   2  -6    4.60    0.70
  -1   2  -6    4.10    0.50
  -1   2  -6    5.40    0.60
   1  -2   6    2.00    0.80
   1  -2   6    3.60    0.80
   1  -2   6    3.70    0.80
   1  -2   6    3.90    0.90
   1  -2   6    3.60    0.80
  -2   2  -6  159.78    5.60
  -2   2  -6  161.78    6.00
  -2   2  -6  162.38    5.60
  -2   2  -6  163.58    5.70
  -2   2  -6  167.78    5.90
  -2   2  -6  168.28    7.00
  -2   2  -6  155.68    6.00
  -2   2  -6  160.58    6.10
   2  -2   6  169.98    6.10
   2  -2   6  162.18    6.30
   2  -2   6  158.28    6.00
   2  -2   6  157.78    6.10
  -3   2  -6   58.49    3.10
  -3   2  -6   59.29    3.10
  -3   2  -6   59.29    3.00
  -3   2  -6   62.59    3.20
  -3   2  -6   57.59    2.60
  -3   2  -6   57.89    2.70
  -3   2  -6   62.59    2.70
   3  -2   6   60.79    3.70
   3  -2   6   57.19    3.20
   3  -2   6   59.49    2.90
   3  -2   6   63.19    3.20
   3  -2   6   53.79    3.10
  -4   2  -6    4.20    1.30
  -4   2  -6    3.00    1.40
  -4   2  -6    4.60    1.00
  -4   2  -6    1.40    1.20
  -4   2  -6    5.00    1.10
  -4   2  -6    5.20    1.40
   4  -2   6    3.40    1.30
   4  -2   6    2.70    1.50
   4  -2   6    4.90    1.20
   4  -2   6    5.50    1.50
   4  -2   6    4.40    1.50
   4  -2   6    3.00    1.10
  -5   2  -6   93.59    4.30
  -5   2  -6   90.09    4.90
  -5   2  -6   91.39    4.90
  -5   2  -6   93.19    4.10
  -5   2  -6   92.99    4.60
   5  -2   6   91.09    5.10
   5  -2   6   86.89    4.90
   5  -2   6   91.69    5.20
   5  -2   6   89.59    5.00
  -6   2  -6    0.40    1.50
  -6   2  -6    4.30    1.60
   6  -2   6    1.60    1.80
   6  -2   6    3.90    2.00
   6  -2   6    1.10    1.90
   6  -2   6    1.70    1.90
  -7   2  -6   10.40    2.10
  -7   2  -6    9.60    2.20
   7  -2   6    9.40    2.70
   7  -2   6   13.90    3.00
  -8   2  -6    3.40    2.30
  -8   2  -6    1.30    2.10
   8  -2   6    6.70    2.80
  -9   2  -6   -2.60    2.20
  -9   2  -6   -1.40    2.30
   9  -2   6    0.70    3.00
  10   1  -6   -4.30    2.10
  10   1  -6    0.80    3.90
 -10  -1   6    0.10    3.30
 -10  -1   6   -2.30    2.60
 -10  -1   6    0.80    2.00
   9   1  -6    3.60    2.70
   9   1  -6    7.00    2.40
   9   1  -6    5.80    3.30
  -9  -1   6    2.60    3.10
  -9  -1   6    3.80    1.90
  -9  -1   6    6.90    3.40
   8   1  -6    6.70    3.00
   8   1  -6    7.80    2.20
   8   1  -6    0.40    2.20
  -8  -1   6    4.80    1.60
  -8  -1   6    4.60    2.80
  -8  -1   6    2.70    2.70
   7   1  -6    2.30    2.20
   7   1  -6    0.10    1.60
   7   1  -6    3.30    2.30
   7   1  -6    5.00    2.40
  -7  -1   6    1.80    1.60
  -7  -1   6    2.30    1.30
  -7  -1   6    1.40    2.10
  -7  -1   6    1.60    2.00
  -7  -1   6    3.40    1.20
   6   1  -6  105.09    6.10
   6   1  -6  106.69    5.20
   6   1  -6  106.19    6.10
   6   1  -6   99.59    5.30
  -6  -1   6   98.99    4.60
  -6  -1   6  104.19    5.60
  -6  -1   6  112.69    4.10
  -6  -1   6   96.09    5.60
  -6  -1   6  109.99    6.10
  -6  -1   6  105.69    4.80
   5   1  -6   33.40    2.30
   5   1  -6   29.40    3.10
   5   1  -6   38.20    3.70
   5   1  -6   28.30    2.70
   5   1  -6   43.60    3.10
  -5  -1   6   33.50    2.30
  -5  -1   6   31.30    2.70
  -5  -1   6   23.90    2.70
  -5  -1   6   34.40    3.20
  -5  -1   6   32.30    2.30
  -5  -1   6   29.00    3.10
  -5  -1   6   28.00    2.80
   4   1  -6  337.57   12.00
   4   1  -6  336.97   12.30
   4   1  -6  343.87   12.50
   4   1  -6  320.97   11.50
   4   1  -6  322.27   11.40
   4   1  -6  321.57   11.70
  -4  -1   6  351.06   11.70
  -4  -1   6  333.47   11.70
  -4  -1   6  350.26   12.20
  -4  -1   6  312.67   12.00
  -4  -1   6  312.27   11.10
   3   1  -6   61.49    2.90
   3   1  -6   68.49    3.60
   3   1  -6   65.59    3.30
   3   1  -6   64.89    2.80
   3   1  -6   67.59    3.70
   3   1  -6   73.09    3.20
   3   1  -6   71.29    3.20
  -3  -1   6   63.49    3.70
  -3  -1   6   64.89    3.50
  -3  -1   6   67.09    3.30
  -3  -1   6   70.39    3.40
  -3  -1   6   66.99    3.40
  -3  -1   6   66.49    3.00
  -3  -1   6   70.09    3.60
   2   1  -6   44.30    2.50
   2   1  -6   45.00    2.10
   2   1  -6   48.20    2.40
   2   1  -6   47.70    2.20
   2   1  -6   44.40    2.10
   2   1  -6   45.50    2.70
   2   1  -6   46.70    2.00
  -2  -1   6   47.90    2.40
  -2  -1   6   45.40    1.80
  -2  -1   6   46.60    2.70
  -2  -1   6   46.30    2.50
  -2  -1   6   48.30    2.60
  -2  -1   6   39.40    2.60
  -2  -1   6   45.30    2.40
   1   1  -6   14.70    1.10
   1   1  -6   14.00    0.70
   1   1  -6   13.70    1.40
   1   1  -6   16.60    1.30
   1   1  -6   15.40    0.90
   1   1  -6   14.90    0.80
  -1  -1   6   16.20    1.30
  -1  -1   6   12.60    1.30
  -1  -1   6   15.50    1.70
  -1  -1   6   14.70    1.20
  -1  -1   6   13.10    1.20
  -1  -1   6   14.70    1.20
   0   1  -6  122.19    4.00
   0   1  -6  123.19    4.30
   0   1  -6  111.49    4.00
   0   1  -6  115.99    4.30
   0  -1   6  114.99    4.00
   0  -1   6  108.99    4.20
   0  -1   6  119.79    4.20
   0  -1   6  118.19    4.10
   0  -1   6  112.79    4.90
   0  -1   6  123.19    4.00
  -1   1  -6   57.19    2.30
  -1   1  -6   63.59    2.20
  -1   1  -6   56.09    2.50
  -1   1  -6   60.19    3.20
  -1   1  -6   58.69    2.40
   1  -1   6   55.99    3.20
   1  -1   6   60.09    2.30
   1  -1   6   63.69    2.50
  -2   1  -6  279.27    9.90
  -2   1  -6  263.17    9.10
  -2   1  -6  267.27    9.00
  -2   1  -6  263.67    8.90
  -2   1  -6  263.17    8.90
   2  -1   6  258.77    9.00
   2  -1   6  262.87    9.10
   2  -1   6  262.97    8.90
  -3   1  -6  124.39    4.90
  -3   1  -6  123.89    4.30
  -3   1  -6  129.69    4.40
  -3   1  -6  122.39    4.80
  -3   1  -6  121.59    4.90
  -3   1  -6  127.99    4.50
  -3   1  -6  119.39    4.80
   3  -1   6  121.99    4.90
   3  -1   6  128.09    5.00
   3  -1   6  117.39    5.50
   3  -1   6  124.09    5.10
   3  -1   6  117.49    4.70
  -4   1  -6  113.09    4.90
  -4   1  -6  114.09    5.20
  -4   1  -6  120.79    4.70
  -4   1  -6  102.19    5.10
  -4   1  -6  122.09    5.00
  -4   1  -6  120.69    4.50
  -4   1  -6  116.79    5.20
   4  -1   6  122.49    4.90
   4  -1   6  127.19    5.30
   4  -1   6  113.79    5.20
   4  -1   6  114.59    4.90
   4  -1   6  121.59    5.40
   4  -1   6  118.29    5.50
  -5   1  -6   16.10    2.30
  -5   1  -6   16.10    2.20
  -5   1  -6   19.60    2.20
  -5   1  -6   18.20    1.70
  -5   1  -6   18.50    1.90
   5  -1   6   20.20    2.60
   5  -1   6   19.30    2.40
   5  -1   6   15.60    2.30
   5  -1   6   17.70    2.40
  -6   1  -6    1.30    1.40
  -6   1  -6   -0.80    1.10
  -6   1  -6   -1.10    1.40
   6  -1   6    1.30    1.80
   6  -1   6   -1.00    1.50
   6  -1   6   -0.40    1.70
   6  -1   6    1.20    1.80
  -7   1  -6    1.30    1.60
  -7   1  -6    0.60    1.90
   7  -1   6    1.30    2.10
   7  -1   6    2.10    2.00
  -8   1  -6    6.30    2.50
  -8   1  -6    4.30    2.10
   8  -1   6   10.50    3.30
  -9   1  -6    0.80    2.40
  -9   1  -6   -0.40    2.10
   9  -1   6   -0.90    2.80
  10   0  -6    4.80    2.30
  10   0  -6    5.20    3.10
  10   0  -6    3.90    3.50
 -10   0   6    8.80    3.50
 -10   0   6    2.90    2.20
 -10   0   6    1.00    3.30
   9   0  -6    9.50    4.00
   9   0  -6    5.70    2.40
   9   0  -6    6.30    2.90
  -9   0   6    7.90    3.50
  -9   0   6    8.90    2.00
  -9   0   6    6.10    3.10
   8   0  -6    2.60    1.80
   8   0  -6    0.50    2.80
   8   0  -6   -3.30    2.10
  -8   0   6   -3.20    2.20
  -8   0   6    2.10    1.30
  -8   0   6    0.60    2.30
   7   0  -6   43.20    4.50
   7   0  -6   35.90    3.20
   7   0  -6   38.40    3.70
   7   0  -6   31.50    4.10
  -7   0   6   46.50    4.30
  -7   0   6   44.50    2.40
  -7   0   6   32.40    3.90
   6   0  -6   27.30    3.20
   6   0  -6   35.90    3.10
   6   0  -6   30.60    2.50
   6   0  -6   29.00    3.50
   6   0  -6   32.20    3.20
  -6   0   6   34.80    3.60
  -6   0   6   46.20    4.00
  -6   0   6   31.90    3.70
  -6   0   6   36.10    2.60
  -6   0   6   30.50    3.20
   5   0  -6   -0.70    1.20
   5   0  -6    1.40    1.50
   5   0  -6    0.00    1.40
   5   0  -6    0.50    1.10
   5   0  -6    0.70    0.80
   5   0  -6    0.80    1.00
  -5   0   6    0.80    0.90
  -5   0   6   -0.30    1.30
  -5   0   6    0.60    1.20
  -5   0   6    0.30    1.40
  -5   0   6    0.30    1.00
  -5   0   6    0.00    0.50
   4   0  -6   35.60    3.00
   4   0  -6   36.30    2.10
   4   0  -6   30.90    3.00
   4   0  -6   36.90    2.50
   4   0  -6   33.80    2.60
   4   0  -6   35.60    2.10
  -4   0   6   33.10    2.20
  -4   0   6   32.60    2.80
  -4   0   6   39.80    2.80
  -4   0   6   39.90    3.00
  -4   0   6   36.70    2.50
  -4   0   6   37.30    2.70
  -4   0   6   32.00    1.70
   3   0  -6  613.04   20.20
   3   0  -6  605.84   20.80
   3   0  -6  660.93   20.20
   3   0  -6  579.54   20.40
   3   0  -6  639.54   20.70
   3   0  -6  605.64   20.10
  -3   0   6  608.14   20.50
  -3   0   6  600.04   20.60
  -3   0   6  629.44   20.60
  -3   0   6  613.04   20.70
  -3   0   6  585.54   20.60
  -3   0   6  636.94   20.90
   2   0  -6   15.40    1.00
   2   0  -6   19.40    1.20
   2   0  -6   16.70    1.40
   2   0  -6   21.20    1.80
   2   0  -6   16.90    1.10
   2   0  -6   14.90    1.40
  -2   0   6   18.80    1.60
  -2   0   6   16.80    1.70
  -2   0   6   16.20    1.60
  -2   0   6   18.10    1.50
  -2   0   6   19.10    1.50
  -2   0   6   16.40    1.40
   1   0  -6 1415.76   43.30
   1   0  -6 1318.67   43.40
   1   0  -6 1349.27   43.20
  -1   0   6 1403.66   43.20
  -1   0   6 1403.86   43.20
  -1   0   6 1369.66   44.20
  -1   0   6 1288.47   43.20
  -1   0   6 1331.27   43.40
  -1   0   6 1371.46   43.30
   0   0  -6  335.47   10.60
   0   0   6  325.37   11.80
  -1   0  -6  347.27   11.90
   1   0   6  337.07   12.20
  -2   0  -6  160.18    5.30
  -2   0  -6  150.88    5.40
  -2   0  -6  153.08    5.30
  -2   0  -6  152.48    5.30
   2   0   6  156.38    6.50
   2   0   6  161.28    5.50
   2   0   6  157.78    5.40
  -3   0  -6   10.60    1.30
  -3   0  -6   11.90    1.20
  -3   0  -6    9.30    0.90
  -3   0  -6   11.80    0.90
  -3   0  -6    9.90    1.10
  -3   0  -6   11.10    1.30
  -3   0  -6   10.90    0.80
   3   0   6   12.50    1.30
   3   0   6   11.70    1.10
   3   0   6   10.00    1.10
   3   0   6   12.50    1.40
   3   0   6   11.50    1.60
   3   0   6   10.90    1.20
  -4   0  -6   10.30    1.30
  -4   0  -6   14.90    1.80
  -4   0  -6    9.70    1.50
  -4   0  -6   11.80    1.70
  -4   0  -6   13.10    1.70
  -4   0  -6   10.90    1.60
  -4   0  -6   11.90    1.10
   4   0   6    9.60    1.40
   4   0   6   10.20    1.60
   4   0   6   11.80    1.40
   4   0   6   13.60    1.80
   4   0   6   12.90    1.80
   4   0   6   14.30    1.70
  -5   0  -6  128.59    5.20
  -5   0  -6  137.29    5.50
  -5   0  -6  129.09    6.00
  -5   0  -6  130.59    5.40
  -5   0  -6  132.39    5.80
   5   0   6  137.79    6.40
   5   0   6  133.49    6.10
   5   0   6  127.09    6.10
   5   0   6  133.39    6.10
  -6   0  -6   30.20    2.40
  -6   0  -6   24.60    2.50
  -6   0  -6   27.30    2.90
   6   0   6   25.60    3.10
   6   0   6   31.50    3.20
   6   0   6   28.50    3.20
   6   0   6   37.10    3.60
  -7   0  -6   31.40    3.40
  -7   0  -6   24.30    2.80
   7   0   6   29.70    3.80
   7   0   6   36.50    5.00
   7   0   6   32.50    3.80
  -8   0  -6    8.90    2.40
  -8   0  -6    6.30    2.50
   8   0   6    6.30    2.90
  -9   0  -6    4.80    2.50
   9   0   6    0.60    2.90
  10  -1  -6    3.90    3.30
  10  -1  -6    7.50    2.70
  10  -1  -6    3.10    3.00
 -10   1   6    1.40    1.80
 -10   1   6   -0.90    3.20
 -10   1   6   11.00    4.20
   9  -1  -6   47.90    4.50
   9  -1  -6   39.70    4.50
   9  -1  -6   46.70    6.10
  -9   1   6   54.29    3.50
  -9   1   6   35.00    4.60
  -9   1   6   33.20    4.90
   8  -1  -6   12.10    3.70
   8  -1  -6   11.30    3.00
   8  -1  -6    5.10    2.10
  -8   1   6    5.70    2.50
  -8   1   6    6.70    3.00
  -8   1   6    9.20    1.40
   7  -1  -6   70.89    4.40
   7  -1  -6   85.99    5.90
   7  -1  -6   69.79    4.90
   7  -1  -6   70.29    5.40
  -7   1   6   74.69    5.20
  -7   1   6   87.99    5.50
   6  -1  -6    3.90    1.60
   6  -1  -6    2.30    1.70
   6  -1  -6    7.30    2.30
   6  -1  -6    3.40    1.30
   6  -1  -6    6.40    2.30
  -6   1   6    1.60    1.10
  -6   1   6   -0.10    0.80
  -6   1   6    4.10    2.00
  -6   1   6    3.10    1.70
  -6   1   6    4.10    1.90
   5  -1  -6    1.80    1.00
   5  -1  -6    2.40    1.70
   5  -1  -6    2.10    1.20
   5  -1  -6    2.90    1.50
   5  -1  -6    0.80    1.60
   5  -1  -6    0.80    1.20
  -5   1   6    0.30    1.00
  -5   1   6    2.30    1.60
  -5   1   6    2.30    1.30
  -5   1   6    4.50    1.70
  -5   1   6    1.30    1.50
  -5   1   6    2.80    1.00
   4  -1  -6    4.90    1.30
   4  -1  -6    3.10    1.10
   4  -1  -6    7.10    1.20
   4  -1  -6    2.90    0.90
   4  -1  -6    3.00    1.30
   4  -1  -6    4.70    1.50
  -4   1   6    4.00    1.40
  -4   1   6    5.50    0.70
  -4   1   6    4.00    1.00
  -4   1   6    3.50    1.20
  -4   1   6    2.90    1.30
  -4   1   6    4.00    1.30
   3  -1  -6   29.60    2.00
   3  -1  -6   31.40    2.00
   3  -1  -6   29.70    1.70
   3  -1  -6   29.00    2.60
   3  -1  -6   31.40    1.70
   3  -1  -6   24.30    2.20
  -3   1   6   30.40    2.20
  -3   1   6   28.90    2.50
  -3   1   6   27.40    1.60
  -3   1   6   29.30    2.20
  -3   1   6   38.70    2.90
  -3   1   6   28.70    2.20
  -3   1   6   28.00    2.10
   2  -1  -6   19.80    1.70
   2  -1  -6   18.70    1.20
   2  -1  -6   18.10    1.00
   2  -1  -6   17.40    1.40
   2  -1  -6   18.10    1.20
   2  -1  -6   19.30    1.60
  -2   1   6   17.80    1.60
  -2   1   6   18.70    2.00
  -2   1   6   19.70    1.50
  -2   1   6   17.30    1.50
  -2   1   6   19.30    1.60
  -2   1   6   18.00    1.50
   1  -1  -6   66.59    2.50
   1  -1  -6   63.49    2.70
   1  -1  -6   64.59    2.40
  -1   1   6   68.39    2.40
  -1   1   6   63.99    2.70
  -1   1   6   66.89    2.50
  -1   1   6   66.69    2.50
  -1   1   6   59.49    3.40
  -1   1   6   62.19    2.40
  -1   1   6   66.29    2.60
   0   1   6  155.28    6.30
  -1  -1  -6   17.30    1.20
   1   1   6   18.50    2.00
  -2  -1  -6  187.98    6.40
  -2  -1  -6  183.48    6.50
  -2  -1  -6  192.08    6.40
   2   1   6  195.78    6.60
   2   1   6  196.68    7.50
   2   1   6  185.18    6.50
  -3  -1  -6    5.50    0.80
  -3  -1  -6    5.80    1.00
  -3  -1  -6    5.80    1.10
  -3  -1  -6    6.80    1.00
  -3  -1  -6    6.50    0.70
  -3  -1  -6    5.60    1.00
  -3  -1  -6    5.70    0.70
   3   1   6    4.10    1.00
   3   1   6    5.50    1.10
   3   1   6    7.10    1.10
   3   1   6    5.50    0.80
   3   1   6    4.80    0.90
  -4  -1  -6   74.89    3.60
  -4  -1  -6   77.99    3.10
  -4  -1  -6   76.09    3.40
  -4  -1  -6   73.69    3.80
  -4  -1  -6   71.19    3.60
   4   1   6   71.99    3.40
   4   1   6   75.69    3.70
   4   1   6   69.79    3.40
   4   1   6   69.79    3.70
   4   1   6   73.49    4.00
   4   1   6   71.59    3.80
  -5  -1  -6    0.30    0.90
  -5  -1  -6    0.60    1.20
  -5  -1  -6    0.50    1.30
  -5  -1  -6    1.30    1.20
   5   1   6    0.80    1.40
   5   1   6    0.60    1.40
   5   1   6    0.70    1.10
   5   1   6    1.30    1.50
  -6  -1  -6   -0.10    1.40
  -6  -1  -6   -0.10    1.10
  -6  -1  -6   -1.80    1.30
  -6  -1  -6   -0.80    1.40
   6   1   6    1.00    1.60
   6   1   6   -2.80    1.50
   6   1   6   -0.20    1.90
  -7  -1  -6    3.70    2.00
  -7  -1  -6    4.10    2.10
   7   1   6    1.00    2.30
   7   1   6    2.60    2.20
  -8  -1  -6    3.70    2.10
  -8  -1  -6   -0.20    2.00
   8   1   6    2.80    2.70
  -9  -1  -6   -1.50    2.30
   9   1   6    1.10    3.00
  10  -2  -6    3.80    3.90
  10  -2  -6    2.30    2.40
  10  -2  -6    1.00    2.90
 -10   2   6    3.40    3.50
 -10   2   6    2.80    3.50
   9  -2  -6    3.00    2.90
   9  -2  -6    9.40    2.50
   9  -2  -6   13.40    4.00
  -9   2   6    5.00    3.10
  -9   2   6   12.60    3.80
   8  -2  -6    3.30    3.50
   8  -2  -6    2.20    2.50
   8  -2  -6    0.90    2.40
   8  -2  -6   -1.20    1.60
  -8   2   6    1.30    2.60
  -8   2   6   -0.50    2.60
   7  -2  -6   60.09    4.80
   7  -2  -6   58.09    5.60
   7  -2  -6   63.19    5.30
   7  -2  -6   55.79    3.90
  -7   2   6   47.20    4.50
  -7   2   6   52.69    4.80
   6  -2  -6   71.49    5.00
   6  -2  -6   68.39    4.40
   6  -2  -6   77.79    5.20
   6  -2  -6   71.09    4.00
   6  -2  -6   70.29    3.80
  -6   2   6   56.69    4.40
  -6   2   6   75.29    4.90
  -6   2   6   72.49    4.60
  -6   2   6   62.29    5.00
   5  -2  -6   49.90    3.00
   5  -2  -6   49.99    2.80
   5  -2  -6   48.10    3.90
   5  -2  -6   47.60    3.60
   5  -2  -6   62.59    4.80
   5  -2  -6   48.70    3.20
  -5   2   6   43.80    2.90
  -5   2   6   39.20    3.50
  -5   2   6   46.60    4.10
  -5   2   6   36.60    3.40
  -5   2   6   41.10    2.40
  -5   2   6   43.80    3.40
   4  -2  -6   88.49    4.80
   4  -2  -6   90.59    4.40
   4  -2  -6  100.09    4.50
   4  -2  -6  100.39    5.00
   4  -2  -6   97.79    4.10
   4  -2  -6   91.29    4.10
  -4   2   6   89.69    4.70
  -4   2   6   94.09    4.60
  -4   2   6   97.39    5.00
  -4   2   6   95.39    4.70
   3  -2  -6   50.39    2.40
   3  -2  -6   51.19    2.60
   3  -2  -6   40.40    2.80
   3  -2  -6   48.00    2.30
   3  -2  -6   48.20    2.60
   3  -2  -6   42.10    2.90
  -3   2   6   46.60    2.80
  -3   2   6   45.40    3.00
  -3   2   6   42.30    2.20
  -3   2   6   52.69    2.90
  -3   2   6   50.49    2.80
  -3   2   6   47.00    2.90
   2  -2  -6    7.20    0.90
   2  -2  -6    4.00    1.00
   2  -2  -6    6.80    0.90
   2  -2  -6    7.50    0.80
   2  -2  -6    6.70    1.20
   2  -2  -6    7.30    1.00
  -2   2   6    7.10    1.10
  -2   2   6    6.80    1.00
  -2   2   6    6.50    1.10
  -2   2   6    7.70    1.20
  -2   2   6    6.90    1.10
   1  -2  -6  149.09    5.40
   1  -2  -6  154.38    5.00
   1  -2  -6  155.88    5.60
   1  -2  -6  154.28    5.50
  -1   2   6  157.58    5.70
  -1   2   6  150.58    5.60
  -1   2   6  155.28    6.30
  -1   2   6  155.08    5.40
  -1   2   6  152.58    5.40
  -1   2   6  156.08    5.40
  -1   2   6  139.29    5.40
   0  -2  -6  147.89    4.90
   0  -2  -6  146.29    5.00
   0  -2  -6  137.59    4.80
   0   2   6  150.38    4.70
   0   2   6  141.19    5.00
   0   2   6  128.89    4.60
   0   2   6  145.79    5.10
   0   2   6  139.19    6.00
  -1  -2  -6   23.80    1.20
  -1  -2  -6   21.50    1.10
  -1  -2  -6   23.20    1.20
  -1  -2  -6   22.60    1.30
   1   2   6   31.50    2.60
   1   2   6   21.20    1.30
   1   2   6   25.70    1.40
  -2  -2  -6  298.97   10.30
  -2  -2  -6  300.77   10.40
  -2  -2  -6  309.77   10.50
   2   2   6  300.07   10.60
   2   2   6  317.97   10.20
   2   2   6  328.27   10.70
   2   2   6  302.97   11.20
   2   2   6  300.17   10.10
  -3  -2  -6    2.30    1.00
  -3  -2  -6    1.70    0.80
  -3  -2  -6    2.10    0.80
  -3  -2  -6    0.60    0.70
  -3  -2  -6    0.30    0.90
  -3  -2  -6    1.00    0.60
   3   2   6    0.40    1.00
   3   2   6    1.00    0.70
   3   2   6    1.90    0.80
   3   2   6    1.70    1.00
   3   2   6    1.80    1.30
   3   2   6    1.60    1.10
   3   2   6    2.30    1.10
  -4  -2  -6   69.59    3.10
  -4  -2  -6   69.69    3.70
  -4  -2  -6   81.39    3.70
  -4  -2  -6   72.19    3.90
  -4  -2  -6   74.99    3.80
   4   2   6   68.49    3.80
   4   2   6   76.69    3.50
   4   2   6   68.79    3.30
   4   2   6   71.59    4.10
   4   2   6   74.29    4.20
   4   2   6   71.79    3.90
  -5  -2  -6   19.30    2.30
  -5  -2  -6   17.90    2.20
  -5  -2  -6   16.60    1.70
   5   2   6   19.10    2.40
   5   2   6   17.90    2.60
  -6  -2  -6    6.30    2.00
  -6  -2  -6    8.20    1.90
   6   2   6    8.80    2.50
   6   2   6    7.90    2.30
   6   2   6    6.00    2.00
  -7  -2  -6    5.00    2.20
  -7  -2  -6    6.30    2.00
  -7  -2  -6    2.80    1.90
   7   2   6    2.10    2.30
   7   2   6    2.80    2.10
  -8  -2  -6    0.90    2.10
  -8  -2  -6   -1.30    2.00
   8   2   6   -4.00    2.40
  10  -3  -6    4.90    3.10
  10  -3  -6   -0.70    3.60
  10  -3  -6   -3.10    2.20
 -10   3   6    1.40    3.30
 -10   3   6   -1.40    3.00
   9  -3  -6   10.80    3.90
   9  -3  -6   14.30    2.70
   9  -3  -6   14.70    3.60
  -9   3   6   13.50    3.70
  -9   3   6   12.00    3.70
   8  -3  -6    9.80    3.50
   8  -3  -6    2.00    1.70
   8  -3  -6    7.90    2.70
  -8   3   6    0.90    2.60
  -8   3   6    2.10    2.80
   7  -3  -6   50.59    5.10
   7  -3  -6   43.60    4.10
   7  -3  -6   38.40    3.50
   7  -3  -6   42.10    4.60
  -7   3   6   45.00    4.70
  -7   3   6   44.00    4.60
   6  -3  -6   43.90    3.80
   6  -3  -6   67.19    5.40
   6  -3  -6   47.10    3.20
   6  -3  -6   50.19    4.60
  -6   3   6   40.50    4.00
  -6   3   6   49.00    4.60
  -6   3   6   55.09    4.90
   5  -3  -6    8.60    1.60
   5  -3  -6    9.00    2.30
   5  -3  -6   11.70    2.10
   5  -3  -6   12.50    2.00
   5  -3  -6    8.00    1.80
   5  -3  -6   10.10    2.40
  -5   3   6   13.90    2.40
  -5   3   6    7.30    1.90
  -5   3   6   11.50    2.40
  -5   3   6   11.40    2.10
  -5   3   6   11.60    1.90
   4  -3  -6  262.27    9.50
   4  -3  -6  265.27    9.20
   4  -3  -6  243.78    9.10
   4  -3  -6  261.67   10.10
   4  -3  -6  245.88    9.50
   4  -3  -6  240.58    9.90
  -4   3   6  253.47    9.90
  -4   3   6  262.47   10.30
  -4   3   6  265.57    9.90
  -4   3   6  208.28   10.90
   3  -3  -6    6.60    1.30
   3  -3  -6    5.80    1.10
   3  -3  -6    4.60    1.40
   3  -3  -6    3.50    1.20
   3  -3  -6    6.20    1.20
   3  -3  -6    5.70    1.50
  -3   3   6    4.00    1.30
  -3   3   6    6.10    1.40
  -3   3   6    5.60    1.40
  -3   3   6    6.30    1.50
  -3   3   6    6.30    1.30
   2  -3  -6  154.28    6.10
   2  -3  -6  153.08    5.90
   2  -3  -6  157.78    6.20
   2  -3  -6  152.38    5.70
   2  -3  -6  151.98    5.60
   2  -3  -6  153.88    5.70
  -2   3   6  149.69    6.30
  -2   3   6  157.38    6.20
  -2   3   6  160.38    6.10
  -2   3   6  145.19    6.00
  -2   3   6  155.58    5.90
  -2   3   6  153.88    6.00
   1  -3  -6   48.90    2.50
   1  -3  -6   48.40    2.00
   1  -3  -6   49.10    2.60
   1  -3  -6   45.00    2.10
   1  -3  -6   47.50    2.50
   1  -3  -6   48.70    2.10
  -1   3   6   46.50    2.60
  -1   3   6   46.50    2.50
  -1   3   6   40.50    2.40
  -1   3   6   49.10    2.70
  -1   3   6   51.79    2.50
  -1   3   6   46.30    3.10
  -1   3   6   45.60    2.40
   0  -3  -6    0.40    0.70
   0  -3  -6    0.90    0.40
   0  -3  -6    0.20    0.60
   0  -3  -6    0.90    0.70
   0  -3  -6    0.10    0.40
   0   3   6    1.00    0.70
   0   3   6    0.20    0.70
   0   3   6    1.70    1.20
   0   3   6    1.00    0.80
   0   3   6    0.90    0.70
   0   3   6    1.40    0.60
   0   3   6    0.80    0.60
  -1  -3  -6    1.60    0.80
  -1  -3  -6    1.20    0.40
  -1  -3  -6    0.40    0.50
  -1  -3  -6    1.70    0.80
  -1  -3  -6    0.50    0.70
  -1  -3  -6    1.00    0.70
   1   3   6    0.50    0.60
   1   3   6    0.50    0.60
   1   3   6    1.90    1.30
   1   3   6    1.10    0.80
   1   3   6    1.10    0.70
   1   3   6    1.50    0.70
   1   3   6    0.30    0.80
  -2  -3  -6   33.00    1.70
  -2  -3  -6   28.90    2.00
  -2  -3  -6   30.30    2.20
  -2  -3  -6   34.20    2.10
  -2  -3  -6   33.60    1.70
   2   3   6   31.30    1.80
   2   3   6   35.60    2.10
   2   3   6   31.10    1.80
   2   3   6   32.70    2.80
   2   3   6   31.00    1.90
   2   3   6   30.40    2.40
   2   3   6   31.10    2.30
  -3  -3  -6  132.59    5.20
  -3  -3  -6  134.09    5.50
  -3  -3  -6  125.09    4.80
  -3  -3  -6  134.99    5.40
   3   3   6  128.19    5.50
   3   3   6  136.29    5.90
   3   3   6  126.69    5.10
   3   3   6  130.89    5.70
   3   3   6  131.79    5.70
   3   3   6  120.79    5.00
  -4  -3  -6   18.20    1.70
  -4  -3  -6   19.30    2.20
  -4  -3  -6   20.30    2.20
  -4  -3  -6   17.20    2.10
   4   3   6   17.40    2.30
   4   3   6   14.50    2.10
   4   3   6   18.80    2.50
  -5  -3  -6   69.19    4.30
  -5  -3  -6   76.89    4.50
  -5  -3  -6   77.79    3.80
   5   3   6   84.29    5.00
   5   3   6   82.09    5.00
   5   3   6   81.39    4.70
  -6  -3  -6    1.00    1.80
  -6  -3  -6    0.50    1.60
   6   3   6    0.60    1.60
   6   3   6    0.70    2.20
   6   3   6    1.00    1.80
  -7  -3  -6   10.50    2.70
  -7  -3  -6    8.10    2.40
   7   3   6   10.40    3.20
   7   3   6   17.40    3.20
  -8  -3  -6    1.80    2.50
  -8  -3  -6    4.00    4.40
   8   3   6    1.70    2.90
  10  -4  -6    4.20    2.50
  10  -4  -6    5.10    3.30
  10  -4  -6    6.20    4.20
 -10   4   6    1.90    3.80
 -10   4   6    6.10    3.70
   9  -4  -6   21.60    4.80
   9  -4  -6   19.00    3.20
   9  -4  -6   20.10    3.90
  -9   4   6   17.50    4.20
  -9   4   6   25.60    4.40
   8  -4  -6   -2.70    2.80
   8  -4  -6   -3.90    2.20
  -8   4   6    0.20    2.70
  -8   4   6    0.90    2.70
   7  -4  -6   25.80    3.40
   7  -4  -6   24.30    3.80
   7  -4  -6   31.50    4.30
  -7   4   6   24.90    3.90
  -7   4   6   27.50    3.90
   6  -4  -6   49.30    4.20
   6  -4  -6   67.39    5.20
   6  -4  -6   50.99    4.90
   6  -4  -6   47.00    3.40
  -6   4   6   51.99    4.70
  -6   4   6   52.29    4.90
  -6   4   6   54.29    4.70
   5  -4  -6   11.70    2.30
   5  -4  -6    9.20    2.20
   5  -4  -6   11.90    1.90
   5  -4  -6    9.50    2.40
  -5   4   6   12.50    2.40
  -5   4   6    7.70    2.20
  -5   4   6    8.60    2.00
  -5   4   6   11.10    2.50
   4  -4  -6  202.98    8.60
   4  -4  -6  204.58    7.80
   4  -4  -6  210.08    8.10
   4  -4  -6  200.18    8.00
   4  -4  -6  209.48    8.60
  -4   4   6  189.38    8.30
  -4   4   6  195.38    8.50
  -4   4   6  204.28    8.50
  -4   4   6  217.88    8.90
  -4   4   6  181.78    7.70
   3  -4  -6  374.36   13.20
   3  -4  -6  376.26   13.80
   3  -4  -6  383.86   13.40
   3  -4  -6  376.16   13.70
   3  -4  -6  406.66   13.40
  -3   4   6  358.46   13.50
  -3   4   6  395.16   13.80
  -3   4   6  374.76   14.00
  -3   4   6  363.46   13.80
  -3   4   6  384.56   13.70
  -3   4   6  368.46   13.40
   2  -4  -6  230.78    8.40
   2  -4  -6  215.28    8.00
   2  -4  -6  207.28    7.90
   2  -4  -6  209.38    7.90
   2  -4  -6  211.28    7.70
   2  -4  -6  226.48    8.30
  -2   4   6  211.08    8.20
  -2   4   6  202.98    8.20
  -2   4   6  220.98    8.50
  -2   4   6  208.58    8.00
  -2   4   6  202.98    8.10
  -2   4   6  205.58    8.40
   1  -4  -6  360.36   12.00
   1  -4  -6  350.06   11.80
   1  -4  -6  358.46   12.40
   1  -4  -6  343.17   12.30
   1  -4  -6  357.06   11.90
   1  -4  -6  336.17   12.30
   1  -4  -6  343.07   11.90
  -1   4   6  337.07   12.30
  -1   4   6  359.26   12.30
  -1   4   6  362.56   12.80
  -1   4   6  363.26   12.60
  -1   4   6  322.57   12.20
  -1   4   6  368.26   12.40
   0  -4  -6    5.70    1.00
   0  -4  -6    7.00    1.30
   0  -4  -6    5.10    1.20
   0  -4  -6    3.90    0.90
   0  -4  -6    4.50    0.80
   0  -4  -6    4.60    1.20
   0   4   6    6.40    1.10
   0   4   6    7.60    1.30
   0   4   6    5.50    1.20
   0   4   6    3.20    1.40
   0   4   6    5.00    1.40
   0   4   6    6.30    1.10
   0   4   6    5.50    1.20
  -1  -4  -6    5.00    1.10
  -1  -4  -6    5.00    0.90
  -1  -4  -6    4.90    1.30
  -1  -4  -6    6.40    1.20
  -1  -4  -6    8.10    1.10
   1   4   6    4.40    1.20
   1   4   6    5.10    1.30
   1   4   6    5.60    1.60
   1   4   6    3.90    1.00
   1   4   6    6.20    1.40
   1   4   6    6.40    1.10
   1   4   6    5.60    1.20
  -2  -4  -6   99.89    4.70
  -2  -4  -6  102.99    4.50
  -2  -4  -6  102.69    4.20
   2   4   6  106.89    4.50
   2   4   6  101.39    4.50
   2   4   6   91.59    5.00
   2   4   6  109.09    4.90
   2   4   6  109.89    5.10
   2   4   6  100.59    4.20
   2   4   6   93.29    4.20
  -3  -4  -6   58.99    2.90
  -3  -4  -6   59.99    3.50
  -3  -4  -6   58.89    3.40
   3   4   6   65.29    3.80
   3   4   6   62.29    3.90
   3   4   6   60.69    3.90
   3   4   6   59.09    3.70
  -4  -4  -6   69.09    4.20
  -4  -4  -6   64.99    3.50
   4   4   6   80.19    4.30
   4   4   6   70.79    4.50
   4   4   6   71.19    4.50
   4   4   6   74.59    4.60
  -5  -4  -6   76.09    4.80
  -5  -4  -6   72.99    4.70
  -5  -4  -6   79.09    5.50
   5   4   6   74.59    4.90
   5   4   6   81.39    5.30
   5   4   6   77.49    5.20
  -6  -4  -6   14.20    2.70
  -6  -4  -6   11.00    2.60
   6   4   6   13.50    3.10
   6   4   6   11.50    2.70
  -7  -4  -6    8.00    2.50
  -7  -4  -6   16.60    3.10
   7   4   6   10.30    3.30
   7   4   6   10.50    2.90
  -8  -4  -6   -2.00    2.30
  -8  -4  -6    0.00    2.30
   8   4   6    0.70    3.00
   9  -5  -6    2.70    2.40
   9  -5  -6   -1.10    3.20
   9  -5  -6    2.90    3.10
  -9   5   6   -1.00    2.90
  -9   5   6   -3.70    3.00
   8  -5  -6    4.20    3.00
   8  -5  -6    1.70    3.30
  -8   5   6    0.40    2.90
  -8   5   6   -0.70    2.90
   7  -5  -6   13.90    3.70
   7  -5  -6    8.00    2.80
   7  -5  -6    9.30    2.80
  -7   5   6   11.00    3.10
  -7   5   6   10.10    3.20
   6  -5  -6    0.00    1.90
   6  -5  -6    2.80    1.60
   6  -5  -6    0.10    2.00
   6  -5  -6    5.10    2.60
  -6   5   6    3.90    2.50
  -6   5   6    0.50    2.10
   5  -5  -6    2.00    1.40
   5  -5  -6    1.30    1.70
   5  -5  -6    2.50    2.10
   5  -5  -6    2.10    1.80
  -5   5   6   -0.50    1.60
  -5   5   6    1.20    1.90
  -5   5   6    2.70    1.90
   4  -5  -6   34.50    3.50
   4  -5  -6   35.20    3.60
   4  -5  -6   34.20    2.90
   4  -5  -6   35.20    3.20
  -4   5   6   29.60    3.30
  -4   5   6   41.30    3.90
  -4   5   6   31.80    3.40
  -4   5   6   26.70    3.10
   3  -5  -6   45.90    3.70
   3  -5  -6   36.00    3.00
   3  -5  -6   42.20    2.90
   3  -5  -6   38.40    3.10
   3  -5  -6   46.90    3.80
  -3   5   6   40.90    3.50
  -3   5   6   41.50    3.50
  -3   5   6   42.40    3.50
  -3   5   6   34.90    3.30
   2  -5  -6    1.10    1.10
   2  -5  -6    1.60    1.20
   2  -5  -6    1.30    1.00
   2  -5  -6   -1.10    1.20
   2  -5  -6    2.40    1.40
   2  -5  -6    0.60    1.20
  -2   5   6   -0.40    1.30
  -2   5   6    1.70    1.50
  -2   5   6    1.80    1.40
  -2   5   6    1.00    1.30
   1  -5  -6  177.48    6.40
   1  -5  -6  174.88    7.20
   1  -5  -6  179.08    7.20
   1  -5  -6  167.98    6.70
   1  -5  -6  178.28    7.20
   1  -5  -6  170.48    6.80
  -1   5   6  174.78    7.10
  -1   5   6  161.98    7.00
  -1   5   6  164.68    7.20
  -1   5   6  183.38    7.20
  -1   5   6  177.98    7.70
  -1   5   6  175.08    7.40
   0  -5  -6   79.39    3.90
   0  -5  -6   69.79    3.60
   0  -5  -6   69.39    3.40
   0  -5  -6   68.79    3.80
   0  -5  -6   68.49    3.90
   0   5   6   73.59    4.10
   0   5   6   65.99    3.70
   0   5   6   77.99    3.70
   0   5   6   77.49    4.50
   0   5   6   78.19    3.90
   0   5   6   69.69    4.30
  -1  -5  -6  123.69    5.40
  -1  -5  -6  119.39    4.80
  -1  -5  -6  120.69    5.00
  -1  -5  -6  122.19    5.40
   1   5   6  117.09    5.90
   1   5   6  126.59    5.80
   1   5   6  111.89    5.30
   1   5   6  117.49    5.80
   1   5   6  120.69    5.30
   1   5   6  118.99    5.30
  -2  -5  -6   56.79    3.40
  -2  -5  -6   53.99    3.20
  -2  -5  -6   55.69    3.00
   2   5   6   53.99    3.90
   2   5   6   51.89    4.10
   2   5   6   58.89    3.70
   2   5   6   58.19    3.50
   2   5   6   59.39    3.50
  -3  -5  -6    5.20    1.30
  -3  -5  -6    5.60    1.70
   3   5   6    4.90    2.00
   3   5   6    4.30    1.70
   3   5   6    6.40    1.80
   3   5   6    2.70    1.70
  -4  -5  -6   17.10    2.00
  -4  -5  -6   18.60    2.70
   4   5   6   15.40    2.70
   4   5   6   16.80    2.80
   4   5   6   14.30    2.60
   4   5   6   16.30    2.40
  -5  -5  -6    0.90    2.10
  -5  -5  -6    1.60    2.00
   5   5   6   -1.50    1.60
   5   5   6   -0.80    2.00
   5   5   6   -2.10    2.10
  -6  -5  -6    0.20    2.10
  -6  -5  -6    0.50    2.10
   6   5   6    1.30    2.30
   6   5   6   -2.70    2.50
  -7  -5  -6   -0.10    2.30
   7   5   6   -3.00    2.70
   9  -6  -6   11.70    4.60
   9  -6  -6   12.80    3.70
  -9   6   6   11.70    4.20
  -9   6   6   12.20    4.30
   8  -6  -6   11.40    3.20
   8  -6  -6   13.60    4.30
  -8   6   6    8.70    3.60
  -8   6   6   12.30    4.00
   7  -6  -6   36.80    5.10
   7  -6  -6   38.70    4.40
   7  -6  -6   31.00    4.30
  -7   6   6   50.49    5.50
  -7   6   6   38.70    4.80
   6  -6  -6    0.60    2.10
   6  -6  -6   -0.30    2.20
   6  -6  -6    3.10    2.80
  -6   6   6    0.70    2.40
  -6   6   6    2.40    2.50
   5  -6  -6   22.80    2.80
   5  -6  -6   17.10    2.90
   5  -6  -6   13.40    3.00
   5  -6  -6   24.30    3.50
  -5   6   6   17.70    3.40
  -5   6   6   19.10    3.20
  -5   6   6   16.90    3.40
   4  -6  -6   46.40    4.30
   4  -6  -6   42.90    3.50
   4  -6  -6   36.30    3.60
   4  -6  -6   44.00    4.10
  -4   6   6   42.70    4.00
  -4   6   6   44.40    4.30
  -4   6   6   48.10    4.50
  -4   6   6   40.60    4.30
   3  -6  -6   25.60    2.60
   3  -6  -6   26.00    2.80
   3  -6  -6   21.60    2.60
   3  -6  -6   24.80    2.90
   3  -6  -6   22.90    2.90
  -3   6   6   27.00    3.20
  -3   6   6   16.70    2.60
  -3   6   6   23.20    3.10
  -3   6   6   24.70    2.90
   2  -6  -6   90.49    4.40
   2  -6  -6   97.79    4.80
   2  -6  -6   93.69    5.10
   2  -6  -6   85.09    5.00
   2  -6  -6   87.29    4.70
  -2   6   6   93.79    5.40
  -2   6   6   91.99    5.30
  -2   6   6   93.69    5.10
  -2   6   6   91.09    5.00
   1  -6  -6  111.59    5.40
   1  -6  -6  104.09    5.00
   1  -6  -6   98.69    5.30
   1  -6  -6   95.29    4.80
  -1   6   6  108.89    5.90
  -1   6   6  110.39    5.30
  -1   6   6  103.49    5.60
  -1   6   6  105.89    5.40
   0  -6  -6   18.40    2.00
   0  -6  -6   21.40    2.30
   0  -6  -6   31.70    2.90
   0  -6  -6   17.00    2.70
   0   6   6   21.80    3.00
   0   6   6   23.20    2.80
   0   6   6   21.80    2.50
   0   6   6   23.20    2.60
   0   6   6   19.90    2.70
  -1  -6  -6   30.40    2.70
  -1  -6  -6   39.00    2.80
   1   6   6   38.10    3.20
   1   6   6   37.30    3.50
   1   6   6   40.90    3.40
   1   6   6   35.60    3.80
   1   6   6   37.40    3.80
  -2  -6  -6   19.10    2.00
  -2  -6  -6   21.70    2.40
   2   6   6   20.10    3.00
   2   6   6   18.90    2.90
   2   6   6   22.70    2.70
   2   6   6   18.80    2.50
   2   6   6   24.30    2.70
  -3  -6  -6    3.50    1.80
  -3  -6  -6    1.10    1.40
   3   6   6   -0.70    1.60
   3   6   6    1.10    1.80
   3   6   6    1.10    1.90
   3   6   6    2.00    1.80
  -4  -6  -6   23.90    3.20
  -4  -6  -6   25.30    2.80
   4   6   6   25.70    3.60
   4   6   6   25.60    3.50
   4   6   6   18.60    3.10
  -5  -6  -6    5.00    2.40
  -5  -6  -6    6.60    2.50
   5   6   6   -2.10    2.50
   5   6   6    2.50    2.30
  -6  -6  -6    3.90    2.50
  -6  -6  -6    4.90    2.70
   6   6   6    2.80    3.00
   8  -7  -6    3.40    3.20
   8  -7  -6    0.20    3.50
  -8   7   6    3.70    3.30
  -8   7   6    1.20    3.20
   7  -7  -6   34.10    4.30
   7  -7  -6   34.50    5.10
  -7   7   6   33.10    4.70
  -7   7   6   36.20    5.20
   6  -7  -6    5.90    2.80
   6  -7  -6    6.00    2.70
   6  -7  -6   12.50    3.50
  -6   7   6    9.90    3.40
  -6   7   6   13.80    3.40
   5  -7  -6   49.50    4.70
   5  -7  -6   29.60    3.70
   5  -7  -6   33.10    4.10
  -5   7   6   46.10    4.70
  -5   7   6   41.00    4.70
   4  -7  -6   68.59    5.40
   4  -7  -6   70.89    5.60
   4  -7  -6   53.99    4.30
   4  -7  -6   55.69    4.60
   4  -7  -6   48.10    4.00
  -4   7   6   58.39    5.30
  -4   7   6   55.69    5.10
  -4   7   6   52.49    4.70
   3  -7  -6    3.70    2.20
   3  -7  -6    2.30    1.80
   3  -7  -6    4.30    2.20
   3  -7  -6    3.50    1.80
  -3   7   6    7.40    2.30
  -3   7   6    8.30    2.60
  -3   7   6    5.30    2.40
   2  -7  -6   17.70    2.70
   2  -7  -6   20.00    3.00
   2  -7  -6   17.80    2.50
   2  -7  -6   18.40    2.60
  -2   7   6   17.50    2.90
  -2   7   6   21.90    2.90
  -2   7   6   19.00    3.00
  -2   7   6   16.00    2.70
   1  -7  -6   10.40    2.20
   1  -7  -6   18.40    2.50
  -1   7   6   12.50    2.50
  -1   7   6   12.90    2.50
  -1   7   6   15.70    2.90
  -1   7   6   17.20    2.70
   0  -7  -6    4.80    1.80
   0  -7  -6   10.00    1.90
   0   7   6    9.00    2.40
   0   7   6    6.60    2.40
   0   7   6    5.80    2.10
   0   7   6    6.80    2.30
   0   7   6    7.60    2.10
  -1  -7  -6   13.70    2.20
  -1  -7  -6   22.90    2.70
   1   7   6   15.20    2.70
   1   7   6   17.90    2.70
   1   7   6   22.80    3.30
   1   7   6   25.10    3.10
   1   7   6   20.30    3.30
  -2  -7  -6   23.70    2.90
  -2  -7  -6   26.30    2.70
   2   7   6   25.90    3.80
   2   7   6   21.00    2.80
   2   7   6   30.10    3.40
   2   7   6   20.20    3.30
   2   7   6   27.80    3.30
  -3  -7  -6    0.30    1.90
  -3  -7  -6    0.80    1.50
   3   7   6   -0.70    1.80
   3   7   6    0.20    2.30
   3   7   6    2.30    2.20
   3   7   6   -0.40    2.00
  -4  -7  -6   16.10    2.60
  -4  -7  -6   22.50    3.50
   4   7   6   13.00    3.30
   4   7   6   18.40    3.30
  -5  -7  -6    3.70    2.20
  -5  -7  -6    2.60    2.50
  -5  -7  -6    1.60    2.30
   5   7   6    1.90    2.80
  -6  -7  -6   -1.70    2.40
  -6  -7  -6   -0.70    2.50
   6   7   6    1.80    3.20
   7  -8  -6   14.60    3.50
  -7   8   6   12.70    4.00
  -7   8   6   16.10    4.00
   6  -8  -6   30.00    4.30
  -6   8   6   30.30    4.50
  -6   8   6   34.40    5.00
   5  -8  -6   18.20    3.30
   5  -8  -6   17.80    3.60
  -5   8   6   10.20    3.00
  -5   8   6   17.20    3.80
   4  -8  -6   94.19    6.20
   4  -8  -6   91.19    5.80
  -4   8   6   83.69    6.10
  -4   8   6   79.79    6.60
   3  -8  -6    2.50    1.90
   3  -8  -6    0.00    2.00
   3  -8  -6   -0.10    2.20
  -3   8   6    0.10    2.30
  -3   8   6    1.80    2.30
   2  -8  -6   61.69    4.80
   2  -8  -6   63.69    4.70
  -2   8   6   72.99    5.50
  -2   8   6   70.09    5.50
  -2   8   6   72.29    5.40
   1  -8  -6   19.70    2.80
   1  -8  -6   20.60    2.90
  -1   8   6   17.60    3.30
  -1   8   6   25.00    3.40
  -1   8   6   18.40    3.10
   0  -8  -6    2.10    1.70
   0  -8  -6    5.80    2.20
   0   8   6    4.30    2.40
   0   8   6    6.30    2.50
   0   8   6    2.40    2.30
   0   8   6    3.70    2.20
  -1  -8  -6   11.60    2.30
  -1  -8  -6   12.50    2.60
   1   8   6   12.80    3.00
   1   8   6   11.30    2.80
   1   8   6    7.60    2.60
   1   8   6    8.30    2.50
  -2  -8  -6    8.40    2.20
  -2  -8  -6   10.50    2.60
   2   8   6   11.90    2.60
   2   8   6    9.40    2.70
   2   8   6    6.80    2.80
   2   8   6   11.90    3.00
  -3  -8  -6    1.90    2.30
  -3  -8  -6    3.60    2.00
   3   8   6   -1.50    2.20
   3   8   6    1.50    2.60
   3   8   6    1.40    2.50
  -4  -8  -6    2.90    2.60
  -4  -8  -6    0.10    2.00
   4   8   6   -4.40    2.50
   4   8   6   -0.70    2.50
  -5  -8  -6    3.40    2.80
   5   8   6    0.60    3.00
   6  -9  -6   10.50    3.50
  -6   9   6    7.90    3.50
  -6   9   6    6.10    3.70
   5  -9  -6    7.40    3.10
  -5   9   6    4.30    3.10
  -5   9   6    9.30    3.60
   4  -9  -6   22.30    3.70
   4  -9  -6   25.40    4.00
  -4   9   6   22.10    3.90
  -4   9   6   24.70    4.30
   3  -9  -6    0.30    2.50
  -3   9   6   -2.10    2.40
  -3   9   6    1.40    2.60
   2  -9  -6   15.10    3.00
   2  -9  -6   16.20    3.10
  -2   9   6   16.20    3.50
  -2   9   6   16.20    3.30
   1  -9  -6   11.50    2.60
   1  -9  -6   10.30    2.80
  -1   9   6    6.80    2.80
  -1   9   6   14.60    3.30
   0  -9  -6    3.30    2.30
   0  -9  -6    3.10    2.10
   0   9   6    3.30    2.50
   0   9   6    0.00    2.40
   0   9   6    0.30    2.50
  -1  -9  -6    9.30    2.50
  -1  -9  -6   11.60    2.80
   1   9   6   15.90    3.30
   1   9   6    4.80    2.60
   1   9   6   16.40    3.30
  -2  -9  -6    1.80    2.40
  -2  -9  -6    0.70    2.10
   2   9   6   -0.60    2.60
   2   9   6    0.50    2.70
  -3  -9  -6    0.10    2.60
  -3  -9  -6    4.30    4.00
   3   9   6    3.70    2.90
   3   9   6    2.30    2.80
   5 -10  -6    4.70    3.50
  -5  10   6    4.50    4.00
  -5  10   6    0.60    3.00
   4 -10  -6    6.90    3.40
  -4  10   6    7.30    3.40
  -4  10   6   -0.80    2.80
   3 -10  -6   -2.90    2.70
  -3  10   6   -2.70    2.80
  -3  10   6   -0.50    2.90
   2 -10  -6    5.40    3.20
  -2  10   6    9.30    3.40
  -2  10   6    5.10    3.00
   1 -10  -6   12.90    3.20
  -1  10   6   15.10    3.90
  -1  10   6    9.40    3.30
   0 -10  -6    2.60    2.70
   0  10   6   -0.50    2.80
   0  10   6    0.40    2.70
   0  10   6   -0.80    2.70
  -1 -10  -6   10.00    3.20
   1  10   6   13.90    3.70
   1  10   6   10.60    3.50
   2  11  -7   -0.20    2.80
   2  11  -7    1.10    3.00
  -2 -11   7    0.00    3.20
  -2 -11   7    0.90    3.90
   1  11  -7   22.60    4.90
   1  11  -7   24.60    3.80
   1  11  -7   18.80    3.80
  -1 -11   7   16.10    4.20
  -1 -11   7   22.10    4.60
   0  11  -7   10.90    3.40
   0  11  -7   10.20    4.10
   0 -11   7    5.70    3.40
   0 -11   7    6.40    3.60
  -1  11  -7   16.00    3.60
  -1  11  -7   10.00    3.90
   1 -11   7   14.50    4.00
  -2  11  -7    2.40    4.10
  -2  11  -7    8.60    3.20
   2 -11   7   12.30    4.30
   4  10  -7    7.10    3.40
   4  10  -7    2.40    3.20
  -4 -10   7    8.80    3.90
  -4 -10   7    5.90    3.90
   3  10  -7    6.50    3.00
   3  10  -7    8.20    3.40
  -3 -10   7    5.20    3.50
  -3 -10   7    4.00    3.20
   2  10  -7    7.50    2.80
   2  10  -7    3.60    3.10
  -2 -10   7    7.40    3.30
  -2 -10   7   10.40    3.40
   1  10  -7    5.50    3.00
  -1 -10   7   11.40    3.30
  -1 -10   7   11.70    3.30
   0  10  -7    3.80    3.30
   0  10  -7    3.40    2.60
   0 -10   7    2.70    2.90
   0 -10   7    0.20    2.90
  -1  10  -7    1.00    3.00
  -1  10  -7    1.00    2.60
   1 -10   7    2.50    3.00
  -2  10  -7    7.90    3.60
  -2  10  -7    6.40    2.90
   2 -10   7    7.50    3.70
  -3  10  -7   15.80    3.30
   3 -10   7    4.30    3.70
  -4  10  -7    9.00    3.30
   4 -10   7    9.40    4.00
   5   9  -7   21.30    3.90
   5   9  -7   18.10    4.10
  -5  -9   7   22.40    2.10
  -5  -9   7   20.70    4.60
  -5  -9   7   17.40    4.60
   4   9  -7    3.40    2.90
   4   9  -7    4.80    2.70
  -4  -9   7    1.00    3.20
  -4  -9   7    4.20    3.20
   3   9  -7    2.70    2.50
   3   9  -7    4.70    3.00
  -3  -9   7    4.20    3.30
  -3  -9   7    8.20    3.40
   2   9  -7   -1.00    1.90
   2   9  -7    0.60    2.60
  -2  -9   7    0.40    2.50
  -2  -9   7   -1.10    2.60
   1   9  -7    3.70    2.50
  -1  -9   7    1.90    2.70
  -1  -9   7    2.10    2.60
   0   9  -7    9.50    3.20
   0   9  -7   13.70    2.90
   0   9  -7   13.80    3.20
   0  -9   7   16.20    3.40
   0  -9   7   10.90    3.30
  -1   9  -7    4.20    3.00
  -1   9  -7    9.70    2.60
  -1   9  -7    6.30    2.60
   1  -9   7    7.80    3.10
   1  -9   7    8.50    3.10
  -2   9  -7   24.70    3.80
  -2   9  -7   23.00    4.50
  -2   9  -7   18.50    3.10
   2  -9   7   26.00    4.40
  -3   9  -7    5.50    2.50
  -3   9  -7    4.90    2.60
  -3   9  -7    0.90    3.10
   3  -9   7    5.90    3.60
  -4   9  -7    1.90    2.60
  -4   9  -7    4.90    3.70
   4  -9   7    3.10    3.30
  -5   9  -7    3.70    2.70
   5  -9   7    0.50    3.50
  -6   9  -7   -1.50    2.70
   6  -9   7    2.40    4.20
   7   8  -7    9.00    3.40
  -7  -8   7    8.50    4.70
  -7  -8   7    0.00    3.60
  -7  -8   7    8.60    2.20
   6   8  -7    6.10    3.60
   6   8  -7    3.30    3.90
   6   8  -7    5.80    3.30
  -6  -8   7    7.30    3.90
  -6  -8   7    2.60    1.70
  -6  -8   7    7.50    3.80
   5   8  -7    1.60    3.00
   5   8  -7    3.80    2.70
   5   8  -7    8.00    3.80
  -5  -8   7    1.90    1.30
  -5  -8   7    6.40    3.40
  -5  -8   7    3.60    3.30
   4   8  -7   67.39    6.60
   4   8  -7   61.69    5.40
   4   8  -7   73.79    5.80
  -4  -8   7   54.79    5.90
  -4  -8   7   58.29    5.80
   3   8  -7   22.20    3.90
   3   8  -7    9.50    2.80
   3   8  -7   14.90    2.90
  -3  -8   7   11.10    3.20
  -3  -8   7   20.60    3.80
   2   8  -7   51.49    4.70
   2   8  -7   59.49    5.60
   2   8  -7   45.90    4.80
  -2  -8   7   47.00    4.70
  -2  -8   7   51.19    5.10
   1   8  -7   67.89    5.00
   1   8  -7   71.99    5.60
   1   8  -7   78.59    5.80
  -1  -8   7   75.99    5.50
  -1  -8   7   77.39    5.60
   0   8  -7    1.10    2.00
   0   8  -7    1.30    2.00
   0  -8   7    2.00    2.20
   0  -8   7   -1.30    2.20
  -1   8  -7   45.70    4.40
  -1   8  -7   32.60    3.40
  -1   8  -7   43.30    4.90
   1  -8   7   41.40    4.30
   1  -8   7   45.30    4.60
  -2   8  -7   31.10    3.40
  -2   8  -7   26.00    3.50
  -2   8  -7   33.80    4.60
   2  -8   7   33.50    4.30
  -3   8  -7    5.40    2.30
  -3   8  -7    5.20    2.30
  -3   8  -7    1.60    2.80
   3  -8   7    5.90    2.90
  -4   8  -7   16.80    3.40
  -4   8  -7   20.10    3.20
   4  -8   7   13.20    3.70
  -5   8  -7   20.00    3.60
  -5   8  -7   26.10    3.60
   5  -8   7   19.80    4.30
  -6   8  -7    0.90    2.60
  -6   8  -7    0.20    2.50
   6  -8   7    0.80    3.30
   7   7  -7    2.30    3.30
   7   7  -7    2.60    3.50
   7   7  -7    4.90    3.00
  -7  -7   7    2.10    1.70
  -7  -7   7    2.40    3.70
  -7  -7   7    9.30    3.90
   6   7  -7    2.50    2.50
   6   7  -7    2.80    3.00
   6   7  -7   -2.80    2.70
  -6  -7   7    1.90    3.30
  -6  -7   7    0.50    1.40
  -6  -7   7    4.00    3.10
   5   7  -7   -1.60    2.10
   5   7  -7   -0.50    2.50
   5   7  -7   -0.40    2.40
  -5  -7   7    2.10    1.10
  -5  -7   7    2.30    1.00
  -5  -7   7    0.90    2.70
  -5  -7   7    3.60    3.00
   4   7  -7    9.00    2.60
   4   7  -7   15.70    3.70
   4   7  -7   17.00    3.60
   4   7  -7   11.60    3.00
  -4  -7   7   10.40    3.20
  -4  -7   7   12.70    3.30
   3   7  -7   17.30    3.50
   3   7  -7   13.90    2.50
   3   7  -7   10.80    2.70
   3   7  -7   13.60    3.20
  -3  -7   7   12.50    2.80
  -3  -7   7   11.60    2.80
   2   7  -7   25.00    3.00
   2   7  -7   24.30    3.30
   2   7  -7   25.00    3.60
  -2  -7   7   19.80    3.30
  -2  -7   7   25.40    3.30
   1   7  -7   29.50    3.70
   1   7  -7   32.20    3.20
   1   7  -7   39.40    4.00
  -1  -7   7   27.60    3.60
  -1  -7   7   23.90    3.20
  -1  -7   7   26.60    3.20
   0   7  -7    4.60    2.20
   0   7  -7    2.70    2.00
   0   7  -7    2.30    1.70
   0  -7   7    2.90    2.10
   0  -7   7    4.50    2.00
   0  -7   7    5.60    2.20
  -1   7  -7    4.00    2.00
  -1   7  -7    7.80    2.00
  -1   7  -7    5.60    2.50
  -1   7  -7    3.60    2.20
   1  -7   7    5.10    2.10
   1  -7   7    6.80    2.30
   1  -7   7    2.50    2.10
  -2   7  -7   24.60    3.40
  -2   7  -7   16.40    2.50
  -2   7  -7   20.50    3.30
   2  -7   7   22.90    3.70
   2  -7   7   20.90    3.40
  -3   7  -7   -0.10    1.70
  -3   7  -7   -1.30    1.90
  -3   7  -7    2.20    2.30
   3  -7   7   -0.20    2.20
   3  -7   7    1.70    2.40
  -4   7  -7   23.20    3.40
  -4   7  -7   15.30    2.60
  -4   7  -7   13.40    5.30
   4  -7   7   15.00    3.50
  -5   7  -7    2.30    2.50
  -5   7  -7    5.00    2.20
   5  -7   7    0.90    2.80
  -6   7  -7    6.10    2.60
  -6   7  -7    2.40    2.60
   6  -7   7    2.40    3.10
  -7   7  -7   -0.10    2.40
  -7   7  -7   -0.90    2.60
   7  -7   7   -3.40    2.90
   8   6  -7    0.50    4.10
   8   6  -7    3.30    3.20
   8   6  -7    3.40    3.10
   8   6  -7    1.40    3.90
  -8  -6   7    4.50    3.50
  -8  -6   7    3.30    3.60
  -8  -6   7    1.80    1.90
   7   6  -7    7.30    3.50
   7   6  -7    4.30    3.20
   7   6  -7    2.90    2.80
   7   6  -7    7.20    3.70
  -7  -6   7   -2.30    3.00
  -7  -6   7    9.70    3.70
  -7  -6   7    7.90    1.80
   6   6  -7    3.20    2.80
   6   6  -7    3.10    2.90
   6   6  -7    4.70    2.30
  -6  -6   7    4.40    2.80
  -6  -6   7    2.50    2.90
  -6  -6   7    3.00    1.30
  -6  -6   7    3.00    1.10
   5   6  -7    2.90    2.50
   5   6  -7    1.90    1.90
   5   6  -7    3.60    2.50
   5   6  -7    1.80    2.40
  -5  -6   7   -0.70    2.50
  -5  -6   7   -0.90    2.50
   4   6  -7   54.99    4.50
   4   6  -7   48.70    4.80
   4   6  -7   55.49    5.20
   4   6  -7   50.29    4.00
  -4  -6   7   54.39    4.80
  -4  -6   7   54.89    5.10
   3   6  -7   16.20    2.10
   3   6  -7   12.60    2.70
   3   6  -7   10.40    2.00
   3   6  -7    8.40    2.30
   3   6  -7   15.90    3.00
  -3  -6   7   16.50    3.00
  -3  -6   7   11.20    2.50
   2   6  -7   27.90    3.60
   2   6  -7   28.10    2.40
   2   6  -7   25.60    3.20
   2   6  -7   29.90    2.90
  -2  -6   7   25.40    3.40
  -2  -6   7   24.10    3.40
  -2  -6   7   23.10    3.00
  -2  -6   7   23.40    3.10
   1   6  -7  121.99    6.50
   1   6  -7  132.99    5.90
   1   6  -7  130.49    7.10
   1   6  -7  125.29    6.50
  -1  -6   7  134.09    7.00
  -1  -6   7  122.59    6.20
  -1  -6   7  118.29    6.30
  -1  -6   7  136.89    6.80
   0   6  -7   12.70    2.50
   0   6  -7   16.50    2.10
   0   6  -7   15.70    2.90
   0   6  -7   21.20    2.80
   0  -6   7   18.20    2.80
   0  -6   7    9.50    2.20
   0  -6   7   15.00    2.40
   0  -6   7   13.70    2.50
  -1   6  -7  160.18    7.60
  -1   6  -7  178.78    7.10
  -1   6  -7  159.48    7.80
  -1   6  -7  184.08    8.20
  -1   6  -7  178.08    8.80
   1  -6   7  164.38    7.70
   1  -6   7  178.78    8.30
   1  -6   7  165.78    7.60
   1  -6   7  179.58    8.30
  -2   6  -7   40.70    3.80
  -2   6  -7   34.10    3.10
  -2   6  -7   45.20    4.30
   2  -6   7   33.80    3.70
   2  -6   7   32.80    3.70
   2  -6   7   39.00    4.00
  -3   6  -7   27.70    3.10
  -3   6  -7   28.30    2.80
  -3   6  -7   30.70    3.80
   3  -6   7   24.80    3.40
   3  -6   7   28.90    3.60
   3  -6   7   28.60    3.60
  -4   6  -7   18.80    3.40
  -4   6  -7   23.20    2.70
  -4   6  -7   23.00    3.10
   4  -6   7   23.20    3.60
   4  -6   7   17.70    3.20
  -5   6  -7    1.00    1.90
  -5   6  -7    2.50    1.70
   5  -6   7    3.00    2.10
   5  -6   7    2.20    2.50
  -6   6  -7   -1.60    1.80
  -6   6  -7   -0.60    2.10
   6  -6   7    0.20    2.60
  -7   6  -7   -1.00    2.10
  -7   6  -7    4.60    2.60
   7  -6   7    3.40    3.00
  -8   6  -7    0.50    2.50
  -8   6  -7   -0.80    2.40
   8  -6   7    0.60    3.10
   9   5  -7    0.50    2.80
   9   5  -7    6.70    4.40
  -9  -5   7    1.30    1.90
  -9  -5   7    1.90    3.90
  -9  -5   7    3.90    3.50
   8   5  -7    5.30    3.20
   8   5  -7    7.00    3.90
   8   5  -7    6.30    2.90
  -8  -5   7    0.00    2.70
  -8  -5   7   -1.10    2.80
  -8  -5   7    2.90    1.70
   7   5  -7   15.70    3.30
   7   5  -7    7.70    3.30
   7   5  -7   11.40    4.00
  -7  -5   7   11.60    3.60
  -7  -5   7   10.80    3.30
  -7  -5   7   12.00    1.80
   6   5  -7   -1.90    2.70
   6   5  -7   -0.20    2.50
   6   5  -7    0.30    2.00
   6   5  -7    1.50    2.60
   6   5  -7    6.50    3.00
  -6  -5   7   -1.30    2.10
  -6  -5   7    2.00    2.60
   5   5  -7   30.70    3.50
   5   5  -7   33.30    4.20
   5   5  -7   33.90    4.60
   5   5  -7   38.80    3.70
   5   5  -7   36.70    4.20
  -5  -5   7   27.10    3.60
  -5  -5   7   26.80    3.60
   4   5  -7    4.30    1.40
   4   5  -7    3.10    2.10
   4   5  -7    6.90    1.80
   4   5  -7    5.60    2.30
   4   5  -7    3.90    2.00
  -4  -5   7    1.60    1.80
  -4  -5   7    6.20    2.30
   3   5  -7    5.10    1.70
   3   5  -7    3.60    1.80
   3   5  -7    2.70    1.20
   3   5  -7    4.10    1.50
   3   5  -7    3.10    2.00
  -3  -5   7    3.30    1.80
  -3  -5   7    3.90    1.90
  -3  -5   7    3.10    1.90
  -3  -5   7    3.20    1.90
   2   5  -7   58.09    3.50
   2   5  -7   59.49    4.20
   2   5  -7   55.29    3.30
   2   5  -7   51.29    3.00
   2   5  -7   49.99    3.90
  -2  -5   7   53.69    3.40
  -2  -5   7   53.89    3.80
  -2  -5   7   52.69    4.10
  -2  -5   7   54.49    3.90
  -2  -5   7   55.69    4.40
   1   5  -7    9.60    1.30
   1   5  -7    7.70    2.00
   1   5  -7    8.40    1.60
   1   5  -7    4.70    1.20
   1   5  -7    8.90    1.90
   1   5  -7    6.30    1.90
  -1  -5   7    7.90    2.00
  -1  -5   7    6.20    1.70
  -1  -5   7    7.30    1.90
  -1  -5   7    8.30    1.90
   0   5  -7   18.90    2.10
   0   5  -7   21.60    3.00
   0   5  -7   17.60    2.30
   0   5  -7   16.30    1.80
   0   5  -7   19.00    2.50
   0  -5   7   15.40    2.30
   0  -5   7   16.30    2.40
   0  -5   7   22.10    2.00
   0  -5   7   16.50    2.40
   0  -5   7   18.30    2.30
  -1   5  -7    4.10    2.00
  -1   5  -7    2.20    1.20
  -1   5  -7    2.70    1.40
  -1   5  -7    3.60    1.70
  -1   5  -7    1.30    1.50
  -1   5  -7    2.40    1.10
   1  -5   7    1.90    1.70
   1  -5   7   -0.40    1.40
   1  -5   7    0.00    1.30
   1  -5   7    1.60    1.40
  -2   5  -7   56.19    3.90
  -2   5  -7   65.19    3.50
  -2   5  -7   67.59    5.10
  -2   5  -7   65.89    3.50
  -2   5  -7   55.79    4.00
  -2   5  -7   65.19    4.00
  -2   5  -7   60.89    4.20
   2  -5   7   60.19    4.20
   2  -5   7   61.79    4.30
   2  -5   7   58.49    4.20
  -3   5  -7   15.80    2.30
  -3   5  -7   16.40    2.00
  -3   5  -7   14.30    1.90
  -3   5  -7   12.40    2.60
   3  -5   7   15.20    2.40
   3  -5   7   15.40    2.60
   3  -5   7   14.20    2.60
  -4   5  -7   62.89    4.70
  -4   5  -7   60.79    4.10
  -4   5  -7   58.89    3.60
   4  -5   7   66.39    4.70
   4  -5   7   66.19    4.90
   4  -5   7   52.59    4.70
  -5   5  -7   30.50    3.30
  -5   5  -7   31.30    3.00
   5  -5   7   33.30    4.00
   5  -5   7   41.70    4.50
   5  -5   7   32.20    3.90
  -6   5  -7    5.70    2.30
  -6   5  -7    7.90    2.10
   6  -5   7    4.70    2.40
   6  -5   7   13.30    3.30
  -7   5  -7    6.60    2.30
  -7   5  -7    3.90    2.40
   7  -5   7    6.40    3.20
  -8   5  -7   -0.80    2.20
  -8   5  -7    0.30    2.20
   8  -5   7   -3.40    2.90
   9   4  -7   -3.00    2.40
   9   4  -7   -0.30    3.80
   9   4  -7   -1.40    2.80
  -9  -4   7    4.20    1.90
  -9  -4   7    0.10    3.30
  -9  -4   7    1.60    3.30
   8   4  -7    4.20    3.70
   8   4  -7    4.00    2.40
   8   4  -7    9.60    3.30
  -8  -4   7    7.00    3.30
  -8  -4   7    2.20    3.00
  -8  -4   7    5.00    1.60
   7   4  -7   29.00    4.70
   7   4  -7   21.30    3.50
   7   4  -7   20.20    3.30
  -7  -4   7   19.30    1.60
  -7  -4   7   23.20    1.90
  -7  -4   7   19.70    3.80
  -7  -4   7   16.80    3.40
   6   4  -7   28.10    3.30
   6   4  -7   19.90    3.40
   6   4  -7   26.00    4.20
   6   4  -7   19.00    3.10
  -6  -4   7   19.10    3.30
  -6  -4   7   16.30    3.10
   5   4  -7   34.40    4.20
   5   4  -7   29.50    3.80
   5   4  -7   34.00    3.40
   5   4  -7   33.00    2.70
   5   4  -7   33.20    3.20
  -5  -4   7   31.70    3.60
  -5  -4   7   27.70    3.30
   4   4  -7  223.98    9.90
   4   4  -7  227.28    8.80
   4   4  -7  222.68    8.30
   4   4  -7  227.88    9.60
   4   4  -7  222.28    9.00
   4   4  -7  224.78    9.70
  -4  -4   7  227.68    9.30
  -4  -4   7  232.18    9.50
  -4  -4   7  207.68    9.40
  -4  -4   7  211.58    9.90
   3   4  -7   16.40    2.50
   3   4  -7   15.90    2.50
   3   4  -7   18.50    2.00
   3   4  -7   16.10    1.70
   3   4  -7   15.90    2.00
  -3  -4   7   21.40    2.80
  -3  -4   7   23.90    2.40
  -3  -4   7   17.30    1.50
  -3  -4   7   16.30    2.30
  -3  -4   7   15.70    2.40
  -3  -4   7   16.80    2.60
   2   4  -7  153.48    6.20
   2   4  -7  159.38    6.30
   2   4  -7  153.88    5.90
   2   4  -7  149.09    6.80
   2   4  -7  151.28    6.80
  -2  -4   7  152.58    7.20
  -2  -4   7  152.88    6.80
  -2  -4   7  162.38    7.00
   1   4  -7    7.40    1.60
   1   4  -7    9.20    1.20
   1   4  -7    7.80    1.20
   1   4  -7    6.00    1.30
   1   4  -7    5.00    1.10
   1   4  -7    4.70    1.50
  -1  -4   7    6.00    1.50
  -1  -4   7    5.40    1.10
  -1  -4   7    7.00    1.60
  -1  -4   7    7.60    1.80
  -1  -4   7    4.70    1.40
  -1  -4   7    5.60    1.60
   0   4  -7   20.30    2.70
   0   4  -7   17.60    1.50
   0   4  -7   18.20    1.80
   0   4  -7   13.80    1.80
   0   4  -7   18.60    1.80
   0   4  -7   15.90    2.00
   0   4  -7   14.40    1.60
   0  -4   7   16.00    2.20
   0  -4   7   15.90    2.00
   0  -4   7   15.90    2.10
   0  -4   7   18.30    2.30
   0  -4   7   17.30    2.10
  -1   4  -7    3.80    1.30
  -1   4  -7    2.90    1.50
  -1   4  -7    1.90    1.60
  -1   4  -7    3.00    1.00
  -1   4  -7    3.40    1.30
  -1   4  -7    2.20    1.00
  -1   4  -7    3.20    1.10
   1  -4   7    2.10    1.20
   1  -4   7    1.00    1.10
   1  -4   7    3.10    1.30
   1  -4   7    2.10    1.30
   1  -4   7    2.30    1.40
  -2   4  -7  160.98    6.70
  -2   4  -7  155.18    6.40
  -2   4  -7  164.98    6.90
  -2   4  -7  154.58    6.00
  -2   4  -7  156.48    5.90
  -2   4  -7  154.38    7.60
  -2   4  -7  150.58    6.60
   2  -4   7  156.08    6.70
   2  -4   7  145.59    6.80
   2  -4   7  154.58    6.90
   2  -4   7  157.78    6.50
  -3   4  -7   58.49    3.90
  -3   4  -7   54.29    3.10
  -3   4  -7   52.39    3.00
  -3   4  -7   54.49    3.40
  -3   4  -7   50.69    3.60
   3  -4   7   59.99    3.90
   3  -4   7   49.99    3.80
   3  -4   7   61.59    3.80
  -4   4  -7  145.89    6.40
  -4   4  -7  145.09    6.00
  -4   4  -7  139.69    6.00
  -4   4  -7  137.49    6.80
   4  -4   7  136.89    6.80
   4  -4   7  161.48    7.30
   4  -4   7  151.98    7.50
   4  -4   7  144.59    6.90
  -5   4  -7   37.80    3.00
  -5   4  -7   38.20    3.50
   5  -4   7   41.90    3.90
   5  -4   7   41.60    4.10
   5  -4   7   49.80    4.50
  -6   4  -7   12.80    2.40
  -6   4  -7   13.40    2.30
   6  -4   7   21.80    3.50
   6  -4   7   16.80    3.10
  -7   4  -7    8.20    2.20
  -7   4  -7    5.10    2.30
   7  -4   7    8.50    3.10
  -8   4  -7   -3.10    2.00
  -8   4  -7    1.20    2.20
   8  -4   7   -2.80    2.60
   9   3  -7    7.30    2.80
   9   3  -7   -0.60    3.20
   9   3  -7    3.90    3.10
  -9  -3   7    1.10    3.00
  -9  -3   7    0.20    3.20
  -9  -3   7   -0.70    1.50
   8   3  -7    6.50    2.60
   8   3  -7    4.10    2.80
   8   3  -7    6.60    3.60
  -8  -3   7    6.50    1.50
  -8  -3   7    4.40    2.90
  -8  -3   7    4.00    1.00
  -8  -3   7    7.10    2.80
   7   3  -7    4.20    2.40
   7   3  -7    7.10    2.20
   7   3  -7    9.10    2.90
   7   3  -7   11.10    3.50
  -7  -3   7    3.60    2.40
  -7  -3   7    8.40    2.80
   6   3  -7    1.90    2.10
   6   3  -7    2.60    1.70
   6   3  -7    3.10    2.60
   6   3  -7    4.80    2.20
  -6  -3   7    2.70    2.00
  -6  -3   7    5.10    2.10
   5   3  -7    2.80    1.30
   5   3  -7    3.20    2.00
   5   3  -7    3.80    1.70
   5   3  -7    2.70    2.10
   5   3  -7    4.70    1.50
  -5  -3   7    3.80    1.20
  -5  -3   7    5.30    1.90
  -5  -3   7    3.20    1.90
  -5  -3   7    3.30    1.80
  -5  -3   7    2.60    1.60
  -5  -3   7    3.80    1.70
   4   3  -7   90.09    5.20
   4   3  -7   84.99    4.20
   4   3  -7   94.79    4.90
   4   3  -7   86.59    4.00
   4   3  -7  100.29    5.60
   4   3  -7   92.79    4.50
  -4  -3   7   80.19    4.70
  -4  -3   7   95.39    4.10
  -4  -3   7   76.59    3.70
  -4  -3   7   86.39    4.40
  -4  -3   7   91.79    5.00
  -4  -3   7   87.39    4.90
  -4  -3   7   85.09    5.30
   3   3  -7   56.69    2.80
   3   3  -7   56.39    2.90
   3   3  -7   55.29    3.90
   3   3  -7   53.79    3.20
   3   3  -7   53.59    3.70
  -3  -3   7   55.29    4.00
  -3  -3   7   59.99    3.70
  -3  -3   7   59.69    3.10
  -3  -3   7   55.89    3.60
  -3  -3   7   55.79    2.30
   2   3  -7  193.98    7.10
   2   3  -7  213.58    7.50
   2   3  -7  213.08    8.10
   2   3  -7  199.08    7.40
   2   3  -7  191.38    7.90
  -2  -3   7  209.08    8.10
  -2  -3   7  188.78    7.80
  -2  -3   7  203.58    8.00
  -2  -3   7  189.48    7.70
  -2  -3   7  212.98    8.40
  -2  -3   7  193.88    7.20
   1   3  -7  265.37    9.30
   1   3  -7  265.07    9.90
   1   3  -7  263.87    9.10
   1   3  -7  273.97   10.00
   1   3  -7  265.07    9.40
   1   3  -7  274.57    9.40
  -1  -3   7  259.47   10.00
  -1  -3   7  276.97    9.80
  -1  -3   7  271.27   10.00
  -1  -3   7  256.07   10.10
  -1  -3   7  287.67    9.90
   0   3  -7   63.89    4.00
   0   3  -7   55.69    2.60
   0   3  -7   53.69    3.00
   0   3  -7   54.09    2.40
   0   3  -7   53.09    2.50
   0   3  -7   57.49    2.60
   0   3  -7   54.49    2.90
   0  -3   7   53.89    3.20
   0  -3   7   51.29    3.10
   0  -3   7   52.99    2.90
   0  -3   7   54.29    3.10
   0  -3   7   52.99    3.00
  -1   3  -7   99.49    3.80
  -1   3  -7   99.89    3.90
  -1   3  -7   98.99    4.40
  -1   3  -7  102.79    4.00
  -1   3  -7   96.29    5.30
  -1   3  -7  104.99    4.30
  -1   3  -7  105.39    4.60
  -1   3  -7  101.99    3.80
   1  -3   7   95.59    4.40
   1  -3   7   94.89    4.60
   1  -3   7  101.99    4.60
   1  -3   7   98.49    4.40
   1  -3   7   98.09    4.30
  -2   3  -7   53.19    2.80
  -2   3  -7   45.00    2.80
  -2   3  -7   53.69    2.50
  -2   3  -7   54.99    3.10
  -2   3  -7   52.39    2.60
  -2   3  -7   58.59    4.00
  -2   3  -7   51.59    3.10
  -2   3  -7   51.39    2.50
   2  -3   7   55.49    3.00
   2  -3   7   53.39    3.20
   2  -3   7   48.60    3.00
   2  -3   7   50.29    2.90
  -3   3  -7   12.40    1.70
  -3   3  -7   14.30    1.40
  -3   3  -7   14.00    1.90
  -3   3  -7    8.80    1.40
  -3   3  -7   12.70    1.90
  -3   3  -7   11.70    1.40
   3  -3   7    7.60    1.60
   3  -3   7   10.80    1.80
   3  -3   7   14.00    1.90
   3  -3   7   12.20    1.70
   3  -3   7   12.30    2.20
  -4   3  -7   27.30    2.80
  -4   3  -7   32.40    2.30
  -4   3  -7   28.50    2.60
  -4   3  -7   31.10    2.20
  -4   3  -7   27.80    2.90
   4  -3   7   29.80    2.90
   4  -3   7   35.60    3.60
   4  -3   7   26.10    2.60
   4  -3   7   33.50    3.20
  -5   3  -7    3.70    1.40
  -5   3  -7    4.20    1.60
  -5   3  -7    7.70    1.50
   5  -3   7    4.70    2.00
   5  -3   7    4.30    1.70
   5  -3   7    5.40    2.10
   5  -3   7    3.00    1.70
  -6   3  -7    1.30    1.50
  -6   3  -7    2.50    1.70
   6  -3   7    0.30    1.60
   6  -3   7   -1.10    1.70
   6  -3   7   -1.40    1.80
  -7   3  -7    3.00    2.00
  -7   3  -7    4.60    1.90
   7  -3   7    5.50    2.40
   7  -3   7    4.80    2.60
  -8   3  -7    0.00    2.00
  -8   3  -7   -3.70    1.90
   8  -3   7   -0.60    2.60
  10   2  -7    1.20    2.60
  10   2  -7    4.40    3.90
  10   2  -7    8.30    3.90
 -10  -2   7    4.90    3.50
 -10  -2   7    6.80    3.70
   9   2  -7   -1.30    2.30
   9   2  -7    4.20    3.20
   9   2  -7   -1.90    2.60
  -9  -2   7   -4.10    2.70
  -9  -2   7    1.50    2.90
   8   2  -7    3.20    2.10
   8   2  -7    0.60    2.40
   8   2  -7    7.50    3.40
  -8  -2   7    3.60    2.50
  -8  -2   7    2.60    2.80
   7   2  -7   16.00    3.30
   7   2  -7   14.60    2.70
   7   2  -7    8.90    3.10
   7   2  -7   17.70    3.20
  -7  -2   7   17.70    3.10
  -7  -2   7   16.10    3.20
   6   2  -7    1.20    1.50
   6   2  -7    0.80    1.10
   6   2  -7    1.80    2.10
   6   2  -7    0.10    1.70
   6   2  -7    1.40    1.90
  -6  -2   7    0.50    1.90
  -6  -2   7    2.60    2.00
  -6  -2   7    0.40    1.10
   5   2  -7    4.90    1.60
   5   2  -7    6.70    2.10
   5   2  -7    6.70    2.10
   5   2  -7    8.10    1.60
   5   2  -7    5.70    1.20
  -5  -2   7    3.90    1.30
  -5  -2   7    4.80    1.60
  -5  -2   7    5.00    1.90
  -5  -2   7    5.30    1.70
  -5  -2   7    6.70    2.00
  -5  -2   7    5.20    2.00
   4   2  -7  120.39    6.00
   4   2  -7  117.19    5.30
   4   2  -7  124.69    5.00
   4   2  -7  129.79    5.70
   4   2  -7  126.79    5.10
   4   2  -7  123.59    5.90
  -4  -2   7  111.89    5.20
  -4  -2   7  125.49    6.30
  -4  -2   7  135.29    5.90
  -4  -2   7  119.69    5.80
  -4  -2   7  121.39    6.20
  -4  -2   7  115.89    4.50
  -4  -2   7  124.49    5.20
   3   2  -7   26.50    2.60
   3   2  -7   21.60    1.70
   3   2  -7   28.90    1.80
   3   2  -7   26.20    2.70
   3   2  -7   23.90    2.20
   3   2  -7   26.20    2.10
  -3  -2   7   24.90    2.50
  -3  -2   7   23.40    2.10
  -3  -2   7   28.00    2.50
  -3  -2   7   26.00    2.70
  -3  -2   7   23.10    2.30
  -3  -2   7   23.30    2.20
   2   2  -7  353.46   13.00
   2   2  -7  374.56   12.40
   2   2  -7  377.96   12.40
   2   2  -7  370.96   12.70
   2   2  -7  355.46   12.20
   2   2  -7  363.16   12.80
   2   2  -7  363.76   12.10
  -2  -2   7  355.66   12.60
  -2  -2   7  366.86   12.90
  -2  -2   7  366.06   12.70
  -2  -2   7  361.56   12.90
  -2  -2   7  357.56   13.10
  -2  -2   7  365.96   12.80
   1   2  -7  229.38    7.70
   1   2  -7  223.78    8.20
   1   2  -7  228.98    8.10
   1   2  -7  220.78    8.20
   1   2  -7  222.48    7.60
   1   2  -7  230.18    7.70
   1   2  -7  230.88    7.80
  -1  -2   7  226.18    8.60
  -1  -2   7  229.78    8.20
  -1  -2   7  203.98    8.40
  -1  -2   7  232.68    8.30
  -1  -2   7  238.98    8.20
  -1  -2   7  226.78    8.30
   0   2  -7  136.39    4.80
   0   2  -7  148.59    4.90
   0   2  -7  145.69    5.50
   0   2  -7  139.99    4.90
   0   2  -7  142.19    6.50
   0   2  -7  141.99    5.40
   0   2  -7  150.18    5.00
   0  -2   7  142.29    6.10
   0  -2   7  145.19    5.40
   0  -2   7  141.89    5.30
   0  -2   7  144.89    5.30
   0  -2   7  145.19    5.70
   0  -2   7  142.79    5.50
  -1   2  -7  319.57   10.90
  -1   2  -7  322.77   11.10
  -1   2  -7  329.87   11.10
  -1   2  -7  319.47   10.50
  -1   2  -7  342.77   10.50
  -1   2  -7  328.97   10.50
  -1   2  -7  318.17   12.20
   1  -2   7  348.57   10.90
   1  -2   7  304.97   11.10
   1  -2   7  302.27   10.90
   1  -2   7  332.77   11.30
  -2   2  -7   10.90    0.90
  -2   2  -7    8.00    1.10
  -2   2  -7    9.60    1.20
  -2   2  -7    8.90    0.80
  -2   2  -7    8.30    0.90
  -2   2  -7    6.50    1.70
  -2   2  -7    8.70    1.30
   2  -2   7    9.10    1.20
   2  -2   7    9.40    1.20
   2  -2   7    9.70    1.40
   2  -2   7    6.60    1.10
  -3   2  -7   23.10    1.60
  -3   2  -7   25.00    2.20
  -3   2  -7   23.20    1.90
  -3   2  -7   24.20    1.80
  -3   2  -7   23.90    1.60
  -3   2  -7   25.40    2.10
  -3   2  -7   25.70    2.10
   3  -2   7   24.30    2.20
   3  -2   7   25.40    2.10
   3  -2   7   24.30    2.70
   3  -2   7   23.40    2.20
   3  -2   7   23.00    1.90
  -4   2  -7   35.40    2.60
  -4   2  -7   37.50    2.30
  -4   2  -7   31.90    2.80
  -4   2  -7   35.30    2.20
  -4   2  -7   35.90    2.90
   4  -2   7   35.00    2.80
   4  -2   7   37.30    2.90
   4  -2   7   32.30    3.20
   4  -2   7   38.60    3.00
   4  -2   7   34.30    2.80
  -5   2  -7    5.60    1.40
  -5   2  -7    3.00    1.50
  -5   2  -7    5.10    1.30
   5  -2   7    5.50    1.70
   5  -2   7    6.50    1.80
   5  -2   7    8.20    2.10
   5  -2   7    6.50    1.80
  -6   2  -7   16.90    2.40
  -6   2  -7   15.50    2.20
   6  -2   7   15.80    2.80
   6  -2   7   16.90    2.70
   6  -2   7   17.30    3.00
   6  -2   7   12.80    2.70
  -7   2  -7    6.70    2.00
  -7   2  -7    6.40    2.30
   7  -2   7    1.20    2.10
   7  -2   7    3.90    2.40
  -8   2  -7   -2.90    2.00
  -8   2  -7   -0.30    2.00
   8  -2   7    3.20    2.80
  10   1  -7    2.20    3.10
  10   1  -7    0.20    3.80
  10   1  -7    3.70    2.80
 -10  -1   7    1.70    3.00
 -10  -1   7    0.80    3.20
   9   1  -7    0.10    2.70
   9   1  -7   -4.40    1.90
   9   1  -7    3.80    3.80
  -9  -1   7    3.30    2.90
  -9  -1   7   -1.10    2.50
   8   1  -7   14.20    2.80
   8   1  -7   14.10    3.80
   8   1  -7   12.20    3.00
  -8  -1   7    9.50    2.90
  -8  -1   7    6.60    2.90
   7   1  -7   25.50    3.00
   7   1  -7   33.40    4.50
   7   1  -7   26.80    3.40
   7   1  -7   32.60    4.00
  -7  -1   7   25.20    3.40
  -7  -1   7   28.60    3.50
  -7  -1   7   31.20    2.70
   6   1  -7    1.60    1.90
   6   1  -7    3.20    1.80
   6   1  -7    4.40    2.00
   6   1  -7    1.00    1.20
   6   1  -7    3.60    1.50
  -6  -1   7    3.20    2.00
  -6  -1   7    1.90    1.30
  -6  -1   7    2.10    1.80
  -6  -1   7    3.70    2.00
   5   1  -7  149.99    7.20
   5   1  -7  155.38    6.60
   5   1  -7  155.18    6.30
   5   1  -7  154.18    7.30
   5   1  -7  157.88    6.80
   5   1  -7  142.29    6.00
  -5  -1   7  166.78    7.10
  -5  -1   7  143.09    6.30
  -5  -1   7  153.48    6.80
  -5  -1   7  151.58    6.90
  -5  -1   7  142.19    7.20
  -5  -1   7  147.29    6.30
   4   1  -7  103.39    5.30
   4   1  -7  100.59    4.40
   4   1  -7  107.19    4.80
   4   1  -7  104.49    5.50
   4   1  -7  118.09    5.10
   4   1  -7  107.59    4.50
  -4  -1   7  103.79    6.70
  -4  -1   7  108.99    5.20
  -4  -1   7  104.79    4.80
  -4  -1   7  109.09    5.50
  -4  -1   7  123.79    5.40
   3   1  -7   56.49    2.70
   3   1  -7   55.59    3.30
   3   1  -7   56.59    3.50
   3   1  -7   59.89    2.80
   3   1  -7   66.89    3.20
   3   1  -7   60.69    2.90
  -3  -1   7   70.99    3.40
  -3  -1   7   58.99    3.30
  -3  -1   7   52.09    2.50
  -3  -1   7   57.49    3.10
  -3  -1   7   55.79    3.30
  -3  -1   7   55.39    3.20
  -3  -1   7   59.39    3.60
   2   1  -7  127.99    4.50
   2   1  -7  120.89    4.50
   2   1  -7  122.19    4.50
   2   1  -7  119.19    4.60
   2   1  -7  127.39    5.20
   2   1  -7  119.39    4.80
   2   1  -7  119.59    4.90
  -2  -1   7  127.49    4.80
  -2  -1   7  120.99    5.00
  -2  -1   7  118.49    5.20
  -2  -1   7  125.29    4.90
  -2  -1   7  120.49    5.30
  -2  -1   7  122.19    4.90
   1   1  -7   49.40    2.40
   1   1  -7   50.79    2.40
   1   1  -7   46.90    1.80
   1   1  -7   49.30    2.20
   1   1  -7   48.70    1.80
   1   1  -7   45.20    2.50
   1   1  -7   51.59    2.00
  -1  -1   7   47.90    2.50
  -1  -1   7   52.39    2.40
  -1  -1   7   50.29    2.30
  -1  -1   7   49.20    2.30
  -1  -1   7   51.29    3.00
  -1  -1   7   52.19    2.30
   0   1  -7    3.30    0.50
   0   1  -7    4.10    0.70
   0   1  -7    3.90    0.60
   0   1  -7    4.50    1.30
   0  -1   7    3.40    0.70
   0  -1   7    3.30    1.30
   0  -1   7    3.50    0.60
  -1   1  -7  182.98    6.30
  -1   1  -7  199.08    6.20
  -1   1  -7  179.68    6.40
  -1   1  -7  190.88    7.50
   1  -1   7  174.08    6.40
   1  -1   7  184.38    7.50
   1  -1   7  199.68    6.50
  -2   1  -7  280.37    9.30
  -2   1  -7  298.97   10.50
  -2   1  -7  267.47    9.40
  -2   1  -7  282.07    9.30
   2  -1   7  261.07    9.40
   2  -1   7  280.87    9.60
  -3   1  -7  203.98    6.60
  -3   1  -7  191.18    7.20
  -3   1  -7  195.78    6.70
  -3   1  -7  194.68    7.00
  -3   1  -7  196.78    6.70
  -3   1  -7  190.08    7.10
  -3   1  -7  195.88    7.10
   3  -1   7  186.98    7.20
   3  -1   7  203.38    7.50
   3  -1   7  183.58    6.80
   3  -1   7  207.48    6.90
  -4   1  -7  132.79    5.70
  -4   1  -7  133.79    5.00
  -4   1  -7  135.69    5.10
  -4   1  -7  127.99    5.50
   4  -1   7  127.19    6.10
   4  -1   7  130.39    5.70
   4  -1   7  138.79    6.00
   4  -1   7  138.99    5.50
   4  -1   7  131.49    5.30
  -5   1  -7   29.50    2.70
  -5   1  -7   31.90    2.30
  -5   1  -7   28.70    2.40
  -5   1  -7   29.20    2.90
   5  -1   7   29.30    2.80
   5  -1   7   28.40    2.90
   5  -1   7   32.60    3.20
   5  -1   7   33.10    3.20
  -6   1  -7    8.90    1.90
  -6   1  -7    6.60    2.00
  -6   1  -7   12.30    1.80
   6  -1   7    8.50    2.20
   6  -1   7    8.10    2.30
   6  -1   7    9.00    2.30
   6  -1   7    6.60    2.10
  -7   1  -7   -1.20    1.80
  -7   1  -7    0.60    1.60
   7  -1   7    2.20    2.10
   7  -1   7   -2.00    2.00
  -8   1  -7   -3.40    1.80
  -8   1  -7    1.10    1.90
   8  -1   7    0.80    2.50
  10   0  -7    2.30    3.80
  10   0  -7    0.80    2.40
  10   0  -7    2.00    3.20
 -10   0   7   -0.50    3.50
 -10   0   7   -1.40    2.80
   9   0  -7   -1.30    3.10
   9   0  -7    1.20    2.10
   9   0  -7    1.80    2.90
  -9   0   7   -0.40    3.00
  -9   0   7    1.10    2.60
   8   0  -7   -2.80    2.20
   8   0  -7    0.80    2.50
   8   0  -7    1.90    1.80
   8   0  -7    0.50    2.70
  -8   0   7   -0.10    2.40
  -8   0   7   -0.60    1.50
  -8   0   7    1.80    2.50
   7   0  -7   51.59    4.30
   7   0  -7   32.10    4.20
   7   0  -7   32.30    4.10
  -7   0   7   36.10    3.20
  -7   0   7   33.60    3.90
  -7   0   7   36.30    3.80
   6   0  -7    1.30    1.20
   6   0  -7    1.40    1.80
   6   0  -7    3.30    2.10
   6   0  -7    0.60    1.70
  -6   0   7    1.30    1.80
  -6   0   7    2.70    1.50
  -6   0   7    3.70    2.00
  -6   0   7    3.00    1.90
   5   0  -7   62.89    3.40
   5   0  -7   73.69    4.20
   5   0  -7   66.19    3.60
   5   0  -7   65.49    3.90
   5   0  -7   73.19    4.60
   5   0  -7   69.79    4.50
  -5   0   7   69.49    4.30
  -5   0   7   72.99    4.30
  -5   0   7   60.79    3.90
  -5   0   7   65.69    3.80
  -5   0   7   67.69    4.50
   4   0  -7   79.79    4.00
   4   0  -7   78.79    4.40
   4   0  -7   74.19    4.30
   4   0  -7   75.29    3.50
   4   0  -7   78.19    3.50
   4   0  -7   74.89    3.80
  -4   0   7   77.29    4.10
  -4   0   7   78.19    3.50
  -4   0   7   74.29    4.10
  -4   0   7   80.29    4.20
  -4   0   7   81.19    4.50
  -4   0   7   76.49    4.00
  -4   0   7   74.69    4.00
   3   0  -7    1.70    1.20
   3   0  -7    2.30    0.80
   3   0  -7    1.50    0.70
   3   0  -7   -0.10    0.80
   3   0  -7    2.30    0.90
   3   0  -7    0.40    1.00
  -3   0   7    0.40    0.90
  -3   0   7    2.50    1.10
  -3   0   7    3.50    1.40
  -3   0   7    0.70    1.00
  -3   0   7    2.20    1.00
  -3   0   7    1.90    1.00
   2   0  -7  188.18    6.20
   2   0  -7  184.98    6.10
   2   0  -7  178.78    6.50
   2   0  -7  183.28    6.70
   2   0  -7  173.58    6.10
   2   0  -7  184.98    6.80
  -2   0   7  183.78    6.50
  -2   0   7  183.78    6.50
  -2   0   7  173.28    6.50
  -2   0   7  179.28    6.70
  -2   0   7  170.78    7.10
  -2   0   7  179.88    6.90
   1   0  -7   74.19    3.00
   1   0  -7   66.89    2.70
   1   0  -7   73.69    2.90
  -1   0   7   76.99    2.60
  -1   0   7   72.39    2.60
  -1   0   7   80.09    2.80
  -1   0   7   69.29    3.70
  -1   0   7   69.49    3.00
  -1   0   7   73.19    2.90
   0   0   7   17.80    2.00
  -1   0  -7   88.09    4.00
   1   0   7   86.49    4.40
  -2   0  -7   23.60    1.30
  -2   0  -7   23.60    1.20
  -2   0  -7   24.70    1.20
   2   0   7   26.10    2.50
   2   0   7   23.20    1.30
   2   0   7   24.10    1.40
  -3   0  -7   18.40    1.50
  -3   0  -7   18.10    1.00
  -3   0  -7   16.60    1.00
  -3   0  -7   14.90    1.50
  -3   0  -7   15.80    1.90
  -3   0  -7   17.70    1.60
  -3   0  -7   20.00    1.10
   3   0   7   16.70    1.70
   3   0   7   15.00    1.50
  -4   0  -7   66.19    3.50
  -4   0  -7   75.29    3.20
  -4   0  -7   64.19    3.60
  -4   0  -7   70.89    2.90
   4   0   7   70.49    3.90
   4   0   7   71.09    3.20
   4   0   7   68.59    3.80
   4   0   7   66.09    3.10
   4   0   7   65.19    3.60
   4   0   7   73.29    3.40
  -5   0  -7   82.39    3.80
  -5   0  -7   88.29    4.10
  -5   0  -7   82.59    4.40
  -5   0  -7   78.99    4.50
  -5   0  -7   86.79    4.10
   5   0   7   90.49    4.70
   5   0   7   93.39    4.60
   5   0   7   85.79    4.70
   5   0   7   91.99    5.00
  -6   0  -7   16.30    2.40
  -6   0  -7   19.80    2.00
  -6   0  -7   24.50    2.50
   6   0   7   20.00    2.80
   6   0   7   20.60    2.90
   6   0   7   16.20    2.70
  -7   0  -7   17.10    2.70
  -7   0  -7   21.70    2.90
   7   0   7   22.10    3.90
   7   0   7   22.90    3.30
   7   0   7   23.50    3.50
  -8   0  -7    0.00    2.00
  -8   0  -7    4.20    2.30
   8   0   7   -0.60    2.60
   8   0   7    0.50    2.40
  10  -1  -7    3.60    3.90
  10  -1  -7    3.40    3.30
  10  -1  -7    1.00    2.40
 -10   1   7    0.80    2.90
 -10   1   7   -1.80    3.00
   9  -1  -7    1.40    3.30
   9  -1  -7    2.00    2.10
   9  -1  -7    6.10    3.10
  -9   1   7    4.90    3.10
  -9   1   7    7.20    3.50
   8  -1  -7   12.70    3.30
   8  -1  -7    8.40    2.90
   8  -1  -7   13.80    3.20
  -8   1   7    7.30    2.90
  -8   1   7    6.10    2.90
   7  -1  -7   45.20    4.50
   7  -1  -7   44.80    5.00
   7  -1  -7   49.30    4.30
  -7   1   7   45.40    4.60
  -7   1   7   49.10    4.60
   6  -1  -7    7.70    2.10
   6  -1  -7    7.40    2.40
   6  -1  -7    5.40    1.30
   6  -1  -7    8.70    2.60
  -6   1   7    8.50    2.20
  -6   1   7    7.80    2.30
  -6   1   7    5.80    2.10
  -6   1   7    4.30    1.90
   5  -1  -7  170.08    7.30
   5  -1  -7  167.38    6.80
   5  -1  -7  180.38    7.80
   5  -1  -7  188.78    8.00
   5  -1  -7  172.68    7.20
  -5   1   7  177.98    8.00
  -5   1   7  171.68    7.40
  -5   1   7  172.08    7.60
  -5   1   7  175.48    7.60
   4  -1  -7  110.89    5.30
   4  -1  -7  105.79    4.50
   4  -1  -7  112.69    4.50
   4  -1  -7  111.89    4.90
   4  -1  -7  113.39    5.00
   4  -1  -7  116.29    5.50
  -4   1   7  109.79    5.30
  -4   1   7   96.49    4.40
  -4   1   7  113.29    5.50
  -4   1   7  115.39    5.10
  -4   1   7  101.39    5.00
  -4   1   7   95.99    5.00
  -4   1   7  122.49    5.30
   3  -1  -7  120.69    5.00
   3  -1  -7  125.49    4.70
   3  -1  -7  123.19    4.70
   3  -1  -7  133.29    5.40
   3  -1  -7  121.09    4.90
   3  -1  -7  121.49    5.40
  -3   1   7  119.19    5.10
  -3   1   7  127.39    5.20
  -3   1   7  116.39    5.40
  -3   1   7  123.99    5.30
  -3   1   7  126.59    5.20
  -3   1   7  130.29    5.60
   2  -1  -7  222.98    7.90
   2  -1  -7  220.58    7.30
   2  -1  -7  207.48    7.60
   2  -1  -7  222.08    7.30
   2  -1  -7  208.48    7.20
   2  -1  -7  217.78    7.90
  -2   1   7  203.48    7.90
  -2   1   7  223.78    7.60
  -2   1   7  224.88    8.60
  -2   1   7  206.48    7.60
  -2   1   7  225.18    7.70
  -2   1   7  226.78    7.90
   1  -1  -7    7.40    0.80
   1  -1  -7    5.30    0.80
   1  -1  -7    7.80    0.70
  -1   1   7    6.00    0.80
  -1   1   7    6.60    0.60
  -1   1   7    4.00    1.30
  -1   1   7    6.50    0.60
  -1   1   7    6.80    0.90
   0   1   7  133.09    5.90
  -1  -1  -7    5.00    0.80
   1   1   7    6.00    1.50
  -2  -1  -7    1.70    0.50
  -2  -1  -7   -0.10    0.50
   2   1   7    0.30    1.30
   2   1   7    0.80    0.60
   2   1   7    0.10    0.50
  -3  -1  -7   13.10    0.90
  -3  -1  -7   13.60    1.40
  -3  -1  -7   13.30    0.90
  -3  -1  -7   11.90    1.40
  -3  -1  -7   12.90    1.30
  -3  -1  -7   13.50    1.00
   3   1   7   12.30    0.90
   3   1   7   11.60    1.30
   3   1   7   15.80    1.10
   3   1   7   12.70    1.50
  -4  -1  -7   18.70    1.40
  -4  -1  -7   18.40    2.00
  -4  -1  -7   19.20    1.90
  -4  -1  -7   18.80    1.70
   4   1   7   19.30    2.20
   4   1   7   15.70    1.90
   4   1   7   15.40    1.80
  -5  -1  -7    0.70    1.20
  -5  -1  -7    1.50    1.30
  -5  -1  -7    0.20    0.90
   5   1   7    0.40    1.50
   5   1   7    0.10    1.40
   5   1   7    0.40    1.40
  -6  -1  -7    6.40    1.90
  -6  -1  -7    5.30    1.40
  -6  -1  -7    5.90    1.70
   6   1   7    4.10    2.00
   6   1   7    4.50    2.20
   6   1   7    3.30    1.90
  -7  -1  -7    5.60    2.10
  -7  -1  -7    5.90    2.20
   7   1   7    5.30    2.40
   7   1   7   10.60    2.80
  -8  -1  -7    5.10    2.70
  -8  -1  -7   -0.50    2.00
   8   1   7    2.60    2.50
  10  -2  -7    2.00    3.40
  10  -2  -7    1.50    2.50
  10  -2  -7    6.80    4.10
 -10   2   7    4.20    3.70
 -10   2   7    2.10    3.40
   9  -2  -7    0.30    3.30
   9  -2  -7    3.70    3.00
  -9   2   7    2.40    3.10
  -9   2   7    2.80    2.70
   8  -2  -7    9.70    2.90
   8  -2  -7    5.30    2.80
   8  -2  -7    6.50    3.20
  -8   2   7    5.90    2.90
  -8   2   7    5.80    3.00
   7  -2  -7   10.60    2.90
   7  -2  -7   15.70    3.00
   7  -2  -7   15.20    3.20
  -7   2   7   15.00    3.10
  -7   2   7   14.30    3.10
   6  -2  -7    6.00    2.40
   6  -2  -7    5.00    1.40
   6  -2  -7    5.10    2.30
   6  -2  -7    4.80    1.90
  -6   2   7    5.30    2.10
  -6   2   7    5.90    2.10
  -6   2   7    2.20    1.90
   5  -2  -7   29.00    3.10
   5  -2  -7   34.00    3.30
   5  -2  -7   28.50    3.30
   5  -2  -7   28.80    2.50
   5  -2  -7   28.60    2.80
  -5   2   7   32.10    3.20
  -5   2   7   22.30    2.70
  -5   2   7   32.70    3.50
  -5   2   7   30.40    3.20
   4  -2  -7   74.19    3.90
   4  -2  -7   75.89    4.40
   4  -2  -7   75.09    3.50
   4  -2  -7   73.89    3.80
   4  -2  -7   78.29    4.40
  -4   2   7   72.39    4.10
  -4   2   7   70.79    4.30
  -4   2   7   70.59    4.00
  -4   2   7   82.29    4.20
  -4   2   7   70.29    3.90
   3  -2  -7    7.80    1.50
   3  -2  -7   12.80    1.30
   3  -2  -7    9.30    1.30
   3  -2  -7   11.60    1.80
   3  -2  -7   10.70    1.20
   3  -2  -7    9.50    1.40
  -3   2   7    9.80    1.50
  -3   2   7   12.70    2.00
  -3   2   7   12.90    1.60
  -3   2   7   10.60    1.70
  -3   2   7    9.80    1.50
  -3   2   7   10.20    1.60
   2  -2  -7  444.36   14.70
   2  -2  -7  446.46   15.20
   2  -2  -7  448.86   15.20
   2  -2  -7  463.85   14.70
   2  -2  -7  452.05   14.60
   2  -2  -7  438.66   14.90
  -2   2   7  449.95   14.90
  -2   2   7  440.86   14.90
  -2   2   7  455.95   15.20
  -2   2   7  428.96   15.30
  -2   2   7  446.06   15.90
  -2   2   7  449.76   14.90
  -2   2   7  430.06   14.90
   1  -2  -7  252.47    8.40
   1  -2  -7  257.57    8.60
   1  -2  -7  261.27    8.50
  -1   2   7  246.88    8.30
  -1   2   7  247.78    8.60
  -1   2   7  242.48    9.50
  -1   2   7  262.07    8.20
  -1   2   7  218.58    8.20
  -1   2   7  237.78    8.60
   0  -2  -7  242.98    7.80
   0  -2  -7  239.58    8.10
   0  -2  -7  244.48    7.80
   0  -2  -7  234.28    7.90
   0   2   7  229.78    8.10
   0   2   7  233.68    8.00
   0   2   7  235.28    9.20
  -1  -2  -7  353.06   11.20
  -1  -2  -7  328.77   11.20
  -1  -2  -7  338.27   11.20
   1   2   7  359.76   11.50
   1   2   7  341.97   11.40
   1   2   7  363.56   12.80
  -2  -2  -7   13.10    1.20
  -2  -2  -7   15.90    1.30
   2   2   7   15.80    1.50
   2   2   7   18.40    2.40
   2   2   7   14.60    1.40
  -3  -2  -7   53.09    2.30
  -3  -2  -7   51.79    2.30
  -3  -2  -7   56.69    2.50
  -3  -2  -7   50.79    2.90
   3   2   7   57.29    2.50
   3   2   7   54.79    3.10
   3   2   7   54.49    3.70
   3   2   7   55.29    2.90
   3   2   7   51.49    2.30
  -4  -2  -7   10.40    1.70
  -4  -2  -7    8.00    1.10
  -4  -2  -7   11.20    1.60
  -4  -2  -7   11.10    1.60
   4   2   7    8.20    1.50
   4   2   7    5.70    1.60
   4   2   7    9.20    1.70
  -5  -2  -7   -0.20    0.90
  -5  -2  -7    2.50    1.40
  -5  -2  -7   -0.60    1.40
   5   2   7    1.10    1.60
   5   2   7   -0.60    1.40
   5   2   7    3.40    1.60
  -6  -2  -7   10.10    2.00
  -6  -2  -7    7.30    2.10
   6   2   7   11.20    2.50
   6   2   7    7.50    2.20
   6   2   7   12.90    2.40
  -7  -2  -7    1.20    2.00
  -7  -2  -7    0.90    1.90
  -7  -2  -7    3.30    2.00
   7   2   7    7.50    2.70
   7   2   7    6.10    2.50
  -8  -2  -7   -0.60    2.10
   8   2   7    1.70    2.60
  10  -3  -7    4.40    3.70
  10  -3  -7   -0.30    2.30
  10  -3  -7    0.00    3.00
 -10   3   7    0.40    3.10
 -10   3   7    4.50    3.70
   9  -3  -7    5.60    3.10
   9  -3  -7    1.60    3.20
  -9   3   7    3.40    3.20
  -9   3   7    4.00    3.30
   8  -3  -7   25.10    4.00
   8  -3  -7   23.30    3.70
   8  -3  -7   22.80    4.50
  -8   3   7   25.40    4.10
  -8   3   7   28.50    4.30
   7  -3  -7   13.80    3.40
   7  -3  -7   12.50    3.00
   7  -3  -7   12.80    2.80
  -7   3   7   17.00    3.20
  -7   3   7   14.30    3.20
   6  -3  -7   14.70    2.60
   6  -3  -7   14.90    2.90
   6  -3  -7   10.50    2.70
   6  -3  -7   11.20    1.90
  -6   3   7   16.80    3.00
  -6   3   7   10.30    2.60
  -6   3   7   15.50    2.90
   5  -3  -7  110.09    6.10
   5  -3  -7  113.59    5.60
   5  -3  -7  104.39    5.00
   5  -3  -7  114.19    6.10
  -5   3   7  111.19    5.90
  -5   3   7  125.19    6.00
  -5   3   7  116.29    5.90
  -5   3   7  112.89    6.20
   4  -3  -7    6.80    2.00
   4  -3  -7    4.30    1.50
   4  -3  -7    3.40    1.70
   4  -3  -7    8.10    1.60
   4  -3  -7    4.40    1.20
  -4   3   7    9.70    2.00
  -4   3   7    6.50    1.80
  -4   3   7    7.20    1.70
  -4   3   7    6.50    1.70
   3  -3  -7   35.20    2.40
   3  -3  -7   30.10    2.20
   3  -3  -7   29.30    2.30
   3  -3  -7   33.30    2.80
   3  -3  -7   34.60    2.60
   3  -3  -7   36.70    2.80
  -3   3   7   33.90    2.80
  -3   3   7   33.60    2.70
  -3   3   7   33.20    2.40
  -3   3   7   36.60    3.10
  -3   3   7   28.00    2.40
  -3   3   7   36.90    2.70
   2  -3  -7  138.39    5.30
   2  -3  -7  137.29    5.30
   2  -3  -7  137.39    5.20
   2  -3  -7  142.99    5.80
   2  -3  -7  144.89    5.80
   2  -3  -7  141.19    5.50
  -2   3   7  139.69    5.40
  -2   3   7  143.29    5.60
  -2   3   7  136.59    5.90
  -2   3   7  134.39    5.50
  -2   3   7  138.19    5.50
  -2   3   7  138.89    5.80
   1  -3  -7  129.99    5.00
   1  -3  -7  125.99    4.90
   1  -3  -7  116.29    4.70
   1  -3  -7  125.09    5.00
   1  -3  -7  126.59    4.50
   1  -3  -7  131.19    4.50
  -1   3   7  122.59    4.70
  -1   3   7  128.19    5.90
  -1   3   7  127.69    5.20
  -1   3   7  117.89    5.10
  -1   3   7  122.99    4.80
  -1   3   7  132.69    4.80
  -1   3   7  131.99    4.80
   0  -3  -7  296.27    9.60
   0  -3  -7  308.27   10.30
   0  -3  -7  310.47   10.30
   0  -3  -7  310.47   10.30
   0   3   7  285.77    9.90
   0   3   7  291.67   10.40
   0   3   7  296.37   10.70
   0   3   7  299.47   11.40
   0   3   7  314.47   10.00
  -1  -3  -7  284.27    9.80
  -1  -3  -7  288.07    9.80
  -1  -3  -7  281.87    9.90
   1   3   7  280.97   10.10
   1   3   7  299.47   10.20
   1   3   7  297.47   11.10
   1   3   7  305.97    9.50
   1   3   7  277.87    9.40
  -2  -3  -7   86.39    3.30
  -2  -3  -7   84.69    3.30
  -2  -3  -7   85.59    3.70
   2   3   7   85.29    3.20
   2   3   7   83.99    4.60
   2   3   7   91.59    4.10
   2   3   7   87.29    4.20
   2   3   7   95.49    3.40
  -3  -3  -7  132.99    5.60
  -3  -3  -7  134.79    5.30
   3   3   7  140.39    5.00
   3   3   7  130.59    5.90
   3   3   7  121.99    6.20
   3   3   7  146.89    5.30
   3   3   7  132.29    5.80
  -4  -3  -7    3.70    1.40
  -4  -3  -7    4.60    1.50
  -4  -3  -7    5.00    1.50
  -4  -3  -7    3.90    1.10
   4   3   7    7.00    1.60
   4   3   7    7.20    1.70
   4   3   7    3.80    1.50
  -5  -3  -7   10.70    2.10
  -5  -3  -7    9.30    2.00
  -5  -3  -7    9.10    1.60
   5   3   7   12.50    2.30
   5   3   7   12.10    2.20
   5   3   7    9.20    2.20
  -6  -3  -7   -1.10    1.60
  -6  -3  -7    0.60    1.70
   6   3   7    1.60    2.00
   6   3   7   -0.60    1.90
   6   3   7   -0.20    1.60
  -7  -3  -7   -2.30    1.80
  -7  -3  -7    2.00    2.10
   7   3   7    4.00    2.50
   7   3   7   -1.80    2.00
   8   3   7    0.60    2.80
   9  -4  -7   -1.10    3.00
   9  -4  -7    0.80    3.40
  -9   4   7   -0.30    3.20
  -9   4   7    8.40    3.60
   8  -4  -7    6.90    3.10
   8  -4  -7    8.20    3.30
  -8   4   7   16.80    3.80
  -8   4   7   17.10    3.70
   7  -4  -7   33.90    4.00
   7  -4  -7   37.30    4.60
   7  -4  -7   32.50    4.50
  -7   4   7   42.40    4.80
  -7   4   7   32.10    4.10
   6  -4  -7   16.70    3.20
   6  -4  -7   19.10    2.90
   6  -4  -7   24.10    2.60
   6  -4  -7   25.70    3.60
  -6   4   7   25.00    3.60
  -6   4   7   26.20    3.50
  -6   4   7   21.20    3.40
   5  -4  -7   37.80    4.00
   5  -4  -7   49.70    3.70
   5  -4  -7   44.10    3.90
   5  -4  -7   43.90    3.10
  -5   4   7   39.10    3.90
  -5   4   7   40.60    3.70
  -5   4   7   45.50    4.10
  -5   4   7   43.20    3.90
   4  -4  -7    7.00    1.40
   4  -4  -7    7.90    1.80
   4  -4  -7    8.30    2.10
   4  -4  -7    6.80    2.00
  -4   4   7    5.60    1.70
  -4   4   7    9.90    2.10
  -4   4   7    8.50    2.00
  -4   4   7    6.70    1.90
   3  -4  -7    1.50    1.00
   3  -4  -7    1.80    1.40
   3  -4  -7   -2.00    1.00
   3  -4  -7    2.00    1.40
   3  -4  -7    1.20    1.10
  -3   4   7    2.50    1.50
  -3   4   7    0.90    1.30
  -3   4   7    1.50    1.30
  -3   4   7    1.90    1.40
   2  -4  -7   82.09    4.00
   2  -4  -7   89.99    4.00
   2  -4  -7   91.19    4.30
   2  -4  -7   76.99    4.20
   2  -4  -7   81.19    3.90
  -2   4   7   89.09    4.50
  -2   4   7   86.99    4.50
  -2   4   7   86.79    4.20
  -2   4   7   85.99    4.20
  -2   4   7   77.59    4.00
  -2   4   7   88.19    4.00
   1  -4  -7   33.00    2.20
   1  -4  -7   28.50    2.40
   1  -4  -7   32.40    2.50
   1  -4  -7   29.00    2.00
   1  -4  -7   34.00    2.40
   1  -4  -7   30.90    1.80
   1  -4  -7   36.30    2.50
  -1   4   7   33.30    2.40
  -1   4   7   32.60    2.30
  -1   4   7   28.60    3.00
  -1   4   7   30.40    2.20
  -1   4   7   31.20    2.70
  -1   4   7   28.90    2.50
  -1   4   7   37.00    2.30
   0  -4  -7   17.50    1.80
   0  -4  -7   18.50    1.40
   0  -4  -7   22.00    1.90
   0  -4  -7   18.60    1.60
   0  -4  -7   19.10    1.90
   0  -4  -7   16.80    1.40
   0   4   7   18.90    1.70
   0   4   7   17.50    2.60
   0   4   7   19.90    1.60
   0   4   7   16.30    1.90
   0   4   7   19.10    1.70
   0   4   7   20.80    1.50
   0   4   7   15.30    2.10
  -1  -4  -7   54.89    2.90
  -1  -4  -7   52.79    2.60
   1   4   7   54.29    3.30
   1   4   7   50.69    2.50
   1   4   7   52.39    3.30
   1   4   7   56.89    2.80
   1   4   7   54.49    3.60
   1   4   7   56.19    2.70
   1   4   7   57.39    2.50
  -2  -4  -7    0.20    1.00
  -2  -4  -7    0.30    0.90
   2   4   7    2.00    1.20
   2   4   7    0.50    1.30
   2   4   7    2.00    1.60
   2   4   7   -0.20    0.90
   2   4   7    1.40    0.90
  -3  -4  -7    4.90    1.40
  -3  -4  -7    3.70    1.10
  -3  -4  -7    2.20    1.20
   3   4   7    5.20    1.80
   3   4   7    6.20    1.30
   3   4   7    4.60    1.60
   3   4   7    3.70    1.50
   3   4   7    2.90    1.40
  -4  -4  -7   13.40    1.70
  -4  -4  -7    9.40    2.00
   4   4   7   17.10    2.60
   4   4   7   16.00    2.50
   4   4   7   13.10    2.30
   4   4   7   17.80    2.40
  -5  -4  -7    1.60    1.80
  -5  -4  -7    3.00    1.80
   5   4   7    2.90    1.90
   5   4   7    0.30    1.90
   5   4   7    1.30    1.70
  -6  -4  -7    2.70    2.20
  -6  -4  -7    5.00    2.20
   6   4   7   10.90    2.90
   6   4   7    6.10    2.40
  -7  -4  -7    1.60    2.20
   7   4   7    3.90    2.80
   7   4   7    3.00    2.50
   9  -5  -7   -0.30    3.00
   9  -5  -7    1.60    3.20
  -9   5   7   -2.00    3.00
  -9   5   7    7.10    3.60
   8  -5  -7    7.50    3.60
   8  -5  -7    1.30    2.80
  -8   5   7    5.90    3.30
  -8   5   7    6.70    3.30
   7  -5  -7   13.30    3.10
   7  -5  -7    9.20    3.00
   7  -5  -7    9.40    3.20
  -7   5   7   12.20    3.20
  -7   5   7    9.30    3.10
   6  -5  -7   16.90    2.80
   6  -5  -7   12.30    2.80
   6  -5  -7   11.90    3.10
   6  -5  -7   14.30    2.30
  -6   5   7   13.80    3.00
  -6   5   7   13.50    3.10
   5  -5  -7  103.69    6.00
   5  -5  -7  100.19    6.00
   5  -5  -7   97.49    5.00
   5  -5  -7   99.29    5.40
  -5   5   7  100.19    6.10
  -5   5   7   84.59    5.50
  -5   5   7   96.29    5.90
   4  -5  -7   13.60    2.20
   4  -5  -7   10.50    2.40
   4  -5  -7   11.10    2.30
   4  -5  -7   10.40    1.80
  -4   5   7    7.60    2.20
  -4   5   7   11.50    2.50
  -4   5   7   11.10    2.50
  -4   5   7   10.90    2.30
   3  -5  -7  111.39    5.20
   3  -5  -7  111.89    5.90
   3  -5  -7  114.69    5.40
   3  -5  -7  117.09    5.80
  -3   5   7  112.19    5.60
  -3   5   7  122.59    5.90
  -3   5   7  124.79    6.00
  -3   5   7  114.39    6.10
   2  -5  -7    1.00    1.30
   2  -5  -7    0.30    1.00
   2  -5  -7    4.30    1.30
   2  -5  -7    0.30    1.40
   2  -5  -7    0.90    1.30
   2  -5  -7    0.20    1.10
  -2   5   7    2.70    1.40
  -2   5   7    3.20    1.50
  -2   5   7    1.30    1.50
  -2   5   7    1.50    1.50
   1  -5  -7    1.60    1.30
   1  -5  -7    1.30    0.70
   1  -5  -7    1.10    1.10
   1  -5  -7    0.00    1.30
   1  -5  -7    0.80    1.20
   1  -5  -7    0.70    1.10
  -1   5   7   -0.70    1.60
  -1   5   7    0.90    1.30
  -1   5   7    2.00    1.30
  -1   5   7    1.30    1.30
  -1   5   7    1.30    1.30
   0  -5  -7    5.00    1.30
   0  -5  -7    5.90    1.20
   0  -5  -7    8.20    1.60
   0  -5  -7    7.00    1.60
   0   5   7    5.40    1.70
   0   5   7    6.80    2.10
   0   5   7    5.60    1.40
   0   5   7    4.10    1.40
   0   5   7    5.70    1.60
  -1  -5  -7   17.80    2.10
  -1  -5  -7   20.90    1.80
  -1  -5  -7   17.80    1.90
   1   5   7   18.00    2.40
   1   5   7   16.70    2.40
   1   5   7   17.30    2.60
   1   5   7   18.30    2.00
   1   5   7   19.70    2.00
  -2  -5  -7    1.20    1.20
  -2  -5  -7    0.10    1.00
  -2  -5  -7   -0.10    1.10
   2   5   7    1.00    1.20
   2   5   7    0.40    1.40
   2   5   7   -0.40    1.50
   2   5   7    2.30    1.70
   2   5   7    1.40    1.10
  -3  -5  -7    7.40    1.90
  -3  -5  -7   10.20    1.50
   3   5   7   11.00    2.40
   3   5   7    7.40    2.00
   3   5   7   11.70    2.40
   3   5   7    9.30    1.70
   3   5   7    9.70    1.90
  -4  -5  -7    6.20    2.10
  -4  -5  -7    7.90    1.60
   4   5   7    4.50    1.90
   4   5   7   10.30    2.40
   4   5   7    6.40    2.00
   4   5   7    5.10    2.10
  -5  -5  -7    0.90    1.90
  -5  -5  -7    0.60    1.90
   5   5   7   -1.80    2.00
   5   5   7    1.60    1.90
   5   5   7   -0.10    2.00
  -6  -5  -7    2.20    2.40
  -6  -5  -7    0.70    2.20
   6   5   7   -0.20    2.20
   6   5   7    3.20    2.50
  -7  -5  -7   -4.60    2.00
   7   5   7    4.80    3.00
   9  -6  -7    3.40    3.50
  -9   6   7    6.00    3.60
   8  -6  -7   -1.60    3.30
   8  -6  -7    7.60    3.40
  -8   6   7    3.00    3.20
  -8   6   7    8.10    3.60
   7  -6  -7    0.10    2.90
   7  -6  -7    0.20    2.40
   7  -6  -7    1.30    2.60
  -7   6   7   -0.40    2.80
  -7   6   7   -0.90    2.50
   6  -6  -7    1.10    2.20
   6  -6  -7    1.40    2.30
   6  -6  -7    2.30    2.50
  -6   6   7   -0.90    2.30
  -6   6   7    0.20    2.60
   5  -6  -7   21.00    3.40
   5  -6  -7   19.90    2.60
   5  -6  -7   23.40    3.20
   5  -6  -7   19.10    3.10
  -5   6   7   24.60    3.60
  -5   6   7   18.00    3.20
  -5   6   7   24.00    3.60
   4  -6  -7   41.20    4.10
   4  -6  -7   35.20    3.20
   4  -6  -7   29.70    3.20
   4  -6  -7   34.50    3.80
  -4   6   7   31.10    3.70
  -4   6   7   31.80    3.60
  -4   6   7   34.70    5.70
  -4   6   7   37.10    3.80
   3  -6  -7   30.60    3.40
   3  -6  -7   32.50    3.20
   3  -6  -7   28.80    3.30
   3  -6  -7   25.70    2.70
   3  -6  -7   29.70    3.70
  -3   6   7   30.30    3.50
  -3   6   7   31.90    3.60
  -3   6   7   30.60    3.30
  -3   6   7   26.60    3.10
   2  -6  -7  139.29    6.30
   2  -6  -7  146.99    6.40
   2  -6  -7  139.59    6.70
  -2   6   7  142.69    6.70
  -2   6   7  132.79    6.50
  -2   6   7  141.59    7.00
  -2   6   7  136.69    6.90
   1  -6  -7    6.20    1.80
   1  -6  -7    7.70    1.80
   1  -6  -7    6.70    1.60
  -1   6   7    8.60    2.00
  -1   6   7    9.10    2.10
  -1   6   7    8.40    1.90
  -1   6   7    6.80    1.90
   0  -6  -7   62.29    3.70
   0  -6  -7   64.79    3.60
   0   6   7   58.79    4.20
   0   6   7   64.79    4.40
   0   6   7   61.69    3.80
   0   6   7   55.59    3.80
   0   6   7   64.69    4.70
  -1  -6  -7    6.40    1.40
  -1  -6  -7    4.50    1.60
   1   6   7    6.20    2.10
   1   6   7    6.60    1.80
   1   6   7    6.00    2.00
   1   6   7    5.70    2.20
   1   6   7    7.10    1.70
  -2  -6  -7    6.40    1.50
  -2  -6  -7    4.40    1.70
   2   6   7    4.10    1.60
   2   6   7    6.00    2.20
   2   6   7    5.00    2.00
   2   6   7    3.80    1.70
   2   6   7    5.20    1.90
  -3  -6  -7    7.10    2.00
  -3  -6  -7    5.50    1.60
   3   6   7    5.90    2.20
   3   6   7    5.20    2.10
   3   6   7    6.30    1.90
   3   6   7    2.20    2.10
   3   6   7    3.50    1.80
  -4  -6  -7    1.00    1.60
  -4  -6  -7    1.00    2.00
   4   6   7    2.40    1.90
   4   6   7   -1.30    1.90
   4   6   7    3.80    2.40
   4   6   7    2.10    2.00
  -5  -6  -7    1.10    2.20
  -5  -6  -7    0.60    2.30
   5   6   7   -2.40    2.10
   5   6   7   -0.60    2.20
  -6  -6  -7    2.00    2.50
   6   6   7    3.20    2.70
   8  -7  -7   11.70    3.60
  -8   7   7   15.50    4.40
  -8   7   7   11.20    3.80
   7  -7  -7    3.60    3.00
  -7   7   7    2.30    3.10
  -7   7   7   -0.50    2.90
   6  -7  -7   17.10    3.50
   6  -7  -7   13.80    3.30
  -6   7   7   13.60    3.50
  -6   7   7   14.50    3.50
   5  -7  -7    6.50    2.70
   5  -7  -7    6.00    2.20
   5  -7  -7    3.50    2.40
  -5   7   7    4.80    2.90
  -5   7   7    6.20    2.60
   4  -7  -7    3.00    2.10
   4  -7  -7    3.40    1.90
   4  -7  -7    1.20    2.20
  -4   7   7    4.80    2.50
  -4   7   7    4.10    2.30
  -4   7   7    1.10    2.30
   3  -7  -7    9.50    2.60
   3  -7  -7    5.50    2.10
   3  -7  -7    7.70    2.10
  -3   7   7    7.30    2.40
  -3   7   7    8.40    2.40
  -3   7   7    4.90    2.30
   2  -7  -7   53.89    4.20
   2  -7  -7   59.49    4.60
   2  -7  -7   55.29    4.20
  -2   7   7   58.49    5.00
  -2   7   7   60.79    4.80
  -2   7   7   63.89    4.90
  -2   7   7   61.89    4.80
   1  -7  -7   13.30    2.30
   1  -7  -7    8.70    2.20
  -1   7   7    8.30    2.30
  -1   7   7    6.30    2.30
  -1   7   7   12.20    2.70
  -1   7   7    5.30    2.10
   0  -7  -7   81.19    4.60
   0  -7  -7   89.79    4.80
   0   7   7   82.59    5.60
   0   7   7   84.19    5.90
   0   7   7   78.19    5.30
   0   7   7   79.29    4.80
   0   7   7   85.09    4.90
  -1  -7  -7   15.80    2.30
  -1  -7  -7   20.20    2.60
   1   7   7   15.30    2.90
   1   7   7   19.70    2.70
   1   7   7   21.90    3.40
   1   7   7   24.80    3.60
   1   7   7   20.80    2.70
  -2  -7  -7   11.20    2.30
  -2  -7  -7    8.20    1.90
   2   7   7    7.70    2.70
   2   7   7   11.10    3.00
   2   7   7   11.70    2.40
   2   7   7   13.30    2.70
   2   7   7    9.80    2.40
  -3  -7  -7    7.10    2.00
  -3  -7  -7    9.00    2.50
   3   7   7    5.60    2.70
   3   7   7    9.60    2.40
   3   7   7   11.60    2.50
   3   7   7    9.10    2.50
  -4  -7  -7    1.90    2.40
  -4  -7  -7    2.30    1.80
   4   7   7    1.10    2.50
   4   7   7    0.20    2.30
   4   7   7    0.70    2.10
  -5  -7  -7    3.00    2.20
  -5  -7  -7   -1.00    2.40
   5   7   7    1.80    2.50
   7  -8  -7   -5.10    2.90
  -7   8   7   -4.30    2.60
  -7   8   7   -1.50    3.10
   6  -8  -7    6.20    5.20
   6  -8  -7    3.20    2.80
  -6   8   7    7.90    3.50
  -6   8   7    5.60    3.00
   5  -8  -7    0.20    2.60
   5  -8  -7    3.70    2.70
  -5   8   7    5.90    2.90
  -5   8   7    4.80    2.90
   4  -8  -7   -1.40    1.90
   4  -8  -7   -1.30    2.20
   4  -8  -7    1.80    2.30
  -4   8   7    5.00    2.70
  -4   8   7   -0.90    2.30
   3  -8  -7    1.00    1.90
   3  -8  -7    0.40    2.10
   3  -8  -7    0.60    2.30
  -3   8   7    1.30    2.20
  -3   8   7    2.20    2.40
   2  -8  -7   16.00    2.70
   2  -8  -7   18.70    3.00
  -2   8   7   19.10    3.20
  -2   8   7   17.40    3.20
  -2   8   7   23.40    3.60
   1  -8  -7    2.30    2.00
   1  -8  -7    2.00    1.90
  -1   8   7    3.20    2.20
  -1   8   7    0.00    2.10
  -1   8   7    0.80    2.20
   0  -8  -7   12.30    2.60
   0  -8  -7    9.50    2.50
   0   8   7   11.10    2.60
   0   8   7   13.00    2.80
   0   8   7   11.00    2.90
   0   8   7    8.30    2.90
  -1  -8  -7   19.40    2.90
  -1  -8  -7   25.90    3.00
   1   8   7   29.00    4.20
   1   8   7   26.90    3.30
   1   8   7   27.60    3.80
   1   8   7   27.70    3.50
  -2  -8  -7    1.40    2.10
  -2  -8  -7    3.30    2.00
   2   8   7    2.80    2.20
   2   8   7    8.90    3.00
   2   8   7    3.70    2.30
   2   8   7    2.30    2.30
  -3  -8  -7   10.10    2.80
  -3  -8  -7   15.20    2.70
   3   8   7   15.30    2.90
   3   8   7   13.00    3.10
   3   8   7   20.20    3.80
  -4  -8  -7    3.10    2.70
  -4  -8  -7   -0.60    2.10
   4   8   7   -1.50    2.40
   4   8   7   -1.80    2.30
   6  -9  -7    4.60    3.40
  -6   9   7   10.00    3.50
  -6   9   7    0.30    3.40
   5  -9  -7   10.00    3.30
   5  -9  -7   14.30    3.80
  -5   9   7   12.90    3.90
  -5   9   7   16.90    3.80
   4  -9  -7   -0.60    2.50
   4  -9  -7    0.20    2.40
  -4   9   7    6.40    3.10
  -4   9   7    0.40    2.60
   3  -9  -7   18.70    3.50
  -3   9   7   13.00    3.50
  -3   9   7   13.10    3.30
   2  -9  -7    2.70    2.30
   2  -9  -7    0.60    2.30
  -2   9   7   -1.70    2.40
  -2   9   7   -0.60    2.40
   1  -9  -7    0.20    2.10
   1  -9  -7   -2.20    1.80
  -1   9   7    0.00    2.40
  -1   9   7   -3.50    2.30
   0  -9  -7    1.60    2.10
   0  -9  -7    4.70    2.40
   0   9   7    1.60    2.40
   0   9   7   -1.80    2.30
   0   9   7    4.00    2.70
  -1  -9  -7    6.30    2.40
  -1  -9  -7    5.00    2.40
   1   9   7    6.70    2.90
   1   9   7    2.60    2.70
   1   9   7    6.50    2.70
  -2  -9  -7    2.30    2.20
  -2  -9  -7   -4.70    2.00
   2   9   7   -1.80    2.50
   2   9   7    2.80    2.60
  -3  -9  -7    8.70    3.00
   4 -10  -7   -4.10    2.80
  -4  10   7   -1.80    2.90
  -4  10   7   -2.60    2.80
   3 -10  -7   17.50    3.80
  -3  10   7   13.90    3.90
  -3  10   7   25.20    4.40
   2 -10  -7    7.20    3.00
  -2  10   7    4.50    3.20
  -2  10   7    0.30    3.10
   1 -10  -7    7.10    2.90
  -1  10   7    4.50    3.10
  -1  10   7    7.90    3.20
  -1  10   7    7.50    3.50
   0 -10  -7    0.30    2.60
   0  10   7    2.10    2.90
   0  10   7   -3.20    2.50
   0  10   7   -2.00    2.70
   1  11  -8    5.20    3.30
   0  11  -8    3.10    3.20
   0 -11   8    3.30    3.30
  -1  11  -8   17.70    3.80
   4  10  -8    8.20    3.40
   4  10  -8   14.20    3.90
  -4 -10   8   14.20    4.30
   3  10  -8   -1.30    3.30
  -3 -10   8    4.00    3.30
  -3 -10   8    0.90    3.00
   2  10  -8   13.60    3.50
  -2 -10   8   13.00    3.70
  -2 -10   8   12.30    3.60
   1  10  -8    0.20    2.70
  -1 -10   8    3.40    3.00
  -1 -10   8   -4.60    2.80
   0  10  -8    3.50    2.80
   0  10  -8    3.50    3.30
   0 -10   8    2.60    3.00
   0 -10   8    7.30    3.20
  -1  10  -8   -1.00    2.50
   1 -10   8   -2.70    2.90
  -2  10  -8    2.20    2.60
   2 -10   8    0.90    3.30
  -3  10  -8    3.80    2.90
   3 -10   8    1.20    3.40
  -4  10  -8    6.10    3.10
   4 -10   8    9.40    4.50
   5   9  -8   17.00    4.20
   5   9  -8   14.70    3.70
  -5  -9   8    8.50    4.00
  -5  -9   8   17.50    4.30
   4   9  -8   -2.20    2.80
  -4  -9   8    1.80    3.10
  -4  -9   8    4.60    3.40
   3   9  -8   12.90    3.40
  -3  -9   8    6.80    3.30
  -3  -9   8    9.30    3.40
   2   9  -8    5.90    2.80
  -2  -9   8   10.80    3.40
  -2  -9   8    9.90    3.20
   1   9  -8    3.10    3.60
   1   9  -8    5.90    2.80
  -1  -9   8    1.70    2.80
  -1  -9   8    3.30    2.70
   0   9  -8   16.60    3.10
   0   9  -8   12.80    3.60
   0   9  -8   13.20    3.10
   0  -9   8   13.10    3.40
   0  -9   8   12.40    3.20
  -1   9  -8   36.90    5.10
  -1   9  -8   33.70    4.20
  -1   9  -8   32.10    3.80
   1  -9   8   36.00    4.70
  -2   9  -8    4.40    2.50
  -2   9  -8    1.30    2.50
   2  -9   8    4.10    3.00
  -3   9  -8   19.90    3.60
  -3   9  -8   10.80    3.00
   3  -9   8   15.50    3.90
  -4   9  -8   -1.10    2.60
  -4   9  -8    2.20    2.60
   4  -9   8   -0.90    3.10
  -5   9  -8   -2.10    2.70
   5  -9   8    1.70    3.50
   6   8  -8    2.40    2.90
   6   8  -8   -4.50    3.10
  -6  -8   8    5.70    3.70
  -6  -8   8   -1.60    3.00
   5   8  -8    8.40    3.10
   5   8  -8    3.60    3.10
  -5  -8   8    4.90    3.40
  -5  -8   8   14.80    3.90
   4   8  -8    5.00    3.10
  -4  -8   8    3.70    3.10
  -4  -8   8    5.00    3.10
   3   8  -8    3.90    2.50
   3   8  -8    2.20    2.50
  -3  -8   8    0.10    2.30
  -3  -8   8    4.30    2.90
   2   8  -8   15.20    3.10
   2   8  -8   14.80    3.00
  -2  -8   8   17.10    3.40
  -2  -8   8   13.00    3.20
   1   8  -8    3.40    2.20
   1   8  -8    5.50    2.70
  -1  -8   8    5.50    2.40
  -1  -8   8    3.20    2.50
   0   8  -8   15.20    2.90
   0   8  -8   19.90    2.90
   0  -8   8   17.90    3.30
   0  -8   8   15.20    3.20
  -1   8  -8   14.50    3.40
  -1   8  -8   15.50    2.70
  -1   8  -8   20.50    3.30
   1  -8   8   15.60    3.30
  -2   8  -8    3.30    2.30
  -2   8  -8    2.00    2.00
   2  -8   8    1.10    2.60
  -3   8  -8    6.10    2.50
  -3   8  -8   15.80    3.20
   3  -8   8    2.20    2.80
  -4   8  -8    8.20    2.60
  -4   8  -8   13.40    3.10
   4  -8   8    8.00    3.40
  -5   8  -8    2.20    2.50
  -5   8  -8    1.10    2.40
   5  -8   8    0.00    3.10
  -6   8  -8    2.80    2.60
  -6   8  -8    3.10    2.70
   6  -8   8   -2.60    3.00
   7   7  -8    6.00    3.20
   7   7  -8    6.70    3.70
  -7  -7   8    6.20    3.80
  -7  -7   8    8.70    4.00
   6   7  -8    2.10    3.10
   6   7  -8    6.20    2.80
  -6  -7   8   -0.60    2.90
  -6  -7   8    5.30    3.40
   5   7  -8   17.00    3.50
  -5  -7   8   16.50    3.80
  -5  -7   8   21.20    4.00
   4   7  -8    2.80    2.60
   4   7  -8    4.00    2.60
  -4  -7   8    0.90    2.30
  -4  -7   8    0.70    2.70
   3   7  -8   23.80    3.90
   3   7  -8   19.30    3.20
  -3  -7   8   25.70    3.80
  -3  -7   8   11.40    3.00
   2   7  -8   30.60    3.40
   2   7  -8   22.90    3.30
  -2  -7   8   26.70    3.70
  -2  -7   8   26.80    3.50
   1   7  -8    7.90    2.20
   1   7  -8    5.90    2.30
  -1  -7   8    6.90    2.30
  -1  -7   8    5.20    2.40
  -1  -7   8    9.90    2.70
   0   7  -8    6.60    1.90
   0   7  -8    8.10    2.50
   0  -7   8   11.40    2.70
   0  -7   8    9.30    2.50
   0  -7   8   15.80    3.00
  -1   7  -8    1.80    1.80
  -1   7  -8    2.90    1.80
  -1   7  -8    3.10    2.20
   1  -7   8    2.30    2.20
   1  -7   8    1.30    2.00
   1  -7   8    0.80    2.00
  -2   7  -8    0.00    2.30
  -2   7  -8   -0.90    1.70
  -2   7  -8   -0.30    1.70
   2  -7   8    0.60    2.20
   2  -7   8    1.60    2.30
  -3   7  -8    2.70    2.20
  -3   7  -8    1.50    1.80
   3  -7   8    3.40    2.50
   3  -7   8    1.00    2.30
  -4   7  -8    5.40    2.10
  -4   7  -8    9.50    2.70
   4  -7   8   11.60    3.30
  -5   7  -8    4.20    2.60
  -5   7  -8    1.90    2.10
   5  -7   8    0.80    2.90
  -6   7  -8   12.40    3.30
  -6   7  -8   13.50    2.80
   6  -7   8   11.50    3.80
  -7   7  -8   -0.60    3.50
  -7   7  -8   -1.90    2.50
   7  -7   8    2.20    3.60
   8   6  -8    2.30    3.60
   8   6  -8    0.60    2.80
   8   6  -8   -0.80    3.70
  -8  -6   8    0.50    3.30
  -8  -6   8    1.80    3.40
   7   6  -8   -3.60    2.80
   7   6  -8    0.20    2.40
  -7  -6   8    1.90    2.90
  -7  -6   8    2.30    3.10
   6   6  -8    0.10    2.70
  -6  -6   8    0.40    2.80
  -6  -6   8    2.10    2.90
   5   6  -8    2.30    2.30
   5   6  -8    5.00    2.90
  -5  -6   8    5.50    2.90
  -5  -6   8    4.40    2.60
   4   6  -8   11.60    3.00
   4   6  -8   17.60    3.30
   4   6  -8   11.10    2.70
  -4  -6   8   15.00    2.90
  -4  -6   8   11.50    2.90
   3   6  -8    2.80    2.20
   3   6  -8    1.20    1.30
   3   6  -8    6.00    2.00
   3   6  -8    2.40    2.10
  -3  -6   8    0.80    2.00
  -3  -6   8    6.60    2.40
  -3  -6   8    1.10    2.00
   2   6  -8   61.79    3.80
   2   6  -8   68.09    4.30
   2   6  -8   77.59    5.10
   2   6  -8   75.79    5.10
  -2  -6   8   63.49    5.30
  -2  -6   8   68.29    4.70
  -2  -6   8   74.69    4.70
   1   6  -8   32.40    4.00
   1   6  -8   40.30    3.00
   1   6  -8   37.80    3.20
   1   6  -8   44.90    4.10
  -1  -6   8   42.20    4.10
  -1  -6   8   34.80    3.40
  -1  -6   8   38.90    3.80
  -1  -6   8   37.10    3.90
   0   6  -8  118.39    5.60
   0   6  -8  104.99    6.10
   0  -6   8  123.09    6.30
   0  -6   8  128.79    6.20
   0  -6   8  135.19    6.70
   0  -6   8  125.19    6.80
  -1   6  -8   67.09    4.60
  -1   6  -8   74.49    5.00
  -1   6  -8   75.79    4.20
   1  -6   8   80.79    5.30
   1  -6   8   80.79    5.30
   1  -6   8   80.29    5.00
  -2   6  -8    5.80    2.40
  -2   6  -8    8.10    1.90
  -2   6  -8    9.10    2.30
   2  -6   8    6.90    2.40
   2  -6   8    8.80    2.50
   2  -6   8   10.00    2.40
  -3   6  -8   25.70    2.80
  -3   6  -8   27.80    3.30
   3  -6   8   25.20    3.60
   3  -6   8   33.00    4.00
   3  -6   8   26.30    3.50
  -4   6  -8   12.80    2.60
  -4   6  -8   11.70    2.20
   4  -6   8   14.70    3.00
   4  -6   8   12.90    2.90
  -5   6  -8   -3.40    1.50
  -5   6  -8   -1.00    1.90
   5  -6   8   -1.00    2.20
   5  -6   8   -0.20    2.30
  -6   6  -8   19.30    3.30
  -6   6  -8   14.90    2.70
   6  -6   8   11.60    3.50
  -7   6  -8    6.10    2.50
  -7   6  -8    4.80    2.50
   7  -6   8    8.00    3.60
   8   5  -8    3.60    3.80
   8   5  -8    3.80    2.90
   8   5  -8    4.30    3.40
  -8  -5   8    4.60    3.40
  -8  -5   8   12.70    4.00
   7   5  -8    0.80    3.20
   7   5  -8   -0.30    2.20
   7   5  -8    0.70    2.90
  -7  -5   8   -2.30    2.60
  -7  -5   8    2.70    3.00
   6   5  -8   14.80    4.20
   6   5  -8   22.70    3.90
   6   5  -8   13.50    3.10
  -6  -5   8   15.40    3.50
  -6  -5   8   23.20    3.80
   5   5  -8   11.00    3.30
   5   5  -8    5.60    2.60
   5   5  -8    4.80    2.40
   5   5  -8    6.00    2.80
  -5  -5   8    6.70    2.60
  -5  -5   8    5.80    2.30
   4   5  -8   -1.10    2.10
   4   5  -8    0.20    1.20
   4   5  -8    2.40    2.00
   4   5  -8   -1.00    1.70
  -4  -5   8    0.00    2.00
  -4  -5   8    1.30    2.10
  -4  -5   8    3.30    2.10
   3   5  -8    2.30    1.30
   3   5  -8   -0.70    1.50
   3   5  -8    0.60    1.80
   3   5  -8    1.90    2.00
  -3  -5   8    0.80    1.90
  -3  -5   8    2.90    1.80
  -3  -5   8    0.40    1.90
  -3  -5   8    1.60    1.70
   2   5  -8  166.78    7.00
   2   5  -8  169.08    7.80
   2   5  -8  161.88    7.70
   2   5  -8  168.28    6.60
  -2  -5   8  167.98    7.40
  -2  -5   8  164.18    7.60
  -2  -5   8  164.38    8.20
  -2  -5   8  171.88    8.00
   1   5  -8   -1.40    1.20
   1   5  -8    2.00    1.20
   1   5  -8   -0.20    1.40
   1   5  -8    1.80    1.70
   1   5  -8    0.40    1.60
   1   5  -8    1.80    1.00
  -1  -5   8    2.90    1.60
  -1  -5   8    0.60    1.40
  -1  -5   8    0.80    1.50
  -1  -5   8    3.40    1.80
   0   5  -8  236.38    9.70
   0   5  -8  243.58    9.00
   0   5  -8  224.48    8.60
   0   5  -8  242.28   10.70
   0   5  -8  246.38    9.00
   0   5  -8  230.28    9.50
   0  -5   8  248.28    9.60
   0  -5   8  238.48    9.40
   0  -5   8  241.78    9.90
   0  -5   8  244.78   10.10
  -1   5  -8   58.09    3.30
  -1   5  -8   60.09    4.80
  -1   5  -8   56.09    3.30
  -1   5  -8   56.49    4.20
  -1   5  -8   55.79    3.80
   1  -5   8   51.39    4.20
   1  -5   8   63.99    4.20
   1  -5   8   58.89    4.00
  -2   5  -8   84.79    5.80
  -2   5  -8   74.59    4.80
  -2   5  -8   74.79    4.00
  -2   5  -8   80.29    4.50
  -2   5  -8   77.69    4.00
   2  -5   8   75.49    4.90
   2  -5   8   74.49    5.00
   2  -5   8   70.49    4.50
  -3   5  -8   53.79    3.80
  -3   5  -8   56.09    3.30
  -3   5  -8   46.40    3.10
   3  -5   8   58.49    4.20
   3  -5   8   47.30    4.30
   3  -5   8   43.60    4.00
  -4   5  -8   -1.80    1.50
  -4   5  -8    0.40    1.30
   4  -5   8   -2.40    1.70
   4  -5   8    0.00    1.70
   4  -5   8    1.00    1.90
  -5   5  -8    4.90    2.00
  -5   5  -8    5.90    1.80
   5  -5   8    3.90    2.10
   5  -5   8    3.00    2.40
  -6   5  -8   11.20    2.30
  -6   5  -8   15.80    2.90
   6  -5   8   14.50    3.40
   6  -5   8    8.40    2.70
  -7   5  -8   -1.10    2.10
  -7   5  -8    2.40    2.10
   7  -5   8   -0.10    2.70
   9   4  -8   -2.50    2.60
   9   4  -8   -0.30    3.10
   9   4  -8    2.90    3.80
  -9  -4   8    9.40    3.80
  -9  -4   8   -0.70    2.90
   8   4  -8   15.30    3.40
   8   4  -8    9.50    3.40
   8   4  -8   15.20    4.60
  -8  -4   8   13.00    3.60
  -8  -4   8   18.90    3.80
   7   4  -8    1.70    2.60
   7   4  -8    4.10    3.30
  -7  -4   8    1.30    2.50
  -7  -4   8    3.10    2.70
   6   4  -8   22.90    3.30
   6   4  -8   17.60    3.50
   6   4  -8   21.90    4.00
  -6  -4   8   18.10    3.10
  -6  -4   8   21.60    3.50
   5   4  -8   51.39    5.20
   5   4  -8   46.50    4.20
   5   4  -8   39.10    4.20
   5   4  -8   41.50    3.00
  -5  -4   8   47.20    5.30
  -5  -4   8   38.80    4.10
  -5  -4   8   46.90    4.30
   4   4  -8    2.10    1.60
   4   4  -8    1.60    1.10
   4   4  -8   -0.10    1.60
   4   4  -8    2.70    2.10
   4   4  -8    2.40    1.80
  -4  -4   8    0.50    1.80
  -4  -4   8    2.50    1.70
  -4  -4   8   -0.50    1.70
  -4  -4   8    1.30    1.80
   3   4  -8   51.49    4.20
   3   4  -8   52.69    2.90
   3   4  -8   48.40    4.00
   3   4  -8   53.49    3.50
  -3  -4   8   45.80    3.80
  -3  -4   8   56.59    4.00
  -3  -4   8   50.79    4.60
  -3  -4   8   50.99    3.80
   2   4  -8   54.89    3.30
   2   4  -8   56.29    3.80
   2   4  -8   55.59    3.80
   2   4  -8   54.49    3.10
   2   4  -8   53.89    2.80
  -2  -4   8   51.59    3.60
  -2  -4   8   49.60    4.10
  -2  -4   8   56.89    3.90
  -2  -4   8   57.19    3.70
   1   4  -8    6.60    1.40
   1   4  -8    6.90    1.70
   1   4  -8    6.80    1.10
   1   4  -8    6.90    1.30
   1   4  -8   10.70    2.30
   1   4  -8    5.40    1.50
  -1  -4   8   10.10    2.00
  -1  -4   8    7.70    1.70
  -1  -4   8    7.90    1.90
  -1  -4   8    6.90    1.60
  -1  -4   8    4.10    1.60
   0   4  -8  148.79    5.80
   0   4  -8  151.78    7.40
   0   4  -8  144.99    5.80
   0   4  -8  151.78    5.60
   0   4  -8  146.79    6.30
   0   4  -8  137.69    6.30
   0  -4   8  150.78    6.30
   0  -4   8  133.59    6.30
   0  -4   8  147.99    6.70
   0  -4   8  144.89    6.20
   0  -4   8  149.79    6.60
  -1   4  -8   18.50    2.80
  -1   4  -8   22.40    1.90
  -1   4  -8   24.40    2.40
  -1   4  -8   22.10    2.40
  -1   4  -8   25.00    2.00
  -1   4  -8   19.70    2.50
   1  -4   8   19.40    2.50
   1  -4   8   20.60    3.20
   1  -4   8   20.00    2.50
   1  -4   8   19.50    2.30
  -2   4  -8   25.70    2.40
  -2   4  -8   23.70    3.40
  -2   4  -8   34.90    3.00
  -2   4  -8   25.30    2.00
  -2   4  -8   26.40    2.10
  -2   4  -8   26.40    2.60
   2  -4   8   24.20    2.60
   2  -4   8   21.90    2.60
   2  -4   8   27.60    2.70
  -3   4  -8    6.30    1.70
  -3   4  -8    4.00    1.40
  -3   4  -8    4.60    1.20
  -3   4  -8    4.40    1.20
   3  -4   8    3.10    1.60
   3  -4   8    4.50    1.70
   3  -4   8    2.20    1.50
  -4   4  -8    0.10    1.10
  -4   4  -8   -0.60    1.20
  -4   4  -8    0.10    1.30
   4  -4   8    0.40    1.50
   4  -4   8    1.40    1.60
   4  -4   8    0.30    1.60
  -5   4  -8   -0.40    1.40
  -5   4  -8    0.50    1.50
   5  -4   8    0.30    1.80
   5  -4   8    1.50    1.90
   5  -4   8    0.60    1.80
  -6   4  -8    0.70    1.60
  -6   4  -8    2.00    1.80
   6  -4   8    0.70    2.00
   6  -4   8    1.00    2.20
  -7   4  -8   -0.90    1.80
  -7   4  -8   -1.50    1.80
   7  -4   8    2.30    2.60
  -8   4  -8    1.00    2.20
   8  -4   8   -0.30    2.90
   9   3  -8    0.70    3.30
   9   3  -8   -4.00    2.80
   9   3  -8   -2.40    2.30
  -9  -3   8   -2.10    3.00
  -9  -3   8    1.20    3.30
   8   3  -8   13.60    3.40
   8   3  -8   25.90    4.60
  -8  -3   8   10.90    3.10
  -8  -3   8   11.10    3.50
   7   3  -8    1.30    2.50
   7   3  -8   -2.50    2.50
   7   3  -8    0.40    2.30
  -7  -3   8   -0.30    2.40
  -7  -3   8   -3.90    2.20
   6   3  -8   55.29    5.50
   6   3  -8   53.19    4.50
   6   3  -8   54.39    5.10
   6   3  -8   48.00    5.00
  -6  -3   8   57.19    4.80
  -6  -3   8   55.59    4.90
   5   3  -8   25.90    3.60
   5   3  -8   23.50    2.30
   5   3  -8   21.30    2.70
   5   3  -8   20.70    3.30
  -5  -3   8   14.10    2.80
  -5  -3   8   25.30    2.30
  -5  -3   8   18.10    3.00
  -5  -3   8   22.70    3.00
  -5  -3   8   25.20    3.10
   4   3  -8   53.19    3.50
   4   3  -8   49.60    2.90
   4   3  -8   61.79    4.90
   4   3  -8   39.70    3.80
  -4  -3   8   47.90    3.60
  -4  -3   8   45.40    3.80
  -4  -3   8   52.89    4.40
  -4  -3   8   45.60    3.00
  -4  -3   8   54.49    4.30
   3   3  -8   84.69    4.80
   3   3  -8   76.09    3.90
   3   3  -8   72.09    3.50
   3   3  -8   69.89    4.40
   3   3  -8   80.29    4.40
  -3  -3   8   77.29    4.20
  -3  -3   8   72.49    4.80
  -3  -3   8   78.79    4.40
  -3  -3   8   77.29    3.90
  -3  -3   8   77.49    4.30
   2   3  -8    7.80    1.40
   2   3  -8   11.90    1.40
   2   3  -8    8.80    1.70
   2   3  -8    8.40    1.70
   2   3  -8    5.80    1.00
  -2  -3   8    7.60    1.60
  -2  -3   8   11.30    1.80
  -2  -3   8    7.00    1.70
  -2  -3   8   10.00    1.80
  -2  -3   8   11.40    1.80
  -2  -3   8    7.20    1.80
   1   3  -8   56.69    2.80
   1   3  -8   59.29    3.30
   1   3  -8   53.19    3.20
   1   3  -8   55.09    2.50
   1   3  -8   57.09    2.70
   1   3  -8   60.19    2.80
  -1  -3   8   46.30    3.40
  -1  -3   8   53.49    3.30
  -1  -3   8   58.49    3.30
  -1  -3   8   56.89    3.40
  -1  -3   8   53.29    3.10
   0   3  -8   26.60    3.00
   0   3  -8   19.90    1.40
   0   3  -8   21.40    2.00
   0   3  -8   22.40    1.70
   0   3  -8   21.60    1.70
   0   3  -8   24.80    2.20
   0   3  -8   24.30    1.70
   0  -3   8   20.60    1.90
   0  -3   8   21.30    1.90
   0  -3   8   14.70    1.90
   0  -3   8   21.00    2.10
   0  -3   8   21.80    2.20
  -1   3  -8   24.20    1.50
  -1   3  -8   23.50    2.90
  -1   3  -8   24.50    2.20
  -1   3  -8   21.80    1.50
  -1   3  -8   23.10    1.70
  -1   3  -8   24.00    2.20
  -1   3  -8   23.60    2.00
  -1   3  -8   18.10    1.50
   1  -3   8   20.70    2.10
   1  -3   8   23.30    2.00
   1  -3   8   22.30    2.20
   1  -3   8   21.10    2.00
  -2   3  -8    3.50    0.90
  -2   3  -8    3.60    1.80
  -2   3  -8    2.90    0.90
  -2   3  -8    4.20    1.10
  -2   3  -8    5.00    1.40
   2  -3   8    4.30    1.30
   2  -3   8    6.00    1.30
   2  -3   8    3.60    1.10
   2  -3   8    3.50    1.10
   2  -3   8    2.90    1.20
  -3   3  -8   79.79    3.90
  -3   3  -8   77.69    4.20
  -3   3  -8   82.09    3.60
  -3   3  -8   83.49    3.60
   3  -3   8   92.39    4.20
   3  -3   8   91.29    4.60
   3  -3   8   72.89    4.20
   3  -3   8   78.59    4.00
  -4   3  -8    6.40    1.50
  -4   3  -8    2.70    1.50
  -4   3  -8    5.20    1.20
  -4   3  -8    6.40    1.40
   4  -3   8    3.80    1.90
   4  -3   8    3.10    1.60
   4  -3   8    3.70    1.60
   4  -3   8    6.00    1.70
  -5   3  -8   17.80    2.40
  -5   3  -8   18.90    2.10
  -5   3  -8   17.30    2.10
   5  -3   8   16.40    2.60
   5  -3   8   19.30    3.00
   5  -3   8   13.10    2.40
   5  -3   8   19.50    2.60
  -6   3  -8    9.80    2.20
  -6   3  -8   10.30    2.00
   6  -3   8   13.60    2.70
   6  -3   8   10.80    2.60
   6  -3   8   10.60    2.60
  -7   3  -8    1.80    2.00
  -7   3  -8    2.70    1.90
   7  -3   8    2.60    2.40
   7  -3   8    1.10    2.30
  -8   3  -8    0.80    2.10
   8  -3   8   -2.30    2.60
   9   2  -8    4.50    3.40
   9   2  -8   -2.60    2.70
   9   2  -8   -1.30    2.10
  -9  -2   8   -1.80    2.80
  -9  -2   8    5.70    3.10
   8   2  -8   20.60    4.10
   8   2  -8   13.20    3.20
  -8  -2   8   12.00    3.20
  -8  -2   8   12.20    3.20
   7   2  -8   -3.10    2.00
   7   2  -8   -0.70    2.10
   7   2  -8    1.80    2.30
  -7  -2   8    1.80    2.30
  -7  -2   8    1.50    2.30
   6   2  -8   42.90    3.00
   6   2  -8   38.90    4.50
   6   2  -8   39.00    3.80
   6   2  -8   40.20    4.10
  -6  -2   8   42.50    4.20
  -6  -2   8   44.80    4.10
  -6  -2   8   40.60    3.00
  -6  -2   8   35.20    4.10
   5   2  -8   22.00    2.70
   5   2  -8   27.20    3.20
   5   2  -8   21.10    3.20
   5   2  -8   22.80    2.20
  -5  -2   8   21.20    2.90
  -5  -2   8   26.70    2.50
  -5  -2   8   22.80    2.90
  -5  -2   8   25.90    3.40
  -5  -2   8   34.00    3.20
   4   2  -8    5.20    1.50
   4   2  -8    3.80    1.20
   4   2  -8    4.60    1.40
   4   2  -8    4.30    1.70
   4   2  -8    7.60    2.00
  -4  -2   8    5.20    1.50
  -4  -2   8    1.60    1.40
  -4  -2   8    3.00    1.60
  -4  -2   8    4.40    1.70
  -4  -2   8    4.40    1.70
  -4  -2   8    5.30    1.80
   3   2  -8   61.49    2.90
   3   2  -8   64.89    3.30
   3   2  -8   67.69    4.10
   3   2  -8   60.79    3.80
   3   2  -8   64.49    3.60
  -3  -2   8   61.79    3.70
  -3  -2   8   62.99    3.60
  -3  -2   8   56.39    4.00
  -3  -2   8   56.89    3.40
  -3  -2   8   58.09    3.50
  -3  -2   8   68.49    3.80
   2   2  -8   39.30    2.60
   2   2  -8   38.30    2.20
   2   2  -8   38.20    2.10
   2   2  -8   39.10    2.50
   2   2  -8   39.50    2.90
   2   2  -8   40.00    2.70
   2   2  -8   37.70    2.30
   2   2  -8   38.00    2.00
  -2  -2   8   44.40    2.70
  -2  -2   8   38.60    2.50
  -2  -2   8   42.40    2.80
  -2  -2   8   40.80    3.00
  -2  -2   8   34.80    2.60
  -2  -2   8   36.20    2.60
   1   2  -8   11.50    1.00
   1   2  -8   11.40    1.10
   1   2  -8    8.00    1.30
   1   2  -8   10.30    1.10
   1   2  -8   10.60    1.30
   1   2  -8   12.10    1.20
   1   2  -8   10.70    1.50
  -1  -2   8   13.20    1.50
  -1  -2   8   10.90    1.90
  -1  -2   8   12.90    1.50
  -1  -2   8   13.10    1.40
  -1  -2   8    9.20    1.40
  -1  -2   8    7.90    1.40
   0   2  -8  211.88    7.20
   0   2  -8  219.18    7.20
   0   2  -8  217.18    7.10
   0   2  -8  210.98    7.80
   0   2  -8  226.78    9.10
   0   2  -8  207.98    7.70
   0  -2   8  210.58    8.70
   0  -2   8  225.18    8.00
   0  -2   8  229.28    7.50
   0  -2   8  212.48    7.50
   0  -2   8  209.98    8.00
  -1   2  -8    4.10    1.50
  -1   2  -8    5.80    1.00
  -1   2  -8    4.90    0.50
  -1   2  -8    4.70    0.80
  -1   2  -8    5.70    0.60
  -1   2  -8    5.30    1.10
  -1   2  -8    5.90    0.60
   1  -2   8    2.80    0.90
   1  -2   8    6.10    1.20
   1  -2   8    5.90    0.70
   1  -2   8    5.60    0.70
  -2   2  -8   64.09    3.10
  -2   2  -8   60.59    4.10
  -2   2  -8   61.19    2.50
  -2   2  -8   65.29    2.50
  -2   2  -8   69.09    2.60
  -2   2  -8   70.19    2.60
  -2   2  -8   69.19    3.00
   2  -2   8   59.19    2.60
   2  -2   8   66.89    2.60
   2  -2   8   61.99    3.20
   2  -2   8   62.99    3.40
  -3   2  -8    1.30    0.70
  -3   2  -8    0.10    0.90
  -3   2  -8   -0.10    0.70
  -3   2  -8    1.00    1.00
   3  -2   8    1.10    1.00
   3  -2   8    0.80    0.90
   3  -2   8    0.20    0.80
   3  -2   8    0.30    1.00
  -4   2  -8    2.30    1.20
  -4   2  -8    3.00    1.00
  -4   2  -8    1.70    1.30
  -4   2  -8    1.00    1.00
   4  -2   8    4.30    1.90
   4  -2   8    1.90    1.20
   4  -2   8    2.60    1.30
   4  -2   8    1.20    1.30
  -5   2  -8    5.40    1.40
  -5   2  -8    6.10    1.50
  -5   2  -8    6.00    1.70
   5  -2   8    4.40    2.00
   5  -2   8    4.80    1.80
   5  -2   8    4.20    1.70
   5  -2   8    5.60    1.70
  -6   2  -8   10.90    2.20
  -6   2  -8    4.70    1.70
   6  -2   8    7.10    2.40
   6  -2   8    9.50    2.30
   6  -2   8    7.70    2.30
  -7   2  -8    0.00    1.70
  -7   2  -8    1.10    1.90
   7  -2   8    0.30    2.20
   7  -2   8   -1.40    2.00
  -8   2  -8    4.20    2.30
   8  -2   8    5.30    2.80
  10   1  -8    5.20    3.40
  10   1  -8   -0.70    2.80
  10   1  -8    1.60    4.10
 -10  -1   8    1.30    3.10
   9   1  -8    5.20    3.60
   9   1  -8   12.10    3.60
  -9  -1   8    8.10    3.40
  -9  -1   8   10.60    3.40
   8   1  -8    4.10    2.90
   8   1  -8   -0.90    2.60
  -8  -1   8    3.90    2.80
  -8  -1   8    2.00    2.60
   7   1  -8    0.80    2.00
   7   1  -8   -1.10    2.30
   7   1  -8    0.20    2.20
  -7  -1   8    1.80    1.50
  -7  -1   8   -1.40    1.90
  -7  -1   8   -0.80    2.00
   6   1  -8   13.90    2.90
   6   1  -8   10.00    2.30
   6   1  -8    9.40    2.50
   6   1  -8    9.00    1.70
  -6  -1   8   12.30    2.00
  -6  -1   8   11.00    2.40
  -6  -1   8   11.80    2.40
  -6  -1   8   12.70    2.80
   5   1  -8   72.69    3.80
   5   1  -8   72.79    4.30
   5   1  -8   80.69    5.10
   5   1  -8   83.59    5.20
  -5  -1   8   83.69    5.20
  -5  -1   8   77.49    4.70
  -5  -1   8   82.19    4.30
  -5  -1   8   79.79    4.60
  -5  -1   8   86.39    4.90
   4   1  -8    4.20    1.30
   4   1  -8    6.70    1.50
   4   1  -8    4.60    1.10
   4   1  -8    6.60    1.90
   4   1  -8    6.60    1.80
  -4  -1   8    4.80    1.70
  -4  -1   8    7.30    1.70
  -4  -1   8    3.50    1.50
  -4  -1   8    7.30    1.70
  -4  -1   8    4.20    1.60
   3   1  -8  186.88    7.50
   3   1  -8  171.58    7.00
   3   1  -8  185.18    7.30
   3   1  -8  175.78    6.80
   3   1  -8  180.88    6.70
   3   1  -8  174.38    6.50
  -3  -1   8  190.58    7.30
  -3  -1   8  189.28    7.50
  -3  -1   8  182.18    7.00
  -3  -1   8  179.18    7.20
  -3  -1   8  182.28    7.60
  -3  -1   8  183.18    7.10
   2   1  -8  223.38    7.60
   2   1  -8  215.58    8.10
   2   1  -8  215.18    7.50
   2   1  -8  230.08    8.00
   2   1  -8  218.38    7.60
   2   1  -8  228.68    8.30
   2   1  -8  221.18    7.70
  -2  -1   8  221.48    8.10
  -2  -1   8  215.08    7.90
  -2  -1   8  223.78    7.90
  -2  -1   8  222.58    8.40
  -2  -1   8  207.98    8.60
  -2  -1   8  216.88    8.00
   1   1  -8   42.20    2.30
   1   1  -8   48.80    1.90
   1   1  -8   45.40    1.70
   1   1  -8   47.50    2.30
   1   1  -8   43.60    2.20
   1   1  -8   47.60    1.80
  -1  -1   8   46.90    3.20
  -1  -1   8   44.40    2.50
  -1  -1   8   46.20    2.00
  -1  -1   8   49.00    2.10
  -1  -1   8   48.30    2.40
  -1  -1   8   46.60    2.20
   0   1  -8  172.38    7.20
   0   1  -8  174.28    5.80
   0   1  -8  171.98    5.80
   0  -1   8  165.58    6.10
   0  -1   8  168.68    6.00
   0  -1   8  165.48    7.10
  -1   1  -8   84.59    4.40
  -1   1  -8   78.39    3.00
  -1   1  -8   86.99    3.00
   1  -1   8   78.19    3.20
   1  -1   8   82.39    4.40
   1  -1   8   82.89    3.30
  -2   1  -8   15.90    1.20
  -2   1  -8   17.00    1.30
  -2   1  -8   20.90    2.30
   2  -1   8   16.20    1.50
   2  -1   8   13.60    1.30
  -3   1  -8  161.08    6.00
  -3   1  -8  157.98    6.10
  -3   1  -8  160.48    5.50
  -3   1  -8  165.78    5.60
  -3   1  -8  172.88    5.60
   3  -1   8  155.88    5.50
   3  -1   8  150.78    6.30
   3  -1   8  154.68    6.20
  -4   1  -8    1.60    1.10
  -4   1  -8    2.80    1.00
  -4   1  -8    2.20    0.80
  -4   1  -8    0.80    1.20
   4  -1   8    2.40    1.00
   4  -1   8    2.00    1.20
   4  -1   8    2.10    1.20
  -5   1  -8   18.10    1.80
  -5   1  -8   15.40    2.00
  -5   1  -8   18.90    2.00
   5  -1   8   13.60    2.20
   5  -1   8   14.40    2.40
   5  -1   8   11.40    1.80
   5  -1   8   19.10    2.60
  -6   1  -8   11.00    2.00
  -6   1  -8    7.00    1.80
  -6   1  -8    8.90    2.10
   6  -1   8    8.30    2.20
   6  -1   8   12.10    2.70
   6  -1   8    9.60    2.20
  -7   1  -8   -1.00    1.70
  -7   1  -8    1.00    2.00
   7  -1   8   -0.70    1.90
   7  -1   8    1.00    2.10
  -8   1  -8    3.50    2.20
   8  -1   8    5.50    3.40
  10   0  -8   -1.50    3.00
  10   0  -8    1.70    3.80
  10   0  -8    2.30    3.00
 -10   0   8   -0.80    3.50
 -10   0   8    0.90    3.80
   9   0  -8   19.90    3.80
   9   0  -8   12.80    4.00
  -9   0   8   12.40    3.50
  -9   0   8   17.00    3.80
   8   0  -8   -0.30    2.40
   8   0  -8    6.50    2.90
   8   0  -8   -0.60    2.50
  -8   0   8    5.20    2.80
  -8   0   8    5.20    2.00
  -8   0   8    4.80    2.50
   7   0  -8   18.40    3.10
   7   0  -8   26.90    4.10
   7   0  -8   21.60    3.60
  -7   0   8   15.60    2.40
  -7   0   8   15.30    3.00
  -7   0   8   18.10    3.10
   6   0  -8    6.40    2.30
   6   0  -8    9.50    2.20
   6   0  -8   11.60    1.90
   6   0  -8    9.50    2.40
  -6   0   8    7.30    2.10
  -6   0   8    9.20    2.00
  -6   0   8   10.50    2.50
  -6   0   8    7.20    2.20
   5   0  -8    6.80    2.10
   5   0  -8    1.20    1.10
   5   0  -8    2.40    1.50
   5   0  -8    4.60    1.90
  -5   0   8    4.90    1.70
  -5   0   8    5.10    1.80
  -5   0   8    3.30    1.60
  -5   0   8    2.70    1.70
  -5   0   8    0.60    1.60
   4   0  -8   -0.50    1.00
   4   0  -8    0.80    1.10
   4   0  -8   -0.20    0.80
   4   0  -8   -0.50    1.20
   4   0  -8    0.80    1.50
  -4   0   8    1.00    1.60
  -4   0   8    1.40    1.30
  -4   0   8    0.70    1.30
  -4   0   8    0.30    1.20
  -4   0   8    2.70    1.40
  -4   0   8    1.30    1.30
   3   0  -8    5.40    1.00
   3   0  -8    4.40    1.20
   3   0  -8    5.00    0.90
   3   0  -8    4.40    1.10
   3   0  -8    5.80    1.20
   3   0  -8    7.80    1.60
  -3   0   8    6.30    1.70
  -3   0   8    5.20    1.30
  -3   0   8    4.70    1.40
  -3   0   8    4.60    1.20
  -3   0   8    7.30    1.30
  -3   0   8    5.50    1.30
   2   0  -8   26.50    2.20
   2   0  -8   23.30    1.70
   2   0  -8   28.00    1.90
   2   0  -8   25.70    1.40
   2   0  -8   24.10    1.40
   2   0  -8   25.90    1.50
   2   0  -8   26.50    1.50
  -2   0   8   25.40    1.70
  -2   0   8   26.40    1.90
  -2   0   8   27.60    1.70
  -2   0   8   28.30    2.80
  -2   0   8   24.20    1.70
  -2   0   8   25.00    2.10
   1   0  -8    1.20    0.50
   1   0  -8    2.10    0.60
   1   0  -8    1.40    0.70
  -1   0   8    2.00    0.70
  -1   0   8    0.70    1.20
  -1   0   8    0.80    0.70
   0   0  -8  166.28    6.90
   0   0   8  172.48    7.20
  -1   0  -8    6.40    1.40
   1   0   8    6.80    1.70
  -2   0  -8   82.79    2.80
  -2   0  -8   72.39    2.80
   2   0   8   83.09    3.10
   2   0   8   71.29    2.90
   2   0   8   84.39    4.60
  -3   0  -8    3.80    0.90
  -3   0  -8    4.60    0.50
  -3   0  -8    6.80    1.10
   3   0   8    3.90    1.00
   3   0   8    3.40    1.00
  -4   0  -8    0.20    0.90
  -4   0  -8    1.60    1.00
  -4   0  -8    1.60    0.70
  -4   0  -8    0.10    1.00
   4   0   8    0.50    0.70
   4   0   8    1.20    1.20
   4   0   8    0.20    1.10
  -5   0  -8    3.30    1.30
  -5   0  -8    6.80    1.60
  -5   0  -8    5.10    1.20
  -5   0  -8    6.00    1.40
   5   0   8    5.50    1.80
   5   0   8    6.40    1.40
   5   0   8    7.40    1.80
  -6   0  -8   -0.40    1.40
  -6   0  -8    1.40    1.60
  -6   0  -8   -1.30    1.10
   6   0   8   -0.90    1.70
   6   0   8   -2.10    1.40
   6   0   8   -0.60    1.60
  -7   0  -8   -1.90    1.70
  -7   0  -8    0.60    1.80
   7   0   8    0.00    3.40
   7   0   8   -0.90    2.00
   7   0   8   -0.70    2.00
  -8   0  -8   -2.80    1.90
   8   0   8    0.10    2.40
  10  -1  -8   -2.30    2.90
  10  -1  -8   -0.70    3.40
 -10   1   8    4.30    3.90
 -10   1   8    4.50    3.70
   9  -1  -8   10.60    3.40
   9  -1  -8    5.60    4.00
  -9   1   8    7.70    3.40
  -9   1   8    8.70    3.30
   8  -1  -8   18.30    3.50
   8  -1  -8   27.20    4.40
   8  -1  -8   18.40    3.50
  -8   1   8   15.50    3.60
  -8   1   8   16.90    2.90
  -8   1   8   15.30    3.30
   7  -1  -8   -0.90    2.00
   7  -1  -8    2.00    1.90
   7  -1  -8    0.50    2.20
   7  -1  -8    2.00    2.50
  -7   1   8    0.70    2.10
  -7   1   8    0.40    2.00
  -7   1   8    1.70    1.90
   6  -1  -8   92.29    5.80
   6  -1  -8   82.29    5.10
   6  -1  -8   87.89    5.90
   6  -1  -8   97.39    4.50
  -6   1   8   95.19    5.20
  -6   1   8   88.99    5.40
  -6   1   8   94.39    5.40
  -6   1   8   95.99    6.10
   5  -1  -8   33.70    3.60
   5  -1  -8   36.30    2.60
   5  -1  -8   38.00    3.30
   5  -1  -8   38.40    3.70
  -5   1   8   36.80    3.50
  -5   1   8   37.10    3.30
  -5   1   8   37.10    3.40
  -5   1   8   39.10    3.70
  -5   1   8   38.10    3.40
   4  -1  -8  132.99    6.20
   4  -1  -8  140.29    6.20
   4  -1  -8  134.29    5.60
   4  -1  -8  120.09    5.20
   4  -1  -8  128.89    5.70
  -4   1   8  133.09    5.80
  -4   1   8  144.59    6.10
  -4   1   8  129.99    5.90
  -4   1   8  129.99    6.10
  -4   1   8  128.39    6.20
   3  -1  -8   61.39    3.50
   3  -1  -8   63.69    3.20
   3  -1  -8   60.99    3.50
   3  -1  -8   59.99    2.80
   3  -1  -8   61.09    3.00
   3  -1  -8   60.89    2.70
  -3   1   8   61.99    3.60
  -3   1   8   58.59    3.80
  -3   1   8   65.19    3.20
  -3   1   8   61.49    3.40
  -3   1   8   65.19    3.20
  -3   1   8   55.89    3.20
   2  -1  -8    3.20    1.00
   2  -1  -8    3.20    0.60
   2  -1  -8    4.30    0.70
   2  -1  -8    3.30    1.00
   2  -1  -8    3.10    0.80
   2  -1  -8    3.50    0.70
  -2   1   8    4.00    1.00
  -2   1   8    5.10    0.90
  -2   1   8    3.50    1.00
  -2   1   8    4.20    0.90
  -2   1   8    2.80    1.50
  -2   1   8    2.80    0.80
   1  -1  -8    6.10    0.80
   1  -1  -8    6.40    0.90
   1  -1  -8    6.40    0.70
  -1   1   8    6.50    1.90
  -1   1   8    4.90    0.90
  -1   1   8    5.30    0.80
   0  -1  -8   47.80    2.70
   0   1   8   46.80    3.30
  -1  -1  -8   50.79    2.60
   1   1   8   49.70    3.40
  -2  -1  -8   57.99    2.30
   2   1   8   61.09    2.50
   2   1   8   68.19    4.10
   2   1   8   63.09    2.60
  -3  -1  -8   74.99    2.70
  -3  -1  -8   74.99    3.30
  -3  -1  -8   70.09    3.30
   3   1   8   75.29    3.40
   3   1   8   75.79    3.60
  -4  -1  -8   22.90    2.20
  -4  -1  -8   27.80    2.10
  -4  -1  -8   24.90    1.60
  -4  -1  -8   24.20    2.10
   4   1   8   24.10    2.50
   4   1   8   21.20    1.30
   4   1   8   27.80    1.70
   4   1   8   26.70    2.30
  -5  -1  -8    5.40    1.20
  -5  -1  -8    6.10    1.60
  -5  -1  -8    9.10    1.60
   5   1   8    7.20    1.70
   5   1   8    8.30    2.00
   5   1   8    5.40    1.70
  -6  -1  -8   -0.10    1.10
  -6  -1  -8    0.50    1.60
  -6  -1  -8    0.70    1.50
  -6  -1  -8    1.30    1.60
   6   1   8   -0.90    1.60
   6   1   8    0.50    1.90
   6   1   8   -1.20    1.70
  -7  -1  -8   -0.10    1.70
  -7  -1  -8    1.50    1.90
   7   1   8   -1.50    2.00
  -8  -1  -8   -1.70    2.10
   8   1   8   -1.40    2.40
  10  -2  -8    1.00    3.30
  10  -2  -8   -6.50    3.10
 -10   2   8   -4.40    3.00
   9  -2  -8    3.70    3.00
   9  -2  -8    0.80    3.20
  -9   2   8    5.30    3.30
  -9   2   8    5.50    3.40
   8  -2  -8    6.90    3.00
   8  -2  -8    8.40    3.00
   8  -2  -8   11.40    3.50
  -8   2   8    6.30    2.90
  -8   2   8    7.20    2.90
   7  -2  -8    4.50    2.70
   7  -2  -8    2.40    2.40
   7  -2  -8    3.90    2.40
   7  -2  -8    5.10    2.70
  -7   2   8    3.40    2.60
  -7   2   8    6.10    2.60
   6  -2  -8   55.99    4.80
   6  -2  -8   62.69    4.40
   6  -2  -8   69.79    5.60
   6  -2  -8   65.29    3.80
  -6   2   8   70.69    5.20
  -6   2   8   61.69    4.50
  -6   2   8   70.89    4.80
   5  -2  -8    8.20    1.90
   5  -2  -8    9.20    1.60
   5  -2  -8    8.50    2.20
   5  -2  -8    9.80    2.40
  -5   2   8    9.60    2.30
  -5   2   8   10.10    2.20
  -5   2   8   11.20    2.20
  -5   2   8   13.60    2.30
   4  -2  -8  106.29    4.70
   4  -2  -8  115.09    5.60
   4  -2  -8  111.19    5.10
   4  -2  -8  111.79    5.10
   4  -2  -8  111.49    5.60
  -4   2   8  114.79    5.40
  -4   2   8  117.39    5.50
  -4   2   8  110.49    5.70
  -4   2   8  120.59    5.80
  -4   2   8  110.19    5.20
   3  -2  -8  149.99    5.80
   3  -2  -8  157.58    6.00
   3  -2  -8  149.49    6.40
   3  -2  -8  153.98    6.50
   3  -2  -8  159.38    6.10
  -3   2   8  154.58    6.20
  -3   2   8  151.08    6.10
  -3   2   8  151.08    7.00
  -3   2   8  155.48    6.70
  -3   2   8  160.78    6.50
  -3   2   8  152.08    6.10
   2  -2  -8  120.59    4.80
   2  -2  -8  104.59    4.20
   2  -2  -8  110.79    4.70
   2  -2  -8  113.79    4.20
   2  -2  -8  115.59    4.10
   2  -2  -8  108.29    4.40
  -2   2   8  110.39    4.90
  -2   2   8  111.39    4.40
  -2   2   8  118.89    4.40
  -2   2   8  120.49    5.70
  -2   2   8  111.89    4.80
  -2   2   8  107.99    4.40
  -2   2   8  111.39    4.40
   1  -2  -8   56.79    2.70
   1  -2  -8   56.99    2.70
   1  -2  -8   63.29    2.60
  -1   2   8   55.39    2.80
  -1   2   8   59.99    3.80
  -1   2   8   58.09    2.80
   0  -2  -8   32.70    1.80
   0  -2  -8   31.50    1.50
   0  -2  -8   29.70    1.40
   0  -2  -8   28.10    1.40
   0   2   8   30.50    3.10
   0   2   8   28.60    1.60
   0   2   8   27.70    1.70
   1   2   8    6.60    1.90
   1   2   8    8.80    0.90
   1   2   8    8.00    0.80
  -2  -2  -8   10.00    1.10
   2   2   8   11.70    1.30
   2   2   8    8.80    1.90
   2   2   8   10.20    1.30
  -3  -2  -8   36.10    2.40
  -3  -2  -8   37.80    1.90
   3   2   8   34.90    2.60
   3   2   8   34.80    2.40
   3   2   8   40.70    3.60
  -4  -2  -8   20.00    2.10
  -4  -2  -8   21.10    1.60
  -4  -2  -8   20.20    2.00
  -4  -2  -8   19.20    2.20
   4   2   8   18.00    1.30
   4   2   8   15.60    2.00
   4   2   8   22.70    1.50
   4   2   8   20.70    2.50
  -5  -2  -8   21.80    2.30
  -5  -2  -8   16.10    1.70
  -5  -2  -8   16.60    2.30
   5   2   8   16.20    2.50
   5   2   8   13.10    2.20
   5   2   8   21.00    2.30
  -6  -2  -8    0.00    1.60
  -6  -2  -8    2.50    1.80
   6   2   8    2.80    2.00
   6   2   8    4.00    1.90
   6   2   8    3.50    2.00
  -7  -2  -8    1.50    1.90
  -7  -2  -8    0.30    2.00
  -7  -2  -8   -2.00    2.30
   7   2   8   -1.40    2.10
   7   2   8   -4.20    2.00
   9  -3  -8    4.40    3.50
   9  -3  -8    3.20    3.20
  -9   3   8    4.20    3.40
  -9   3   8    5.60    3.10
   8  -3  -8    0.60    2.30
   8  -3  -8    0.90    2.90
   8  -3  -8    2.20    2.70
  -8   3   8    1.90    2.70
  -8   3   8    4.20    3.00
   7  -3  -8   11.00    3.00
   7  -3  -8   12.30    2.80
   7  -3  -8   11.10    3.10
  -7   3   8   11.70    3.10
  -7   3   8   16.70    3.30
   6  -3  -8   32.80    3.50
   6  -3  -8   24.00    3.70
   6  -3  -8   21.30    3.20
   6  -3  -8   27.10    2.70
  -6   3   8   18.50    3.10
  -6   3   8   17.80    3.00
  -6   3   8   17.10    2.90
   5  -3  -8  174.38    7.90
   5  -3  -8  165.38    7.30
   5  -3  -8  159.18    6.80
   5  -3  -8  166.28    7.90
  -5   3   8  172.38    7.60
  -5   3   8  166.58    8.00
  -5   3   8  165.28    7.60
  -5   3   8  164.18    7.50
   4  -3  -8   47.50    3.40
   4  -3  -8   43.50    3.10
   4  -3  -8   45.20    3.70
   4  -3  -8   42.40    2.80
   4  -3  -8   48.40    3.90
  -4   3   8   46.70    3.70
  -4   3   8   46.00    3.50
  -4   3   8   43.20    3.40
  -4   3   8   51.59    3.50
   3  -3  -8  178.38    7.50
   3  -3  -8  180.18    7.10
   3  -3  -8  179.08    7.50
   3  -3  -8  180.18    6.90
   3  -3  -8  180.48    7.00
  -3   3   8  175.68    7.70
  -3   3   8  186.28    7.10
  -3   3   8  193.18    7.30
  -3   3   8  181.58    7.50
  -3   3   8  188.48    8.20
  -3   3   8  187.88    7.20
   2  -3  -8   -0.30    0.80
   2  -3  -8   -0.10    1.10
   2  -3  -8   -0.20    0.80
   2  -3  -8    1.70    1.10
   2  -3  -8    1.50    0.80
  -2   3   8    0.00    0.90
  -2   3   8    1.20    0.90
  -2   3   8    1.10    1.60
  -2   3   8   -0.50    0.80
  -2   3   8   -0.20    0.90
  -2   3   8    0.00    1.00
  -2   3   8   -0.60    0.90
   1  -3  -8   20.40    1.90
   1  -3  -8   25.10    1.80
   1  -3  -8   21.60    1.40
   1  -3  -8   21.60    1.30
   1  -3  -8   26.30    1.90
   1  -3  -8   21.30    1.40
  -1   3   8   21.70    1.20
  -1   3   8   22.00    2.80
  -1   3   8   21.00    1.90
  -1   3   8   23.30    2.10
  -1   3   8   21.90    1.30
  -1   3   8   21.50    1.50
   0  -3  -8   25.00    1.80
   0  -3  -8   24.60    1.70
   0   3   8   23.00    2.70
   0   3   8   21.30    1.80
   0   3   8   25.90    2.10
  -1  -3  -8   46.60    2.40
  -1  -3  -8   46.30    2.30
   1   3   8   43.50    2.60
   1   3   8   46.20    2.70
   1   3   8   46.40    3.40
  -2  -3  -8   23.00    1.80
  -2  -3  -8   22.10    1.30
   2   3   8   21.90    2.10
   2   3   8   23.60    2.20
   2   3   8   24.70    3.00
  -3  -3  -8   91.39    3.90
  -3  -3  -8   93.19    4.20
   3   3   8   89.79    4.50
   3   3   8   88.39    4.40
   3   3   8   83.39    5.10
  -4  -3  -8    3.50    1.10
  -4  -3  -8    3.40    1.50
  -4  -3  -8    5.30    1.50
   4   3   8    4.60    1.10
   4   3   8    3.60    1.50
   4   3   8    2.70    1.50
  -5  -3  -8    8.90    2.00
  -5  -3  -8   11.30    1.70
  -5  -3  -8   12.50    2.20
   5   3   8   15.30    2.10
   5   3   8   13.40    2.40
   5   3   8   11.50    2.20
  -6  -3  -8   -0.70    1.70
  -6  -3  -8    1.90    1.80
   6   3   8   -1.60    2.00
   6   3   8    0.90    1.90
   6   3   8    3.20    2.00
  -7  -3  -8   -0.60    1.90
   7   3   8    1.60    2.30
   7   3   8    0.30    2.30
   9  -4  -8    2.60    3.10
  -9   4   8   10.80    4.00
  -9   4   8    4.80    3.20
   8  -4  -8   -0.60    2.60
   8  -4  -8   -1.10    2.80
  -8   4   8   -0.90    2.90
  -8   4   8    2.20    2.90
   7  -4  -8    9.20    2.90
   7  -4  -8   14.30    3.60
   7  -4  -8    9.50    2.90
  -7   4   8   10.30    3.10
  -7   4   8    8.40    3.00
   6  -4  -8    0.60    1.40
   6  -4  -8    2.30    2.20
   6  -4  -8    3.50    2.10
   6  -4  -8    0.30    2.20
  -6   4   8   -0.70    2.00
  -6   4   8    2.20    2.20
  -6   4   8    2.90    2.30
   5  -4  -8    0.70    1.70
   5  -4  -8   -1.10    1.20
   5  -4  -8    1.40    1.90
   5  -4  -8   -1.40    1.60
  -5   4   8   -0.80    1.50
  -5   4   8   -0.60    1.80
  -5   4   8    1.90    1.80
  -5   4   8    1.80    2.00
   4  -4  -8   40.30    3.70
   4  -4  -8   37.40    3.20
   4  -4  -8   36.40    3.60
   4  -4  -8   33.60    2.80
  -4   4   8   43.40    3.50
  -4   4   8   35.40    3.60
  -4   4   8   42.10    3.50
  -4   4   8   44.30    3.70
   3  -4  -8   59.49    3.80
   3  -4  -8   54.89    3.30
   3  -4  -8   55.59    3.20
   3  -4  -8   52.89    3.80
   3  -4  -8   52.59    3.40
  -3   4   8   54.99    3.90
  -3   4   8   62.19    3.80
  -3   4   8   61.49    3.70
  -3   4   8   57.79    3.60
   2  -4  -8  100.89    4.60
   2  -4  -8  101.09    4.40
   2  -4  -8   93.89    6.00
   2  -4  -8  108.99    5.00
   2  -4  -8  107.49    4.60
  -2   4   8  104.99    4.60
  -2   4   8   92.29    5.00
  -2   4   8  103.29    5.10
  -2   4   8  103.79    5.00
  -2   4   8  101.29    4.60
   1  -4  -8   50.19    3.20
   1  -4  -8   53.59    2.40
   1  -4  -8   58.09    2.80
   1  -4  -8   50.89    3.00
   1  -4  -8   52.79    2.70
  -1   4   8   56.09    4.40
  -1   4   8   59.79    2.90
  -1   4   8   53.69    2.70
  -1   4   8   53.49    2.80
  -1   4   8   58.79    3.50
  -1   4   8   53.69    3.30
   0  -4  -8  116.79    5.00
   0  -4  -8  110.89    4.90
   0  -4  -8  109.09    4.30
   0  -4  -8  116.69    4.50
   0   4   8  110.49    5.80
   0   4   8  114.09    4.20
   0   4   8  108.29    4.00
   0   4   8  116.89    5.40
   0   4   8  116.79    5.10
   0   4   8  119.39    4.40
   0   4   8  127.19    4.10
  -1  -4  -8    4.10    1.00
  -1  -4  -8    3.20    1.10
   1   4   8    4.00    1.30
   1   4   8    4.20    0.70
   1   4   8    3.60    1.30
   1   4   8    4.80    0.80
   1   4   8    1.00    1.70
  -2  -4  -8   38.30    2.60
  -2  -4  -8   33.00    2.20
   2   4   8   33.70    1.70
   2   4   8   37.50    1.80
   2   4   8   39.30    3.00
   2   4   8   33.40    3.40
   2   4   8   36.10    3.10
  -3  -4  -8    0.60    1.20
  -3  -4  -8    0.10    1.20
   3   4   8    1.40    1.40
   3   4   8    1.00    1.30
   3   4   8    0.60    1.80
   3   4   8    2.70    1.00
  -4  -4  -8    1.70    1.60
  -4  -4  -8    0.70    1.50
  -4  -4  -8   -0.40    1.10
   4   4   8    0.90    1.50
   4   4   8   -1.10    1.10
   4   4   8    0.90    1.60
   4   4   8    1.00    1.90
  -5  -4  -8   -1.40    1.70
  -5  -4  -8    0.90    1.80
   5   4   8    1.10    1.70
   5   4   8    0.60    1.70
   5   4   8    3.10    1.90
  -6  -4  -8    0.70    2.10
  -6  -4  -8    2.50    2.20
   6   4   8    3.40    2.30
   6   4   8    3.00    2.30
  -7  -4  -8    0.20    2.10
   7   4   8    0.90    2.30
   9  -5  -8    7.90    3.70
  -9   5   8    7.40    3.70
  -9   5   8    6.60    3.70
   8  -5  -8    4.30    3.20
  -8   5   8    7.10    3.20
  -8   5   8   -0.60    2.80
   7  -5  -8    8.90    3.00
   7  -5  -8    4.90    2.70
  -7   5   8    7.80    3.10
  -7   5   8    3.50    2.90
   6  -5  -8   37.50    4.00
   6  -5  -8   41.40    4.60
   6  -5  -8   33.70    3.40
  -6   5   8   36.40    4.10
  -6   5   8   36.10    4.20
   5  -5  -8    4.30    2.20
   5  -5  -8   -0.40    1.40
   5  -5  -8    1.60    1.90
  -5   5   8    2.70    2.20
  -5   5   8   -2.80    1.90
  -5   5   8    0.80    1.90
   4  -5  -8   65.89    3.90
   4  -5  -8   70.39    4.80
   4  -5  -8   66.19    4.30
  -4   5   8   69.49    4.60
  -4   5   8   67.99    5.00
  -4   5   8   69.49    4.60
  -4   5   8   66.79    4.60
   3  -5  -8    6.30    1.60
   3  -5  -8    6.10    2.00
   3  -5  -8    9.90    2.00
  -3   5   8    7.20    2.00
  -3   5   8    6.90    1.90
  -3   5   8    5.00    1.80
  -3   5   8    6.70    2.00
   2  -5  -8    2.70    1.30
   2  -5  -8    1.00    1.30
   2  -5  -8    3.20    1.50
   2  -5  -8    0.30    1.20
  -2   5   8    0.40    1.40
  -2   5   8    2.10    1.80
  -2   5   8    2.20    1.50
  -2   5   8    2.20    1.40
  -2   5   8    0.20    1.40
   1  -5  -8   10.60    1.50
   1  -5  -8    5.10    1.50
   1  -5  -8    6.20    1.50
   1  -5  -8    7.10    1.60
  -1   5   8    8.10    1.60
  -1   5   8    5.40    1.50
  -1   5   8    7.20    1.70
  -1   5   8    6.50    1.70
  -1   5   8    3.60    2.00
   0  -5  -8   43.10    3.00
   0  -5  -8   42.40    3.10
   0  -5  -8   39.90    2.80
   0  -5  -8   39.20    2.50
   0   5   8   39.10    3.20
   0   5   8   37.00    3.80
   0   5   8   39.30    3.60
   0   5   8   38.90    2.50
   0   5   8   44.80    2.70
  -1  -5  -8    3.60    1.30
  -1  -5  -8    4.60    1.10
  -1  -5  -8    2.40    1.40
   1   5   8    4.20    1.10
   1   5   8    3.50    1.70
   1   5   8    4.20    1.70
   1   5   8    3.80    1.30
   1   5   8    4.80    1.90
  -2  -5  -8   41.10    2.80
  -2  -5  -8   49.50    3.10
   2   5   8   47.60    2.50
   2   5   8   48.80    4.10
   2   5   8   48.40    3.90
   2   5   8   54.29    4.40
   2   5   8   46.00    2.80
  -3  -5  -8   25.10    2.70
  -3  -5  -8   26.20    2.30
   3   5   8   22.80    3.00
   3   5   8   24.60    3.20
   3   5   8   28.40    2.30
   3   5   8   25.70    2.90
   3   5   8   19.80    2.90
  -4  -5  -8   13.80    2.00
  -4  -5  -8   10.30    2.30
   4   5   8   17.10    2.80
   4   5   8   12.30    2.70
   4   5   8   15.50    2.70
   4   5   8   11.20    2.00
  -5  -5  -8    8.90    2.50
  -5  -5  -8    3.30    2.20
   5   5   8    8.70    2.20
   5   5   8    7.30    2.50
   5   5   8    5.50    2.30
  -6  -5  -8   -0.50    2.10
   6   5   8   -2.10    1.90
   6   5   8    0.60    2.20
   8  -6  -8    3.00    3.30
  -8   6   8    7.10    3.50
  -8   6   8    6.80    3.70
   7  -6  -8    1.40    2.90
   7  -6  -8    3.80    2.90
  -7   6   8    3.10    2.90
  -7   6   8    2.40    2.90
   6  -6  -8   50.59    4.60
   6  -6  -8   54.19    5.20
  -6   6   8   42.50    4.70
  -6   6   8   44.60    4.70
   5  -6  -8    1.10    2.30
   5  -6  -8    0.50    1.90
   5  -6  -8   -1.40    1.50
  -5   6   8   -3.70    2.00
  -5   6   8   -0.60    2.10
  -5   6   8    1.20    2.10
   4  -6  -8   52.59    4.20
   4  -6  -8   54.19    4.00
   4  -6  -8   58.59    4.80
  -4   6   8   62.39    5.00
  -4   6   8   61.79    4.90
  -4   6   8   62.69    4.90
   3  -6  -8   15.10    2.30
   3  -6  -8   19.70    2.90
   3  -6  -8   22.40    2.80
  -3   6   8   21.10    3.00
  -3   6   8   16.20    2.70
  -3   6   8   15.60    2.70
  -3   6   8   15.70    2.60
   2  -6  -8   18.70    2.50
   2  -6  -8   17.70    2.40
   2  -6  -8   19.40    2.70
  -2   6   8   18.20    2.50
  -2   6   8   20.10    2.70
  -2   6   8   20.80    2.90
  -2   6   8   18.50    2.60
   1  -6  -8    5.80    1.70
   1  -6  -8    2.00    1.70
   1  -6  -8    4.30    1.50
  -1   6   8    5.80    1.90
  -1   6   8    5.60    1.70
  -1   6   8    6.40    2.50
  -1   6   8    2.70    1.80
  -1   6   8    5.40    1.90
   0  -6  -8    2.40    1.50
   0  -6  -8    5.20    1.50
   0   6   8    3.80    1.50
   0   6   8    2.40    2.10
   0   6   8    2.40    1.80
   0   6   8    4.30    1.60
   0   6   8    3.10    2.00
  -1  -6  -8    7.70    1.60
  -1  -6  -8    7.30    1.80
   1   6   8    5.50    1.60
   1   6   8    4.40    1.90
   1   6   8    3.80    1.50
   1   6   8    6.50    2.20
   1   6   8    6.40    2.20
  -2  -6  -8   21.40    2.40
  -2  -6  -8   16.80    2.10
   2   6   8   19.80    3.20
   2   6   8   17.10    2.00
   2   6   8   17.70    2.90
   2   6   8   19.70    2.30
   2   6   8   16.20    3.10
  -3  -6  -8    9.20    1.90
  -3  -6  -8    8.60    2.20
   3   6   8    8.20    2.60
   3   6   8    5.40    1.80
   3   6   8    9.20    2.40
   3   6   8   10.80    2.70
  -4  -6  -8    1.60    2.30
  -4  -6  -8    2.80    1.80
   4   6   8    3.70    1.90
   4   6   8   -0.40    2.00
   4   6   8    1.30    2.30
  -5  -6  -8    4.40    2.50
  -5  -6  -8    4.80    2.10
   5   6   8    3.70    2.60
   5   6   8    2.30    2.20
   7  -7  -8    1.50    3.00
  -7   7   8    3.30    3.10
  -7   7   8    2.10    3.00
   6  -7  -8   20.80    3.80
   6  -7  -8   33.90    4.30
  -6   7   8   24.00    4.00
  -6   7   8   27.60    4.40
   5  -7  -8    9.20    2.30
   5  -7  -8   10.60    2.90
   5  -7  -8    4.20    2.50
  -5   7   8    8.90    3.00
  -5   7   8    8.60    2.80
   4  -7  -8   36.80    3.60
   4  -7  -8   34.30    3.80
   4  -7  -8   40.30    4.40
  -4   7   8   46.40    4.50
  -4   7   8   38.60    4.10
  -4   7   8   36.30    4.30
   3  -7  -8   49.20    4.10
   3  -7  -8   48.50    4.40
   3  -7  -8   38.30    3.70
  -3   7   8   38.70    4.20
  -3   7   8   36.50    3.90
  -3   7   8   41.00    4.10
   2  -7  -8    4.50    1.90
   2  -7  -8    4.30    2.00
   2  -7  -8    3.00    2.10
  -2   7   8    3.50    2.10
  -2   7   8    8.50    2.50
  -2   7   8    3.90    2.20
  -2   7   8    4.90    2.20
   1  -7  -8   38.40    3.50
   1  -7  -8   51.69    4.00
  -1   7   8   44.20    4.30
  -1   7   8   48.40    4.80
  -1   7   8   45.00    3.80
  -1   7   8   46.60    4.60
  -1   7   8   42.00    3.80
   0  -7  -8    0.30    1.50
   0  -7  -8    0.20    1.60
   0   7   8    1.50    2.10
   0   7   8   -1.10    1.70
   0   7   8    0.10    2.00
   0   7   8   -0.70    1.60
   0   7   8   -2.10    1.70
  -1  -7  -8    8.70    2.00
  -1  -7  -8    4.90    2.00
   1   7   8    7.00    2.70
   1   7   8    7.60    2.60
   1   7   8    7.90    2.00
   1   7   8    8.70    2.60
   1   7   8    5.40    1.90
  -2  -7  -8    3.00    1.60
  -2  -7  -8   -0.50    1.80
   2   7   8   -0.10    1.80
   2   7   8   -0.40    2.10
   2   7   8    1.50    1.60
   2   7   8    0.60    2.40
   2   7   8    1.90    2.20
  -3  -7  -8    2.90    2.20
  -3  -7  -8    2.70    1.80
   3   7   8    4.00    2.70
   3   7   8    3.30    2.00
   3   7   8    6.60    2.70
  -4  -7  -8    1.30    1.90
  -4  -7  -8    4.80    2.60
   4   7   8    5.00    2.90
   4   7   8    1.60    2.00
   6  -8  -8    1.80    2.90
   6  -8  -8   -0.90    2.70
  -6   8   8    2.90    3.20
  -6   8   8   -1.70    2.60
   5  -8  -8    1.80    2.60
   5  -8  -8    3.00    2.80
  -5   8   8    3.10    2.70
  -5   8   8    4.10    2.70
   4  -8  -8    1.90    2.10
   4  -8  -8    1.80    2.40
   4  -8  -8   -0.20    2.30
  -4   8   8    3.40    2.50
  -4   8   8   -0.70    2.40
   3  -8  -8   29.60    3.60
   3  -8  -8   40.80    4.30
   3  -8  -8   30.80    3.60
  -3   8   8   40.00    4.30
  -3   8   8   40.20    4.30
   2  -8  -8   -1.10    2.00
   2  -8  -8    0.40    1.90
  -2   8   8    3.20    2.40
  -2   8   8    2.70    2.30
  -2   8   8   -0.50    2.00
   1  -8  -8   24.40    3.10
   1  -8  -8   34.20    3.60
  -1   8   8   32.20    3.60
  -1   8   8   32.80    4.20
  -1   8   8   33.40    4.50
  -1   8   8   33.80    3.80
   0  -8  -8    2.40    2.00
   0  -8  -8    3.40    2.00
   0   8   8    1.30    2.10
   0   8   8    4.80    2.70
   0   8   8    3.80    2.70
   0   8   8    0.10    2.00
  -1  -8  -8    5.00    2.00
  -1  -8  -8    3.40    2.10
   1   8   8    5.20    2.10
   1   8   8    5.60    2.80
   1   8   8    2.60    2.50
   1   8   8    0.70    2.00
  -2  -8  -8   10.40    2.80
  -2  -8  -8   11.20    2.50
   2   8   8    5.10    2.80
   2   8   8   -0.80    2.20
   2   8   8    7.80    2.50
   2   8   8    9.40    2.60
  -3  -8  -8    2.10    2.00
  -3  -8  -8   -1.50    2.30
   3   8   8   -2.20    2.70
   3   8   8    1.70    2.20
   5  -9  -8    3.60    3.30
   5  -9  -8    1.50    2.80
  -5   9   8    2.60    3.00
  -5   9   8   -1.40    2.90
   4  -9  -8    0.20    2.40
   4  -9  -8    1.40    2.70
  -4   9   8   -1.80    2.60
  -4   9   8    2.80    2.90
   3  -9  -8    4.50    2.70
  -3   9   8    3.00    2.70
  -3   9   8    2.40    2.60
   2  -9  -8   10.40    3.10
   2  -9  -8    4.10    2.30
  -2   9   8    7.30    2.80
  -2   9   8    6.10    2.80
   1  -9  -8   14.80    2.80
   1  -9  -8   18.00    3.10
  -1   9   8   16.00    3.20
  -1   9   8   16.10    3.40
  -1   9   8   11.00    3.60
   0  -9  -8   21.00    3.30
   0  -9  -8   18.90    3.30
   0   9   8   16.40    3.20
   0   9   8   22.10    3.50
   0   9   8   17.60    3.70
  -1  -9  -8    5.40    2.50
  -1  -9  -8    9.40    2.80
   1   9   8    7.40    2.70
   1   9   8    6.10    2.90
   1   9   8    2.60    2.40
   3  10  -9   -1.60    3.20
  -3 -10   9    2.40    3.20
   2  10  -9   -0.50    2.80
  -2 -10   9   -0.70    3.00
  -2 -10   9   -1.10    2.90
   1  10  -9    5.80    3.00
  -1 -10   9    3.10    3.00
  -1 -10   9    3.40    3.10
   0  10  -9   -1.80    2.50
   0 -10   9    0.50    3.00
   0 -10   9    3.90    3.20
  -1  10  -9    1.00    2.70
   1 -10   9   -2.90    2.80
  -2  10  -9   -0.40    2.60
   2 -10   9    0.00    3.20
  -3  10  -9    6.60    3.20
   3 -10   9    3.40    3.80
   5   9  -9    0.40    3.30
  -5  -9   9    0.70    3.60
   4   9  -9   -1.00    3.10
  -4  -9   9    3.50    3.50
  -4  -9   9    2.90    3.20
   3   9  -9   14.80    3.70
  -3  -9   9   13.40    3.80
  -3  -9   9   14.20    3.90
   2   9  -9   -0.40    2.60
  -2  -9   9    1.70    2.80
  -2  -9   9    3.60    3.00
   1   9  -9   14.70    3.10
   1   9  -9    8.60    3.00
  -1  -9   9    2.90    2.70
  -1  -9   9   10.00    3.20
   0   9  -9   24.60    3.50
   0   9  -9   20.20    3.70
   0  -9   9   23.30    3.90
   0  -9   9   21.70    3.70
  -1   9  -9   -0.90    2.30
  -1   9  -9    1.30    2.20
   1  -9   9   -1.80    2.60
  -2   9  -9    5.60    2.70
  -2   9  -9    3.50    2.80
   2  -9   9    6.50    3.30
  -3   9  -9    5.30    2.80
  -3   9  -9   10.70    2.90
   3  -9   9    4.40    3.40
  -4   9  -9    0.00    2.60
  -4   9  -9   -2.30    2.60
   4  -9   9    2.50    3.40
   6   8  -9    0.50    3.50
  -6  -8   9   -0.60    3.60
  -6  -8   9   -5.30    3.00
   5   8  -9    0.30    3.00
  -5  -8   9    1.10    3.00
  -5  -8   9   -0.30    3.40
   4   8  -9    6.30    3.20
  -4  -8   9    6.50    3.20
  -4  -8   9   11.90    3.50
   3   8  -9    2.40    2.60
   3   8  -9    0.90    2.60
  -3  -8   9    6.00    3.00
  -3  -8   9    3.80    3.00
   2   8  -9    0.70    2.30
   2   8  -9    1.70    2.30
  -2  -8   9    0.60    2.40
  -2  -8   9   -1.90    2.30
   1   8  -9    5.30    2.60
   1   8  -9    1.90    2.20
  -1  -8   9    7.10    2.80
  -1  -8   9   -1.60    2.20
   0   8  -9   10.50    2.80
   0   8  -9    5.80    2.30
   0  -8   9   10.40    2.90
   0  -8   9    6.90    2.60
  -1   8  -9    3.70    2.00
  -1   8  -9    2.60    2.40
   1  -8   9    1.80    2.40
  -2   8  -9   15.00    2.70
  -2   8  -9   17.20    3.20
   2  -8   9   18.70    3.70
  -3   8  -9    5.80    2.40
  -3   8  -9    1.00    2.40
   3  -8   9   -2.40    2.60
  -4   8  -9   10.00    3.00
  -4   8  -9   11.10    2.80
   4  -8   9   10.70    3.50
  -5   8  -9    2.00    2.50
  -5   8  -9    2.00    2.50
   5  -8   9   -2.90    2.90
   7   7  -9    1.40    3.40
  -7  -7   9   -1.30    3.60
  -7  -7   9   -0.90    3.60
   6   7  -9   23.90    4.40
  -6  -7   9   15.30    4.20
  -6  -7   9   22.00    4.30
   5   7  -9   -0.60    2.90
  -5  -7   9    5.10    3.10
  -5  -7   9    4.30    3.10
   4   7  -9    8.60    3.20
   4   7  -9   13.40    3.10
  -4  -7   9   12.60    3.40
  -4  -7   9   12.60    3.50
   3   7  -9   38.60    4.60
   3   7  -9   43.80    4.30
  -3  -7   9   45.40    4.70
  -3  -7   9   35.00    4.30
   2   7  -9   -0.50    1.90
   2   7  -9   -0.60    2.20
  -2  -7   9   -1.20    2.20
  -2  -7   9   -1.40    1.90
   1   7  -9   39.80    3.50
   1   7  -9   40.30    4.20
  -1  -7   9   36.30    4.00
  -1  -7   9   31.50    3.60
  -1  -7   9   32.40    4.00
   0   7  -9   22.80    3.20
   0   7  -9   22.30    2.80
   0  -7   9   16.60    3.10
   0  -7   9   25.10    3.40
   0  -7   9   19.40    3.20
  -1   7  -9    1.70    1.90
  -1   7  -9    4.90    1.90
   1  -7   9    6.80    2.60
   1  -7   9    6.80    2.60
  -2   7  -9   28.50    3.20
  -2   7  -9   42.80    4.30
   2  -7   9   34.10    4.10
   2  -7   9   39.30    4.40
  -3   7  -9    1.00    2.10
  -3   7  -9    1.10    1.80
   3  -7   9   -2.30    2.20
   3  -7   9    1.90    2.60
  -4   7  -9    8.10    2.80
  -4   7  -9    7.90    2.30
   4  -7   9    6.80    2.90
  -5   7  -9    1.80    2.20
  -5   7  -9    6.00    2.90
   5  -7   9    7.20    3.30
  -6   7  -9    2.40    2.70
  -6   7  -9    3.30    2.40
   6  -7   9    3.10    3.30
   7   6  -9    4.30    3.60
  -7  -6   9    5.00    3.40
  -7  -6   9   11.10    3.80
   6   6  -9    1.60    2.90
  -6  -6   9    3.40    3.10
  -6  -6   9    1.20    2.90
   5   6  -9   -2.10    2.40
   5   6  -9   -3.00    2.40
  -5  -6   9   -2.90    2.30
  -5  -6   9   -1.20    2.30
   4   6  -9   50.09    4.30
   4   6  -9   42.00    4.70
  -4  -6   9   51.39    4.90
  -4  -6   9   47.50    4.80
   3   6  -9    6.40    2.10
   3   6  -9    5.50    2.60
   3   6  -9    4.40    1.70
  -3  -6   9    4.30    2.40
  -3  -6   9    1.00    2.30
  -3  -6   9    8.70    2.60
   2   6  -9   37.90    4.00
   2   6  -9   33.90    3.30
   2   6  -9   34.40    3.00
  -2  -6   9   32.70    4.00
  -2  -6   9   31.30    3.50
  -2  -6   9   31.30    3.60
   1   6  -9   11.90    1.80
   1   6  -9   16.10    2.30
   1   6  -9   15.70    2.70
  -1  -6   9   21.20    3.30
  -1  -6   9   15.90    2.90
  -1  -6   9   14.70    2.50
  -1  -6   9   11.50    2.50
   0   6  -9    3.90    1.90
   0   6  -9    2.10    1.50
   0  -6   9    3.30    1.90
   0  -6   9    7.10    2.20
   0  -6   9    3.70    1.90
   0  -6   9    5.40    2.00
  -1   6  -9   -0.80    1.40
  -1   6  -9    1.30    1.70
   1  -6   9    1.80    1.80
   1  -6   9    1.80    1.80
   1  -6   9    0.80    1.80
  -2   6  -9   11.00    2.00
  -2   6  -9   14.00    2.60
   2  -6   9   12.00    2.80
   2  -6   9   13.50    2.90
   2  -6   9   17.40    3.10
  -3   6  -9   13.70    2.30
  -3   6  -9   15.20    2.70
   3  -6   9   14.20    3.10
   3  -6   9   18.20    3.10
   3  -6   9   15.90    3.10
  -4   6  -9    3.50    2.10
  -4   6  -9    3.30    1.90
   4  -6   9    9.40    2.70
   4  -6   9    3.80    2.50
  -5   6  -9    5.00    2.40
  -5   6  -9    5.70    2.00
   5  -6   9    5.80    2.70
   5  -6   9    5.70    3.00
  -6   6  -9    5.70    2.30
  -6   6  -9    3.90    2.20
   6  -6   9    4.70    3.00
   8   5  -9    5.30    4.00
   8   5  -9    3.20    3.40
  -8  -5   9    6.00    3.50
  -8  -5   9    1.50    3.20
   7   5  -9    1.60    3.40
   7   5  -9   -1.20    3.00
  -7  -5   9    4.80    3.20
  -7  -5   9    2.80    2.90
   6   5  -9   42.50    5.30
   6   5  -9   30.90    4.40
   6   5  -9   25.40    3.90
  -6  -5   9   41.50    4.80
  -6  -5   9   37.00    4.50
   5   5  -9    1.50    2.20
   5   5  -9    1.50    2.70
  -5  -5   9   -1.10    2.20
  -5  -5   9    5.40    2.50
   4   5  -9   42.20    4.60
   4   5  -9   46.70    3.20
   4   5  -9   31.80    3.50
  -4  -5   9   47.60    5.10
  -4  -5   9   42.90    4.30
  -4  -5   9   41.90    4.20
   3   5  -9    2.70    1.70
   3   5  -9    0.90    1.90
   3   5  -9    2.10    1.20
  -3  -5   9    1.80    1.90
  -3  -5   9   -0.30    1.80
  -3  -5   9    2.30    1.90
  -3  -5   9   -3.30    1.90
   2   5  -9   15.40    2.00
   2   5  -9   14.80    2.20
   2   5  -9   12.40    2.40
  -2  -5   9   16.60    2.60
  -2  -5   9   11.60    2.20
  -2  -5   9   14.50    2.70
  -2  -5   9   12.60    2.70
   1   5  -9    6.60    1.50
   1   5  -9    5.60    1.60
   1   5  -9    4.40    1.80
   1   5  -9    4.90    1.30
  -1  -5   9    6.10    1.80
  -1  -5   9    6.10    2.00
  -1  -5   9    8.00    2.30
  -1  -5   9    7.00    2.10
   0   5  -9    3.60    1.30
   0   5  -9    3.10    1.40
   0   5  -9    3.10    1.10
   0   5  -9    4.00    1.60
   0  -5   9    2.60    1.70
   0  -5   9    5.20    1.80
   0  -5   9    6.10    1.90
   0  -5   9    4.80    1.70
  -1   5  -9   39.70    2.80
  -1   5  -9   44.00    2.90
  -1   5  -9   46.30    3.70
   1  -5   9   37.80    3.50
   1  -5   9   31.90    3.40
   1  -5   9   39.00    3.70
  -2   5  -9   24.00    2.40
  -2   5  -9   29.30    3.00
  -2   5  -9   25.50    2.50
   2  -5   9   29.10    3.30
   2  -5   9   29.10    3.10
   2  -5   9   23.70    3.00
  -3   5  -9   19.70    2.30
  -3   5  -9   19.00    2.60
  -3   5  -9   18.80    2.20
   3  -5   9   18.60    3.00
   3  -5   9   24.30    3.10
   3  -5   9   25.30    3.00
  -4   5  -9    0.30    1.70
  -4   5  -9    2.90    1.60
   4  -5   9    1.30    1.90
   4  -5   9    4.40    2.20
   4  -5   9   -0.90    1.70
  -5   5  -9    5.80    1.90
  -5   5  -9    7.40    2.30
   5  -5   9    7.90    2.70
   5  -5   9    5.30    2.30
  -6   5  -9   -2.40    1.80
  -6   5  -9    2.30    2.00
   6  -5   9    1.40    2.40
   6  -5   9   -1.50    2.30
  -7   5  -9   -2.30    1.80
   7  -5   9    3.60    2.80
   8   4  -9    1.30    3.30
   8   4  -9    1.90    3.20
  -8  -4   9    4.50    3.20
  -8  -4   9   -5.70    2.50
   7   4  -9   -2.90    2.60
   7   4  -9    1.80    2.90
  -7  -4   9   -0.50    2.40
  -7  -4   9    1.20    2.80
   6   4  -9    4.00    2.50
   6   4  -9   -1.50    2.40
   6   4  -9    3.70    2.70
  -6  -4   9    0.70    2.30
  -6  -4   9    4.70    2.60
   5   4  -9   -0.20    2.20
   5   4  -9    2.30    1.90
   5   4  -9    1.70    1.40
   5   4  -9    2.80    2.30
  -5  -4   9    6.90    2.50
  -5  -4   9    0.20    2.00
   4   4  -9   17.30    2.40
   4   4  -9   19.80    3.30
   4   4  -9   17.00    2.00
   4   4  -9   20.00    3.00
  -4  -4   9   17.30    3.00
  -4  -4   9   20.20    2.90
  -4  -4   9   21.10    3.00
  -4  -4   9   12.10    2.40
   3   4  -9   25.40    2.70
   3   4  -9   27.10    3.10
   3   4  -9   28.80    3.80
   3   4  -9   25.40    2.20
  -3  -4   9   29.80    3.20
  -3  -4   9   26.30    3.30
  -3  -4   9   26.10    3.00
  -3  -4   9   28.40    3.20
   2   4  -9    0.60    1.10
   2   4  -9    0.50    0.90
   2   4  -9   -0.10    1.40
   2   4  -9   -1.00    1.20
  -2  -4   9   -1.30    1.30
  -2  -4   9   -2.40    1.20
  -2  -4   9   -0.20    1.50
  -2  -4   9    1.40    1.50
   1   4  -9   65.49    3.30
   1   4  -9   74.19    3.60
   1   4  -9   76.29    5.10
   1   4  -9   73.79    4.20
   1   4  -9   77.39    3.60
  -1  -4   9   64.89    3.90
  -1  -4   9   69.29    3.90
  -1  -4   9   71.89    4.40
  -1  -4   9   64.89    4.40
   0   4  -9   36.20    3.00
   0   4  -9   44.70    4.30
   0   4  -9   32.20    2.10
   0   4  -9   36.80    2.50
   0   4  -9   35.50    2.50
   0  -4   9   34.50    3.10
   0  -4   9   34.80    3.20
   0  -4   9   29.60    2.80
   0  -4   9   32.00    2.80
  -1   4  -9   41.20    2.30
  -1   4  -9   39.20    2.50
  -1   4  -9   45.70    2.60
  -1   4  -9   45.60    4.30
  -1   4  -9   39.80    3.10
   1  -4   9   39.30    3.00
   1  -4   9   44.00    3.40
   1  -4   9   35.40    3.30
  -2   4  -9    9.80    1.70
  -2   4  -9    7.40    1.40
  -2   4  -9    6.70    1.30
  -2   4  -9    9.80    1.80
  -2   4  -9   11.00    2.70
   2  -4   9    6.60    1.80
   2  -4   9    5.80    1.80
   2  -4   9    7.20    1.70
  -3   4  -9   -0.30    1.10
  -3   4  -9   -0.60    1.20
  -3   4  -9    0.20    1.00
   3  -4   9    2.30    1.50
   3  -4   9   -0.90    1.40
   3  -4   9   -0.20    1.40
  -4   4  -9   -0.60    1.10
  -4   4  -9    1.00    1.40
  -4   4  -9   -0.50    1.20
   4  -4   9    0.80    1.70
   4  -4   9    1.80    1.60
   4  -4   9    0.70    1.60
  -5   4  -9   -1.50    1.50
  -5   4  -9   -0.50    1.40
   5  -4   9    0.50    1.70
   5  -4   9    0.50    1.70
   5  -4   9    4.20    2.20
  -6   4  -9    1.60    1.70
  -6   4  -9    1.90    1.80
   6  -4   9    3.50    2.30
   6  -4   9    7.10    2.40
  -7   4  -9    1.70    1.90
   7  -4   9    0.60    2.50
   9   3  -9   -2.20    3.10
   9   3  -9   -1.00    3.50
  -9  -3   9    7.00    3.20
  -9  -3   9    6.80    3.50
   8   3  -9   -2.10    3.00
   8   3  -9    1.80    3.00
  -8  -3   9   -0.30    2.70
  -8  -3   9    0.70    2.80
   7   3  -9    3.20    2.60
   7   3  -9   -0.50    2.60
   7   3  -9    2.30    2.50
  -7  -3   9    1.30    2.50
  -7  -3   9    3.70    2.60
   6   3  -9    5.70    2.50
   6   3  -9    6.30    2.80
   6   3  -9    8.10    1.80
   6   3  -9    3.80    2.20
  -6  -3   9    3.70    2.40
  -6  -3   9    7.50    2.50
   5   3  -9    2.30    2.40
   5   3  -9    1.40    1.30
   5   3  -9    6.00    2.30
   5   3  -9    1.60    1.70
  -5  -3   9    2.90    2.10
  -5  -3   9    3.60    2.00
  -5  -3   9    3.80    2.10
  -5  -3   9    2.30    2.10
  -5  -3   9    0.90    1.40
   4   3  -9   33.20    3.10
   4   3  -9   42.60    2.70
   4   3  -9   32.30    3.50
   4   3  -9   34.30    3.80
  -4  -3   9   41.40    3.20
  -4  -3   9   35.10    3.80
  -4  -3   9   35.30    3.50
  -4  -3   9   36.20    3.30
  -4  -3   9   47.00    4.10
   3   3  -9   55.89    3.00
   3   3  -9   58.49    3.50
   3   3  -9   59.19    4.40
   3   3  -9   60.29    4.10
  -3  -3   9   56.69    3.90
  -3  -3   9   60.29    3.70
  -3  -3   9   56.49    3.60
  -3  -3   9   57.99    3.90
  -3  -3   9   56.49    4.40
   2   3  -9   51.29    3.60
   2   3  -9   55.99    2.80
   2   3  -9   61.99    3.20
   2   3  -9   55.79    3.10
  -2  -3   9   58.39    3.70
  -2  -3   9   57.89    3.50
  -2  -3   9   52.89    4.00
  -2  -3   9   50.89    3.40
  -2  -3   9   60.79    3.70
   1   3  -9   53.09    3.20
   1   3  -9   47.10    2.70
   1   3  -9   52.59    2.40
   1   3  -9   50.89    2.70
  -1  -3   9   38.50    3.30
  -1  -3   9   49.60    3.00
  -1  -3   9   43.80    3.30
  -1  -3   9   50.69    3.30
  -1  -3   9   48.70    3.00
   0   3  -9    2.70    0.70
   0   3  -9    2.80    0.90
   0   3  -9    2.00    1.60
   0   3  -9    2.70    0.90
   0   3  -9    1.60    1.10
   0  -3   9    4.60    1.40
   0  -3   9    2.30    1.10
   0  -3   9    2.00    1.10
   0  -3   9    1.70    1.00
   0  -3   9    2.40    1.20
  -1   3  -9    0.50    0.60
  -1   3  -9    1.00    1.00
  -1   3  -9    1.10    0.80
  -1   3  -9    0.80    0.70
  -1   3  -9    2.20    1.60
   1  -3   9   -0.20    0.90
   1  -3   9    0.70    1.10
   1  -3   9   -0.20    1.00
   1  -3   9   -0.10    0.90
  -2   3  -9   45.40    2.70
  -2   3  -9   43.00    2.40
  -2   3  -9   40.90    4.00
  -2   3  -9   45.60    2.30
   2  -3   9   44.80    3.10
   2  -3   9   45.50    2.50
   2  -3   9   45.30    3.20
  -3   3  -9    1.90    1.00
  -3   3  -9    3.70    1.10
  -3   3  -9    6.60    1.50
  -3   3  -9    2.80    1.20
   3  -3   9    5.20    1.50
   3  -3   9    4.30    1.50
   3  -3   9    4.50    1.30
  -4   3  -9   13.90    1.70
  -4   3  -9    9.70    1.60
  -4   3  -9   11.70    1.80
   4  -3   9   14.40    2.40
   4  -3   9   12.90    2.20
   4  -3   9   10.10    1.80
  -5   3  -9    6.00    1.60
  -5   3  -9    8.70    1.80
  -5   3  -9    7.40    1.90
   5  -3   9   10.80    2.30
   5  -3   9   10.30    2.30
   5  -3   9    7.80    2.00
  -6   3  -9   -0.40    1.50
  -6   3  -9   -0.80    1.60
   6  -3   9    1.40    1.90
   6  -3   9    1.00    1.90
   6  -3   9    0.80    2.00
  -7   3  -9   -0.10    1.80
  -7   3  -9   -0.10    2.10
   7  -3   9    0.20    3.70
   7  -3   9   -1.40    2.10
   9   2  -9    3.00    3.40
   9   2  -9   -3.50    3.20
  -9  -2   9    8.10    3.10
  -9  -2   9    0.80    2.90
   8   2  -9    3.90    2.90
   8   2  -9   -0.40    2.80
  -8  -2   9    5.80    2.80
  -8  -2   9    0.40    2.70
   7   2  -9   29.90    4.20
   7   2  -9   40.00    4.20
   7   2  -9   46.70    5.30
  -7  -2   9   41.10    4.50
  -7  -2   9   45.70    4.70
   6   2  -9   33.90    2.80
   6   2  -9   31.20    3.40
   6   2  -9   33.50    4.00
   6   2  -9   38.20    4.60
  -6  -2   9   37.60    3.90
  -6  -2   9   35.40    3.10
  -6  -2   9   29.60    4.60
  -6  -2   9   34.40    3.80
   5   2  -9   21.50    3.30
   5   2  -9   33.90    3.80
   5   2  -9   23.30    2.20
   5   2  -9   19.40    2.60
  -5  -2   9   19.00    2.70
  -5  -2   9   26.20    2.80
  -5  -2   9   23.40    3.20
  -5  -2   9   22.20    2.90
  -5  -2   9   19.70    3.20
   4   2  -9   63.59    3.20
   4   2  -9   55.89    3.60
   4   2  -9   67.79    4.50
   4   2  -9   60.09    4.20
  -4  -2   9   59.29    3.80
  -4  -2   9   63.99    4.10
  -4  -2   9   64.09    4.60
  -4  -2   9   59.39    4.50
  -4  -2   9   61.69    3.80
  -4  -2   9   61.69    4.20
   3   2  -9    1.70    1.20
   3   2  -9    1.70    1.40
   3   2  -9    1.00    0.90
   3   2  -9    1.60    1.10
   3   2  -9    0.80    1.60
  -3  -2   9    3.20    1.50
  -3  -2   9   -0.10    1.10
  -3  -2   9    0.20    1.30
  -3  -2   9    1.50    1.30
  -3  -2   9    2.80    1.30
   2   2  -9    8.30    1.80
   2   2  -9    3.30    1.20
   2   2  -9    5.50    0.90
   2   2  -9    7.40    1.50
   2   2  -9    5.90    1.10
   2   2  -9    6.50    1.20
   2   2  -9    6.50    1.70
  -2  -2   9    4.10    1.30
  -2  -2   9    6.10    1.80
  -2  -2   9    6.70    1.70
  -2  -2   9    7.90    1.40
  -2  -2   9    7.50    1.50
  -2  -2   9    7.30    1.40
   1   2  -9   78.99    3.90
   1   2  -9   87.89    3.40
   1   2  -9   76.79    3.10
   1   2  -9   83.59    3.70
   1   2  -9   83.09    3.30
   1   2  -9   83.89    3.40
  -1  -2   9   80.79    3.50
  -1  -2   9   88.79    4.00
  -1  -2   9   84.49    3.60
  -1  -2   9   82.99    3.60
  -1  -2   9   83.99    4.70
  -1  -2   9   74.59    4.10
   0   2  -9  170.18    5.70
   0   2  -9  167.48    6.30
   0   2  -9  171.08    5.70
   0   2  -9  159.58    5.70
   0   2  -9  183.68    7.80
   0   2  -9  169.48    5.80
   0  -2   9  169.08    7.40
   0  -2   9  166.78    6.60
   0  -2   9  167.38    6.50
  -1   2  -9  113.89    3.90
  -1   2  -9  112.39    4.50
  -1   2  -9  111.39    5.90
  -1   2  -9  112.19    3.90
  -1   2  -9  118.99    4.00
  -1   2  -9  117.19    4.00
   1  -2   9  126.79    5.00
   1  -2   9  110.49    4.80
  -2   2  -9  111.29    3.90
  -2   2  -9  107.49    4.00
  -2   2  -9  105.59    3.80
  -2   2  -9  106.49    4.30
  -2   2  -9  101.69    3.80
  -2   2  -9  110.69    5.80
   2  -2   9  100.69    4.60
   2  -2   9  102.19    4.70
  -3   2  -9    9.20    1.10
  -3   2  -9    6.80    1.30
  -3   2  -9    9.10    1.50
  -3   2  -9    8.10    1.00
   3  -2   9    7.00    1.40
   3  -2   9    8.10    1.00
   3  -2   9    7.60    1.60
  -4   2  -9   21.40    2.40
  -4   2  -9   25.40    2.10
  -4   2  -9   23.40    1.90
  -4   2  -9   23.30    2.20
   4  -2   9   23.20    1.70
   4  -2   9   24.90    2.70
   4  -2   9   19.30    2.30
  -5   2  -9    1.10    1.30
  -5   2  -9    2.20    1.50
  -5   2  -9    4.10    1.30
   5  -2   9    0.00    1.50
   5  -2   9    1.80    1.60
   5  -2   9   -0.30    1.30
  -6   2  -9   -0.30    1.50
  -6   2  -9   -2.10    1.40
   6  -2   9   -0.20    1.80
   6  -2   9    0.00    1.90
  -7   2  -9    5.70    2.10
  -7   2  -9    3.90    2.40
   7  -2   9    9.10    2.70
   9   1  -9   -2.80    3.20
   9   1  -9   -0.20    3.00
  -9  -1   9   -1.10    2.90
  -9  -1   9    0.50    2.60
   8   1  -9    1.80    3.30
   8   1  -9    2.00    3.00
   8   1  -9   -0.80    2.70
  -8  -1   9    0.50    2.70
  -8  -1   9    3.10    2.70
   7   1  -9    0.30    2.10
   7   1  -9   -3.30    2.00
   7   1  -9   -5.80    1.90
  -7  -1   9   -0.60    2.10
  -7  -1   9    1.50    2.20
  -7  -1   9   -2.30    1.50
   6   1  -9   22.90    3.70
   6   1  -9   16.60    2.00
   6   1  -9   27.40    3.30
   6   1  -9   19.40    3.00
  -6  -1   9   21.30    2.60
  -6  -1   9   22.30    3.10
  -6  -1   9   16.50    3.00
  -6  -1   9   20.50    3.30
   5   1  -9    2.10    1.80
   5   1  -9    0.20    1.10
   5   1  -9    1.00    1.90
   5   1  -9    0.80    1.40
  -5  -1   9    1.70    1.60
  -5  -1   9    0.10    1.60
  -5  -1   9    0.40    1.60
  -5  -1   9    0.90    1.80
  -5  -1   9    0.80    1.50
   4   1  -9   59.59    3.30
   4   1  -9   62.59    3.80
   4   1  -9   65.89    4.30
   4   1  -9   63.19    3.60
   4   1  -9   75.39    4.60
  -4  -1   9   67.69    4.00
  -4  -1   9   64.69    3.90
  -4  -1   9   75.99    4.30
  -4  -1   9   65.69    4.00
  -4  -1   9   69.29    4.50
   3   1  -9   34.00    2.60
   3   1  -9   36.30    2.20
   3   1  -9   43.40    3.10
   3   1  -9   33.70    2.90
   3   1  -9   34.50    2.50
  -3  -1   9   35.50    3.10
  -3  -1   9   34.60    2.60
  -3  -1   9   39.80    2.90
  -3  -1   9   39.70    2.70
  -3  -1   9   44.20    3.50
   2   1  -9   74.09    3.10
   2   1  -9   71.19    3.00
   2   1  -9   75.19    3.80
   2   1  -9   72.59    3.20
   2   1  -9   75.29    3.70
   2   1  -9   71.79    3.50
   2   1  -9   74.59    3.20
  -2  -1   9   82.39    4.50
  -2  -1   9   80.99    4.00
  -2  -1   9   78.39    3.70
  -2  -1   9   73.39    3.40
  -2  -1   9   77.69    3.40
  -2  -1   9   74.49    3.40
   1   1  -9   15.80    1.00
   1   1  -9   16.30    1.10
   1   1  -9   14.50    1.50
   1   1  -9   14.30    0.90
   1   1  -9   13.90    1.30
   1   1  -9   18.90    2.00
   1   1  -9   16.10    0.90
  -1  -1   9   13.80    1.60
  -1  -1   9   15.00    1.50
  -1  -1   9   15.70    2.20
  -1  -1   9   15.80    1.20
   0   1  -9    4.40    0.70
   0   1  -9    4.70    1.50
   0   1  -9    5.10    0.80
   0  -1   9    5.60    1.70
   0  -1   9    3.30    0.80
   0  -1   9    3.80    0.80
  -1   1  -9   38.60    1.70
  -1   1  -9   37.00    3.10
   1  -1   9   36.60    1.90
   1  -1   9   41.40    2.10
   1  -1   9   37.10    3.40
  -2   1  -9   24.10    2.60
  -2   1  -9   21.90    1.50
   2  -1   9   22.50    1.80
   2  -1   9   23.50    1.70
  -3   1  -9   68.09    3.40
  -3   1  -9   71.49    2.70
  -3   1  -9   71.19    2.70
  -3   1  -9   65.59    3.20
   3  -1   9   73.39    3.60
   3  -1   9   66.09    3.50
  -4   1  -9    0.70    1.10
  -4   1  -9    0.00    1.20
  -4   1  -9    0.90    1.00
  -4   1  -9    0.70    0.80
   4  -1   9    1.90    1.30
   4  -1   9   -0.20    1.20
  -5   1  -9   40.60    3.10
  -5   1  -9   33.30    2.50
  -5   1  -9   41.10    2.90
   5  -1   9   35.50    3.20
   5  -1   9   27.80    3.20
  -6   1  -9    0.80    1.50
  -6   1  -9    2.20    1.70
   6  -1   9    0.70    1.80
   6  -1   9    2.10    1.90
  -7   1  -9    4.70    2.00
  -7   1  -9    4.90    2.80
   7  -1   9    0.20    2.20
   9   0  -9    6.70    3.80
   9   0  -9    0.00    3.10
  -9   0   9    5.70    3.30
  -9   0   9    3.30    2.90
   8   0  -9    2.00    2.70
   8   0  -9   -0.80    2.50
   8   0  -9    7.30    3.20
  -8   0   9   -0.30    1.80
  -8   0   9   -1.30    2.70
  -8   0   9    1.40    2.70
   7   0  -9    9.00    2.80
   7   0  -9    9.10    2.60
   7   0  -9    4.90    2.60
  -7   0   9    9.00    2.30
  -7   0   9    9.90    2.60
  -7   0   9    6.70    2.70
   6   0  -9    7.90    2.10
   6   0  -9    2.80    1.50
   6   0  -9    5.20    2.20
   6   0  -9    3.30    2.20
  -6   0   9    3.40    2.20
  -6   0   9    4.60    2.00
  -6   0   9    5.10    2.20
  -6   0   9    5.90    2.10
   5   0  -9   -1.20    1.50
   5   0  -9   -0.30    1.00
   5   0  -9   -0.40    1.70
   5   0  -9    1.50    1.80
  -5   0   9   -2.20    1.50
  -5   0   9   -0.90    1.40
  -5   0   9    0.40    1.60
  -5   0   9   -1.30    1.40
  -5   0   9    0.00    1.50
   4   0  -9   58.09    3.50
   4   0  -9   52.49    3.20
   4   0  -9   53.09    3.80
   4   0  -9   51.89    3.80
   4   0  -9   52.69    2.90
  -4   0   9   55.99    3.40
  -4   0   9   56.39    3.50
  -4   0   9   59.99    3.80
  -4   0   9   55.09    3.90
  -4   0   9   57.59    3.90
   3   0  -9   19.00    2.10
   3   0  -9   22.20    1.70
   3   0  -9   24.70    1.90
   3   0  -9   23.70    2.40
   3   0  -9   17.80    1.90
  -3   0   9   18.10    2.10
  -3   0   9   19.10    2.50
  -3   0   9   20.80    2.10
  -3   0   9   22.10    2.00
  -3   0   9   18.10    2.20
  -3   0   9   21.90    2.00
   2   0  -9   73.99    3.10
   2   0  -9   77.19    3.80
   2   0  -9   82.39    3.10
   2   0  -9   82.69    3.60
   2   0  -9   84.19    3.20
   2   0  -9   84.49    3.30
   2   0  -9   78.69    3.70
  -2   0   9   88.09    3.40
  -2   0   9   79.89    3.90
  -2   0   9   85.89    3.40
  -2   0   9   81.29    4.00
  -2   0   9   79.39    3.30
  -2   0   9   84.89    3.80
  -2   0   9   90.59    4.80
   1   0  -9   55.29    2.50
   1   0  -9   52.39    2.50
   1   0  -9   54.79    2.40
  -1   0   9   56.49    3.90
  -1   0   9   54.59    2.70
  -1   0   9   59.89    2.60
   0   0  -9   35.00    2.70
   0   0   9   30.80    1.30
   0   0   9   24.00    2.90
   0   0   9   23.50    1.40
  -1   0  -9   28.90    2.50
   1   0   9   39.20    3.50
  -2   0  -9    3.90    0.60
  -2   0  -9    6.20    0.70
   2   0   9    1.00    1.70
   2   0   9    4.70    0.70
   2   0   9    5.20    0.80
  -3   0  -9    6.90    0.60
  -3   0  -9    6.40    1.20
  -3   0  -9    6.30    1.10
   3   0   9    6.60    1.30
   3   0   9    6.80    1.10
  -4   0  -9    1.70    1.10
  -4   0  -9    2.50    1.30
  -4   0  -9    1.80    0.80
  -4   0  -9    3.10    1.00
   4   0   9    2.80    1.30
   4   0   9    3.30    1.30
  -5   0  -9   14.80    1.90
  -5   0  -9   16.90    1.70
  -5   0  -9   13.90    1.90
  -5   0  -9   14.40    2.00
   5   0   9   15.10    2.40
   5   0   9   15.50    2.30
   5   0   9   16.40    1.50
  -6   0  -9    2.40    1.60
  -6   0  -9    2.10    1.50
  -6   0  -9    2.30    1.70
   6   0   9    2.40    1.80
   6   0   9    5.80    2.20
  -7   0  -9    1.90    2.00
   7   0   9    1.50    2.20
   9  -1  -9    2.30    3.00
  -9   1   9    2.30    3.10
  -9   1   9    1.50    2.90
   8  -1  -9    6.50    3.10
   8  -1  -9   12.30    3.70
   8  -1  -9   13.10    3.20
  -8   1   9    7.80    2.50
  -8   1   9    6.30    2.80
  -8   1   9    9.00    3.10
   7  -1  -9    2.50    2.60
   7  -1  -9    7.40    2.60
   7  -1  -9    0.90    1.50
   7  -1  -9   -0.40    2.30
  -7   1   9    3.90    2.30
  -7   1   9    1.80    2.30
  -7   1   9    1.40    2.00
   6  -1  -9    0.40    1.70
   6  -1  -9    0.90    1.30
   6  -1  -9   -0.10    1.90
   6  -1  -9   -0.30    1.90
  -6   1   9    0.00    2.00
  -6   1   9    0.20    1.70
  -6   1   9    1.40    1.90
  -6   1   9    1.10    1.90
   5  -1  -9    0.80    1.80
   5  -1  -9   -0.20    1.70
   5  -1  -9    3.00    1.60
   5  -1  -9   -0.90    1.00
  -5   1   9    0.00    1.50
  -5   1   9    0.40    1.60
  -5   1   9    1.30    1.70
  -5   1   9    0.60    1.60
  -5   1   9   -0.40    1.50
   4  -1  -9    1.50    1.30
   4  -1  -9   -0.80    1.30
   4  -1  -9    2.90    1.50
   4  -1  -9    1.00    0.90
   4  -1  -9    0.50    1.00
  -4   1   9    1.20    1.60
  -4   1   9   -0.40    1.20
  -4   1   9    0.20    1.30
  -4   1   9    0.10    1.30
  -4   1   9    1.70    1.30
   3  -1  -9  126.49    5.20
   3  -1  -9  135.29    6.00
   3  -1  -9  134.69    6.00
   3  -1  -9  147.69    5.50
   3  -1  -9  142.89    5.70
  -3   1   9  145.79    5.70
  -3   1   9  135.59    6.20
  -3   1   9  150.88    6.10
  -3   1   9  139.69    6.60
  -3   1   9  149.69    5.70
   2  -1  -9    2.40    0.90
   2  -1  -9    4.20    1.10
   2  -1  -9    3.40    0.70
   2  -1  -9    2.60    0.70
   2  -1  -9    2.50    0.60
   2  -1  -9    3.80    1.10
  -2   1   9    2.40    0.80
  -2   1   9    2.20    0.70
  -2   1   9    1.80    0.90
  -2   1   9    2.70    1.10
  -2   1   9    1.10    1.50
  -2   1   9    2.20    0.70
   1  -1  -9  325.67   10.40
   1  -1  -9  286.17   10.40
   1  -1  -9  308.47   10.30
  -1   1   9  309.37   10.60
  -1   1   9  330.97   10.60
  -1   1   9  301.17   11.90
   0  -1  -9   25.20    2.20
   0   1   9   26.50    3.10
  -1  -1  -9  113.29    4.60
   1   1   9  106.89    5.60
   2   1   9   42.20    3.90
   2   1   9   40.50    2.00
   2   1   9   39.70    1.90
  -3  -1  -9    5.60    1.10
  -3  -1  -9    6.70    1.20
   3   1   9    7.20    1.30
   3   1   9    5.90    1.10
  -4  -1  -9    1.20    1.10
  -4  -1  -9    1.30    1.20
  -4  -1  -9   -0.10    1.00
  -4  -1  -9    2.10    0.80
   4   1   9    1.10    1.20
   4   1   9    1.00    1.30
  -5  -1  -9    3.70    1.10
  -5  -1  -9    6.40    1.50
  -5  -1  -9    7.10    1.60
   5   1   9    1.70    1.70
   5   1   9    3.00    1.70
  -6  -1  -9    0.20    1.50
  -6  -1  -9   -1.50    1.50
  -6  -1  -9    2.30    1.70
   6   1   9    3.60    2.10
   6   1   9    4.10    1.60
   6   1   9    0.10    1.90
   6   1   9    2.80    2.00
  -7  -1  -9    4.10    2.10
   7   1   9    4.20    2.40
   7   1   9    2.60    2.00
   9  -2  -9   11.90    3.70
  -9   2   9   12.80    3.60
  -9   2   9    7.90    2.80
  -9   2   9   13.50    4.00
   8  -2  -9    8.40    3.20
   8  -2  -9    6.60    3.20
  -8   2   9    6.20    2.60
  -8   2   9    7.90    3.00
  -8   2   9    7.40    3.10
   7  -2  -9   47.20    4.50
   7  -2  -9   53.79    3.70
   7  -2  -9   43.70    4.90
  -7   2   9   59.89    5.00
  -7   2   9   53.09    4.90
  -7   2   9   57.19    4.90
   6  -2  -9    1.70    1.40
   6  -2  -9    2.70    2.10
   6  -2  -9    2.20    2.00
   6  -2  -9   -0.30    1.70
  -6   2   9    3.20    2.00
  -6   2   9    2.00    2.10
  -6   2   9    1.40    2.10
  -6   2   9    1.10    2.00
   5  -2  -9    7.90    2.30
   5  -2  -9    4.90    1.80
   5  -2  -9    7.80    1.50
   5  -2  -9    7.00    2.20
  -5   2   9    8.40    2.20
  -5   2   9    8.40    2.10
  -5   2   9   11.40    2.70
  -5   2   9    8.30    2.00
  -5   2   9    8.80    2.10
   4  -2  -9   16.10    2.10
   4  -2  -9   25.20    2.40
   4  -2  -9   17.50    1.80
   4  -2  -9   20.10    2.60
   4  -2  -9   15.50    2.40
  -4   2   9   17.30    2.40
  -4   2   9   23.20    2.90
  -4   2   9   19.90    2.30
  -4   2   9   19.20    2.30
  -4   2   9   23.00    3.10
   3  -2  -9   77.99    3.60
   3  -2  -9   75.79    3.70
   3  -2  -9   64.39    4.40
   3  -2  -9   70.49    3.30
   3  -2  -9   71.89    4.00
  -3   2   9   75.79    3.60
  -3   2   9   71.79    4.20
  -3   2   9   70.39    4.60
  -3   2   9   80.09    3.60
  -3   2   9   74.39    4.00
   2  -2  -9   42.70    2.40
   2  -2  -9   45.20    2.20
   2  -2  -9   43.90    2.20
   2  -2  -9   46.20    2.80
  -2   2   9   40.50    3.80
  -2   2   9   45.30    2.30
  -2   2   9   45.20    2.70
  -2   2   9   45.90    2.00
  -2   2   9   45.20    2.90
  -2   2   9   43.90    2.00
   1  -2  -9  285.27    9.70
   1  -2  -9  275.57    9.40
  -1   2   9  270.47    9.80
  -1   2   9  287.27   11.20
  -1   2   9  281.47    9.70
   0  -2  -9    3.90    0.70
   0  -2  -9    4.40    0.90
   0  -2  -9    3.10    0.60
   0   2   9    3.80    0.80
   0   2   9    5.00    1.90
   0   2   9    3.20    0.70
   1   2   9  204.98    8.60
   1   2   9  189.88    6.70
   1   2   9  191.58    6.70
  -2  -2  -9    5.70    0.90
   2   2   9    8.40    2.20
   2   2   9    4.70    1.00
   2   2   9    6.70    1.00
  -3  -2  -9    7.20    1.30
  -3  -2  -9   10.30    1.00
   3   2   9    8.00    1.50
   3   2   9   10.30    1.40
   3   2   9   12.00    2.50
  -4  -2  -9   20.70    2.20
  -4  -2  -9   21.20    2.30
  -4  -2  -9   22.30    2.10
  -4  -2  -9   22.70    1.70
   4   2   9   22.70    2.50
   4   2   9   19.90    2.20
  -5  -2  -9    1.40    1.40
  -5  -2  -9    0.10    1.40
  -5  -2  -9   -0.30    1.00
   5   2   9   -0.20    1.50
   5   2   9    0.70    1.50
  -6  -2  -9    4.70    2.00
  -6  -2  -9    2.80    1.80
   6   2   9    4.40    2.10
   6   2   9    0.60    1.80
   6   2   9    3.60    1.40
  -7  -2  -9    3.10    2.10
   7   2   9    2.90    2.40
   7   2   9   -1.10    1.80
   9  -3  -9    5.50    3.50
  -9   3   9   -1.80    2.80
  -9   3   9   -4.20    2.90
   8  -3  -9    0.70    2.70
   8  -3  -9   -1.40    2.20
  -8   3   9   -1.10    2.70
  -8   3   9   -2.60    2.70
   7  -3  -9    7.40    2.80
   7  -3  -9   10.60    2.90
  -7   3   9   14.10    3.20
  -7   3   9   14.10    3.20
   6  -3  -9   51.19    4.70
   6  -3  -9   50.79    4.30
   6  -3  -9   55.99    3.60
  -6   3   9   56.39    5.20
  -6   3   9   52.79    4.60
  -6   3   9   46.50    4.40
   5  -3  -9   20.10    2.30
   5  -3  -9   24.30    2.90
   5  -3  -9   29.20    3.30
  -5   3   9   25.30    2.90
  -5   3   9   27.90    3.10
  -5   3   9   23.90    3.00
  -5   3   9   18.50    2.90
  -5   3   9   25.60    3.50
   4  -3  -9   86.79    4.60
   4  -3  -9   90.49    5.20
   4  -3  -9   88.39    4.30
  -4   3   9   96.59    5.40
  -4   3   9   88.29    4.70
  -4   3   9   91.69    5.00
  -4   3   9   95.99    4.80
  -4   3   9   88.89    5.60
   3  -3  -9    1.70    1.00
   3  -3  -9    4.50    1.40
   3  -3  -9    6.20    1.60
   3  -3  -9    5.20    1.30
  -3   3   9    5.30    1.70
  -3   3   9    2.50    1.90
  -3   3   9    2.00    1.30
  -3   3   9    2.30    1.20
  -3   3   9    6.00    1.50
   2  -3  -9   25.80    2.00
   2  -3  -9   30.00    2.50
   2  -3  -9   28.90    2.10
   2  -3  -9   26.30    1.90
  -2   3   9   27.80    2.40
  -2   3   9   25.00    3.20
  -2   3   9   29.80    1.80
  -2   3   9   26.90    2.60
  -2   3   9   27.10    2.00
   1  -3  -9    2.10    0.70
   1  -3  -9    0.90    0.80
   1  -3  -9    2.10    1.00
   1  -3  -9    1.90    0.70
  -1   3   9   -0.40    1.70
  -1   3   9    1.90    1.00
  -1   3   9    1.90    1.00
   0  -3  -9    7.40    1.20
   0  -3  -9    5.00    1.00
   0   3   9   11.00    1.30
   0   3   9    6.20    1.20
   0   3   9    4.30    1.90
  -1  -3  -9   -0.70    0.80
  -1  -3  -9    0.10    0.80
   1   3   9    0.30    0.90
   1   3   9    0.80    1.60
   1   3   9    0.90    0.90
  -2  -3  -9   45.10    2.60
  -2  -3  -9   51.79    2.10
   2   3   9   49.30    4.20
   2   3   9   48.10    2.90
   2   3   9   47.40    3.00
  -3  -3  -9   -0.90    0.90
  -3  -3  -9    1.10    1.10
   3   3   9   -0.40    1.10
   3   3   9    1.50    2.00
   3   3   9    0.70    1.10
  -4  -3  -9   20.30    1.80
  -4  -3  -9   24.10    2.50
  -4  -3  -9   20.60    2.30
   4   3   9   21.20    2.60
   4   3   9   23.10    2.50
  -5  -3  -9    1.10    1.50
  -5  -3  -9   -1.50    1.50
  -5  -3  -9    1.60    1.20
   5   3   9    1.00    1.70
   5   3   9    0.40    1.70
  -6  -3  -9    3.10    2.10
   6   3   9    5.60    2.20
   6   3   9    5.50    2.30
   9  -4  -9   -0.50    3.20
  -9   4   9    1.80    3.40
  -9   4   9   -0.20    3.10
   8  -4  -9    7.70    3.20
   8  -4  -9    4.30    2.90
  -8   4   9    7.60    3.40
  -8   4   9   10.60    3.40
   7  -4  -9   21.60    3.80
   7  -4  -9   17.00    3.40
  -7   4   9   14.60    3.40
  -7   4   9   26.60    3.90
   6  -4  -9    5.10    2.20
   6  -4  -9    7.70    2.80
   6  -4  -9    4.90    1.80
  -6   4   9    4.70    2.30
  -6   4   9    4.90    2.50
  -6   4   9    3.60    2.40
   5  -4  -9    9.30    2.20
   5  -4  -9    7.40    1.70
   5  -4  -9    9.00    2.50
  -5   4   9   12.10    2.50
  -5   4   9    9.80    2.20
  -5   4   9    8.70    2.40
  -5   4   9    8.30    2.50
   4  -4  -9   13.10    1.80
   4  -4  -9   18.90    2.50
   4  -4  -9   13.80    2.50
  -4   4   9   13.10    2.30
  -4   4   9   13.00    2.70
  -4   4   9   12.40    2.30
  -4   4   9   13.30    2.50
  -4   4   9   15.70    2.30
   3  -4  -9    2.30    1.20
   3  -4  -9    3.40    1.60
   3  -4  -9    2.00    1.40
  -3   4   9    2.50    2.20
  -3   4   9    2.30    1.50
  -3   4   9    3.30    1.50
  -3   4   9   -0.10    1.40
  -3   4   9    2.80    1.40
   2  -4  -9   71.89    3.70
   2  -4  -9   68.69    3.70
   2  -4  -9   67.39    3.50
   2  -4  -9   71.69    4.10
  -2   4   9   67.89    4.00
  -2   4   9   71.89    4.20
  -2   4   9   73.29    3.50
  -2   4   9   75.79    5.10
  -2   4   9   77.59    3.60
   1  -4  -9   25.40    2.30
   1  -4  -9   21.60    2.00
   1  -4  -9   24.90    1.90
   1  -4  -9   27.20    2.10
  -1   4   9   24.10    1.50
  -1   4   9   28.10    1.80
  -1   4   9   25.30    3.30
  -1   4   9   22.70    2.30
  -1   4   9   23.90    2.40
   0  -4  -9   31.80    2.40
   0  -4  -9   30.30    2.00
   0  -4  -9   29.60    2.40
   0  -4  -9   25.30    1.80
   0   4   9   33.60    2.60
   0   4   9   32.20    3.40
   0   4   9   28.90    2.70
  -1  -4  -9   19.80    1.60
  -1  -4  -9   22.40    2.00
   1   4   9   13.20    2.10
   1   4   9   19.50    2.20
   1   4   9   23.50    3.10
  -2  -4  -9    2.80    1.10
  -2  -4  -9    2.80    1.20
   2   4   9    1.60    1.30
   2   4   9    2.90    1.50
   2   4   9    3.90    2.10
  -3  -4  -9    0.80    1.30
   3   4   9    4.30    2.20
   3   4   9    0.80    1.50
   3   4   9    1.80    1.50
  -4  -4  -9    1.70    1.70
  -4  -4  -9    1.40    1.20
  -4  -4  -9    0.40    1.50
   4   4   9    0.40    1.50
   4   4   9    3.30    1.80
   4   4   9    1.10    2.20
  -5  -4  -9    6.00    2.10
  -5  -4  -9    1.60    2.00
   5   4   9    4.80    2.10
   5   4   9    2.80    2.00
  -6  -4  -9    2.00    2.20
   6   4   9    0.40    2.10
   8  -5  -9    2.10    3.30
  -8   5   9    5.50    3.30
  -8   5   9    4.50    3.30
   7  -5  -9    3.00    2.70
   7  -5  -9    0.50    2.70
  -7   5   9   -4.90    2.50
  -7   5   9   -1.40    2.50
   6  -5  -9   -0.70    2.20
   6  -5  -9    0.80    1.70
   6  -5  -9    0.90    2.30
  -6   5   9    1.90    2.40
  -6   5   9    0.50    2.40
   5  -5  -9    4.50    1.70
   5  -5  -9   -0.70    1.90
   5  -5  -9    1.90    2.10
  -5   5   9    4.00    2.30
  -5   5   9    0.40    2.10
  -5   5   9    0.30    2.00
   4  -5  -9   31.40    3.50
   4  -5  -9   25.30    3.00
   4  -5  -9   25.00    2.60
  -4   5   9   23.30    3.30
  -4   5   9   30.90    3.20
  -4   5   9   28.60    3.20
  -4   5   9   25.50    3.20
   3  -5  -9    4.10    1.50
   3  -5  -9    4.70    1.80
   3  -5  -9    4.80    1.90
  -3   5   9    3.00    2.40
  -3   5   9    4.50    1.80
  -3   5   9    6.10    1.80
  -3   5   9    5.70    1.90
  -3   5   9    4.50    2.00
   2  -5  -9   48.40    3.40
   2  -5  -9   46.70    3.70
   2  -5  -9   43.50    3.10
  -2   5   9   38.10    3.50
  -2   5   9   46.80    3.10
  -2   5   9   43.90    3.60
  -2   5   9   47.80    3.20
  -2   5   9   42.20    4.50
   1  -5  -9   28.00    2.40
   1  -5  -9   31.20    2.60
   1  -5  -9   34.00    2.90
  -1   5   9   29.70    2.20
  -1   5   9   36.10    3.20
  -1   5   9   25.30    3.40
  -1   5   9   27.00    2.90
  -1   5   9   33.50    2.50
   0  -5  -9   24.00    2.70
   0  -5  -9   20.90    2.10
   0  -5  -9   20.20    1.90
   0  -5  -9   20.40    2.30
   0   5   9   20.60    3.20
   0   5   9   21.40    2.70
   0   5   9   25.30    1.80
   0   5   9   25.00    2.70
  -1  -5  -9   12.40    1.70
  -1  -5  -9    9.80    1.40
   1   5   9    8.80    2.10
   1   5   9   10.90    2.20
   1   5   9   15.20    2.80
  -2  -5  -9    1.20    1.30
  -2  -5  -9   -0.10    1.10
   2   5   9    2.80    2.20
   2   5   9    1.30    1.80
   2   5   9   -0.30    1.50
  -3  -5  -9    1.60    1.60
  -3  -5  -9    0.50    1.20
   3   5   9    2.80    1.80
   3   5   9    2.70    2.30
   3   5   9   -1.30    1.60
  -4  -5  -9   -1.50    1.80
   4   5   9    1.30    1.90
   4   5   9    1.70    2.20
   4   5   9    2.40    2.00
  -5  -5  -9    2.10    2.20
   5   5   9    0.00    2.20
   5   5   9    1.30    2.00
   8  -6  -9    9.40    3.70
  -8   6   9   12.80    3.80
  -8   6   9    7.30    3.50
   7  -6  -9   10.90    3.30
   7  -6  -9    7.50    3.20
  -7   6   9    8.30    3.40
  -7   6   9    9.70    3.50
   6  -6  -9    3.30    2.50
   6  -6  -9    5.70    3.00
  -6   6   9    4.90    2.70
  -6   6   9    4.40    2.80
   5  -6  -9    4.90    2.60
   5  -6  -9    6.60    2.10
   5  -6  -9   10.60    2.60
  -5   6   9    6.90    2.60
  -5   6   9   11.00    2.80
  -5   6   9    7.00    2.70
   4  -6  -9    2.90    1.70
   4  -6  -9    0.60    2.10
   4  -6  -9    0.90    1.90
  -4   6   9    0.70    2.10
  -4   6   9    2.10    2.10
  -4   6   9    4.50    2.20
   3  -6  -9    4.10    1.90
   3  -6  -9    2.60    1.70
   3  -6  -9    4.50    2.10
  -3   6   9    5.60    2.10
  -3   6   9    6.50    2.00
  -3   6   9    6.10    2.60
  -3   6   9    3.80    2.10
  -3   6   9    5.60    2.10
   2  -6  -9    9.10    2.30
   2  -6  -9    8.20    2.00
   2  -6  -9    6.00    1.80
  -2   6   9   10.50    2.40
  -2   6   9    8.00    2.00
  -2   6   9   12.00    2.90
  -2   6   9   11.00    2.20
  -2   6   9    5.40    2.00
   1  -6  -9   32.60    3.00
   1  -6  -9   28.80    2.80
   1  -6  -9   25.00    3.00
  -1   6   9   31.30    3.90
  -1   6   9   35.40    2.90
  -1   6   9   36.10    2.80
  -1   6   9   24.70    3.20
  -1   6   9   30.90    3.40
   0  -6  -9    0.00    1.30
   0  -6  -9   -0.50    1.50
   0   6   9    3.00    1.80
   0   6   9    2.90    2.20
   0   6   9    3.70    1.40
   0   6   9    1.90    1.90
   0   6   9    1.10    1.40
  -1  -6  -9   39.20    3.00
  -1  -6  -9   48.80    3.60
   1   6   9   42.90    4.20
   1   6   9   46.60    2.90
   1   6   9   37.20    4.10
   1   6   9   47.20    4.50
  -2  -6  -9    5.40    1.60
  -2  -6  -9   10.90    2.10
   2   6   9    7.80    1.40
   2   6   9    5.90    2.40
   2   6   9    5.20    2.50
   2   6   9   10.20    2.60
  -3  -6  -9    8.60    2.40
  -3  -6  -9   11.80    2.10
   3   6   9   11.40    1.60
   3   6   9   10.60    2.80
   3   6   9   13.80    2.90
   3   6   9   12.40    2.90
  -4  -6  -9    2.90    1.70
  -4  -6  -9    4.70    2.40
   4   6   9    1.00    2.20
   4   6   9    3.00    1.50
   4   6   9    3.70    2.30
   7  -7  -9    8.60    3.30
  -7   7   9    3.90    3.20
  -7   7   9    3.40    3.10
   6  -7  -9    0.10    2.50
   6  -7  -9    0.40    2.60
  -6   7   9    0.40    2.70
  -6   7   9   -0.20    2.60
   5  -7  -9   17.30    3.50
   5  -7  -9   17.20    3.00
   5  -7  -9   18.90    3.40
  -5   7   9   14.20    3.20
  -5   7   9   13.80    3.20
   4  -7  -9    1.70    2.20
   4  -7  -9   -1.20    2.10
   4  -7  -9    3.80    1.90
  -4   7   9   -0.30    2.30
  -4   7   9    2.00    2.30
  -4   7   9    1.40    2.40
   3  -7  -9    0.80    2.00
   3  -7  -9    2.40    2.20
   3  -7  -9    1.80    1.80
  -3   7   9    4.80    2.70
  -3   7   9    0.80    2.00
  -3   7   9    2.20    2.20
  -3   7   9    0.40    2.00
   2  -7  -9   -0.20    1.90
   2  -7  -9    1.90    2.00
   2  -7  -9    1.80    1.80
  -2   7   9    0.30    1.80
  -2   7   9    3.60    2.10
  -2   7   9   -0.10    1.80
  -2   7   9   -0.80    2.50
  -2   7   9   -0.80    1.80
   1  -7  -9   12.50    2.40
   1  -7  -9   10.60    2.20
  -1   7   9   13.90    2.30
  -1   7   9   10.50    2.70
  -1   7   9   18.40    3.60
  -1   7   9   13.80    2.40
  -1   7   9   11.70    2.80
   0  -7  -9    3.00    1.80
   0  -7  -9    1.40    1.80
   0   7   9    2.20    1.60
   0   7   9    2.80    2.30
   0   7   9    2.00    2.50
   0   7   9   -1.70    1.60
   0   7   9    1.30    2.10
  -1  -7  -9   18.50    2.40
  -1  -7  -9   14.40    2.50
   1   7   9   15.10    3.10
   1   7   9    8.30    2.80
   1   7   9   14.00    3.10
   1   7   9   14.00    2.20
  -2  -7  -9    3.00    2.00
  -2  -7  -9    0.40    1.60
   2   7   9    0.10    2.30
   2   7   9   -1.10    2.30
   2   7   9   -2.20    2.20
   2   7   9   -1.00    1.50
  -3  -7  -9    4.20    2.00
  -3  -7  -9    3.40    2.30
   3   7   9    5.90    2.60
   3   7   9    2.90    1.70
   6  -8  -9    0.40    2.90
   6  -8  -9    0.30    3.00
  -6   8   9    1.00    2.90
  -6   8   9    3.10    2.90
   5  -8  -9   15.20    3.40
   5  -8  -9   10.00    3.30
  -5   8   9   14.30    3.40
  -5   8   9   13.20    3.40
   4  -8  -9    6.20    2.40
   4  -8  -9    6.10    2.80
   4  -8  -9    7.90    2.90
  -4   8   9    3.60    2.70
  -4   8   9   11.90    3.10
   3  -8  -9    6.00    2.60
   3  -8  -9   10.00    2.70
   3  -8  -9   11.30    2.70
  -3   8   9   13.80    3.00
  -3   8   9   13.20    3.10
   2  -8  -9    5.90    2.40
   2  -8  -9    7.90    2.40
  -2   8   9    6.20    3.10
  -2   8   9    7.00    2.50
  -2   8   9    6.90    2.80
  -2   8   9   10.00    2.70
   1  -8  -9   -1.10    1.90
   1  -8  -9   -2.40    2.00
  -1   8   9    2.40    2.70
  -1   8   9   -0.40    2.20
  -1   8   9    0.30    2.00
  -1   8   9    3.30    1.90
   0  -8  -9   -1.60    1.80
   0  -8  -9    2.00    2.00
   0   8   9    0.20    1.90
   0   8   9   -2.60    2.40
   0   8   9   -1.00    2.40
  -1  -8  -9    1.90    2.10
  -1  -8  -9    3.30    2.10
   1   8   9    2.90    2.80
   1   8   9    4.40    2.10
   1   8   9    0.50    2.50
  -2  -8  -9   -3.10    1.70
  -2  -8  -9    0.20    2.10
   2   8   9    0.30    2.50
   2   8   9    1.90    2.80
   2   8   9    1.30    1.90
   3  -9  -9    8.60    3.10
  -3   9   9   10.00    3.10
  -3   9   9   17.20    4.20
  -3   9   9    9.80    3.00
   2  -9  -9   -1.60    2.10
   2  -9  -9    1.00    2.30
  -2   9   9   -1.40    2.40
  -2   9   9   -2.20    2.80
  -2   9   9    2.60    2.30
   1  -9  -9   -1.40    2.20
   1  -9  -9   -2.80    2.20
  -1   9   9   -1.30    2.70
  -1   9   9   -0.80    2.30
  -1   9   9    1.80    2.30
   0  -9  -9   -0.70    2.10
   0  -9  -9   -0.40    2.20
   0   9   9   -0.70    2.30
   0   9   9   -0.40    2.60
   1  10 -10   10.40    3.40
  -1 -10  10   11.80    3.60
  -1 -10  10    3.00    3.10
   0  10 -10    1.50    2.90
   0 -10  10   -2.10    2.90
   0 -10  10   -1.50    2.90
  -1  10 -10    8.80    3.20
   1 -10  10    8.90    3.70
   4   9 -10    0.60    3.20
  -4  -9  10    4.10    3.70
  -4  -9  10    0.90    2.90
   3   9 -10    6.40    3.20
  -3  -9  10    2.60    3.10
  -3  -9  10    1.80    3.00
   2   9 -10    3.70    2.90
  -2  -9  10    3.90    2.80
  -2  -9  10    4.30    3.10
   1   9 -10    3.20    2.60
   1   9 -10    4.90    2.90
  -1  -9  10    8.50    3.10
  -1  -9  10    2.50    3.00
   0   9 -10    0.00    2.50
   0   9 -10    1.10    2.60
   0  -9  10    0.20    2.70
   0  -9  10    1.30    2.60
  -1   9 -10   -1.30    2.40
  -1   9 -10    2.20    2.40
   1  -9  10    0.60    2.80
  -2   9 -10    0.40    2.60
  -2   9 -10    0.80    2.90
   2  -9  10   -2.50    2.90
  -3   9 -10    4.70    2.80
  -3   9 -10    3.10    2.50
   3  -9  10    0.60    3.00
   5   8 -10    8.20    3.80
  -5  -8  10    9.80    3.60
  -5  -8  10    9.30    3.50
   4   8 -10    5.00    3.20
  -4  -8  10    3.40    3.10
  -4  -8  10    6.80    3.30
   3   8 -10    5.10    3.00
   3   8 -10    2.40    2.80
  -3  -8  10    4.30    2.80
  -3  -8  10    7.50    3.20
   2   8 -10    5.80    2.70
   2   8 -10    3.70    2.50
  -2  -8  10    2.90    2.70
  -2  -8  10    1.80    2.50
   1   8 -10   -2.10    2.00
   1   8 -10   -0.50    2.20
  -1  -8  10   -0.40    2.20
  -1  -8  10    1.70    2.60
   0   8 -10    1.30    2.40
   0   8 -10    0.30    2.00
   0  -8  10    0.50    2.30
   0  -8  10   -4.10    2.00
  -1   8 -10    0.80    2.40
  -1   8 -10   -1.10    1.90
   1  -8  10    2.20    2.60
  -2   8 -10    1.00    2.20
  -2   8 -10    3.00    2.20
   2  -8  10    5.70    3.00
  -3   8 -10    4.40    2.50
  -3   8 -10    3.10    2.50
   3  -8  10    4.10    3.00
  -4   8 -10    1.80    2.60
  -4   8 -10    0.20    2.20
   4  -8  10    3.30    2.90
   6   7 -10    2.30    3.50
  -6  -7  10    0.40    2.90
  -6  -7  10    6.10    3.50
   5   7 -10   -5.00    2.80
  -5  -7  10   -1.80    2.80
  -5  -7  10   -0.50    2.90
   4   7 -10    2.00    2.80
   4   7 -10    3.40    2.70
  -4  -7  10    0.00    2.70
  -4  -7  10   -0.20    2.70
   3   7 -10    9.90    3.10
   3   7 -10   19.60    3.10
  -3  -7  10   10.60    3.00
  -3  -7  10    8.90    3.00
   2   7 -10   17.20    2.50
   2   7 -10   16.40    2.80
   2   7 -10   17.70    3.20
  -2  -7  10   14.90    3.00
  -2  -7  10   19.30    3.20
   1   7 -10   26.00    3.80
   1   7 -10   27.50    3.20
  -1  -7  10   26.70    3.50
  -1  -7  10   25.80    3.40
  -1  -7  10   34.40    4.90
   0   7 -10    1.90    2.20
   0   7 -10    1.70    1.70
   0  -7  10    1.30    2.10
   0  -7  10    1.50    2.40
   0  -7  10    1.30    2.20
  -1   7 -10   13.90    2.80
  -1   7 -10   17.20    2.70
   1  -7  10   15.70    3.20
   1  -7  10   16.60    3.20
  -2   7 -10    0.50    1.80
  -2   7 -10   -1.80    1.80
   2  -7  10   -1.10    2.20
   2  -7  10    1.10    2.40
  -3   7 -10    2.80    2.30
  -3   7 -10   -1.30    1.80
   3  -7  10    0.70    2.60
   3  -7  10   -0.90    2.40
  -4   7 -10   11.40    3.10
  -4   7 -10   12.80    2.70
   4  -7  10    7.10    3.00
  -5   7 -10    4.00    3.30
  -5   7 -10    6.00    2.50
   5  -7  10    2.40    2.90
   7   6 -10    1.80    3.40
  -7  -6  10    2.60    3.30
  -7  -6  10   -1.30    2.90
   6   6 -10   -2.70    2.80
  -6  -6  10    3.00    3.10
  -6  -6  10    2.40    3.00
   5   6 -10   -1.10    2.80
   5   6 -10    0.50    2.70
  -5  -6  10    5.40    3.00
  -5  -6  10    3.90    2.80
   4   6 -10   11.90    2.90
   4   6 -10   13.30    3.50
  -4  -6  10   13.70    3.20
  -4  -6  10   15.00    3.30
   3   6 -10   15.90    2.20
   3   6 -10   11.60    2.50
   3   6 -10    8.60    2.90
  -3  -6  10   17.80    3.10
  -3  -6  10   12.00    2.90
   2   6 -10   33.90    3.30
   2   6 -10   27.00    3.60
   2   6 -10   34.50    2.90
  -2  -6  10   34.50    3.80
  -2  -6  10   29.90    4.00
  -2  -6  10   29.70    3.40
   1   6 -10   55.79    3.50
   1   6 -10   53.69    4.00
   1   6 -10   43.20    4.10
  -1  -6  10   51.89    4.30
  -1  -6  10   54.09    5.10
  -1  -6  10   58.89    5.10
  -1  -6  10   52.39    4.30
   0   6 -10   14.80    2.20
   0   6 -10   22.00    3.10
   0  -6  10   13.60    2.80
   0  -6  10   13.20    2.60
   0  -6  10   16.90    2.90
   0  -6  10   15.70    2.60
  -1   6 -10   25.90    3.20
  -1   6 -10   23.30    2.60
   1  -6  10   29.70    3.50
   1  -6  10   25.50    3.70
   1  -6  10   24.40    3.30
  -2   6 -10    6.00    2.20
  -2   6 -10    7.40    1.90
   2  -6  10    8.10    2.70
   2  -6  10   10.60    2.70
   2  -6  10    6.00    2.20
  -3   6 -10    2.30    2.10
  -3   6 -10    5.10    1.90
   3  -6  10    2.00    2.40
   3  -6  10    1.20    2.30
   3  -6  10    1.40    2.20
  -4   6 -10   11.10    2.30
  -4   6 -10    5.00    2.30
   4  -6  10    9.20    2.80
   4  -6  10    7.70    2.90
  -5   6 -10    2.40    2.00
  -5   6 -10    4.80    2.40
   5  -6  10    1.30    2.50
   5  -6  10    1.50    2.50
  -6   6 -10   -1.10    1.90
   6  -6  10   -1.00    2.70
   8   5 -10   -2.10    3.30
  -8  -5  10    0.80    3.30
  -8  -5  10    5.90    6.20
   7   5 -10   14.00    3.90
  -7  -5  10    8.10    3.50
  -7  -5  10   10.50    3.70
   6   5 -10    0.00    2.60
   6   5 -10   -0.60    2.60
  -6  -5  10    1.30    2.70
  -6  -5  10    0.60    2.60
   5   5 -10    5.80    2.60
   5   5 -10    9.70    3.10
  -5  -5  10   10.70    3.10
  -5  -5  10   12.50    3.10
   4   5 -10   12.10    3.00
   4   5 -10    7.80    2.30
   4   5 -10    9.00    2.00
  -4  -5  10   10.10    2.80
  -4  -5  10    9.90    2.80
  -4  -5  10    8.60    2.80
   3   5 -10    1.30    1.30
   3   5 -10   -0.20    1.70
   3   5 -10    2.10    2.00
  -3  -5  10   -2.60    1.70
  -3  -5  10    1.60    2.20
  -3  -5  10   -2.30    1.60
   2   5 -10   13.40    2.20
   2   5 -10   10.40    2.40
   2   5 -10   12.10    1.80
  -2  -5  10   16.50    2.60
  -2  -5  10   11.10    2.70
  -2  -5  10    9.50    2.40
  -2  -5  10   15.60    2.50
   1   5 -10    2.60    1.80
   1   5 -10    4.20    1.60
   1   5 -10    2.60    1.30
   1   5 -10    2.70    1.20
  -1  -5  10    2.10    1.60
  -1  -5  10    2.80    1.90
  -1  -5  10    2.10    1.70
  -1  -5  10    2.90    1.90
   0   5 -10    4.90    1.40
   0   5 -10    5.20    1.80
   0   5 -10    2.20    1.20
   0   5 -10    3.00    1.40
   0  -5  10    1.00    1.60
   0  -5  10    3.80    1.80
   0  -5  10    3.60    1.90
   0  -5  10    3.70    1.70
  -1   5 -10    7.40    1.90
  -1   5 -10    8.40    1.70
  -1   5 -10   11.80    1.80
   1  -5  10   11.30    2.30
   1  -5  10   10.40    2.40
   1  -5  10    7.80    2.10
  -2   5 -10   10.50    1.80
  -2   5 -10   10.00    1.80
  -2   5 -10    9.00    2.20
   2  -5  10   10.60    2.50
   2  -5  10   10.00    2.20
   2  -5  10    8.70    2.30
  -3   5 -10    3.20    1.80
  -3   5 -10    3.60    1.60
   3  -5  10   -0.70    1.90
   3  -5  10    3.10    2.00
   3  -5  10    3.00    2.00
  -4   5 -10    9.30    2.30
  -4   5 -10    7.70    1.80
   4  -5  10    6.50    2.50
   4  -5  10    9.30    2.70
   4  -5  10    0.90    2.00
  -5   5 -10    0.00    1.70
  -5   5 -10    0.30    1.90
   5  -5  10    2.10    2.00
   5  -5  10    1.10    2.20
  -6   5 -10   -0.10    1.90
   6  -5  10    0.30    2.30
   8   4 -10    5.80    3.50
  -8  -4  10    9.00    3.40
  -8  -4  10    9.10    3.70
   7   4 -10    3.50    3.20
  -7  -4  10    4.20    3.00
  -7  -4  10    1.00    2.80
   6   4 -10    3.90    2.90
   6   4 -10    0.50    4.50
   6   4 -10    5.90    2.70
  -6  -4  10    6.60    2.80
  -6  -4  10   -0.30    2.30
   5   4 -10   23.60    4.60
   5   4 -10   25.40    3.30
   5   4 -10   21.10    2.30
   5   4 -10   25.80    3.70
  -5  -4  10   16.50    3.10
  -5  -4  10   27.10    3.40
   4   4 -10    0.60    1.20
   4   4 -10    2.80    2.00
   4   4 -10   -0.10    1.60
  -4  -4  10    0.90    2.10
  -4  -4  10   -0.60    1.90
  -4  -4  10    1.10    1.90
   3   4 -10    9.40    2.10
   3   4 -10    9.90    1.60
   3   4 -10   15.50    2.80
  -3  -4  10   10.70    2.50
  -3  -4  10    8.60    2.20
  -3  -4  10    8.60    2.60
  -3  -4  10    9.80    2.20
   2   4 -10   12.60    1.60
   2   4 -10    9.40    1.70
   2   4 -10   10.60    2.20
   2   4 -10   10.40    1.90
  -2  -4  10    9.60    2.40
  -2  -4  10   12.30    2.10
  -2  -4  10   13.00    2.40
  -2  -4  10   11.50    2.10
   1   4 -10   17.30    2.00
   1   4 -10   17.90    1.90
   1   4 -10   17.40    1.70
   1   4 -10   18.10    3.30
   1   4 -10   19.20    2.50
  -1  -4  10   16.00    2.50
  -1  -4  10   16.60    2.10
  -1  -4  10   20.00    2.80
  -1  -4  10   21.70    2.40
   0   4 -10   18.60    2.00
   0   4 -10   14.50    1.60
   0   4 -10   16.60    3.00
   0   4 -10   19.10    2.30
   0   4 -10   14.40    1.80
   0  -4  10   21.10    2.70
   0  -4  10   15.00    2.30
   0  -4  10   17.60    2.20
  -1   4 -10   25.70    2.20
  -1   4 -10   26.20    2.20
  -1   4 -10   23.20    2.40
  -1   4 -10   22.80    1.90
  -1   4 -10   21.30    3.30
   1  -4  10   24.60    2.80
   1  -4  10   30.00    2.50
   1  -4  10   25.20    2.90
  -2   4 -10    5.70    1.30
  -2   4 -10    0.60    3.10
  -2   4 -10    4.00    1.50
  -2   4 -10    5.40    1.30
   2  -4  10    5.30    1.90
   2  -4  10    4.80    1.90
   2  -4  10    4.10    1.40
  -3   4 -10    7.10    1.50
  -3   4 -10    4.00    1.60
  -3   4 -10    6.90    1.50
   3  -4  10    4.70    1.90
   3  -4  10    8.20    2.10
   3  -4  10    6.00    1.70
  -4   4 -10   17.20    2.20
  -4   4 -10   19.20    2.20
  -4   4 -10   16.60    2.40
   4  -4  10   19.50    2.30
   4  -4  10   13.70    2.80
   4  -4  10   20.40    2.90
  -5   4 -10   -0.80    1.50
  -5   4 -10    0.70    1.70
   5  -4  10   -0.20    2.10
   5  -4  10    1.60    2.00
   5  -4  10    1.10    2.10
  -6   4 -10    2.60    1.90
  -6   4 -10    6.90    2.20
   6  -4  10    3.30    2.30
  -7   4 -10   -0.30    2.00
   8   3 -10   10.90    3.60
  -8  -3  10    2.00    3.00
  -8  -3  10    4.90    3.00
   7   3 -10   -1.40    2.50
   7   3 -10    0.70    2.80
  -7  -3  10    2.80    2.60
  -7  -3  10    0.00    2.50
   6   3 -10    1.80    1.50
   6   3 -10    1.30    2.30
   6   3 -10   -0.50    2.10
  -6  -3  10    1.10    2.10
  -6  -3  10    1.80    2.30
   5   3 -10   10.40    2.30
   5   3 -10   13.60    2.80
   5   3 -10    7.70    1.70
   5   3 -10   11.00    3.20
  -5  -3  10    8.60    2.70
  -5  -3  10    8.80    2.40
  -5  -3  10   11.80    3.00
  -5  -3  10   10.60    2.20
  -5  -3  10    8.40    2.50
   4   3 -10   54.69    4.60
   4   3 -10   47.70    3.80
   4   3 -10   54.69    3.20
   4   3 -10   51.39    5.40
  -4  -3  10   54.89    3.80
  -4  -3  10   58.09    5.30
  -4  -3  10   52.09    4.20
  -4  -3  10   57.29    4.20
  -4  -3  10   46.20    3.80
   3   3 -10   27.20    3.20
   3   3 -10   25.70    2.60
   3   3 -10   23.70    2.10
  -3  -3  10   26.70    2.90
  -3  -3  10   27.30    3.00
  -3  -3  10   23.60    3.20
  -3  -3  10   25.20    2.70
  -3  -3  10   28.70    3.00
   2   3 -10  154.18    6.30
   2   3 -10  155.08    6.20
   2   3 -10  153.28    6.90
   2   3 -10  150.18    5.90
  -2  -3  10  164.68    6.60
  -2  -3  10  160.48    6.50
  -2  -3  10  149.19    7.20
  -2  -3  10  159.28    7.00
   1   3 -10   37.80    3.80
   1   3 -10   39.90    2.20
   1   3 -10   42.30    2.60
   1   3 -10   41.90    2.60
   1   3 -10   42.50    3.10
  -1  -3  10   44.80    2.80
  -1  -3  10   38.40    2.70
  -1  -3  10   45.10    3.30
  -1  -3  10   41.40    3.50
   0   3 -10   41.30    2.40
   0   3 -10   42.40    4.00
   0   3 -10   36.80    2.10
   0   3 -10   41.50    2.40
   0   3 -10   43.80    2.90
   0  -3  10   41.40    2.30
   0  -3  10   37.80    3.10
   0  -3  10   40.00    3.10
  -1   3 -10    1.20    0.80
  -1   3 -10    1.10    1.10
  -1   3 -10    1.10    0.80
  -1   3 -10    0.80    0.80
  -1   3 -10    0.70    1.70
   1  -3  10    0.30    1.20
   1  -3  10    0.00    1.20
  -2   3 -10    0.60    1.10
  -2   3 -10    0.80    1.10
  -2   3 -10   -0.90    0.80
  -2   3 -10   -1.40    1.70
  -2   3 -10   -0.20    0.80
   2  -3  10   -1.10    1.20
   2  -3  10   -0.40    1.20
  -3   3 -10    5.20    1.20
  -3   3 -10    5.90    1.20
  -3   3 -10    2.80    1.60
  -3   3 -10    1.80    1.20
   3  -3  10    3.60    1.60
   3  -3  10    4.10    1.60
  -4   3 -10   13.00    1.80
  -4   3 -10   14.10    1.70
  -4   3 -10   13.10    2.00
   4  -3  10   13.10    2.40
   4  -3  10   11.70    2.20
  -5   3 -10    4.00    1.60
  -5   3 -10    2.50    1.50
  -5   3 -10    6.40    1.80
   5  -3  10    3.60    2.00
   5  -3  10    3.80    2.10
  -6   3 -10    8.00    2.10
  -6   3 -10    7.40    2.20
   6  -3  10    8.20    2.50
   6  -3  10    5.80    2.30
  -7   3 -10    2.80    2.00
   7  -3  10    0.90    2.40
   9   2 -10   -1.60    3.30
  -9  -2  10    3.30    3.40
  -9  -2  10    2.40    3.30
   8   2 -10    8.10    3.50
  -8  -2  10    6.20    3.10
  -8  -2  10    9.40    3.30
   7   2 -10    6.40    2.90
   7   2 -10   13.20    3.30
  -7  -2  10   12.10    3.10
  -7  -2  10    6.30    2.80
   6   2 -10    0.30    2.20
   6   2 -10    0.30    2.20
   6   2 -10    3.20    1.50
  -6  -2  10    0.90    1.80
  -6  -2  10    3.30    2.10
  -6  -2  10    0.90    2.20
   5   2 -10   17.80    2.70
   5   2 -10   24.40    3.50
   5   2 -10   16.40    2.00
  -5  -2  10   18.80    2.80
  -5  -2  10   18.50    2.90
  -5  -2  10   17.40    2.60
  -5  -2  10   14.80    2.80
  -5  -2  10   14.30    3.10
   4   2 -10    9.00    2.10
   4   2 -10    4.00    1.60
   4   2 -10    6.60    1.40
  -4  -2  10    8.70    2.30
  -4  -2  10    6.30    1.90
  -4  -2  10    3.70    1.90
  -4  -2  10    8.30    2.00
  -4  -2  10    7.70    1.90
  -4  -2  10    5.70    2.10
   3   2 -10    8.00    1.30
   3   2 -10    8.80    1.60
   3   2 -10    9.60    2.00
   3   2 -10   11.30    1.80
  -3  -2  10   11.70    2.30
  -3  -2  10   12.50    2.30
  -3  -2  10   12.00    1.80
  -3  -2  10   15.00    2.20
  -3  -2  10    8.60    1.70
   2   2 -10   26.40    2.10
   2   2 -10   29.60    2.50
   2   2 -10   25.50    2.50
   2   2 -10   23.10    2.00
   2   2 -10   26.60    1.80
  -2  -2  10   26.20    2.90
  -2  -2  10   20.50    2.50
  -2  -2  10   29.40    2.30
  -2  -2  10   28.70    2.30
  -2  -2  10   24.90    2.40
   1   2 -10  219.08    7.70
   1   2 -10  232.48    8.00
   1   2 -10  220.38    8.40
   1   2 -10  237.48    7.90
  -1  -2  10  234.28    8.60
  -1  -2  10  199.48    8.70
  -1  -2  10  218.58    7.70
  -1  -2  10  230.78    9.50
  -1  -2  10  227.18    7.70
  -1  -2  10  236.08    8.00
   0   2 -10   26.60    1.40
   0   2 -10   25.80    1.40
   0   2 -10   30.00    3.30
   0   2 -10   28.20    2.10
   0   2 -10   30.70    1.60
   0  -2  10   26.30    2.30
   0  -2  10   25.60    2.20
  -1   2 -10  187.68    6.80
  -1   2 -10  183.38    6.20
  -1   2 -10  183.88    6.30
  -1   2 -10  189.48    6.20
  -1   2 -10  188.58    8.50
   1  -2  10  178.48    7.20
   1  -2  10  193.88    7.30
  -2   2 -10    0.30    1.70
  -2   2 -10    0.40    0.90
  -2   2 -10    0.20    0.60
  -2   2 -10   -0.20    0.60
  -2   2 -10    0.40    0.60
   2  -2  10   -0.20    0.90
   2  -2  10   -1.30    1.00
  -3   2 -10   25.90    1.70
  -3   2 -10   26.50    2.40
  -3   2 -10   25.40    2.10
  -3   2 -10   26.60    1.80
   3  -2  10   22.50    2.40
   3  -2  10   20.00    2.20
  -4   2 -10    2.80    1.10
  -4   2 -10    1.30    1.20
  -4   2 -10    1.00    1.10
   4  -2  10    0.90    1.50
   4  -2  10    1.20    1.50
  -5   2 -10    2.10    1.30
  -5   2 -10    4.10    1.30
  -5   2 -10   -1.40    1.20
   5  -2  10    1.40    1.60
   5  -2  10    0.80    1.60
  -6   2 -10    1.90    1.70
  -6   2 -10   -0.70    1.50
   6  -2  10    0.50    1.90
   6  -2  10   -0.90    1.80
  -7   2 -10   10.50    2.40
   7  -2  10    6.30    2.60
   9   1 -10    1.80    3.10
  -9  -1  10    5.90    3.30
  -9  -1  10    1.00    3.00
   8   1 -10    5.90    3.10
   8   1 -10   -1.30    2.40
  -8  -1  10    2.20    2.60
  -8  -1  10    4.10    2.80
   7   1 -10    2.30    2.50
   7   1 -10    0.90    2.30
  -7  -1  10   -0.40    1.70
  -7  -1  10   -4.20    2.00
  -7  -1  10   -1.00    2.10
   6   1 -10    4.50    2.40
   6   1 -10    7.10    2.40
   6   1 -10    3.60    1.50
  -6  -1  10    8.70    2.30
  -6  -1  10    5.30    2.30
  -6  -1  10    5.90    2.30
  -6  -1  10    8.70    2.20
   5   1 -10    3.70    1.70
   5   1 -10    0.30    1.90
   5   1 -10    2.60    1.30
  -5  -1  10    3.20    1.90
  -5  -1  10    2.20    1.70
  -5  -1  10    3.80    2.00
  -5  -1  10    3.30    1.80
  -5  -1  10    2.40    2.00
   4   1 -10    1.30    1.10
   4   1 -10   -1.20    1.50
   4   1 -10   -0.70    1.20
  -4  -1  10    0.40    1.70
  -4  -1  10   -0.30    1.40
  -4  -1  10   -0.70    1.40
  -4  -1  10    0.50    1.60
  -4  -1  10   -1.40    1.30
   3   1 -10    0.30    1.10
   3   1 -10    0.50    1.10
   3   1 -10    0.00    0.80
   3   1 -10    1.60    1.30
  -3  -1  10    0.40    1.20
  -3  -1  10    2.40    1.40
  -3  -1  10    1.00    1.40
  -3  -1  10   -0.30    1.30
  -3  -1  10    0.60    1.20
  -3  -1  10    1.20    1.70
   2   1 -10   10.70    1.40
   2   1 -10   10.90    1.30
   2   1 -10   12.10    1.70
   2   1 -10   11.20    1.30
   2   1 -10   10.80    1.10
  -2  -1  10   15.10    1.50
  -2  -1  10    6.90    1.40
  -2  -1  10   10.10    1.30
  -2  -1  10   11.10    1.30
  -2  -1  10   14.20    2.40
  -2  -1  10   10.90    1.80
   1   1 -10    2.50    0.60
   1   1 -10    1.60    0.90
   1   1 -10    1.60    0.50
   1   1 -10    3.30    0.90
   1   1 -10    1.90    0.50
   1   1 -10    2.40    0.70
  -1  -1  10    2.60    1.80
  -1  -1  10    0.80    0.90
  -1  -1  10    2.10    1.00
   0   1 -10    3.50    0.80
   0   1 -10    2.20    0.80
   0   1 -10    4.10    1.60
   0  -1  10    3.70    1.00
   0  -1  10    3.10    0.90
   0  -1  10    2.20    1.90
  -1   1 -10   46.70    3.60
  -1   1 -10   46.60    2.10
   1  -1  10   50.89    2.50
   1  -1  10   44.70    2.40
   1  -1  10   48.50    4.10
  -2   1 -10   -0.20    0.60
   2  -1  10    0.70    0.80
   2  -1  10   -0.40    0.70
  -3   1 -10   36.20    1.70
  -3   1 -10   33.70    2.40
  -3   1 -10   34.30    1.70
  -3   1 -10   34.90    2.20
   3  -1  10   34.70    2.60
   3  -1  10   30.70    2.50
  -4   1 -10    0.60    0.90
  -4   1 -10    1.10    1.30
  -4   1 -10    1.70    1.00
  -4   1 -10    0.40    1.10
   4  -1  10   -0.30    1.20
   4  -1  10    0.20    1.20
  -5   1 -10    1.40    1.30
  -5   1 -10    2.70    1.50
  -5   1 -10    3.10    1.30
   5  -1  10    3.20    1.80
   5  -1  10    2.40    1.60
  -6   1 -10   -0.50    1.60
  -6   1 -10    0.80    1.50
   6  -1  10   -0.80    1.90
   6  -1  10   -1.10    1.80
  -7   1 -10    0.90    1.90
   7  -1  10   -1.50    2.00
   9   0 -10    0.70    3.20
  -9   0  10    3.70    3.00
  -9   0  10    3.90    3.20
   8   0 -10    7.90    3.10
   8   0 -10    5.40    3.10
  -8   0  10    9.40    3.10
  -8   0  10    9.10    3.10
   7   0 -10   25.40    3.50
   7   0 -10   23.60    3.20
   7   0 -10   33.10    4.40
  -7   0  10   26.50    3.30
  -7   0  10   28.70    3.70
  -7   0  10   30.30    3.80
   6   0 -10   11.60    2.00
   6   0 -10   10.40    2.70
   6   0 -10    6.50    2.20
  -6   0  10   12.80    2.90
  -6   0  10    8.50    2.40
  -6   0  10    8.60    2.30
  -6   0  10    8.50    2.50
   5   0 -10   98.59    4.70
   5   0 -10   94.49    5.20
   5   0 -10   94.09    5.70
  -5   0  10  108.99    5.80
  -5   0  10  102.29    5.40
  -5   0  10  101.79    5.60
  -5   0  10  103.49    5.40
  -5   0  10  104.09    6.10
   4   0 -10    1.20    1.60
   4   0 -10    0.90    1.30
   4   0 -10    0.40    1.00
  -4   0  10    0.70    1.40
  -4   0  10    1.20    1.40
  -4   0  10   -0.10    1.80
  -4   0  10    1.30    1.40
  -4   0  10   -1.30    1.40
   3   0 -10   75.49    4.10
   3   0 -10   70.49    3.40
   3   0 -10   66.39    3.60
   3   0 -10   68.59    3.20
  -3   0  10   65.99    3.40
  -3   0  10   65.29    4.30
  -3   0  10   76.99    3.50
  -3   0  10   63.99    4.10
  -3   0  10   73.99    4.00
   2   0 -10    3.50    0.80
   2   0 -10    2.60    0.80
   2   0 -10    4.60    1.20
   2   0 -10    2.80    1.00
   2   0 -10    4.90    0.90
  -2   0  10    3.20    1.10
  -2   0  10    3.70    1.30
  -2   0  10    4.50    0.90
  -2   0  10    5.70    2.00
  -2   0  10    3.90    1.20
   1   0 -10    2.90    0.90
   1   0 -10    2.00    0.70
  -1   0  10    4.20    1.90
  -1   0  10    2.60    0.90
  -1   0  10    2.10    0.90
   0   0 -10   10.60    1.90
   0   0  10   10.70    1.00
   0   0  10   13.70    1.10
   0   0  10   13.40    2.50
  -1   0 -10   40.40    3.00
   1   0  10   37.50    3.80
  -2   0 -10   -0.20    0.50
  -2   0 -10   -0.30    0.50
   2   0  10    0.30    0.70
   2   0  10    0.60    0.60
   2   0  10    0.60    1.70
  -3   0 -10   23.40    1.90
  -3   0 -10   22.60    1.80
  -3   0 -10   25.50    1.10
   3   0  10   18.70    1.70
   3   0  10   28.00    2.20
  -4   0 -10   10.90    1.20
  -4   0 -10   10.20    1.60
  -4   0 -10    6.30    1.50
  -4   0 -10    6.00    1.20
   4   0  10    8.00    1.60
   4   0  10    8.00    1.70
  -5   0 -10    5.90    1.30
  -5   0 -10    6.50    1.60
  -5   0 -10    6.80    1.60
   5   0  10    6.40    1.90
   5   0  10    5.80    1.80
  -6   0 -10    2.30    1.80
  -6   0 -10    3.20    1.70
   6   0  10   -0.40    1.90
   6   0  10    3.00    2.00
  -7   0 -10    2.30    2.00
   7   0  10    3.00    2.30
   9  -1 -10    2.00    3.30
  -9   1  10    0.00    3.10
  -9   1  10    5.00    3.40
   8  -1 -10    6.90    2.90
   8  -1 -10    4.50    2.90
  -8   1  10    4.50    2.90
  -8   1  10    4.80    2.70
  -8   1  10    6.60    2.90
   7  -1 -10   11.20    2.20
   7  -1 -10   14.40    3.10
   7  -1 -10   12.00    3.10
  -7   1  10    7.80    2.60
  -7   1  10    8.80    2.90
  -7   1  10   12.40    2.90
   6  -1 -10   24.30    2.60
   6  -1 -10   18.80    3.20
   6  -1 -10   19.10    2.80
  -6   1  10   23.30    3.20
  -6   1  10   31.10    3.60
  -6   1  10   24.40    3.20
  -6   1  10   18.20    3.20
   5  -1 -10  108.19    5.00
   5  -1 -10   97.89    5.90
   5  -1 -10  100.19    5.40
  -5   1  10  112.49    5.70
  -5   1  10  117.49    6.40
  -5   1  10  108.99    6.10
  -5   1  10  102.59    5.50
  -5   1  10  119.29    6.00
   4  -1 -10   20.50    2.70
   4  -1 -10   19.70    1.90
   4  -1 -10   22.40    2.40
  -4   1  10   19.10    2.60
  -4   1  10   21.10    2.40
  -4   1  10   20.60    3.00
  -4   1  10   22.30    2.50
  -4   1  10   19.80    2.30
   3  -1 -10  138.89    5.60
   3  -1 -10  140.39    6.00
   3  -1 -10  144.19    6.40
   3  -1 -10  153.28    5.90
  -3   1  10  153.58    6.40
  -3   1  10  149.19    5.80
  -3   1  10  156.28    7.20
  -3   1  10  159.98    6.70
  -3   1  10  159.88    5.80
   2  -1 -10    0.20    0.80
   2  -1 -10    0.70    0.60
   2  -1 -10    0.40    1.00
   2  -1 -10    0.20    0.70
  -2   1  10   -0.30    0.90
  -2   1  10    0.50    0.50
  -2   1  10    1.90    1.70
  -2   1  10    0.30    1.00
  -2   1  10    0.90    0.50
   1  -1 -10   50.19    2.40
   1  -1 -10   50.39    2.20
  -1   1  10   45.60    4.00
  -1   1  10   52.49    2.50
  -1   1  10   49.80    2.60
   0  -1 -10    0.90    1.10
   0   1  10    0.00    0.50
   0   1  10   -2.80    1.60
   0   1  10    0.90    0.50
   1   1  10    1.30    1.80
   2   1  10   -0.30    0.60
   2   1  10    0.70    0.60
   2   1  10    0.70    1.80
  -3  -1 -10    1.90    0.90
  -3  -1 -10    2.50    1.00
   3   1  10    2.30    1.10
   3   1  10    1.50    0.90
  -4  -1 -10   -0.60    1.20
  -4  -1 -10    0.80    1.10
  -4  -1 -10    1.20    0.80
  -4  -1 -10    1.50    1.00
   4   1  10   -2.60    1.10
   4   1  10    0.40    1.20
  -5  -1 -10    4.00    1.40
  -5  -1 -10    2.70    1.10
  -5  -1 -10    3.70    1.50
   5   1  10    3.70    1.80
   5   1  10    4.50    1.70
   5   1  10    1.00    1.70
  -6  -1 -10    7.60    2.00
   6   1  10    6.40    2.40
   6   1  10    2.50    2.10
   6   1  10    3.90    2.20
   9  -2 -10    0.90    3.40
  -9   2  10    2.50    3.20
  -9   2  10    3.00    3.20
  -9   2  10   -1.50    2.50
   8  -2 -10    0.10    2.80
   8  -2 -10   14.30    3.40
  -8   2  10   10.40    3.20
  -8   2  10    9.10    3.00
  -8   2  10    7.30    2.80
   7  -2 -10    5.30    1.90
   7  -2 -10    6.40    2.60
   7  -2 -10    5.60    2.80
  -7   2  10   10.70    2.70
  -7   2  10   10.50    3.00
  -7   2  10    9.60    2.80
   6  -2 -10    7.30    2.20
   6  -2 -10    9.40    2.80
   6  -2 -10    9.10    1.90
  -6   2  10    6.20    2.60
  -6   2  10    6.70    2.20
  -6   2  10    5.50    2.60
  -6   2  10    5.30    2.40
   5  -2 -10   17.20    2.10
   5  -2 -10   14.60    2.30
   5  -2 -10   17.40    2.90
  -5   2  10   16.40    2.60
  -5   2  10   15.10    2.90
  -5   2  10   13.50    2.30
  -5   2  10   15.30    2.90
  -5   2  10   15.60    2.40
   4  -2 -10    3.50    1.30
   4  -2 -10    5.10    1.60
   4  -2 -10    4.60    1.80
  -4   2  10    2.40    1.60
  -4   2  10    3.90    1.60
  -4   2  10    0.60    2.10
  -4   2  10    4.30    1.50
  -4   2  10    2.90    1.70
   3  -2 -10    3.20    1.00
   3  -2 -10    6.00    1.30
   3  -2 -10    4.80    1.30
   3  -2 -10    5.60    1.60
  -3   2  10    4.20    1.10
  -3   2  10    6.40    1.30
  -3   2  10    3.50    1.50
  -3   2  10    3.50    1.30
  -3   2  10    3.80    2.00
   2  -2 -10   31.60    1.90
   2  -2 -10   28.30    2.40
   2  -2 -10   32.80    1.80
   2  -2 -10   28.40    2.10
  -2   2  10   33.80    3.50
  -2   2  10   33.10    2.60
  -2   2  10   29.80    2.40
   1  -2 -10    8.70    1.20
   1  -2 -10    7.90    1.00
  -1   2  10   12.60    1.40
  -1   2  10    8.40    1.30
  -1   2  10    8.50    2.40
   0  -2 -10   54.99    2.30
   0  -2 -10   51.59    2.20
   0   2  10   49.99    2.40
   0   2  10   48.30    2.40
   0   2  10   58.49    4.10
   1   2  10    7.40    1.00
   1   2  10    9.20    1.00
   1   2  10   11.40    2.60
  -2  -2 -10    9.50    1.10
   2   2  10    8.70    1.10
   2   2  10   10.00    2.60
   2   2  10   11.40    1.30
  -3  -2 -10    2.00    1.10
  -3  -2 -10    1.90    0.80
  -3  -2 -10    3.30    1.10
   3   2  10   -0.30    1.80
   3   2  10    1.00    1.10
   3   2  10    2.80    1.10
  -4  -2 -10   -0.40    1.20
  -4  -2 -10    0.70    0.90
  -4  -2 -10    0.20    1.20
   4   2  10    0.20    1.30
   4   2  10    1.20    1.30
  -5  -2 -10    0.50    1.50
  -5  -2 -10    2.50    1.50
  -5  -2 -10   -1.40    1.00
   5   2  10    1.40    1.70
   5   2  10    1.40    1.50
  -6  -2 -10    0.40    1.70
   6   2  10   -1.90    1.50
   6   2  10   -1.50    1.90
   9  -3 -10    4.00    3.50
  -9   3  10    3.40    3.00
  -9   3  10    8.30    4.00
  -9   3  10    8.70    3.50
   8  -3 -10    1.30    2.90
   8  -3 -10   -0.40    2.50
  -8   3  10    1.10    2.70
  -8   3  10    0.00    2.70
  -8   3  10    1.80    2.70
   7  -3 -10   -1.00    2.50
   7  -3 -10    1.80    2.50
   7  -3 -10   -0.90    2.20
  -7   3  10   -0.40    2.40
  -7   3  10    0.20    2.30
  -7   3  10   -0.30    2.40
   6  -3 -10   -2.10    1.80
   6  -3 -10    1.20    1.50
   6  -3 -10   -1.90    1.90
  -6   3  10    0.80    2.10
  -6   3  10    1.30    2.30
  -6   3  10   -0.10    2.50
  -6   3  10    0.20    2.20
   5  -3 -10    3.90    2.20
   5  -3 -10    5.30    2.00
   5  -3 -10    6.10    1.60
  -5   3  10    5.60    2.10
  -5   3  10    7.80    2.40
  -5   3  10    6.60    2.00
  -5   3  10    5.90    2.70
  -5   3  10    6.90    2.10
   4  -3 -10    0.50    1.10
   4  -3 -10    1.20    1.40
   4  -3 -10    2.80    1.70
  -4   3  10    2.00    1.60
  -4   3  10    1.60    1.40
  -4   3  10   -0.30    1.30
  -4   3  10    1.10    2.20
  -4   3  10   -0.70    1.60
   3  -3 -10    0.40    1.40
   3  -3 -10    2.10    1.30
   3  -3 -10    0.90    1.20
   3  -3 -10    0.70    1.00
  -3   3  10    1.90    1.50
  -3   3  10    0.60    1.10
  -3   3  10    2.20    1.30
  -3   3  10    0.70    1.20
  -3   3  10   -0.70    1.70
   2  -3 -10   14.10    1.90
   2  -3 -10   12.20    1.40
   2  -3 -10   13.40    1.60
   2  -3 -10   15.10    1.60
  -2   3  10   15.00    2.10
  -2   3  10   15.20    1.20
  -2   3  10   12.50    1.80
  -2   3  10   16.70    1.30
  -2   3  10   14.50    2.80
   1  -3 -10    3.40    1.20
   1  -3 -10    2.90    0.80
   1  -3 -10    1.90    0.70
   1  -3 -10    3.20    0.90
  -1   3  10    2.60    1.00
  -1   3  10    1.40    1.80
  -1   3  10    2.70    1.20
   0  -3 -10   10.70    1.30
   0  -3 -10   14.20    1.50
   0   3  10   11.20    1.50
   0   3  10    9.40    1.30
   0   3  10    9.40    2.50
  -1  -3 -10   19.70    1.60
  -1  -3 -10   19.20    1.60
   1   3  10   16.60    1.70
   1   3  10   16.40    1.80
   1   3  10   10.00    2.60
  -2  -3 -10    4.00    1.00
  -2  -3 -10    5.30    0.80
   2   3  10    5.30    1.30
   2   3  10    6.90    2.40
   2   3  10    4.10    1.20
  -3  -3 -10    6.60    1.30
  -3  -3 -10    8.20    1.40
   3   3  10    5.50    2.40
   3   3  10    5.80    1.60
   3   3  10    7.40    1.50
  -4  -3 -10    2.50    1.40
  -4  -3 -10    2.10    1.50
  -4  -3 -10    2.30    1.10
   4   3  10   -1.20    1.30
   4   3  10    2.30    1.50
  -5  -3 -10    0.20    1.20
  -5  -3 -10    2.60    1.70
   5   3  10   -0.70    1.60
   5   3  10   -1.40    1.60
  -6  -3 -10    2.20    2.00
   6   3  10   -0.10    2.00
   6   3  10   -0.20    1.90
   8  -4 -10    6.00    3.30
   8  -4 -10    8.60    3.20
  -8   4  10   12.10    3.70
  -8   4  10    8.20    3.10
  -8   4  10   14.50    3.70
   7  -4 -10   -0.60    2.30
   7  -4 -10    0.50    2.40
  -7   4  10    2.30    2.70
  -7   4  10    1.90    2.50
  -7   4  10    2.00    2.90
   6  -4 -10   23.00    3.50
   6  -4 -10   26.50    3.40
   6  -4 -10   18.70    2.50
  -6   4  10   27.00    4.10
  -6   4  10   25.80    3.50
  -6   4  10   23.30    3.40
  -6   4  10   28.20    4.30
   5  -4 -10    3.00    1.50
   5  -4 -10    0.80    1.90
   5  -4 -10    5.30    2.20
  -5   4  10    2.20    2.00
  -5   4  10    6.40    2.40
  -5   4  10    6.80    2.60
  -5   4  10    4.20    2.10
  -5   4  10    0.00    2.40
   4  -4 -10    3.20    1.80
   4  -4 -10    9.20    2.30
   4  -4 -10   10.60    1.80
  -4   4  10    8.50    2.00
  -4   4  10    7.80    2.30
  -4   4  10    6.10    2.70
  -4   4  10    5.20    1.90
  -4   4  10    3.60    1.80
   3  -4 -10    4.30    1.40
   3  -4 -10    1.40    1.70
   3  -4 -10    4.80    1.70
  -3   4  10    3.70    1.40
  -3   4  10    5.10    1.60
  -3   4  10    2.90    1.70
  -3   4  10    3.20    2.40
  -3   4  10    3.90    1.60
   2  -4 -10    0.70    1.20
   2  -4 -10    0.50    1.10
   2  -4 -10    1.50    1.40
   2  -4 -10    0.00    1.20
  -2   4  10    1.40    1.30
  -2   4  10    0.00    1.50
  -2   4  10    1.40    1.00
  -2   4  10    0.60    2.10
  -2   4  10    0.60    0.70
   1  -4 -10    6.80    1.60
   1  -4 -10    7.90    1.40
   1  -4 -10    9.50    1.40
   1  -4 -10    5.80    1.20
  -1   4  10    5.70    2.40
  -1   4  10    9.90    1.70
  -1   4  10    7.40    1.60
   0  -4 -10   11.50    1.40
   0  -4 -10   11.10    1.70
   0  -4 -10   10.20    1.20
   0  -4 -10    9.00    1.60
   0   4  10   11.50    1.80
   0   4  10   10.80    1.70
   0   4  10   10.80    2.60
  -1  -4 -10   20.50    1.70
  -1  -4 -10   22.50    2.10
   1   4  10   22.30    2.50
   1   4  10   16.60    2.20
   1   4  10   13.40    2.70
  -2  -4 -10    0.70    1.20
  -2  -4 -10    1.40    1.10
   2   4  10    0.80    2.10
   2   4  10    1.50    1.40
   2   4  10    0.00    1.40
  -3  -4 -10   10.70    1.80
   3   4  10   10.30    2.10
   3   4  10   13.70    3.00
   3   4  10   11.90    2.10
  -4  -4 -10    4.10    1.40
  -4  -4 -10    5.10    1.90
  -4  -4 -10    4.70    1.80
   4   4  10    2.60    1.70
   4   4  10    5.10    2.00
  -5  -4 -10   -1.50    1.80
   5   4  10    4.20    2.10
   5   4  10   -0.40    1.90
   8  -5 -10    6.90    3.30
  -8   5  10    4.20    3.10
  -8   5  10    3.40    3.10
   7  -5 -10    3.80    2.80
   7  -5 -10    0.30    2.30
  -7   5  10    7.60    3.10
  -7   5  10    2.40    2.70
   6  -5 -10   17.70    2.70
   6  -5 -10   13.40    3.10
   6  -5 -10    9.80    2.90
  -6   5  10   10.70    2.90
  -6   5  10   15.70    3.30
   5  -5 -10   33.70    3.70
   5  -5 -10   34.10    4.00
   5  -5 -10   30.60    3.00
  -5   5  10   28.20    3.50
  -5   5  10   31.40    4.30
  -5   5  10   35.10    4.20
  -5   5  10   32.70    3.70
   4  -5 -10   13.20    2.70
   4  -5 -10    8.90    2.30
   4  -5 -10   10.50    2.00
  -4   5  10   10.30    3.20
  -4   5  10    9.40    2.30
  -4   5  10   11.90    2.40
  -4   5  10    7.90    2.50
  -4   5  10   11.20    2.30
   3  -5 -10   29.70    3.30
   3  -5 -10   24.80    2.80
   3  -5 -10   24.20    2.60
  -3   5  10   31.20    4.10
  -3   5  10   27.90    2.70
  -3   5  10   27.40    2.70
  -3   5  10   19.90    2.80
  -3   5  10   25.40    3.30
   2  -5 -10   -0.20    1.40
   2  -5 -10    0.30    1.40
   2  -5 -10    1.80    1.40
  -2   5  10    0.80    1.50
  -2   5  10   -0.10    1.50
  -2   5  10    0.00    1.20
  -2   5  10    1.00    2.30
  -2   5  10    0.30    1.10
   1  -5 -10    3.30    1.40
   1  -5 -10    6.30    1.60
   1  -5 -10    5.00    1.70
  -1   5  10    4.10    1.60
  -1   5  10    3.60    2.40
  -1   5  10    2.20    1.60
  -1   5  10    4.90    1.00
   0  -5 -10    1.30    1.10
   0  -5 -10   -0.30    1.20
   0  -5 -10    1.10    1.40
   0   5  10    3.00    1.60
   0   5  10    1.90    1.60
   0   5  10    0.70    2.10
  -1  -5 -10    1.90    1.10
  -1  -5 -10    1.20    1.30
   1   5  10    1.90    1.70
   1   5  10    0.30    1.60
   1   5  10    3.30    2.40
  -2  -5 -10   -0.20    1.10
  -2  -5 -10    1.40    1.50
   2   5  10   -3.40    1.90
   2   5  10   -3.20    1.40
   2   5  10   -0.30    1.70
  -3  -5 -10    4.30    1.90
  -3  -5 -10    4.10    1.40
   3   5  10    3.30    1.90
   3   5  10    2.50    2.40
   3   5  10    1.30    1.90
  -4  -5 -10    1.50    2.00
   4   5  10    4.20    2.10
   4   5  10    3.20    2.60
   4   5  10    1.50    2.10
   7  -6 -10    2.70    3.00
   7  -6 -10    2.30    2.90
  -7   6  10   -1.20    2.80
  -7   6  10    3.10    2.90
   6  -6 -10    3.10    2.90
   6  -6 -10    4.20    2.70
  -6   6  10   -2.80    2.40
  -6   6  10    2.20    2.60
   5  -6 -10   16.70    3.30
   5  -6 -10   16.40    3.10
   5  -6 -10   15.40    2.60
  -5   6  10   19.10    3.20
  -5   6  10   19.40    3.30
  -5   6  10   18.90    4.30
   4  -6 -10    1.90    1.60
   4  -6 -10    0.40    2.00
   4  -6 -10    1.90    2.10
  -4   6  10   -0.10    2.00
  -4   6  10   -0.90    2.00
  -4   6  10    4.90    2.70
  -4   6  10    2.90    2.10
   3  -6 -10   54.29    4.60
   3  -6 -10   48.10    3.80
   3  -6 -10   59.19    4.50
  -3   6  10   51.59    4.60
  -3   6  10   42.40    4.90
  -3   6  10   63.69    4.20
  -3   6  10   46.20    4.60
  -3   6  10   52.19    4.00
   2  -6 -10    2.30    1.90
   2  -6 -10    1.10    1.70
   2  -6 -10    0.10    1.50
  -2   6  10    2.70    1.60
  -2   6  10    0.60    2.40
  -2   6  10    2.00    1.90
  -2   6  10    1.60    1.90
  -2   6  10    1.00    1.40
   1  -6 -10   18.10    2.30
   1  -6 -10   19.50    2.70
   1  -6 -10   20.20    2.60
  -1   6  10   19.30    3.50
  -1   6  10   19.60    3.00
  -1   6  10   19.20    2.80
  -1   6  10   22.30    2.20
   0  -6 -10   -0.60    1.50
   0  -6 -10    1.30    1.40
   0   6  10    0.80    0.90
   0   6  10    0.80    1.80
   0   6  10    2.00    1.90
   0   6  10    2.60    2.40
  -1  -6 -10    0.90    1.40
  -1  -6 -10    2.30    1.60
   1   6  10    1.10    1.90
   1   6  10    1.80    2.40
   1   6  10    0.40    1.90
  -2  -6 -10    2.60    1.80
  -2  -6 -10    2.90    1.60
   2   6  10    0.40    2.00
   2   6  10    0.70    2.10
   2   6  10    4.40    2.60
  -3  -6 -10   -1.70    1.40
  -3  -6 -10    0.70    2.00
   3   6  10   -1.40    2.00
   3   6  10   -1.80    2.40
   3   6  10    0.90    2.10
  -4  -6 -10    0.60    1.80
  -4  -6 -10   -0.10    2.10
   4   6  10    0.30    2.20
   4   6  10    1.60    2.20
   6  -7 -10    4.40    3.30
   6  -7 -10   -3.70    2.40
  -6   7  10    2.50    2.80
  -6   7  10    0.70    2.90
   5  -7 -10    4.80    2.70
   5  -7 -10    5.20    2.80
   5  -7 -10    2.20    2.00
  -5   7  10    1.80    2.60
  -5   7  10   -3.00    2.20
   4  -7 -10    3.70    2.00
   4  -7 -10    3.00    2.40
   4  -7 -10    4.20    2.50
  -4   7  10    4.10    2.30
  -4   7  10    0.70    2.30
  -4   7  10    4.00    2.40
  -4   7  10    3.70    2.80
   3  -7 -10    7.10    2.50
   3  -7 -10   10.70    2.80
   3  -7 -10    5.00    2.10
  -3   7  10    5.30    2.20
  -3   7  10    8.50    2.30
  -3   7  10    8.50    2.80
  -3   7  10    0.30    2.80
   2  -7 -10   15.40    2.80
   2  -7 -10   12.40    2.50
   2  -7 -10   16.40    2.70
  -2   7  10   14.30    2.60
  -2   7  10   13.70    3.40
  -2   7  10   13.30    3.00
  -2   7  10   17.20    3.00
   1  -7 -10    5.70    2.00
   1  -7 -10    4.30    2.00
  -1   7  10    8.10    2.40
  -1   7  10   10.30    2.00
  -1   7  10    5.50    2.60
  -1   7  10    5.40    3.00
   0  -7 -10   10.50    2.40
   0  -7 -10   11.20    2.30
   0   7  10    9.60    2.70
   0   7  10   14.20    1.80
   0   7  10    9.80    3.00
   0   7  10   11.80    3.00
  -1  -7 -10    1.20    2.00
  -1  -7 -10   -0.30    1.70
   1   7  10    1.40    2.30
   1   7  10    5.80    2.60
   1   7  10    3.80    2.50
  -2  -7 -10    1.00    1.70
  -2  -7 -10    3.70    2.10
   2   7  10    2.90    2.80
   2   7  10    1.10    2.40
   2   7  10    6.30    2.80
   4  -8 -10    4.90    2.70
   4  -8 -10    6.90    2.50
  -4   8  10    4.10    3.60
  -4   8  10    7.40    2.80
  -4   8  10    0.80    2.30
   3  -8 -10    0.70    2.10
   3  -8 -10    1.10    2.30
  -3   8  10    3.00    2.30
  -3   8  10    2.00    3.30
  -3   8  10    1.20    2.30
   2  -8 -10   11.20    2.60
   2  -8 -10   13.90    2.90
  -2   8  10   12.40    3.20
  -2   8  10   12.80    2.80
  -2   8  10   16.50    4.00
   1  -8 -10   -0.10    2.00
   1  -8 -10    3.20    2.20
  -1   8  10   -0.60    2.20
  -1   8  10   -2.90    1.80
  -1   8  10    0.50    2.80
   0  -8 -10    8.60    2.50
   0  -8 -10   13.50    2.80
   0   8  10   11.50    3.50
   0   8  10   16.60    3.70
   0   8  10   11.90    2.30
  -1  -8 -10    3.50    2.20
  -1  -8 -10    0.20    2.00
   1   8  10    3.90    3.00
   1   8  10    5.60    2.80
   1   8  10    0.80    2.70
   3   9 -11    2.10    3.10
  -3  -9  11    5.70    3.30
  -3  -9  11   -3.20    2.90
   2   9 -11   -0.90    2.80
  -2  -9  11   -0.70    2.80
  -2  -9  11    6.20    3.10
   1   9 -11    0.50    2.50
   1   9 -11   -0.40    2.60
  -1  -9  11    0.40    2.60
  -1  -9  11    1.20    2.80
   0   9 -11    8.00    3.00
   0   9 -11    8.30    3.20
   0  -9  11    5.70    3.20
  -1   9 -11   -0.10    2.40
  -1   9 -11    1.70    2.60
   1  -9  11    2.70    3.10
  -2   9 -11    2.80    2.60
   2  -9  11   -2.80    2.90
   4   8 -11   -0.70    2.90
  -4  -8  11    2.70    3.00
  -4  -8  11   -2.30    2.80
   3   8 -11    7.90    3.10
   3   8 -11    7.70    2.90
  -3  -8  11    4.60    2.80
  -3  -8  11    4.50    2.90
   2   8 -11    2.10    2.40
   2   8 -11    5.00    2.70
  -2  -8  11    1.10    2.50
  -2  -8  11    6.80    2.80
   1   8 -11   -2.10    2.00
   1   8 -11    2.90    2.60
  -1  -8  11   -1.00    2.40
  -1  -8  11   -2.10    2.40
   0   8 -11    6.60    2.50
   0   8 -11    2.80    2.60
   0  -8  11    8.00    2.90
  -1   8 -11    7.60    2.60
  -1   8 -11   14.90    3.40
   1  -8  11   12.30    3.30
  -2   8 -11    6.20    2.50
  -2   8 -11    5.60    2.70
   2  -8  11    5.40    3.10
  -3   8 -11   14.00    3.10
  -3   8 -11   14.70    4.00
   3  -8  11    7.30    3.20
   6   7 -11    5.50    3.80
  -6  -7  11    8.20    3.60
   5   7 -11    5.70    3.20
  -5  -7  11    8.90    3.60
  -5  -7  11    4.60    3.10
   4   7 -11    1.40    2.80
   4   7 -11   -0.40    2.80
  -4  -7  11    1.30    2.70
  -4  -7  11    1.90    2.80
   3   7 -11   17.40    3.10
   3   7 -11   13.70    3.40
  -3  -7  11   17.50    3.40
  -3  -7  11   14.80    3.30
   2   7 -11    2.40    1.80
   2   7 -11   -0.60    2.00
   2   7 -11    3.10    2.40
  -2  -7  11    4.30    2.40
  -2  -7  11    0.10    2.20
   1   7 -11    3.00    2.50
   1   7 -11    1.80    1.90
  -1  -7  11    5.60    2.40
  -1  -7  11    4.60    2.40
   0   7 -11   13.60    2.80
   0   7 -11   13.10    2.40
   0  -7  11   17.80    3.30
   0  -7  11   11.10    2.80
   0  -7  11   14.80    3.00
  -1   7 -11    1.60    1.90
  -1   7 -11    3.00    2.20
   1  -7  11    5.10    2.70
   1  -7  11    0.50    2.30
  -2   7 -11    1.20    1.90
  -2   7 -11    2.70    2.20
   2  -7  11    1.90    2.40
   2  -7  11    1.30    2.30
  -3   7 -11    2.10    2.40
  -3   7 -11    4.50    2.30
   3  -7  11    5.00    2.60
   3  -7  11    3.50    2.90
  -4   7 -11    8.90    2.60
   4  -7  11    5.10    2.90
   6   6 -11    0.70    3.20
  -6  -6  11    2.70    3.10
  -6  -6  11    7.70    3.60
   5   6 -11    1.10    2.80
   5   6 -11    4.10    3.30
  -5  -6  11    4.90    2.90
  -5  -6  11    4.30    2.90
   4   6 -11    4.20    2.50
   4   6 -11    3.60    2.80
  -4  -6  11    4.90    2.50
  -4  -6  11    3.90    2.60
   3   6 -11   -4.10    2.00
   3   6 -11    1.80    2.00
   3   6 -11    0.40    1.50
  -3  -6  11   -0.50    2.10
  -3  -6  11   -0.20    2.10
   2   6 -11   -0.10    1.90
   2   6 -11    2.20    2.10
   2   6 -11    2.20    1.60
  -2  -6  11    2.50    2.30
  -2  -6  11    1.70    2.10
  -2  -6  11    2.20    2.00
   1   6 -11   -2.70    1.20
   1   6 -11    0.80    1.60
   1   6 -11    1.20    2.00
  -1  -6  11    1.00    1.90
  -1  -6  11   -1.70    1.90
  -1  -6  11   -3.20    2.00
   0   6 -11    6.20    1.80
   0   6 -11    6.10    2.20
   0  -6  11    4.80    2.40
   0  -6  11    5.00    2.30
   0  -6  11    1.90    2.00
  -1   6 -11    2.70    1.70
  -1   6 -11    0.70    1.90
   1  -6  11    5.70    2.20
   1  -6  11    2.20    2.10
   1  -6  11    2.70    2.10
  -2   6 -11    0.90    1.90
  -2   6 -11    3.10    1.80
   2  -6  11    0.80    2.10
   2  -6  11    2.00    2.00
   2  -6  11    2.80    2.20
  -3   6 -11    1.40    1.80
  -3   6 -11    0.40    2.10
   3  -6  11    1.70    2.50
   3  -6  11    1.00    2.00
  -4   6 -11    0.40    2.10
  -4   6 -11   -1.70    1.80
   4  -6  11    1.10    2.40
   4  -6  11    1.10    2.20
  -5   6 -11   -1.70    1.90
   5  -6  11   -0.50    2.50
   7   5 -11   -1.90    3.20
  -7  -5  11    2.60    3.00
  -7  -5  11    4.20    3.20
   6   5 -11    4.40    3.10
   6   5 -11    0.40    2.80
  -6  -5  11    5.90    3.10
  -6  -5  11    3.30    2.90
   5   5 -11   -4.70    2.20
   5   5 -11    1.70    2.30
  -5  -5  11   -0.80    2.60
  -5  -5  11    0.70    2.50
   4   5 -11    0.80    2.30
   4   5 -11    0.40    1.40
   4   5 -11    0.90    2.10
  -4  -5  11    0.10    2.20
  -4  -5  11    2.00    2.30
   3   5 -11   14.60    2.50
   3   5 -11   13.40    2.00
   3   5 -11   17.10    3.10
  -3  -5  11   17.20    2.90
  -3  -5  11   20.90    3.70
  -3  -5  11   12.80    2.70
   2   5 -11    7.70    2.40
   2   5 -11    6.70    1.60
   2   5 -11   12.60    2.20
  -2  -5  11    8.10    2.30
  -2  -5  11    9.20    2.70
  -2  -5  11    4.20    2.00
  -2  -5  11    8.60    2.30
   1   5 -11    6.70    1.50
   1   5 -11   10.10    2.30
   1   5 -11    6.00    1.80
  -1  -5  11    6.80    2.30
  -1  -5  11   12.10    2.10
  -1  -5  11    9.90    2.10
  -1  -5  11    8.10    2.30
   0   5 -11   17.90    2.00
   0   5 -11   23.20    2.40
   0   5 -11   25.10    2.60
   0   5 -11   24.40    2.90
   0  -5  11   21.40    3.20
   0  -5  11   21.30    3.00
   0  -5  11   19.80    2.70
  -1   5 -11    0.50    1.50
  -1   5 -11    2.10    1.40
  -1   5 -11   -0.40    1.20
   1  -5  11    2.60    1.80
   1  -5  11   -0.20    1.50
   1  -5  11    2.00    1.90
  -2   5 -11    5.20    1.70
  -2   5 -11    8.70    1.70
  -2   5 -11   10.10    2.20
   2  -5  11    7.10    1.90
   2  -5  11    7.50    2.40
   2  -5  11    8.90    2.40
  -3   5 -11    3.20    1.80
  -3   5 -11    0.50    1.60
   3  -5  11    0.00    1.90
   3  -5  11    2.80    1.70
   3  -5  11    1.70    2.00
  -4   5 -11   -1.30    1.50
  -4   5 -11    0.30    1.90
   4  -5  11    0.70    2.10
   4  -5  11   -2.70    1.90
  -5   5 -11    7.00    2.10
   5  -5  11    2.90    2.50
   8   4 -11   -0.50    3.50
  -8  -4  11   -1.70    2.90
  -8  -4  11    0.30    5.30
   7   4 -11   -0.80    3.10
  -7  -4  11    2.20    2.90
  -7  -4  11   -1.10    2.70
   6   4 -11    3.70    2.80
   6   4 -11   12.10    3.60
  -6  -4  11   13.60    3.10
  -6  -4  11    9.20    3.10
   5   4 -11    1.90    2.20
   5   4 -11    2.20    2.40
   5   4 -11    1.90    1.60
  -5  -4  11    2.30    2.10
  -5  -4  11    4.20    2.50
   4   4 -11   29.80    3.40
   4   4 -11   27.20    2.60
   4   4 -11   30.40    4.00
  -4  -4  11   24.10    3.70
  -4  -4  11   27.50    3.50
  -4  -4  11   23.10    3.20
   3   4 -11    0.50    2.00
   3   4 -11   -0.30    1.60
   3   4 -11   -0.10    1.20
  -3  -4  11   -0.10    1.70
  -3  -4  11    1.30    2.10
  -3  -4  11    0.90    1.70
  -3  -4  11    1.10    1.70
   2   4 -11   -0.40    1.00
   2   4 -11    0.10    1.20
   2   4 -11   -1.50    1.60
   2   4 -11    0.40    1.40
  -2  -4  11   -0.60    1.40
  -2  -4  11   -0.40    1.70
  -2  -4  11    0.50    1.70
  -2  -4  11    1.30    1.60
   1   4 -11    1.60    1.60
   1   4 -11    0.10    1.00
   1   4 -11    0.50    1.30
   1   4 -11   -0.20    1.10
  -1  -4  11    0.10    1.60
  -1  -4  11    0.30    1.40
  -1  -4  11   -0.50    1.50
  -1  -4  11   -0.30    1.40
   0   4 -11   16.40    1.70
   0   4 -11   17.00    1.90
   0   4 -11   13.20    2.10
   0   4 -11   10.60    1.70
   0  -4  11   11.40    1.80
   0  -4  11   17.00    2.50
   0  -4  11   13.90    2.40
  -1   4 -11    1.00    0.90
  -1   4 -11    0.30    1.30
  -1   4 -11    1.20    1.20
  -1   4 -11   -1.20    1.00
   1  -4  11    0.60    1.50
   1  -4  11    1.10    1.10
   1  -4  11   -0.40    1.40
  -2   4 -11    8.70    1.60
  -2   4 -11   10.10    1.70
  -2   4 -11   12.50    2.10
   2  -4  11    7.10    2.20
   2  -4  11   11.20    2.30
  -3   4 -11    1.10    1.30
  -3   4 -11    1.10    1.30
  -3   4 -11    0.00    1.40
   3  -4  11    0.40    1.80
   3  -4  11    1.60    1.80
  -4   4 -11   -0.10    1.60
  -4   4 -11   -1.80    2.20
  -4   4 -11   -0.40    1.40
   4  -4  11   -0.20    1.90
   4  -4  11   -1.00    1.70
  -5   4 -11    2.90    1.70
  -5   4 -11    2.50    1.90
   5  -4  11    0.90    2.10
   5  -4  11    2.80    2.30
  -6   4 -11    0.60    1.80
   6  -4  11    0.00    2.40
   8   3 -11    1.10    3.40
  -8  -3  11    2.10    3.00
  -8  -3  11    2.70    3.10
   7   3 -11    1.20    2.90
   7   3 -11    3.00    3.00
  -7  -3  11    3.60    2.70
  -7  -3  11   -0.50    2.50
   6   3 -11   12.50    3.40
   6   3 -11    7.10    1.90
   6   3 -11   13.20    2.90
  -6  -3  11   11.60    2.90
  -6  -3  11   11.90    2.90
   5   3 -11   17.90    3.00
   5   3 -11   18.70    3.20
   5   3 -11   16.50    2.20
  -5  -3  11   12.70    3.10
  -5  -3  11   14.30    2.60
  -5  -3  11   15.20    3.30
  -5  -3  11   16.10    2.90
  -5  -3  11   17.50    2.90
   4   3 -11    0.80    2.10
   4   3 -11    0.70    1.70
   4   3 -11    1.30    1.20
  -4  -3  11    0.20    1.90
  -4  -3  11    1.50    1.70
  -4  -3  11   -0.10    1.70
  -4  -3  11    3.20    1.90
  -4  -3  11    0.90    1.70
   3   3 -11   84.59    4.10
   3   3 -11   90.49    4.70
   3   3 -11   91.09    5.40
  -3  -3  11   89.49    5.20
  -3  -3  11   97.79    5.90
  -3  -3  11   91.29    5.20
  -3  -3  11   83.39    4.80
  -3  -3  11   99.29    4.90
   2   3 -11    6.30    1.90
   2   3 -11    5.50    1.20
   2   3 -11    5.40    1.40
   2   3 -11    5.40    1.50
  -2  -3  11    3.50    1.50
  -2  -3  11    5.70    1.50
  -2  -3  11    3.00    1.50
  -2  -3  11    2.90    1.80
   1   3 -11   34.10    2.20
   1   3 -11   35.80    3.90
   1   3 -11   34.20    3.00
   1   3 -11   43.30    2.60
   1   3 -11   38.80    2.50
  -1  -3  11   44.60    2.70
  -1  -3  11   39.30    3.30
  -1  -3  11   35.80    2.40
  -1  -3  11   31.20    3.20
   0   3 -11   13.90    1.50
   0   3 -11    9.30    2.50
   0   3 -11   10.90    1.20
   0   3 -11   13.70    1.60
   0   3 -11    7.00    1.60
   0  -3  11   11.60    2.00
   0  -3  11   13.40    2.10
  -1   3 -11   -1.50    1.70
  -1   3 -11    0.40    0.90
  -1   3 -11   -0.10    0.80
  -1   3 -11    1.40    0.90
  -1   3 -11   -0.30    1.10
   1  -3  11   -0.60    1.20
   1  -3  11   -1.70    1.20
  -2   3 -11    8.60    1.50
  -2   3 -11    8.40    1.30
  -2   3 -11    6.60    2.50
  -2   3 -11    8.60    1.70
  -2   3 -11    6.10    1.30
   2  -3  11    4.00    1.60
   2  -3  11    7.50    1.80
  -3   3 -11   10.60    1.60
  -3   3 -11   10.60    1.60
  -3   3 -11   13.90    1.90
   3  -3  11   12.30    2.10
   3  -3  11   11.60    2.20
  -4   3 -11    1.20    1.40
  -4   3 -11    1.40    1.30
  -4   3 -11   -1.20    1.20
   4  -3  11   -0.30    1.60
   4  -3  11    1.20    1.70
  -5   3 -11   14.80    2.10
  -5   3 -11   12.40    2.30
   5  -3  11   15.90    2.90
   5  -3  11   11.60    2.60
  -6   3 -11    1.70    1.80
   6  -3  11   -1.80    2.00
   6  -3  11    0.70    2.20
   8   2 -11   -1.50    3.00
  -8  -2  11    4.60    3.00
  -8  -2  11    1.80    2.90
   7   2 -11   -0.30    2.50
   7   2 -11   -0.70    2.70
  -7  -2  11    1.40    2.60
  -7  -2  11   -1.20    2.30
   6   2 -11    5.60    2.50
   6   2 -11    6.90    1.80
   6   2 -11    1.40    2.40
  -6  -2  11   -1.30    2.20
  -6  -2  11    9.70    2.60
  -6  -2  11    3.90    2.10
   5   2 -11    7.70    2.60
   5   2 -11    7.80    2.10
   5   2 -11    7.40    1.60
  -5  -2  11    4.60    2.20
  -5  -2  11   10.90    2.90
  -5  -2  11    3.70    2.10
  -5  -2  11    7.40    2.30
   4   2 -11   11.90    1.70
   4   2 -11   12.00    2.10
   4   2 -11   12.70    2.50
  -4  -2  11   11.60    2.20
  -4  -2  11   15.10    2.90
  -4  -2  11   15.10    2.30
  -4  -2  11   13.20    2.70
  -4  -2  11   12.70    2.60
  -4  -2  11   11.10    2.30
   3   2 -11   10.90    2.20
   3   2 -11   12.80    2.00
   3   2 -11    9.60    1.40
  -3  -2  11    9.20    2.20
  -3  -2  11    9.90    1.80
  -3  -2  11    5.10    2.20
  -3  -2  11   12.10    1.90
  -3  -2  11    8.90    1.90
   2   2 -11    0.00    1.00
   2   2 -11    2.00    1.40
   2   2 -11    1.70    1.20
   2   2 -11   -0.80    1.00
   2   2 -11   -0.90    0.80
  -2  -2  11   -0.80    1.40
  -2  -2  11    0.10    1.10
  -2  -2  11    0.40    1.00
  -2  -2  11   -0.60    1.70
  -2  -2  11    0.50    1.20
   1   2 -11    2.30    1.90
   1   2 -11    5.40    1.40
   1   2 -11    5.20    1.10
   1   2 -11    5.00    0.90
   1   2 -11    4.60    1.10
  -1  -2  11    5.40    1.40
  -1  -2  11    3.00    1.90
  -1  -2  11    3.50    1.50
   0   2 -11    3.10    1.10
   0   2 -11    1.20    1.70
   0   2 -11    0.80    0.70
   0   2 -11    2.20    0.70
   0   2 -11    2.40    0.80
   0  -2  11    2.60    1.30
   0  -2  11    2.50    1.20
  -1   2 -11    0.40    0.60
  -1   2 -11    1.50    1.70
  -1   2 -11    0.80    1.00
  -1   2 -11   -0.60    0.50
  -1   2 -11    0.60    0.60
   1  -2  11    1.60    1.10
   1  -2  11   -0.50    1.00
  -2   2 -11    1.90    0.80
  -2   2 -11    3.20    1.20
  -2   2 -11    1.90    0.80
  -2   2 -11    3.40    1.10
  -2   2 -11    2.10    0.70
   2  -2  11    2.00    1.20
   2  -2  11    0.90    1.10
  -3   2 -11    3.90    1.20
  -3   2 -11    5.10    1.10
  -3   2 -11    4.90    1.50
  -3   2 -11    3.00    1.00
   3  -2  11    5.50    1.60
   3  -2  11    3.50    1.40
  -4   2 -11    5.20    1.30
  -4   2 -11    2.50    1.30
  -4   2 -11    5.40    1.30
   4  -2  11    3.00    1.60
   4  -2  11    4.10    1.70
  -5   2 -11    1.90    1.50
  -5   2 -11    0.70    1.50
  -5   2 -11    0.30    1.20
   5  -2  11   -1.50    1.60
   5  -2  11    2.70    1.90
  -6   2 -11   -0.20    1.70
   6  -2  11    3.30    2.10
   6  -2  11    0.60    2.10
   8   1 -11    0.20    3.00
   8   1 -11    1.30    2.70
  -8  -1  11    1.80    2.70
  -8  -1  11    0.30    2.70
   7   1 -11    0.10    2.50
   7   1 -11    0.80    2.40
  -7  -1  11    3.40    2.60
  -7  -1  11   -4.40    1.90
  -7  -1  11   -1.00    2.20
   6   1 -11    0.40    2.10
   6   1 -11    2.60    1.60
   6   1 -11   -1.90    1.80
  -6  -1  11   -0.20    2.00
  -6  -1  11    0.20    2.30
  -6  -1  11    0.00    1.90
  -6  -1  11    2.80    2.20
   5   1 -11    1.80    1.40
   5   1 -11    3.00    1.80
   5   1 -11    2.50    2.20
  -5  -1  11    0.80    1.80
  -5  -1  11    2.30    2.10
  -5  -1  11    3.30    1.90
  -5  -1  11    1.30    1.90
  -5  -1  11    1.00    2.00
   4   1 -11    6.20    2.00
   4   1 -11    6.70    1.40
   4   1 -11    5.40    1.60
  -4  -1  11    4.10    2.00
  -4  -1  11    6.00    1.70
  -4  -1  11    8.70    2.40
  -4  -1  11    7.80    2.00
  -4  -1  11    5.10    1.70
   3   1 -11   45.80    2.60
   3   1 -11   46.10    3.40
   3   1 -11   41.60    3.00
  -3  -1  11   50.79    4.30
  -3  -1  11   43.80    2.90
  -3  -1  11   49.70    3.90
  -3  -1  11   46.40    3.70
  -3  -1  11   43.10    2.90
  -3  -1  11   50.69    3.50
   2   1 -11   11.90    1.30
   2   1 -11   17.00    2.00
   2   1 -11   18.00    1.60
   2   1 -11   12.70    1.70
   2   1 -11   17.30    1.60
  -2  -1  11   13.00    1.30
  -2  -1  11   10.10    1.90
  -2  -1  11   17.50    2.00
  -2  -1  11   14.20    2.70
   1   1 -11   35.80    1.70
   1   1 -11   35.10    1.80
   1   1 -11   30.80    2.10
   1   1 -11   31.90    1.60
   1   1 -11   35.90    3.60
   1   1 -11   34.70    2.40
  -1  -1  11   35.20    3.70
  -1  -1  11   31.30    2.60
  -1  -1  11   35.70    2.40
   0   1 -11    2.60    0.80
   0   1 -11    4.30    1.70
   0   1 -11    2.90    0.90
   0  -1  11    3.80    2.20
   0  -1  11    1.30    1.00
   0  -1  11    2.00    0.90
  -1   1 -11   -0.20    0.70
  -1   1 -11   -0.50    1.50
   1  -1  11    0.50    0.80
   1  -1  11   -0.30    0.80
  -2   1 -11    2.80    1.00
  -2   1 -11    1.80    0.90
   2  -1  11    4.40    1.10
   2  -1  11    4.00    1.10
  -3   1 -11    0.60    0.70
  -3   1 -11    2.00    1.20
  -3   1 -11   -0.20    0.90
  -3   1 -11    1.60    0.80
   3  -1  11    1.40    1.20
   3  -1  11    0.10    1.10
  -4   1 -11    0.70    1.00
  -4   1 -11    1.20    1.20
  -4   1 -11    0.60    1.10
   4  -1  11   -0.30    1.30
   4  -1  11   -0.60    1.30
  -5   1 -11    4.50    1.40
  -5   1 -11    5.50    1.60
  -5   1 -11    1.60    1.40
   5  -1  11    3.80    1.80
   5  -1  11    4.70    1.80
  -6   1 -11   -1.20    1.60
   6  -1  11   -1.60    1.80
   6  -1  11   -1.10    1.90
   8   0 -11    4.10    2.90
   8   0 -11    5.40    3.00
  -8   0  11    2.40    2.90
  -8   0  11    3.20    2.80
   7   0 -11   11.10    2.90
   7   0 -11    9.80    2.40
   7   0 -11   12.00    3.20
  -7   0  11   11.20    2.80
  -7   0  11   10.70    3.00
  -7   0  11    8.70    2.80
   6   0 -11    5.80    1.70
   6   0 -11    7.70    2.60
   6   0 -11    6.30    2.30
  -6   0  11   10.50    2.60
  -6   0  11    0.40    2.10
  -6   0  11    8.90    2.60
  -6   0  11    9.50    2.50
   5   0 -11   -1.90    1.60
   5   0 -11    1.80    2.00
   5   0 -11    0.60    1.20
  -5   0  11    1.80    1.80
  -5   0  11   -0.10    1.70
  -5   0  11   -1.90    1.80
  -5   0  11   -0.10    1.60
  -5   0  11   -1.20    1.70
   4   0 -11   11.70    1.90
   4   0 -11   10.30    1.60
   4   0 -11   11.80    2.30
  -4   0  11    9.10    2.20
  -4   0  11   11.10    1.90
  -4   0  11   10.80    2.60
  -4   0  11   12.20    1.90
  -4   0  11   14.30    2.40
   3   0 -11    5.50    1.30
   3   0 -11    6.70    1.30
   3   0 -11    7.30    1.80
   3   0 -11    5.80    1.40
  -3   0  11    3.90    2.00
  -3   0  11    9.10    1.30
  -3   0  11    9.40    2.00
  -3   0  11    8.60    1.80
  -3   0  11    6.70    1.30
   2   0 -11   40.90    2.20
   2   0 -11   50.49    2.50
   2   0 -11   46.70    2.90
   2   0 -11   47.70    2.70
  -2   0  11   42.10    3.10
  -2   0  11   49.30    3.20
  -2   0  11   56.09    3.10
  -2   0  11   46.60    4.20
   1   0 -11   13.10    1.40
   1   0 -11   15.40    1.30
  -1   0  11   15.20    1.50
  -1   0  11   15.40    2.80
  -1   0  11   12.80    1.60
   0   0 -11   36.10    1.70
   0   0 -11   43.70    1.90
   0   0  11   44.30    4.20
   0   0  11   44.80    2.10
   0   0  11   39.40    2.10
   1   0  11    1.70    2.10
  -2   0 -11    3.70    0.70
  -2   0 -11    2.40    0.70
   2   0  11    3.00    0.80
   2   0  11    2.20    0.80
  -3   0 -11    1.80    1.10
  -3   0 -11    3.20    0.60
  -3   0 -11    3.70    1.00
   3   0  11    3.80    1.10
   3   0  11    6.40    1.40
  -4   0 -11   -0.50    1.00
  -4   0 -11    0.00    0.80
  -4   0 -11    0.30    1.10
   4   0  11    1.20    1.30
   4   0  11   -0.10    1.20
  -5   0 -11   -1.40    1.30
  -5   0 -11   -0.60    1.40
  -5   0 -11   -0.20    1.10
   5   0  11   -1.00    1.40
   5   0  11   -0.90    1.60
  -6   0 -11   -2.40    1.60
   6   0  11   -1.50    1.90
   6   0  11    0.00    1.90
   8  -1 -11    3.10    3.10
   8  -1 -11   -0.30    2.40
  -8   1  11    0.50    2.50
  -8   1  11    4.00    2.80
  -8   1  11    3.10    2.40
   7  -1 -11    0.70    1.70
   7  -1 -11    2.70    2.70
   7  -1 -11   -0.40    2.30
  -7   1  11   -1.40    2.10
  -7   1  11    1.20    2.40
  -7   1  11    0.00    2.30
   6  -1 -11    2.40    2.00
   6  -1 -11    4.00    1.50
   6  -1 -11    1.80    2.40
  -6   1  11    3.20    2.40
  -6   1  11    5.60    2.20
  -6   1  11    0.60    2.20
  -6   1  11    1.00    2.10
   5  -1 -11    9.90    1.80
   5  -1 -11    8.30    2.10
   5  -1 -11    6.00    2.20
  -5   1  11   10.10    2.20
  -5   1  11   10.40    2.80
  -5   1  11    9.10    2.60
  -5   1  11   10.70    2.40
  -5   1  11    9.50    2.10
   4  -1 -11    3.50    1.60
   4  -1 -11    7.70    2.10
   4  -1 -11    4.30    1.30
  -4   1  11    9.00    1.70
  -4   1  11    4.40    1.70
  -4   1  11    4.50    2.30
  -4   1  11    5.80    1.60
  -4   1  11    2.90    1.80
   3  -1 -11   61.99    3.50
   3  -1 -11   56.49    3.20
   3  -1 -11   60.29    3.00
   3  -1 -11   62.59    3.80
  -3   1  11   67.79    2.80
  -3   1  11   63.29    3.00
  -3   1  11   49.50    4.60
  -3   1  11   60.89    3.70
  -3   1  11   59.89    4.00
   2  -1 -11    1.70    0.70
   2  -1 -11    1.40    0.90
   2  -1 -11    2.00    1.20
   2  -1 -11    0.90    0.80
  -2   1  11    1.60    1.00
  -2   1  11    1.40    2.10
  -2   1  11    1.70    1.10
   1  -1 -11   24.60    1.80
   1  -1 -11   23.00    1.60
  -1   1  11   22.90    1.80
  -1   1  11   24.10    3.20
  -1   1  11   25.70    1.90
   0   1  11    8.50    0.80
   0   1  11    7.40    0.80
   0   1  11    4.50    2.30
   1   1  11    2.30    2.00
   2   1  11   22.00    3.30
   2   1  11   21.10    1.50
   2   1  11   17.90    1.30
  -3  -1 -11    3.70    1.00
  -3  -1 -11    6.60    1.20
   3   1  11    3.10    1.10
   3   1  11    2.00    1.10
  -4  -1 -11    1.90    0.90
  -4  -1 -11    2.10    1.10
  -4  -1 -11   -0.40    1.20
   4   1  11    3.10    1.40
   4   1  11    2.10    1.30
   4   1  11    0.90    1.40
  -5  -1 -11   -0.60    1.10
  -5  -1 -11    0.10    1.40
   5   1  11    0.60    1.70
   5   1  11    1.90    1.80
   5   1  11    2.60    1.70
  -6  -1 -11   -1.70    1.70
   6   1  11   -1.30    1.90
   6   1  11    1.90    2.10
   8  -2 -11    7.90    3.40
   8  -2 -11    9.00    3.40
  -8   2  11    9.90    3.10
  -8   2  11   15.70    3.50
  -8   2  11   13.10    3.50
   7  -2 -11   -2.80    2.30
   7  -2 -11    1.70    1.70
   7  -2 -11   -1.40    2.10
  -7   2  11    1.70    2.40
  -7   2  11    0.70    2.40
  -7   2  11    5.00    2.50
   6  -2 -11   20.10    3.40
   6  -2 -11   25.10    3.40
   6  -2 -11   22.20    2.60
  -6   2  11   24.50    3.70
  -6   2  11   21.90    3.00
  -6   2  11   19.20    3.40
  -6   2  11   24.80    3.40
   5  -2 -11    2.40    1.40
   5  -2 -11    2.80    2.00
   5  -2 -11   -0.40    1.70
  -5   2  11    1.80    2.40
  -5   2  11    1.00    1.70
  -5   2  11   -0.10    1.90
  -5   2  11    1.00    1.80
  -5   2  11    1.70    1.70
   4  -2 -11   21.50    2.10
   4  -2 -11   19.90    2.80
   4  -2 -11   21.20    2.40
  -4   2  11   15.10    2.60
  -4   2  11   21.70    3.30
  -4   2  11   22.90    2.70
  -4   2  11   22.00    2.30
  -4   2  11   20.50    2.20
   3  -2 -11    2.70    1.30
   3  -2 -11    2.30    1.50
   3  -2 -11    1.80    1.10
  -3   2  11    1.70    0.80
  -3   2  11   -0.90    1.90
  -3   2  11    2.20    1.50
  -3   2  11    2.30    1.30
  -3   2  11    1.00    0.90
   2  -2 -11   -0.50    0.90
   2  -2 -11    0.00    1.10
   2  -2 -11    0.20    0.80
   2  -2 -11    0.00    0.70
  -2   2  11   -0.60    1.10
  -2   2  11   -0.90    1.00
  -2   2  11   -1.40    1.80
   1  -2 -11   -0.40    0.70
   1  -2 -11    0.40    0.90
  -1   2  11    2.70    2.10
  -1   2  11   -0.20    0.90
  -1   2  11   -0.20    0.90
   0  -2 -11    9.00    0.90
   0  -2 -11   10.30    1.10
   0   2  11   10.80    2.70
   0   2  11    8.20    1.00
   0   2  11    9.10    1.10
   1   2  11    3.90    2.40
   1   2  11    2.20    0.70
   1   2  11    4.50    0.90
  -2  -2 -11    7.00    1.00
   2   2  11    6.10    2.60
   2   2  11    6.60    1.20
   2   2  11    6.10    1.00
  -3  -2 -11   13.40    1.60
  -3  -2 -11   14.70    1.60
   3   2  11   15.90    1.90
   3   2  11    9.90    2.80
   3   2  11   11.10    1.50
  -4  -2 -11    4.50    1.50
  -4  -2 -11    6.10    1.50
  -4  -2 -11    6.20    1.10
   4   2  11    3.10    1.50
   4   2  11    4.60    1.60
  -5  -2 -11    3.20    1.30
  -5  -2 -11    6.50    1.70
   5   2  11    4.60    1.80
   5   2  11    4.80    1.80
   8  -3 -11   -0.40    3.00
   8  -3 -11    3.20    2.80
  -8   3  11    2.30    2.80
  -8   3  11    3.50    2.90
  -8   3  11    2.80    2.90
   7  -3 -11   -1.50    2.30
   7  -3 -11   -1.40    1.80
   7  -3 -11    1.60    2.50
  -7   3  11    0.40    2.60
  -7   3  11    0.70    2.50
  -7   3  11    2.00    2.30
   6  -3 -11    4.20    2.40
   6  -3 -11   -0.30    2.00
   6  -3 -11    1.00    1.60
  -6   3  11    3.20    2.20
  -6   3  11    3.00    2.80
  -6   3  11   -0.40    2.20
  -6   3  11    2.00    2.20
   5  -3 -11    8.90    1.80
   5  -3 -11    8.60    2.20
   5  -3 -11    6.40    2.50
  -5   3  11    8.50    2.20
  -5   3  11    5.70    2.00
  -5   3  11    7.40    2.90
  -5   3  11   10.30    2.30
  -5   3  11    8.20    2.70
   4  -3 -11   22.00    2.90
   4  -3 -11   15.40    1.90
   4  -3 -11   13.00    2.20
  -4   3  11   12.40    2.30
  -4   3  11   14.40    3.10
  -4   3  11   14.40    2.80
  -4   3  11   15.00    2.10
  -4   3  11   14.70    2.10
   3  -3 -11   55.89    3.40
   3  -3 -11   53.19    3.80
   3  -3 -11   50.29    3.00
  -3   3  11   53.39    2.80
  -3   3  11   44.10    4.50
  -3   3  11   51.89    4.10
  -3   3  11   55.79    3.70
   2  -3 -11   18.40    1.80
   2  -3 -11   13.70    1.60
   2  -3 -11   13.00    1.50
   2  -3 -11   19.40    2.30
  -2   3  11   11.30    1.80
  -2   3  11   15.20    3.10
  -2   3  11   16.10    2.20
   1  -3 -11   34.80    2.10
   1  -3 -11   37.50    2.30
   1  -3 -11   44.00    2.10
   1  -3 -11   41.60    2.80
  -1   3  11   31.60    3.90
  -1   3  11   41.50    2.80
  -1   3  11   38.50    2.80
   0  -3 -11   -0.50    0.90
   0  -3 -11   -0.30    0.80
   0   3  11   -0.40    1.90
   0   3  11    0.80    1.00
   0   3  11    0.50    0.90
  -1  -3 -11    2.60    1.00
   1   3  11   -0.70    1.00
   1   3  11    1.20    2.20
   1   3  11    0.90    1.10
  -2  -3 -11    4.90    1.10
   2   3  11    6.00    1.30
   2   3  11    7.20    1.50
   2   3  11    7.60    2.80
  -3  -3 -11    3.30    1.30
   3   3  11    2.80    1.40
   3   3  11    2.60    2.40
   3   3  11    4.40    1.40
  -4  -3 -11    0.60    1.00
  -4  -3 -11    1.40    1.50
  -4  -3 -11    0.30    1.50
   4   3  11    2.10    1.60
   4   3  11    0.00    1.40
  -5  -3 -11    5.60    1.50
  -5  -3 -11    4.60    1.90
   5   3  11    4.40    2.00
   5   3  11    6.10    2.10
   8  -4 -11    2.30    2.90
   8  -4 -11   -0.70    3.00
  -8   4  11   -0.10    3.00
  -8   4  11    1.50    3.00
  -8   4  11   -1.80    2.60
   7  -4 -11    2.30    2.70
   7  -4 -11    2.90    2.70
  -7   4  11    1.40    2.50
  -7   4  11    6.00    2.70
  -7   4  11    3.90    3.20
   6  -4 -11   -2.00    2.00
   6  -4 -11    0.20    2.20
   6  -4 -11   -0.30    1.70
  -6   4  11    2.30    2.20
  -6   4  11    2.70    2.40
  -6   4  11   -2.20    2.50
   5  -4 -11    1.50    2.10
   5  -4 -11    6.20    2.20
   5  -4 -11    2.60    1.50
  -5   4  11    1.80    1.90
  -5   4  11    3.40    2.40
  -5   4  11    2.50    1.90
  -5   4  11    2.90    2.90
   4  -4 -11    2.10    2.00
   4  -4 -11    2.70    1.90
   4  -4 -11    0.40    1.30
  -4   4  11    0.30    1.50
  -4   4  11   -0.40    2.20
  -4   4  11    3.20    1.60
  -4   4  11    0.10    1.90
  -4   4  11    2.00    1.70
   3  -4 -11   27.00    3.00
   3  -4 -11   19.80    2.20
   3  -4 -11   23.30    2.70
  -3   4  11   24.90    2.10
  -3   4  11   22.20    3.00
  -3   4  11   23.70    2.80
  -3   4  11   19.50    3.40
   2  -4 -11    1.20    1.10
   2  -4 -11    0.50    1.40
   2  -4 -11   -2.80    1.20
  -2   4  11    0.30    1.30
  -2   4  11    1.60    1.60
  -2   4  11    2.70    2.30
   1  -4 -11   18.20    1.80
   1  -4 -11   20.70    2.30
   1  -4 -11   25.00    2.40
   1  -4 -11   31.40    2.30
  -1   4  11   23.70    3.60
  -1   4  11   23.60    2.40
  -1   4  11   23.50    2.50
   0  -4 -11    2.60    1.30
   0  -4 -11    1.90    0.90
   0  -4 -11    2.40    1.20
   0  -4 -11    3.90    1.10
   0   4  11    1.00    2.20
   0   4  11    2.20    1.20
   0   4  11    2.60    1.40
  -1  -4 -11    7.70    1.30
  -1  -4 -11    6.40    1.10
  -1  -4 -11    8.90    1.60
   1   4  11    9.00    1.90
   1   4  11    5.00    2.40
   1   4  11    7.10    1.70
  -2  -4 -11    2.70    1.30
   2   4  11    3.50    1.60
   2   4  11    4.10    1.60
   2   4  11    1.40    2.50
  -3  -4 -11   -0.20    1.10
  -3  -4 -11    2.10    1.50
   3   4  11    2.20    1.70
   3   4  11    0.50    1.40
   3   4  11    0.20    2.40
  -4  -4 -11    1.10    1.80
  -4  -4 -11    0.90    1.30
   4   4  11    1.40    1.90
   4   4  11    2.90    1.70
   7  -5 -11   10.20    3.20
   7  -5 -11   13.90    3.60
  -7   5  11   10.60    3.20
  -7   5  11    6.60    3.50
  -7   5  11   12.90    3.50
   6  -5 -11   -1.30    2.40
   6  -5 -11   -1.40    2.10
   6  -5 -11    0.90    1.80
  -6   5  11   -2.90    2.20
  -6   5  11    1.50    2.50
  -6   5  11    3.40    3.20
   5  -5 -11    6.30    2.50
   5  -5 -11    6.90    2.60
   5  -5 -11    5.80    1.90
  -5   5  11    4.20    3.20
  -5   5  11   13.40    3.10
  -5   5  11   11.60    2.60
  -5   5  11   10.90    2.50
   4  -5 -11    1.20    1.50
   4  -5 -11   -2.30    1.80
   4  -5 -11    3.50    2.30
  -4   5  11    3.60    2.40
  -4   5  11    0.90    1.80
  -4   5  11    2.70    1.80
  -4   5  11    2.60    1.80
  -4   5  11    4.20    2.90
   3  -5 -11    0.20    1.70
   3  -5 -11    2.60    1.50
   3  -5 -11    1.10    1.80
  -3   5  11    0.40    1.90
  -3   5  11    2.50    1.70
  -3   5  11    0.40    1.40
  -3   5  11    2.90    2.50
   2  -5 -11   22.90    2.40
   2  -5 -11   32.00    3.00
   2  -5 -11   23.60    2.80
  -2   5  11   24.70    3.10
  -2   5  11   23.30    3.90
  -2   5  11   27.80    3.00
  -2   5  11   28.00    1.80
   1  -5 -11   10.60    1.70
   1  -5 -11   11.90    2.10
   1  -5 -11    9.60    1.90
  -1   5  11   11.00    2.30
  -1   5  11   11.10    2.10
  -1   5  11   14.20    3.20
   0  -5 -11   39.30    2.90
   0  -5 -11   25.10    2.30
   0   5  11   40.10    3.60
   0   5  11   30.80    3.20
   0   5  11   33.90    4.10
  -1  -5 -11    5.50    1.40
  -1  -5 -11    7.30    1.60
   1   5  11    6.10    2.80
   1   5  11    5.00    2.00
   1   5  11    4.70    2.10
  -2  -5 -11   12.80    1.80
  -2  -5 -11   16.20    2.20
   2   5  11   12.40    2.60
   2   5  11   14.40    2.50
   2   5  11   12.80    3.30
  -3  -5 -11    1.50    1.70
  -3  -5 -11    2.70    1.50
   3   5  11    0.00    2.10
   3   5  11   -0.80    2.50
   3   5  11    2.50    1.90
  -4  -5 -11    1.50    2.20
   6  -6 -11    7.70    3.00
   6  -6 -11    5.80    2.90
  -6   6  11    0.20    2.40
  -6   6  11    2.60    2.50
  -6   6  11    2.70    3.00
   5  -6 -11    1.90    2.40
   5  -6 -11    9.80    2.80
   5  -6 -11    3.60    2.00
  -5   6  11    3.80    2.40
  -5   6  11    3.50    2.40
  -5   6  11    1.90    3.00
   4  -6 -11    5.60    1.90
   4  -6 -11    5.90    2.40
   4  -6 -11   10.40    2.70
  -4   6  11    6.70    2.30
  -4   6  11    8.80    3.50
  -4   6  11    5.50    2.10
  -4   6  11    7.70    2.90
   3  -6 -11    2.20    2.00
   3  -6 -11   -0.90    1.80
   3  -6 -11   -0.70    1.60
  -3   6  11    0.20    1.60
  -3   6  11    0.10    1.80
  -3   6  11    4.10    3.00
  -3   6  11    0.10    2.20
   2  -6 -11    5.70    2.10
   2  -6 -11   -1.20    1.70
   2  -6 -11    1.80    1.60
  -2   6  11    1.20    1.90
  -2   6  11    1.30    2.80
  -2   6  11    1.70    1.30
  -2   6  11   -1.90    1.80
   1  -6 -11   -1.00    1.60
   1  -6 -11    1.30    1.50
   1  -6 -11    1.50    1.70
  -1   6  11    1.10    1.80
  -1   6  11   -0.20    2.50
  -1   6  11   -1.60    1.70
   0  -6 -11    0.70    1.40
   0  -6 -11    4.20    1.80
   0   6  11    1.50    1.80
   0   6  11    3.00    2.70
   0   6  11    1.20    1.90
  -1  -6 -11    4.60    1.60
  -1  -6 -11    0.80    1.70
   1   6  11   -0.80    2.00
   1   6  11    0.30    2.50
   1   6  11   -0.20    1.90
  -2  -6 -11    0.80    1.80
  -2  -6 -11    1.40    1.50
   2   6  11    2.00    2.80
   2   6  11    2.70    2.20
   2   6  11    5.50    2.30
   5  -7 -11    2.70    2.60
   5  -7 -11    0.00    2.00
  -5   7  11    0.20    2.30
  -5   7  11    4.50    2.60
  -5   7  11    5.40    3.40
   4  -7 -11   14.40    3.20
   4  -7 -11   19.30    2.90
  -4   7  11   25.60    4.30
  -4   7  11   20.60    4.50
  -4   7  11   21.40    3.20
   3  -7 -11   -2.90    2.00
   3  -7 -11    1.40    2.00
  -3   7  11   -0.70    2.70
  -3   7  11    0.90    2.40
  -3   7  11   -0.30    1.90
   2  -7 -11    7.90    2.40
   2  -7 -11    6.70    2.20
  -2   7  11    8.50    1.90
  -2   7  11    4.20    2.60
  -2   7  11    5.20    3.30
   1  -7 -11    1.80    1.90
   1  -7 -11    2.50    2.00
  -1   7  11    2.20    2.40
  -1   7  11    2.00    2.10
  -1   7  11    1.40    2.90
   0  -7 -11   -0.50    1.70
   0  -7 -11   -2.30    1.80
   0   7  11   -0.10    2.70
   0   7  11    0.80    2.10
   0   7  11    0.70    2.50
  -1  -7 -11   -0.10    1.70
  -1  -7 -11   -0.20    1.90
   1   7  11    2.30    2.90
   1   7  11   -0.20    2.10
   1   7  11   -1.20    2.20
   3   8 -12    4.50    2.90
   3   8 -12    1.30    2.60
  -3  -8  12    4.10    2.80
  -3  -8  12    3.30    2.90
   2   8 -12   -0.10    2.50
   2   8 -12    2.50    2.50
  -2  -8  12   -1.80    2.50
  -2  -8  12   -0.90    2.50
   1   8 -12    3.30    2.80
   1   8 -12    6.80    2.60
  -1  -8  12    4.50    2.80
  -1  -8  12    6.90    2.80
   0   8 -12    6.20    2.50
   0   8 -12    5.80    2.90
   0  -8  12    3.00    2.80
  -1   8 -12    0.00    2.20
   1  -8  12   -0.80    2.40
  -2   8 -12   17.80    3.30
   2  -8  12   10.10    3.20
   5   7 -12    7.70    3.40
  -5  -7  12    9.50    3.40
  -5  -7  12    5.80    3.10
   4   7 -12    6.30    3.20
   4   7 -12    5.50    3.20
  -4  -7  12    6.90    3.00
  -4  -7  12    0.40    2.80
   3   7 -12    7.80    3.30
   3   7 -12    8.60    2.90
  -3  -7  12    8.00    2.80
  -3  -7  12    5.20    2.70
   2   7 -12    2.10    2.20
   2   7 -12   -3.90    1.90
   2   7 -12    1.60    1.80
  -2  -7  12    2.60    2.40
  -2  -7  12    5.30    2.50
   1   7 -12    6.30    2.70
   1   7 -12    7.40    2.40
  -1  -7  12    3.10    2.30
  -1  -7  12    3.90    2.40
   0   7 -12   -1.00    1.80
   0   7 -12    1.00    2.20
   0  -7  12    2.20    2.30
   0  -7  12   -0.50    2.20
  -1   7 -12   -2.10    1.80
  -1   7 -12   -2.20    1.90
   1  -7  12    2.00    2.50
   1  -7  12   -0.50    2.30
  -2   7 -12    1.50    2.10
  -2   7 -12    3.90    2.40
   2  -7  12    1.40    2.20
   2  -7  12    1.40    2.60
  -3   7 -12    6.90    2.50
   6   6 -12    1.20    3.20
  -6  -6  12    2.00    3.20
  -6  -6  12    3.70    3.40
   5   6 -12   -1.40    2.70
   5   6 -12    2.40    3.10
  -5  -6  12    3.10    2.90
  -5  -6  12    0.00    2.70
   4   6 -12    2.10    2.70
   4   6 -12   -1.60    2.20
  -4  -6  12    2.20    2.60
  -4  -6  12    0.50    2.40
   3   6 -12    4.90    2.30
   3   6 -12    3.80    2.60
   3   6 -12    1.90    1.70
  -3  -6  12    6.70    2.50
  -3  -6  12    5.40    2.40
   2   6 -12    2.10    1.60
   2   6 -12    0.60    2.00
   2   6 -12    0.10    1.90
  -2  -6  12    2.20    2.20
  -2  -6  12    0.30    1.90
  -2  -6  12   -0.30    2.30
   1   6 -12    2.10    2.20
   1   6 -12    2.00    1.80
   1   6 -12    2.40    1.50
  -1  -6  12    3.40    2.30
  -1  -6  12    0.80    2.00
  -1  -6  12    2.40    2.10
   0   6 -12    5.80    2.30
   0   6 -12    3.80    1.80
   0  -6  12    6.70    2.50
   0  -6  12    4.30    2.20
  -1   6 -12    2.20    2.00
  -1   6 -12   -0.20    1.60
   1  -6  12    2.90    2.30
   1  -6  12   -1.70    2.10
   1  -6  12    0.90    1.90
  -2   6 -12    5.60    2.00
  -2   6 -12    9.00    2.50
   2  -6  12    7.20    2.70
  -3   6 -12    0.80    1.90
  -3   6 -12    1.90    3.70
   3  -6  12    1.40    2.50
  -4   6 -12   -1.00    1.90
   4  -6  12   -2.90    2.40
   6   5 -12    4.90    3.20
   6   5 -12    0.70    3.30
  -6  -5  12    0.70    2.80
  -6  -5  12    0.50    2.80
   5   5 -12   -1.20    2.60
   5   5 -12    0.90    2.50
  -5  -5  12   -0.80    2.50
  -5  -5  12   -1.20    2.40
   4   5 -12    3.60    1.80
   4   5 -12    1.60    2.30
   4   5 -12    4.00    2.30
  -4  -5  12    1.50    2.20
  -4  -5  12    3.80    2.40
   3   5 -12    6.40    2.70
   3   5 -12    6.80    1.80
   3   5 -12    3.30    2.00
  -3  -5  12    3.00    2.60
  -3  -5  12    6.40    2.30
  -3  -5  12    2.90    2.20
   2   5 -12    6.80    2.00
   2   5 -12    5.70    1.60
   2   5 -12    7.60    2.40
  -2  -5  12    3.90    2.20
  -2  -5  12    6.10    2.10
  -2  -5  12    6.00    2.50
  -2  -5  12    6.30    2.20
   1   5 -12    7.40    1.60
   1   5 -12    6.00    1.90
   1   5 -12    7.20    2.20
  -1  -5  12    5.80    2.00
  -1  -5  12    4.60    2.30
  -1  -5  12   13.10    2.70
  -1  -5  12    7.90    2.10
   0   5 -12    0.40    1.50
   0   5 -12    0.10    1.20
   0   5 -12    0.80    1.60
   0  -5  12    0.50    1.60
   0  -5  12    1.20    1.90
   0  -5  12   -0.40    1.70
  -1   5 -12   -0.20    1.60
  -1   5 -12   -0.80    1.50
   1  -5  12    1.60    1.80
   1  -5  12   -2.00    1.70
  -2   5 -12    2.70    1.70
  -2   5 -12    1.70    1.90
   2  -5  12    2.30    2.10
   2  -5  12    1.40    2.10
  -3   5 -12   12.90    2.60
  -3   5 -12   10.60    2.10
   3  -5  12    7.00    2.60
   3  -5  12   11.60    2.90
  -4   5 -12    6.50    2.00
   4  -5  12    4.50    2.50
   4  -5  12    6.00    2.70
  -5   5 -12    6.10    2.10
   5  -5  12    1.40    2.60
   7   4 -12    0.40    3.20
  -7  -4  12    1.10    2.90
  -7  -4  12   -0.30    2.80
   6   4 -12   11.00    3.50
   6   4 -12   11.60    3.20
  -6  -4  12   13.20    3.50
  -6  -4  12   10.00    3.20
   5   4 -12   12.90    2.90
   5   4 -12   13.60    2.30
   5   4 -12   11.80    3.30
  -5  -4  12   14.10    3.20
  -5  -4  12   10.80    2.80
   4   4 -12   23.20    2.50
   4   4 -12   22.40    3.20
   4   4 -12   21.30    3.40
  -4  -4  12   25.80    3.40
  -4  -4  12   24.20    3.20
  -4  -4  12   20.80    3.60
   3   4 -12    9.80    2.30
   3   4 -12    7.00    1.70
   3   4 -12    7.40    2.50
  -3  -4  12    8.90    2.20
  -3  -4  12    7.80    2.50
  -3  -4  12    6.70    2.70
  -3  -4  12    7.50    2.10
   2   4 -12   11.90    2.50
   2   4 -12   13.30    1.70
   2   4 -12   12.80    2.10
  -2  -4  12    8.70    2.50
  -2  -4  12   11.70    2.10
  -2  -4  12   13.20    2.10
  -2  -4  12   12.70    2.60
   1   4 -12    0.60    1.10
   1   4 -12    1.60    1.20
   1   4 -12   -0.60    1.70
   1   4 -12    0.20    1.30
  -1  -4  12    3.60    2.00
  -1  -4  12    2.10    1.40
  -1  -4  12   -1.50    1.30
  -1  -4  12    1.60    1.80
   0   4 -12   -0.50    1.10
   0   4 -12    1.30    1.30
   0   4 -12   -0.80    1.00
   0   4 -12    0.70    1.50
   0  -4  12    2.30    1.70
   0  -4  12    1.40    1.70
  -1   4 -12    4.50    1.40
  -1   4 -12    2.00    1.50
  -1   4 -12    5.20    1.50
  -1   4 -12    4.50    1.20
   1  -4  12    4.10    1.90
   1  -4  12    7.50    2.00
  -2   4 -12   12.80    1.80
  -2   4 -12   10.70    1.80
  -2   4 -12    8.20    1.90
   2  -4  12    4.70    2.10
   2  -4  12    7.10    2.30
  -3   4 -12   11.30    1.90
  -3   4 -12    7.30    2.00
  -3   4 -12    8.60    1.70
   3  -4  12    8.20    2.50
   3  -4  12    7.70    2.30
  -4   4 -12    3.90    1.70
  -4   4 -12    3.50    3.40
   4  -4  12    4.30    2.30
   4  -4  12    1.50    2.10
  -5   4 -12    3.30    1.90
   5  -4  12    3.10    2.40
   5  -4  12   -1.10    2.20
   7   3 -12   -0.60    3.10
   7   3 -12    5.40    3.20
  -7  -3  12    3.90    3.00
  -7  -3  12   -1.90    2.60
   6   3 -12    1.50    2.60
   6   3 -12    1.00    2.50
   6   3 -12    2.50    1.80
  -6  -3  12   -0.10    2.30
  -6  -3  12    0.50    2.40
   5   3 -12    2.70    1.60
   5   3 -12    2.00    2.10
   5   3 -12    4.20    2.50
  -5  -3  12    3.30    2.60
  -5  -3  12    3.20    2.20
  -5  -3  12    1.00    2.10
  -5  -3  12    4.60    2.40
  -5  -3  12    2.70    2.40
   4   3 -12    0.30    1.30
   4   3 -12   -2.70    1.80
   4   3 -12    0.10    1.80
  -4  -3  12   -0.30    2.00
  -4  -3  12    2.30    1.90
  -4  -3  12    1.50    1.90
  -4  -3  12    0.80    1.70
  -4  -3  12   -1.90    2.10
   3   3 -12   37.40    3.90
   3   3 -12   38.90    2.80
   3   3 -12   35.30    3.20
  -3  -3  12   45.80    3.40
  -3  -3  12   36.10    4.00
  -3  -3  12   50.79    4.10
  -3  -3  12   36.70    4.10
  -3  -3  12   46.60    3.40
   2   3 -12    0.10    1.00
   2   3 -12   -1.60    1.20
   2   3 -12    2.70    1.30
   2   3 -12    1.50    1.60
  -2  -3  12    1.00    1.50
  -2  -3  12    0.20    1.80
  -2  -3  12    0.30    1.20
  -2  -3  12    0.40    1.20
   1   3 -12   47.50    2.90
   1   3 -12   46.50    3.70
   1   3 -12   47.70    2.90
   1   3 -12   43.40    2.50
  -1  -3  12   51.49    3.80
  -1  -3  12   40.60    3.80
   0   3 -12   12.80    1.60
   0   3 -12   11.10    1.80
   0   3 -12    9.40    1.50
   0   3 -12   10.60    1.30
   0  -3  12   12.90    2.20
   0  -3  12   12.10    2.10
  -1   3 -12   15.70    1.70
  -1   3 -12   13.60    1.60
  -1   3 -12   13.10    1.40
  -1   3 -12   14.20    2.00
   1  -3  12   14.70    2.20
   1  -3  12   12.40    2.10
  -2   3 -12    2.40    1.10
  -2   3 -12    1.40    1.30
  -2   3 -12    2.50    1.10
   2  -3  12    4.20    1.70
   2  -3  12    3.80    1.70
  -3   3 -12   -0.50    1.10
  -3   3 -12    1.40    1.30
  -3   3 -12    2.50    1.50
   3  -3  12   -0.50    1.60
   3  -3  12    0.10    1.50
  -4   3 -12   -0.40    1.40
  -4   3 -12    1.80    1.40
  -4   3 -12    2.60    1.40
   4  -3  12   -0.90    1.60
   4  -3  12   -1.10    1.70
  -5   3 -12    2.30    1.70
   5  -3  12    4.60    2.30
   5  -3  12    2.70    2.10
   8   2 -12    2.10    3.20
  -8  -2  12    1.60    2.80
  -8  -2  12    1.00    2.80
   7   2 -12    5.10    2.70
   7   2 -12    0.80    2.80
  -7  -2  12    0.40    2.50
  -7  -2  12   -0.10    2.40
   6   2 -12    0.80    2.30
   6   2 -12    0.50    1.70
   6   2 -12    0.30    2.30
  -6  -2  12    1.20    2.30
  -6  -2  12   -0.80    2.10
  -6  -2  12    1.90    2.10
   5   2 -12    4.20    1.60
   5   2 -12    4.90    2.20
   5   2 -12    6.50    2.60
  -5  -2  12    2.90    2.10
  -5  -2  12    2.30    2.00
  -5  -2  12    3.30    2.20
  -5  -2  12    5.20    2.60
   4   2 -12    1.70    2.00
   4   2 -12    1.10    1.20
   4   2 -12    3.30    1.80
  -4  -2  12    2.60    1.80
  -4  -2  12    2.80    2.20
  -4  -2  12    3.50    1.80
  -4  -2  12    4.90    2.40
  -4  -2  12    2.10    2.20
  -4  -2  12    1.60    1.80
   3   2 -12   -0.50    1.30
   3   2 -12    2.00    1.70
   3   2 -12   -0.30    1.00
  -3  -2  12    0.10    1.70
  -3  -2  12    1.50    1.60
  -3  -2  12   -0.30    2.00
  -3  -2  12   -0.80    1.30
  -3  -2  12    0.10    1.20
   2   2 -12    0.40    1.00
   2   2 -12    2.20    1.30
   2   2 -12    2.00    1.00
   2   2 -12   -0.10    1.40
  -2  -2  12   -0.10    1.00
  -2  -2  12    3.70    1.50
  -2  -2  12    2.50    1.70
  -2  -2  12    0.80    2.10
   1   2 -12   20.70    2.30
   1   2 -12   19.30    3.00
   1   2 -12   19.50    1.80
   1   2 -12   22.30    1.80
   1   2 -12   18.70    1.50
  -1  -2  12   20.60    2.30
  -1  -2  12   14.50    2.20
  -1  -2  12   20.40    3.30
   0   2 -12   -0.40    0.70
   0   2 -12    1.20    1.10
   0   2 -12    1.70    1.90
   0   2 -12    1.40    0.80
   0   2 -12    0.70    0.70
   0  -2  12   -0.10    1.10
   0  -2  12    0.30    1.10
  -1   2 -12   12.00    1.00
  -1   2 -12    9.20    1.50
  -1   2 -12   12.10    1.20
  -1   2 -12   13.30    1.10
   1  -2  12    9.90    1.60
   1  -2  12   12.90    1.90
  -2   2 -12    3.30    0.80
  -2   2 -12    3.40    0.90
  -2   2 -12    3.40    1.30
  -2   2 -12    2.60    1.20
  -2   2 -12    4.70    1.00
   2  -2  12    3.90    1.50
   2  -2  12    3.80    1.40
  -3   2 -12    1.50    1.10
  -3   2 -12    3.00    1.00
  -3   2 -12    2.90    1.30
   3  -2  12    2.80    1.40
   3  -2  12    3.10    1.60
  -4   2 -12    2.50    1.20
  -4   2 -12    5.20    1.40
  -4   2 -12    1.90    1.40
   4  -2  12    0.90    1.60
   4  -2  12    0.20    1.50
  -5   2 -12    1.60    1.50
  -5   2 -12   -0.40    1.30
   5  -2  12    1.10    1.90
   5  -2  12    1.80    1.90
   8   1 -12    6.30    3.30
   8   1 -12    4.00    3.20
  -8  -1  12    6.80    3.00
  -8  -1  12    0.00    2.60
   7   1 -12   12.20    3.10
   7   1 -12    9.40    3.20
  -7  -1  12   17.90    3.30
  -7  -1  12   14.20    2.90
  -7  -1  12   15.10    3.20
   6   1 -12    5.30    1.70
   6   1 -12    7.30    2.60
   6   1 -12    7.40    2.70
  -6  -1  12    9.20    2.50
  -6  -1  12    6.50    2.50
  -6  -1  12    8.00    2.80
  -6  -1  12    8.30    2.60
   5   1 -12    7.60    2.70
   5   1 -12   12.70    2.00
   5   1 -12   13.50    2.60
  -5  -1  12   11.80    2.90
  -5  -1  12   14.70    2.60
  -5  -1  12    9.90    2.60
  -5  -1  12    5.10    2.40
  -5  -1  12   13.90    2.50
   4   1 -12   19.50    2.10
   4   1 -12   22.00    3.00
   4   1 -12   25.90    2.70
  -4  -1  12   19.20    3.10
  -4  -1  12   21.10    2.50
  -4  -1  12   23.50    2.50
  -4  -1  12   25.50    3.00
  -4  -1  12   17.10    3.10
   3   1 -12   -0.10    1.00
   3   1 -12    3.80    1.50
   3   1 -12    2.20    1.50
  -3  -1  12    1.60    2.20
  -3  -1  12    1.80    1.10
  -3  -1  12    0.10    1.60
  -3  -1  12    1.10    1.70
  -3  -1  12    1.80    1.20
  -3  -1  12    1.60    1.50
   2   1 -12    7.80    1.60
   2   1 -12    5.50    1.10
   2   1 -12    9.80    1.40
   2   1 -12    6.00    1.40
   2   1 -12    8.60    1.30
  -2  -1  12   11.40    2.80
  -2  -1  12    4.70    1.50
  -2  -1  12    5.30    1.80
   1   1 -12   -0.20    1.60
   1   1 -12    0.30    0.60
   1   1 -12    0.50    1.00
   1   1 -12    0.10    0.80
   1   1 -12    0.30    0.70
   1   1 -12    0.70    0.90
  -1  -1  12    4.50    2.30
  -1  -1  12    0.40    1.00
  -1  -1  12    0.80    1.30
   0   1 -12   10.70    1.30
   0  -1  12    8.60    1.30
   0  -1  12    7.00    2.60
   0  -1  12    8.10    1.40
  -1   1 -12    7.40    1.10
   1  -1  12    3.80    1.00
   1  -1  12    5.40    1.20
  -2   1 -12   12.90    1.50
  -2   1 -12   14.90    1.40
   2  -1  12   14.30    1.70
   2  -1  12   12.20    1.50
  -3   1 -12   -0.50    1.00
  -3   1 -12   -1.10    0.80
  -3   1 -12   -1.40    1.00
  -3   1 -12    1.00    0.80
   3  -1  12    1.10    1.10
   3  -1  12   -2.30    1.00
  -4   1 -12    5.60    1.40
  -4   1 -12    8.80    1.50
  -4   1 -12    7.70    1.30
   4  -1  12    6.80    1.90
   4  -1  12    9.10    1.90
  -5   1 -12    2.30    1.50
  -5   1 -12    1.90    1.30
   5  -1  12   -1.20    1.60
   5  -1  12    3.80    1.80
   8   0 -12    6.10    3.10
   8   0 -12    2.60    3.30
  -8   0  12    4.90    2.90
  -8   0  12    2.20    2.90
   7   0 -12   18.30    3.30
   7   0 -12   14.80    3.00
   7   0 -12   18.80    3.80
  -7   0  12   23.40    3.50
  -7   0  12   21.00    3.50
  -7   0  12   18.30    3.20
   6   0 -12   -1.70    1.90
   6   0 -12    0.00    1.40
   6   0 -12    1.80    2.30
  -6   0  12   -1.10    2.20
  -6   0  12    2.50    2.10
  -6   0  12   -1.70    2.10
  -6   0  12    0.50    2.10
   5   0 -12   38.40    3.00
   5   0 -12   36.70    3.70
   5   0 -12   41.20    4.30
  -5   0  12   45.60    3.70
  -5   0  12   43.90    3.60
  -5   0  12   45.80    4.60
  -5   0  12   43.00    4.10
  -5   0  12   44.10    4.60
   4   0 -12    5.00    1.40
   4   0 -12    2.30    1.90
   4   0 -12    1.70    1.60
  -4   0  12    6.30    2.50
  -4   0  12    5.80    2.00
  -4   0  12    4.60    1.80
  -4   0  12    3.70    1.50
  -4   0  12    5.10    1.50
   3   0 -12    5.60    1.20
   3   0 -12    6.20    1.40
   3   0 -12    5.50    1.70
  -3   0  12    2.30    2.10
  -3   0  12    4.40    1.10
  -3   0  12    5.00    1.80
  -3   0  12    5.00    1.60
   2   0 -12   14.00    1.30
   2   0 -12   14.10    1.90
   2   0 -12   14.70    1.60
   2   0 -12   18.20    1.90
  -2   0  12   16.60    2.00
  -2   0  12   15.40    3.10
  -2   0  12   17.10    2.10
   1   0 -12    9.10    1.20
   1   0 -12   10.70    1.00
   1   0 -12    9.50    1.40
   1   0 -12    8.70    0.80
  -1   0  12    5.90    2.40
  -1   0  12    7.10    1.40
  -1   0  12    8.10    1.40
  -1   0  12    9.80    1.40
   0   0 -12   16.20    1.20
   0   0 -12   17.40    1.40
   0   0  12   18.00    1.50
   0   0  12   17.60    1.40
   0   0  12   19.20    3.30
   1   0  12    1.30    2.20
  -2   0 -12    0.10    0.60
  -2   0 -12    0.50    0.70
   2   0  12   -1.00    0.60
   2   0  12   -0.40    0.70
  -3   0 -12    3.20    1.10
  -3   0 -12    3.80    0.70
  -3   0 -12    2.30    1.10
   3   0  12    2.50    1.10
   3   0  12    1.90    1.20
  -4   0 -12    4.10    1.10
  -4   0 -12    5.70    1.30
  -4   0 -12    4.80    1.40
   4   0  12    4.90    1.60
   4   0  12    5.30    1.50
  -5   0 -12    5.50    1.60
  -5   0 -12    3.60    1.40
   5   0  12    2.10    1.80
   5   0  12    3.60    1.90
   8  -1 -12    5.50    3.10
   8  -1 -12    5.10    2.90
  -8   1  12    3.20    2.70
  -8   1  12    1.00    2.80
  -8   1  12    2.60    2.70
   7  -1 -12    1.60    2.50
   7  -1 -12    1.80    2.60
   7  -1 -12    1.70    1.80
  -7   1  12   -1.10    2.30
  -7   1  12    0.40    2.50
  -7   1  12   -0.30    2.30
   6  -1 -12   -2.20    2.20
   6  -1 -12    0.00    1.40
   6  -1 -12    1.20    2.10
  -6   1  12    0.20    2.00
  -6   1  12   -1.00    2.00
  -6   1  12    0.90    2.30
  -6   1  12   -4.30    2.10
   5  -1 -12   -1.60    1.90
   5  -1 -12   -0.10    1.40
   5  -1 -12   -0.10    1.70
  -5   1  12    2.40    1.60
  -5   1  12   -2.50    2.20
  -5   1  12    1.20    1.70
  -5   1  12    1.70    2.10
  -5   1  12    0.80    1.90
   4  -1 -12   14.40    2.70
   4  -1 -12   15.70    1.90
   4  -1 -12   17.10    2.30
  -4   1  12   21.70    3.10
  -4   1  12   15.70    2.40
  -4   1  12   17.70    2.00
  -4   1  12   20.30    3.60
  -4   1  12   18.10    1.90
   3  -1 -12   10.50    1.50
   3  -1 -12   10.90    1.70
   3  -1 -12   13.60    2.20
  -3   1  12   12.20    2.00
  -3   1  12   10.10    2.10
  -3   1  12   13.20    1.20
  -3   1  12    7.10    2.60
   2  -1 -12   41.20    2.60
   2  -1 -12   39.80    2.20
   2  -1 -12   41.60    2.30
   2  -1 -12   43.40    3.00
  -2   1  12   37.70    3.00
  -2   1  12   43.70    4.60
  -2   1  12   47.00    2.90
   1  -1 -12   13.00    1.30
   1  -1 -12   11.90    1.50
  -1   1  12   13.00    3.00
  -1   1  12   11.30    1.50
  -1   1  12   12.20    1.40
   0   1  12   14.20    1.10
   0   1  12   13.60    1.20
   0   1  12   13.40    3.10
   1   1  12   12.40    2.90
   2   1  12    2.00    2.50
  -3  -1 -12    0.90    1.00
  -3  -1 -12    2.00    1.00
   3   1  12    0.60    1.10
   3   1  12    2.20    1.00
  -4  -1 -12    0.60    1.30
  -4  -1 -12    1.70    0.90
   4   1  12   -0.30    1.30
   4   1  12    0.40    1.40
  -5  -1 -12    1.90    1.60
  -5  -1 -12   -0.40    1.20
   5   1  12   -1.40    1.60
   5   1  12    0.30    1.60
   8  -2 -12    1.20    2.80
  -8   2  12    0.90    2.70
  -8   2  12    0.60    2.80
  -8   2  12    1.20    2.50
   7  -2 -12    4.10    1.90
   7  -2 -12    6.60    2.70
   7  -2 -12    6.20    3.00
  -7   2  12    7.20    2.70
  -7   2  12    8.90    2.80
  -7   2  12    8.70    3.10
   6  -2 -12    3.30    1.70
   6  -2 -12    1.90    2.20
   6  -2 -12    2.40    2.40
  -6   2  12    4.30    2.60
  -6   2  12   -1.10    2.30
  -6   2  12    5.20    2.20
  -6   2  12   -1.20    1.90
   5  -2 -12    9.80    2.60
   5  -2 -12    8.30    2.30
   5  -2 -12    9.00    1.90
  -5   2  12   10.50    2.80
  -5   2  12    6.70    2.80
  -5   2  12   12.00    2.20
  -5   2  12   10.60    2.20
  -5   2  12    9.40    2.40
   4  -2 -12    2.70    1.30
   4  -2 -12    0.60    1.80
   4  -2 -12    3.50    1.70
  -4   2  12    4.80    2.70
  -4   2  12    0.60    1.90
  -4   2  12    5.10    1.40
  -4   2  12    0.60    1.60
   3  -2 -12   -0.70    1.40
   3  -2 -12   -1.20    1.20
   3  -2 -12    0.40    1.00
  -3   2  12   -0.60    1.40
  -3   2  12   -1.40    2.10
  -3   2  12   -1.90    1.20
   2  -2 -12    2.00    1.00
   2  -2 -12    0.30    1.00
   2  -2 -12   -0.10    1.30
   2  -2 -12    1.00    0.90
  -2   2  12    0.90    1.10
  -2   2  12    2.90    2.20
  -2   2  12    0.70    1.30
   1  -2 -12   23.10    2.00
   1  -2 -12   18.90    1.30
   1  -2 -12   22.60    1.70
  -1   2  12   17.90    1.80
  -1   2  12   17.60    3.20
  -1   2  12   27.90    2.20
   0  -2 -12    3.80    0.80
   0  -2 -12    2.60    1.00
   0   2  12    4.60    1.00
   0   2  12    6.70    2.60
   0   2  12    2.50    0.90
   1   2  12   20.20    3.50
  -2  -2 -12   -0.10    0.70
   2   2  12    2.10    0.80
   2   2  12    0.10    0.90
   2   2  12    5.20    2.70
  -3  -2 -12    5.90    1.20
  -3  -2 -12    5.00    0.90
  -3  -2 -12    5.90    1.30
   3   2  12    2.40    1.10
   3   2  12    4.50    1.30
  -4  -2 -12    2.10    1.60
  -4  -2 -12   -1.20    0.90
   4   2  12   -1.00    1.30
   4   2  12   -0.90    1.30
   7  -3 -12    2.80    3.30
   7  -3 -12    5.00    2.80
   7  -3 -12    5.60    2.80
  -7   3  12    8.10    2.80
  -7   3  12    3.60    2.50
  -7   3  12    3.50    3.00
   6  -3 -12    2.80    2.30
   6  -3 -12    2.30    2.40
   6  -3 -12    2.20    1.70
  -6   3  12    4.60    3.20
  -6   3  12    5.10    2.20
  -6   3  12    2.50    2.20
  -6   3  12    5.40    2.80
   5  -3 -12   11.80    2.00
   5  -3 -12   11.10    2.80
   5  -3 -12   11.90    2.40
  -5   3  12   12.80    2.60
  -5   3  12    9.10    2.20
  -5   3  12    8.80    2.70
  -5   3  12   15.20    3.60
  -5   3  12   14.80    2.30
   4  -3 -12    1.70    1.40
   4  -3 -12    0.20    1.50
   4  -3 -12    0.00    1.80
  -4   3  12   -0.40    1.90
  -4   3  12    0.10    2.40
  -4   3  12    1.10    1.40
  -4   3  12    0.00    1.70
   3  -3 -12    3.60    1.70
   3  -3 -12    3.20    1.50
   3  -3 -12    2.10    1.20
  -3   3  12    5.00    1.80
  -3   3  12    3.70    1.90
  -3   3  12    2.30    2.30
   2  -3 -12    2.00    1.50
   2  -3 -12    1.50    1.00
   2  -3 -12   -0.60    1.20
  -2   3  12   -0.60    1.20
  -2   3  12    3.90    2.50
  -2   3  12    0.80    1.40
   1  -3 -12    0.60    1.20
   1  -3 -12    0.30    0.90
   1  -3 -12    0.10    0.90
   1  -3 -12   -0.40    0.80
  -1   3  12   -0.60    2.00
  -1   3  12   -0.90    1.10
  -1   3  12   -0.20    1.10
   0  -3 -12    2.30    1.10
   0  -3 -12    0.40    0.60
   0  -3 -12   -0.30    0.90
   0   3  12    1.00    1.00
   0   3  12    1.80    2.40
   0   3  12    1.30    1.10
  -1  -3 -12    2.50    1.00
   1   3  12    0.60    2.50
   1   3  12    1.50    1.20
   1   3  12    2.30    1.10
  -2  -3 -12    1.20    1.00
   2   3  12    1.30    1.20
   2   3  12    2.10    1.10
   2   3  12    2.00    2.50
  -3  -3 -12    1.20    1.00
  -3  -3 -12   -0.60    2.10
   3   3  12    1.90    1.40
   3   3  12    4.40    1.30
   3   3  12   -0.90    2.30
  -4  -3 -12    0.10    1.40
  -4  -3 -12    1.20    1.10
   4   3  12    2.10    1.70
   4   3  12   -0.80    1.50
   7  -4 -12    5.10    2.90
  -7   4  12    5.30    2.80
  -7   4  12    2.50    2.60
  -7   4  12    3.20    3.30
   6  -4 -12    4.60    1.90
   6  -4 -12    1.70    2.40
   6  -4 -12    2.50    2.50
  -6   4  12    7.40    2.50
  -6   4  12    7.40    3.50
  -6   4  12    0.90    2.20
   5  -4 -12   15.30    3.10
   5  -4 -12   10.40    2.60
   5  -4 -12   14.60    2.30
  -5   4  12   15.50    3.30
  -5   4  12   13.60    2.40
  -5   4  12    8.60    3.50
  -5   4  12   17.80    2.60
   4  -4 -12   19.60    2.30
   4  -4 -12   22.30    3.20
   4  -4 -12   20.60    2.80
  -4   4  12   16.00    2.80
  -4   4  12   23.80    2.40
  -4   4  12   22.20    3.40
  -4   4  12   16.40    3.70
   3  -4 -12   22.30    2.70
   3  -4 -12   19.40    2.70
   3  -4 -12   16.90    2.10
  -3   4  12   18.70    3.60
  -3   4  12   16.20    2.60
  -3   4  12   18.90    2.90
   2  -4 -12   12.00    2.00
   2  -4 -12   11.00    1.60
   2  -4 -12   13.60    2.20
  -2   4  12    9.80    2.20
  -2   4  12   12.90    3.10
  -2   4  12   12.70    2.10
   1  -4 -12    5.00    1.30
   1  -4 -12    5.30    1.40
   1  -4 -12    5.60    1.60
  -1   4  12    2.70    2.60
  -1   4  12    3.80    1.70
  -1   4  12    6.70    1.70
   0  -4 -12    0.90    1.00
   0  -4 -12   -0.90    1.10
   0  -4 -12    1.20    1.30
   0   4  12    1.50    1.40
   0   4  12    1.40    1.20
   0   4  12   -0.70    2.50
  -1  -4 -12    2.20    1.10
  -1  -4 -12    1.70    1.00
   1   4  12    3.50    2.60
   1   4  12    1.90    1.50
   1   4  12    1.00    1.30
  -2  -4 -12    3.20    1.70
   2   4  12    5.30    1.70
   2   4  12    4.20    1.60
   2   4  12    9.30    3.20
  -3  -4 -12   -0.70    1.50
  -3  -4 -12   -0.60    1.20
   3   4  12   -0.80    1.50
   3   4  12   -0.70    1.40
   3   4  12   -0.20    2.40
   6  -5 -12    1.30    1.80
   6  -5 -12    2.40    2.60
  -6   5  12   -1.30    2.10
  -6   5  12   -2.80    2.20
  -6   5  12    1.50    3.10
   5  -5 -12    2.80    2.40
   5  -5 -12    4.40    1.90
  -5   5  12    3.50    2.10
  -5   5  12    6.50    3.20
  -5   5  12   -0.70    2.30
   4  -5 -12    4.20    1.70
   4  -5 -12    0.30    2.10
   4  -5 -12   -0.30    2.00
  -4   5  12    2.30    1.70
  -4   5  12    1.50    2.30
  -4   5  12    1.80    1.90
  -4   5  12   -2.90    2.70
   3  -5 -12    4.40    2.20
   3  -5 -12    2.20    1.80
   3  -5 -12    1.60    1.50
  -3   5  12    2.80    2.70
  -3   5  12    4.20    1.90
  -3   5  12    3.80    1.10
  -3   5  12    2.30    2.10
   2  -5 -12    4.10    1.50
   2  -5 -12    2.50    1.80
   2  -5 -12    4.30    1.90
  -2   5  12    8.80    2.30
  -2   5  12    4.70    1.90
  -2   5  12    5.40    2.80
   1  -5 -12    0.90    1.30
   1  -5 -12    0.90    1.60
   1  -5 -12    0.70    1.60
  -1   5  12   -0.20    1.70
  -1   5  12    0.10    1.50
  -1   5  12    2.50    2.80
   0  -5 -12    3.70    1.40
   0  -5 -12    1.60    1.40
   0   5  12    0.70    1.40
   0   5  12    5.40    2.90
   0   5  12    1.30    1.80
  -1  -5 -12    0.80    1.20
  -1  -5 -12    0.10    1.40
   1   5  12    1.70    1.60
   1   5  12    0.80    2.60
   1   5  12    0.10    1.90
  -2  -5 -12    3.40    1.70
  -2  -5 -12    2.20    1.40
   2   5  12    1.70    1.80
   2   5  12    2.40    1.90
   2   5  12    4.10    2.90
   5  -6 -12    3.60    2.50
   5  -6 -12    1.70    1.80
  -5   6  12    2.60    3.40
  -5   6  12   -0.90    2.00
   4  -6 -12    4.60    2.50
   4  -6 -12    2.80    1.80
  -4   6  12    3.30    1.90
  -4   6  12    3.20    3.00
  -4   6  12    3.80    2.70
   3  -6 -12    0.50    2.00
   3  -6 -12    0.60    1.70
  -3   6  12    1.20    1.90
  -3   6  12    1.80    3.20
  -3   6  12    3.20    1.40
  -3   6  12    1.20    2.20
   2  -6 -12    6.30    1.90
   2  -6 -12    4.30    2.10
  -2   6  12    3.90    2.10
  -2   6  12    5.70    3.30
  -2   6  12    6.10    2.50
   1  -6 -12   -2.10    1.50
   1  -6 -12    1.30    1.70
  -1   6  12   -2.30    2.80
  -1   6  12    1.90    1.80
  -1   6  12    0.00    1.90
   0  -6 -12    3.90    1.90
   0  -6 -12    3.20    1.70
   0   6  12    1.50    2.10
   0   6  12    3.00    2.80
   0   6  12    1.90    1.70
  -1  -6 -12   -0.10    1.80
  -1  -6 -12    3.60    1.70
   1   6  12    1.80    2.00
   1   6  12    2.70    2.20
   1   6  12    2.40    2.90
   2  -7 -12    0.40    2.10
  -2   7  12   -2.70    2.50
   3   7 -13   -1.40    2.30
  -3  -7  13    0.40    2.40
  -3  -7  13    3.30    2.60
   2   7 -13    4.20    2.00
   2   7 -13    3.10    3.20
   2   7 -13   -1.80    2.10
  -2  -7  13    4.90    2.50
  -2  -7  13    2.00    2.50
   1   7 -13    0.00    2.00
  -1  -7  13    2.40    2.20
  -1  -7  13   -2.40    2.10
   0   7 -13    1.00    2.00
   0  -7  13    1.40    2.40
  -1   7 -13    0.50    2.00
   1  -7  13   -0.80    2.40
  -2   7 -13    4.10    2.30
   2  -7  13    0.60    2.60
   5   6 -13    6.50    4.20
   5   6 -13    1.30    2.90
  -5  -6  13    8.90    3.20
  -5  -6  13   -1.40    2.50
   4   6 -13   -1.60    2.50
   4   6 -13    1.80    2.40
  -4  -6  13   -0.90    2.30
  -4  -6  13    1.60    2.50
   3   6 -13    0.30    2.10
   3   6 -13   -0.30    1.70
   3   6 -13   -0.20    2.60
  -3  -6  13    1.90    2.20
  -3  -6  13   -1.40    2.10
   2   6 -13    7.00    2.00
   2   6 -13    5.60    2.30
   2   6 -13    7.90    2.80
  -2  -6  13    5.20    2.30
  -2  -6  13    8.90    3.20
  -2  -6  13    7.50    2.30
   1   6 -13   -0.50    1.50
   1   6 -13   -0.80    2.10
   1   6 -13    0.90    2.00
  -1  -6  13    0.70    1.90
  -1  -6  13    1.20    2.50
   0   6 -13    4.50    2.00
   0   6 -13    3.10    2.40
   0  -6  13    6.20    2.60
  -1   6 -13    6.40    4.10
  -1   6 -13    3.90    2.00
   1  -6  13    6.80    2.60
  -2   6 -13    0.10    1.90
   2  -6  13    3.80    2.30
  -3   6 -13    3.00    2.10
   3  -6  13    0.10    2.50
   6   5 -13    5.90    4.70
   6   5 -13    4.70    3.50
  -6  -5  13    9.50    3.40
   5   5 -13    5.80    3.00
   5   5 -13    2.00    2.50
  -5  -5  13    0.80    2.50
  -5  -5  13    3.50    2.60
   4   5 -13   -1.90    2.30
   4   5 -13   -2.10    2.10
   4   5 -13   -0.10    1.70
  -4  -5  13    1.30    2.30
  -4  -5  13    0.80    2.30
   3   5 -13   -0.20    1.50
   3   5 -13    3.60    2.10
   3   5 -13    1.10    2.20
  -3  -5  13    0.80    2.00
  -3  -5  13    0.50    2.00
  -3  -5  13   -1.20    2.40
   2   5 -13    2.50    1.60
   2   5 -13    2.80    2.00
   2   5 -13    4.50    2.50
  -2  -5  13    3.60    1.90
  -2  -5  13    7.50    2.80
  -2  -5  13    5.10    2.00
   1   5 -13    1.90    1.50
   1   5 -13    2.00    1.70
   1   5 -13    0.50    1.90
  -1  -5  13    2.10    2.20
  -1  -5  13    0.90    2.00
   0   5 -13    3.80    1.50
   0   5 -13    9.10    2.00
   0   5 -13    7.30    2.30
   0  -5  13   11.10    2.70
   0  -5  13   13.90    2.80
  -1   5 -13    3.10    1.90
  -1   5 -13    5.00    1.90
   1  -5  13    3.60    2.10
   1  -5  13    3.50    2.20
  -2   5 -13   -2.20    1.60
   2  -5  13   -1.60    2.10
   2  -5  13    0.90    1.90
  -3   5 -13    0.00    1.80
   3  -5  13    0.40    2.10
   3  -5  13   -0.80    2.10
   6   4 -13   -2.30    2.60
   6   4 -13    0.20    2.70
  -6  -4  13   -2.40    2.40
  -6  -4  13    0.80    2.80
   5   4 -13   33.20    3.20
   5   4 -13   27.50    3.80
   5   4 -13   37.20    4.70
  -5  -4  13   31.60    3.90
  -5  -4  13   34.60    4.00
   4   4 -13    1.40    1.50
   4   4 -13    0.00    2.50
   4   4 -13    4.20    2.20
  -4  -4  13    0.20    1.90
  -4  -4  13    1.10    2.00
  -4  -4  13   -0.30    2.30
   3   4 -13   13.10    3.00
   3   4 -13   16.90    2.20
   3   4 -13   16.40    2.60
  -3  -4  13   17.40    2.50
  -3  -4  13   22.80    3.80
  -3  -4  13   18.60    3.30
  -3  -4  13   14.60    2.40
   2   4 -13    1.60    1.90
   2   4 -13    3.40    1.40
   2   4 -13    1.10    1.70
  -2  -4  13    2.80    1.60
  -2  -4  13    4.50    2.30
  -2  -4  13    0.40    2.20
   1   4 -13   -0.90    1.20
   1   4 -13   -1.20    1.10
   1   4 -13    0.50    1.50
   1   4 -13    1.90    1.80
  -1  -4  13   -1.00    1.70
  -1  -4  13    1.30    1.80
   0   4 -13    0.60    1.30
   0   4 -13   -0.40    1.20
   0   4 -13   -0.50    1.10
   0   4 -13   -1.40    1.50
   0  -4  13    0.90    1.80
   0  -4  13    0.60    1.60
  -1   4 -13   13.10    2.00
  -1   4 -13   15.50    2.10
  -1   4 -13   14.50    2.30
   1  -4  13   17.20    2.70
   1  -4  13   17.70    2.80
  -2   4 -13   -0.80    1.40
  -2   4 -13    1.60    1.60
  -2   4 -13   -1.10    1.30
   2  -4  13    1.70    1.90
   2  -4  13    4.80    2.20
  -3   4 -13   12.30    2.00
  -3   4 -13   13.60    2.10
   3  -4  13   12.00    2.60
   3  -4  13   17.80    3.10
  -4   4 -13   -2.80    1.40
   4  -4  13   -1.90    2.00
   4  -4  13    2.40    2.30
   7   3 -13   -0.90    2.90
  -7  -3  13    0.20    2.80
  -7  -3  13    2.20    2.70
   6   3 -13   -1.60    2.00
   6   3 -13   -3.30    2.30
   6   3 -13    2.80    2.80
  -6  -3  13    1.30    2.40
  -6  -3  13    0.10    2.50
   5   3 -13    4.10    2.40
   5   3 -13   -0.30    1.50
   5   3 -13    3.50    2.80
  -5  -3  13   -0.20    2.10
  -5  -3  13    2.50    2.70
  -5  -3  13    0.00    2.10
  -5  -3  13    3.50    2.50
   4   3 -13    1.80    2.00
   4   3 -13    4.60    2.40
   4   3 -13    4.10    1.50
  -4  -3  13    3.70    1.90
  -4  -3  13    6.20    2.10
  -4  -3  13    4.80    2.60
  -4  -3  13    3.60    2.50
  -4  -3  13    6.40    2.80
   3   3 -13    8.10    1.60
   3   3 -13    9.40    2.20
   3   3 -13    9.00    2.50
  -3  -3  13   11.20    2.60
  -3  -3  13   10.90    1.90
  -3  -3  13   10.20    2.00
  -3  -3  13   11.40    3.00
   2   3 -13    5.10    1.70
   2   3 -13    2.90    1.30
   2   3 -13    3.20    1.50
   2   3 -13    3.00    1.90
  -2  -3  13    4.20    2.10
  -2  -3  13    3.60    1.40
  -2  -3  13    5.20    2.10
   1   3 -13    0.10    1.30
   1   3 -13    0.40    1.50
   1   3 -13    2.20    1.10
   1   3 -13    5.00    1.30
  -1  -3  13    1.40    1.70
  -1  -3  13    1.40    1.70
   0   3 -13    4.40    1.60
   0   3 -13    0.90    1.20
   0   3 -13    3.30    1.00
   0   3 -13    2.10    1.30
   0  -3  13    2.30    1.60
   0  -3  13    2.00    1.60
  -1   3 -13   -0.20    1.30
  -1   3 -13    1.80    1.10
  -1   3 -13    1.10    0.90
  -1   3 -13    0.70    1.20
   1  -3  13   -1.10    1.40
   1  -3  13    2.50    1.60
  -2   3 -13    2.00    1.50
  -2   3 -13    0.70    1.10
  -2   3 -13    1.50    1.20
   2  -3  13    0.80    1.50
   2  -3  13   -2.20    1.50
  -3   3 -13    0.60    1.30
  -3   3 -13    2.50    1.40
   3  -3  13    2.40    1.80
   3  -3  13    3.40    1.90
  -4   3 -13    1.20    1.50
  -4   3 -13    0.30    1.40
   4  -3  13    0.40    1.90
   4  -3  13    0.60    1.90
   7   2 -13   -0.10    2.70
   7   2 -13    0.40    3.20
  -7  -2  13   -3.80    2.50
  -7  -2  13   -1.50    2.60
   6   2 -13    1.70    2.50
   6   2 -13   -0.20    2.50
   6   2 -13    3.30    1.80
  -6  -2  13    1.40    2.30
  -6  -2  13    0.10    2.30
  -6  -2  13    0.20    2.20
   5   2 -13    9.10    2.60
   5   2 -13    5.40    2.80
   5   2 -13    3.30    1.60
  -5  -2  13    6.00    2.30
  -5  -2  13    2.60    2.70
  -5  -2  13    4.70    2.10
  -5  -2  13    4.60    2.50
   4   2 -13   -1.10    1.90
   4   2 -13   -3.00    1.60
   4   2 -13   -0.30    1.20
  -4  -2  13    2.50    2.60
  -4  -2  13    1.00    1.60
  -4  -2  13   -1.20    2.10
  -4  -2  13   -0.80    1.80
  -4  -2  13    1.40    1.60
   3   2 -13    3.60    1.30
   3   2 -13    4.60    2.10
   3   2 -13    6.00    1.80
  -3  -2  13    3.40    2.20
  -3  -2  13    5.60    2.00
  -3  -2  13    5.60    1.50
  -3  -2  13    4.10    2.70
   2   2 -13    8.20    1.60
   2   2 -13    8.00    1.30
   2   2 -13    7.10    1.90
   2   2 -13    9.50    1.70
  -2  -2  13   15.00    3.20
  -2  -2  13   10.40    2.10
  -2  -2  13   10.40    2.40
   1   2 -13    4.50    1.30
   1   2 -13    4.00    1.50
   1   2 -13    3.50    1.20
   1   2 -13    2.80    1.00
  -1  -2  13    5.90    1.60
  -1  -2  13    3.20    1.70
   0   2 -13   12.60    1.50
   0   2 -13   13.20    1.80
   0   2 -13   12.80    1.20
   0   2 -13   11.90    1.40
   0  -2  13   11.60    2.00
   0  -2  13   14.70    2.00
  -1   2 -13   -0.10    0.90
  -1   2 -13   -0.20    0.70
  -1   2 -13    0.20    0.80
  -1   2 -13    0.00    1.10
   1  -2  13    0.80    1.20
   1  -2  13   -0.70    1.20
  -2   2 -13    3.10    1.30
  -2   2 -13    2.20    1.00
  -2   2 -13    4.60    1.10
   2  -2  13    4.40    1.50
   2  -2  13    2.90    1.50
  -3   2 -13    3.60    1.40
  -3   2 -13    4.50    1.20
  -3   2 -13    5.20    1.30
   3  -2  13    5.20    1.70
   3  -2  13    6.30    1.80
  -4   2 -13   -0.30    1.20
  -4   2 -13   -0.30    1.20
   4  -2  13   -0.70    1.60
   4  -2  13   -0.20    1.50
   7   1 -13    4.30    2.70
   7   1 -13    2.10    3.00
  -7  -1  13    4.50    2.80
  -7  -1  13    4.90    2.70
  -7  -1  13    4.90    3.60
   6   1 -13   -0.90    1.50
   6   1 -13    0.50    2.20
   6   1 -13    0.10    2.40
  -6  -1  13    1.90    2.20
  -6  -1  13    0.50    2.20
  -6  -1  13   -1.20    2.30
   5   1 -13   -0.20    1.90
   5   1 -13   -1.20    1.20
   5   1 -13    0.50    2.30
  -5  -1  13   -1.50    1.70
  -5  -1  13   -0.70    1.70
  -5  -1  13    1.80    2.40
  -5  -1  13    5.10    2.60
   4   1 -13   -0.30    1.60
   4   1 -13    0.00    1.20
   4   1 -13   -0.60    1.90
  -4  -1  13   -1.10    2.10
  -4  -1  13   -0.20    2.00
  -4  -1  13    0.50    1.50
  -4  -1  13    0.00    1.70
   3   1 -13   -0.10    1.00
   3   1 -13   -1.80    1.20
   3   1 -13    1.60    1.60
  -3  -1  13    2.30    2.50
  -3  -1  13    0.50    1.50
  -3  -1  13   -0.30    0.90
  -3  -1  13    2.50    1.80
   2   1 -13    0.10    1.10
   2   1 -13    0.70    0.90
   2   1 -13    1.40    1.40
   2   1 -13    1.30    1.20
  -2  -1  13   -0.90    2.10
  -2  -1  13   -1.00    1.50
  -2  -1  13   -0.50    1.40
  -2  -1  13    2.60    1.40
   1   1 -13    7.00    1.10
   1   1 -13    6.60    1.00
   1   1 -13    6.60    1.10
   1   1 -13    7.80    1.60
   1   1 -13    5.40    1.30
  -1  -1  13    5.80    2.90
  -1  -1  13    5.40    1.60
  -1  -1  13    8.50    1.60
   0   1 -13    3.50    0.80
   0   1 -13    4.30    0.70
   0   1 -13    3.60    1.20
   0  -1  13    3.60    1.30
   0  -1  13    0.30    2.30
   0  -1  13    4.40    1.40
  -1   1 -13   11.90    1.40
   1  -1  13   14.90    1.70
   1  -1  13   11.60    1.50
  -2   1 -13    8.10    0.80
  -2   1 -13    9.30    1.40
  -2   1 -13    9.60    1.30
   2  -1  13    7.60    1.40
   2  -1  13   11.90    1.60
  -3   1 -13    0.40    1.10
  -3   1 -13    2.80    0.90
   3  -1  13    0.40    1.20
   3  -1  13    1.20    1.30
  -4   1 -13    7.20    1.60
  -4   1 -13    5.60    1.30
   4  -1  13    6.20    1.70
   4  -1  13    6.10    1.80
   7   0 -13    3.70    2.80
  -7   0  13    6.20    2.70
  -7   0  13    2.40    2.50
  -7   0  13    2.30    2.60
   6   0 -13   10.30    2.80
   6   0 -13    7.40    2.80
   6   0 -13    3.10    1.80
  -6   0  13    6.50    2.30
  -6   0  13    4.40    2.30
  -6   0  13    8.20    3.00
  -6   0  13    7.40    2.90
   5   0 -13    7.60    2.60
   5   0 -13   11.70    2.60
   5   0 -13    8.10    1.90
  -5   0  13    7.80    2.70
  -5   0  13   13.20    2.80
  -5   0  13    7.30    2.80
  -5   0  13   10.90    2.10
  -5   0  13   10.10    2.10
   4   0 -13   12.20    2.50
   4   0 -13   12.40    2.20
   4   0 -13   10.00    1.70
  -4   0  13   10.40    2.30
  -4   0  13    9.70    2.90
  -4   0  13   16.80    2.90
  -4   0  13    9.80    1.70
   3   0 -13    2.80    1.40
   3   0 -13    2.70    1.20
   3   0 -13    1.60    1.60
  -3   0  13    1.00    2.50
  -3   0  13    0.70    1.60
  -3   0  13    2.40    1.60
   2   0 -13   -0.80    1.00
   2   0 -13    1.80    0.90
   2   0 -13    0.70    1.30
  -2   0  13    3.40    2.60
  -2   0  13   -1.10    1.30
  -2   0  13    0.60    1.30
   1   0 -13    0.00    0.70
   1   0 -13   -0.40    0.70
   1   0 -13    0.10    0.60
   1   0 -13    1.50    0.90
   1   0 -13   -0.90    1.10
  -1   0  13    2.50    2.50
  -1   0  13   -0.20    1.00
  -1   0  13    1.20    1.10
   0   0 -13    1.00    0.80
   0   0 -13   -0.60    0.80
   0   0  13    0.00    0.90
   0   0  13    0.80    2.50
   0   0  13    1.30    0.90
   1   0  13   -0.20    2.50
  -2   0 -13    0.20    0.70
   2   0  13   -0.70    0.70
  -3   0 -13    0.40    0.70
  -3   0 -13   -0.70    0.90
  -3   0 -13    0.90    1.00
   3   0  13   -0.40    1.00
   3   0  13   -0.40    1.00
  -4   0 -13    0.10    1.00
   4   0  13    1.10    1.40
   4   0  13    0.50    1.30
   7  -1 -13   -1.10    1.70
   7  -1 -13    1.60    2.50
  -7   1  13    2.00    2.30
  -7   1  13   -0.40    2.60
  -7   1  13    1.80    2.40
   6  -1 -13   -2.80    2.20
   6  -1 -13    0.70    1.60
   6  -1 -13    3.80    2.20
  -6   1  13    1.50    2.80
  -6   1  13   -0.50    2.30
  -6   1  13    2.00    2.00
  -6   1  13    2.10    2.10
   5  -1 -13    1.20    1.50
   5  -1 -13    4.60    2.10
   5  -1 -13    2.80    2.10
  -5   1  13    2.50    2.40
  -5   1  13    2.50    1.70
  -5   1  13    0.20    2.40
  -5   1  13    4.30    2.20
   4  -1 -13    1.50    1.60
   4  -1 -13   -0.80    1.20
   4  -1 -13    1.50    1.80
  -4   1  13    0.90    1.90
  -4   1  13    0.70    1.60
  -4   1  13   -0.30    1.00
  -4   1  13   -1.10    2.30
   3  -1 -13    8.10    1.40
   3  -1 -13    7.30    1.80
   3  -1 -13   11.10    1.80
  -3   1  13    7.00    2.80
  -3   1  13    9.70    2.20
  -3   1  13    6.80    1.80
   2  -1 -13    2.70    1.10
   2  -1 -13    4.60    1.50
   2  -1 -13    1.70    0.90
  -2   1  13    1.60    1.40
  -2   1  13    0.70    1.20
  -2   1  13    0.00    2.50
   1  -1 -13   -0.70    0.80
   1  -1 -13    0.10    0.70
   1  -1 -13    0.00    1.00
   1  -1 -13    1.10    0.60
  -1   1  13   -0.20    0.90
  -1   1  13   -0.20    1.00
  -1   1  13    0.20    2.20
   0  -1 -13    1.60    0.80
   0   1  13    1.80    0.80
   0   1  13    0.10    2.30
   0   1  13    1.10    0.80
   1   1  13    1.40    2.40
  -3  -1 -13    1.10    1.10
  -3  -1 -13    1.50    1.00
   3   1  13    1.00    0.90
   3   1  13    1.40    1.10
  -4  -1 -13    1.30    0.90
   4   1  13    0.40    1.40
   4   1  13   -0.60    1.30
   7  -2 -13    1.20    1.80
   7  -2 -13    4.50    2.60
  -7   2  13    4.10    2.50
  -7   2  13   -5.20    2.30
  -7   2  13    0.30    2.30
   6  -2 -13    2.80    2.20
   6  -2 -13   -1.00    3.90
   6  -2 -13   -0.40    1.60
  -6   2  13    1.90    2.00
  -6   2  13   -1.20    2.70
  -6   2  13    0.70    1.90
  -6   2  13   -4.10    2.10
   5  -2 -13    4.70    1.70
   5  -2 -13    6.10    2.50
   5  -2 -13    3.30    2.00
  -5   2  13   10.40    2.50
  -5   2  13    7.80    2.70
  -5   2  13    7.30    3.20
  -5   2  13    8.90    2.00
   4  -2 -13   -2.00    1.80
   4  -2 -13    0.40    1.30
   4  -2 -13   -1.70    1.50
  -4   2  13    0.90    1.00
  -4   2  13    0.00    1.70
  -4   2  13   -1.30    2.60
  -4   2  13    2.20    2.10
   3  -2 -13    6.80    1.90
   3  -2 -13    4.70    1.30
   3  -2 -13    3.90    1.60
  -3   2  13    4.30    2.70
  -3   2  13    7.60    2.10
  -3   2  13    4.80    1.60
   2  -2 -13    7.00    1.70
   2  -2 -13    7.20    1.20
   2  -2 -13    7.20    1.40
  -2   2  13    9.70    3.20
  -2   2  13    6.40    1.70
  -2   2  13    7.40    1.50
   1  -2 -13    1.50    0.80
   1  -2 -13    1.80    1.00
   1  -2 -13    2.20    1.20
  -1   2  13    2.20    1.20
  -1   2  13   -1.10    2.10
  -1   2  13    1.00    1.10
   0  -2 -13    7.40    1.20
   0  -2 -13    6.40    0.90
   0   2  13    6.50    1.10
   0   2  13    4.40    2.90
   0   2  13    6.60    1.00
   1   2  13   -2.00    2.30
  -2  -2 -13    1.30    0.80
  -2  -2 -13    1.40    0.80
   2   2  13   -0.50    2.50
  -3  -2 -13    4.50    0.90
   3   2  13    3.10    1.30
   3   2  13    2.40    1.00
   6  -3 -13    1.50    2.30
   6  -3 -13    1.50    1.70
  -6   3  13    1.70    3.10
  -6   3  13    0.50    2.00
  -6   3  13   -1.00    2.60
   5  -3 -13    1.40    1.60
   5  -3 -13    0.40    1.90
   5  -3 -13    0.30    3.70
  -5   3  13   -0.10    2.90
  -5   3  13    3.00    2.50
  -5   3  13    2.40    1.70
   4  -3 -13    2.70    2.10
   4  -3 -13   -0.80    1.70
   4  -3 -13    1.60    1.50
  -4   3  13   -0.10    2.00
  -4   3  13    2.10    1.70
  -4   3  13    0.40    1.00
  -4   3  13   -0.30    2.70
   3  -3 -13    0.90    1.60
   3  -3 -13    0.90    1.50
   3  -3 -13    1.00    1.20
  -3   3  13   -0.60    1.70
  -3   3  13   -4.50    2.20
  -3   3  13    0.10    1.50
   2  -3 -13    6.00    1.50
   2  -3 -13    5.30    1.70
   2  -3 -13    6.00    1.30
  -2   3  13    4.70    1.80
  -2   3  13    5.50    1.70
  -2   3  13    4.20    3.00
   1  -3 -13    0.20    1.00
   1  -3 -13    0.80    0.90
   1  -3 -13   -0.10    1.30
  -1   3  13    0.90    1.10
  -1   3  13   -0.30    2.60
  -1   3  13   -1.10    1.20
   0  -3 -13   11.30    1.10
   0  -3 -13   15.90    1.70
   0  -3 -13   11.50    1.40
   0   3  13   15.20    1.80
   0   3  13   14.40    1.60
   0   3  13   15.20    3.40
  -1  -3 -13   -0.20    0.90
   1   3  13    1.10    1.00
   1   3  13    0.20    0.90
   1   3  13   -0.70    2.60
   2   3  13   11.80    3.40
   2   3  13    8.20    1.50
   2   3  13    7.50    1.30
  -3  -3 -13   -0.20    1.00
   3   3  13   -0.30    1.30
   3   3  13    0.40    1.20
   6  -4 -13   -2.50    2.30
   6  -4 -13    0.00    1.70
  -6   4  13   -3.60    2.90
  -6   4  13   -3.10    2.00
   5  -4 -13    2.10    1.70
   5  -4 -13    1.80    2.20
  -5   4  13    1.60    1.80
  -5   4  13   -0.10    3.00
  -5   4  13    0.50    2.30
   4  -4 -13    4.70    1.60
   4  -4 -13    1.40    2.00
  -4   4  13    1.60    2.90
  -4   4  13    2.10    2.30
  -4   4  13    0.00    1.80
   3  -4 -13    2.00    2.90
   3  -4 -13    0.80    1.40
   3  -4 -13    2.50    1.80
  -3   4  13    1.10    1.70
  -3   4  13    0.50    1.90
  -3   4  13   -1.50    2.80
   2  -4 -13    6.90    1.60
   2  -4 -13    7.80    2.10
   2  -4 -13    7.50    1.90
  -2   4  13    6.50    1.90
  -2   4  13    4.00    2.80
  -2   4  13    6.30    2.00
   1  -4 -13    2.70    1.60
   1  -4 -13    0.20    1.10
   1  -4 -13    1.60    1.40
  -1   4  13    0.60    1.30
  -1   4  13   -0.70    1.40
  -1   4  13    1.70    2.80
   0  -4 -13    2.70    1.10
   0   4  13    1.20    2.90
   0   4  13    2.30    1.30
   0   4  13    1.20    1.60
  -1  -4 -13   -0.10    1.00
   1   4  13    3.70    1.50
   1   4  13    2.10    1.30
   1   4  13   -0.50    2.80
  -2  -4 -13    0.00    1.00
   2   4  13   -0.20    1.30
   2   4  13    1.50    3.00
   2   4  13    0.90    1.40
   5  -5 -13    0.50    2.30
  -5   5  13   -0.80    2.90
   4  -5 -13    6.70    2.40
   4  -5 -13    2.00    1.70
  -4   5  13    3.70    2.50
  -4   5  13    4.10    3.40
   3  -5 -13    1.30    1.50
   3  -5 -13   -0.10    1.90
  -3   5  13   -0.80    1.70
  -3   5  13   -1.10    2.90
  -3   5  13   -0.20    2.00
   2  -5 -13    1.70    1.50
   2  -5 -13   -0.30    1.70
  -2   5  13   -0.60    3.10
  -2   5  13   -3.00    1.40
  -2   5  13   -0.10    1.90
   1  -5 -13    0.80    1.40
   1  -5 -13   -3.20    1.40
  -1   5  13   -0.30    1.50
  -1   5  13    1.20    1.80
  -1   5  13    0.60    2.90
   0  -5 -13   -0.20    1.50
   0  -5 -13    1.60    1.40
   0   5  13   -3.10    2.70
   0   5  13    1.00    1.50
   0   5  13   -0.10    1.90
  -1  -5 -13    1.20    1.30
  -1  -5 -13    0.50    1.60
   1   5  13    1.20    1.60
   1   5  13    1.60    1.90
   1   5  13   -0.50    2.80
   3   6 -14   -0.70    2.20
   3   6 -14    0.30    1.80
  -3  -6  14    0.40    2.20
  -3  -6  14   -0.50    2.10
   2   6 -14   -0.20    2.00
   2   6 -14    0.40    1.80
  -2  -6  14    2.00    2.10
  -2  -6  14   -0.50    2.70
   1   6 -14    0.60    2.00
   1   6 -14    1.90    1.80
  -1  -6  14    2.10    2.50
   0   6 -14    3.20    2.10
   0  -6  14   -2.80    2.10
  -1   6 -14    6.60    2.20
   1  -6  14    9.00    3.00
   4   5 -14    0.30    1.70
   4   5 -14    4.20    2.60
  -4  -5  14    4.10    2.50
  -4  -5  14   -0.20    2.20
   3   5 -14    2.70    1.70
   3   5 -14    0.20    2.20
  -3  -5  14    0.60    1.90
  -3  -5  14    1.60    2.60
   2   5 -14   -0.90    1.50
   2   5 -14    0.40    1.90
  -2  -5  14    2.70    1.90
  -2  -5  14   -1.00    2.50
   1   5 -14    7.40    2.10
   1   5 -14    9.70    1.90
  -1  -5  14    8.40    2.70
  -1  -5  14    7.40    2.60
   0   5 -14    0.10    1.40
   0   5 -14    6.10    1.90
   0  -5  14    1.80    2.20
   0  -5  14    2.80    2.10
  -1   5 -14    7.20    2.00
   1  -5  14    8.80    2.60
   1  -5  14    6.50    2.40
  -2   5 -14    4.00    1.80
   2  -5  14   -0.10    2.00
   2  -5  14    1.60    2.20
   5   4 -14   -0.40    2.30
   5   4 -14    2.30    1.80
  -5  -4  14   -1.50    2.20
  -5  -4  14    2.10    2.20
   4   4 -14    5.20    2.40
   4   4 -14   -0.30    1.60
  -4  -4  14   -0.10    1.90
  -4  -4  14   -4.30    2.30
   3   4 -14    0.50    2.10
   3   4 -14    1.60    2.00
   3   4 -14   -0.20    1.40
  -3  -4  14    2.40    2.70
  -3  -4  14   -0.10    1.60
   2   4 -14    3.80    2.20
   2   4 -14    0.30    1.80
   2   4 -14    2.50    1.40
  -2  -4  14    2.40    2.10
  -2  -4  14    3.00    2.50
   1   4 -14    0.40    1.30
   1   4 -14    0.70    1.90
   1   4 -14    0.90    1.50
  -1  -4  14   -0.80    1.90
  -1  -4  14   -0.60    2.00
   0   4 -14    2.10    1.50
   0   4 -14    3.60    1.50
   0   4 -14    3.30    1.40
   0   4 -14    3.80    2.30
   0  -4  14    4.20    2.00
   0  -4  14    7.20    2.30
  -1   4 -14    5.70    1.70
  -1   4 -14    3.80    1.70
   1  -4  14    0.00    1.80
   1  -4  14    4.70    2.10
  -2   4 -14    3.20    1.60
  -2   4 -14    5.90    1.80
   2  -4  14    4.50    2.10
   2  -4  14    2.40    2.10
  -3   4 -14    0.70    1.70
   3  -4  14   -2.70    1.90
   3  -4  14    2.50    2.10
   6   3 -14    4.70    2.90
  -6  -3  14    7.80    2.80
  -6  -3  14    3.20    2.50
   5   3 -14   -3.20    1.50
   5   3 -14   -4.00    2.00
  -5  -3  14   -1.90    2.00
  -5  -3  14    0.20    2.10
   4   3 -14   -1.00    1.90
   4   3 -14   -0.90    1.50
   4   3 -14   -0.50    2.20
  -4  -3  14    2.40    1.90
  -4  -3  14    2.00    2.70
  -4  -3  14    3.00    2.60
   3   3 -14    0.70    1.80
   3   3 -14    1.40    2.00
   3   3 -14   -1.10    1.30
  -3  -3  14    1.60    2.00
  -3  -3  14   -0.80    2.20
  -3  -3  14   -0.30    1.40
   2   3 -14    1.10    1.30
   2   3 -14   -1.30    1.60
   2   3 -14    2.10    1.60
   2   3 -14    1.90    1.40
  -2  -3  14    0.60    1.80
  -2  -3  14    2.20    2.20
   1   3 -14    3.10    1.50
   1   3 -14    5.10    1.80
   1   3 -14    1.10    1.20
   1   3 -14    0.30    1.40
  -1  -3  14    3.60    1.90
  -1  -3  14    1.10    1.90
   0   3 -14    0.30    1.00
   0   3 -14   -0.80    1.50
   0   3 -14   -0.30    1.20
   0   3 -14   -1.00    1.20
   0  -3  14   -1.00    1.60
   0  -3  14    0.60    1.50
  -1   3 -14    0.90    1.20
  -1   3 -14    1.30    1.30
  -1   3 -14    2.70    1.90
  -1   3 -14    0.90    1.10
   1  -3  14    0.80    1.60
   1  -3  14    0.00    1.60
  -2   3 -14   -1.20    1.30
  -2   3 -14   -0.40    1.30
   2  -3  14    0.10    1.50
   2  -3  14    2.20    1.70
  -3   3 -14   -0.80    1.30
  -3   3 -14   -0.90    1.30
   3  -3  14    0.70    1.80
   3  -3  14   -0.90    1.70
   6   2 -14    4.00    1.90
   6   2 -14    3.40    2.70
  -6  -2  14    4.90    2.50
  -6  -2  14    2.50    2.60
  -6  -2  14    9.40    2.70
   5   2 -14    1.10    2.20
   5   2 -14   -1.30    1.50
  -5  -2  14    2.80    2.70
  -5  -2  14   -3.10    2.30
  -5  -2  14    0.00    1.90
   4   2 -14    0.80    1.40
   4   2 -14   -0.40    2.30
   4   2 -14   -1.30    1.80
  -4  -2  14   -0.10    2.40
  -4  -2  14    2.80    1.70
  -4  -2  14    0.80    2.50
  -4  -2  14    1.80    2.10
   3   2 -14    0.80    1.30
   3   2 -14    1.00    2.00
   3   2 -14    0.90    1.70
  -3  -2  14    0.70    1.30
  -3  -2  14    2.40    2.70
  -3  -2  14   -0.40    2.10
  -3  -2  14    0.80    2.20
  -3  -2  14    0.70    1.70
   2   2 -14   -0.90    1.30
   2   2 -14   -2.40    1.30
   2   2 -14    0.50    1.10
   2   2 -14   -1.70    1.40
  -2  -2  14    0.10    1.60
  -2  -2  14    2.20    2.00
  -2  -2  14    0.60    2.50
   1   2 -14   -0.80    1.20
   1   2 -14   -0.50    1.50
   1   2 -14    0.90    1.20
   1   2 -14    0.70    0.90
  -1  -2  14    0.90    1.70
  -1  -2  14    0.70    1.50
   0   2 -14    2.20    1.10
   0   2 -14    0.80    1.10
   0   2 -14    0.70    0.90
   0   2 -14    1.30    1.40
   0  -2  14   -1.00    1.40
   0  -2  14    1.70    1.50
  -1   2 -14    2.70    0.90
  -1   2 -14    3.30    1.20
  -1   2 -14    3.20    1.40
   1  -2  14    6.00    1.60
   1  -2  14    2.40    1.50
  -2   2 -14   -2.50    1.00
   2  -2  14    1.00    1.50
   2  -2  14    0.30    1.30
  -3   2 -14    7.60    1.50
   3  -2  14    5.30    1.80
   3  -2  14    6.40    1.90
   6   1 -14   -0.20    1.60
   6   1 -14   -1.40    2.30
  -6  -1  14   -0.70    2.00
  -6  -1  14    0.30    3.60
  -6  -1  14   -1.90    2.40
   5   1 -14   -2.10    1.90
   5   1 -14    0.80    1.40
  -5  -1  14    1.20    2.40
  -5  -1  14    2.30    2.40
  -5  -1  14    1.90    1.80
   4   1 -14    1.30    1.90
   4   1 -14   -0.90    1.20
   4   1 -14    5.00    2.30
  -4  -1  14    0.80    2.50
  -4  -1  14    0.10    1.30
  -4  -1  14   -0.80    2.00
  -4  -1  14    2.90    1.90
   3   1 -14    3.80    1.70
   3   1 -14    3.20    1.20
   3   1 -14    0.30    1.80
  -3  -1  14    4.90    3.00
  -3  -1  14    6.10    2.30
  -3  -1  14    5.10    1.90
   2   1 -14    2.00    1.60
   2   1 -14    0.00    1.00
   2   1 -14    1.30    1.40
  -2  -1  14    1.70    1.80
  -2  -1  14    2.10    1.60
  -2  -1  14    3.30    3.00
  -2  -1  14    0.00    1.60
   1   1 -14    0.70    1.30
   1   1 -14    1.70    1.10
   1   1 -14   -0.20    1.00
   1   1 -14    1.30    0.80
  -1  -1  14    0.10    1.40
  -1  -1  14    1.30    1.40
  -1  -1  14    0.70    2.70
   0   1 -14   -0.30    1.10
   0   1 -14    1.40    0.80
   0   1 -14   -0.30    0.60
   0  -1  14    1.90    1.20
   0  -1  14    1.40    1.30
  -1   1 -14    1.60    1.00
  -1   1 -14    1.70    0.60
   1  -1  14    0.70    1.10
   1  -1  14   -0.20    1.10
  -2   1 -14    0.80    0.80
  -2   1 -14    0.50    0.60
   2  -1  14    0.40    1.10
   2  -1  14    0.80    1.10
  -3   1 -14    7.60    1.20
   3  -1  14    6.00    1.60
   3  -1  14    4.20    1.50
   6   0 -14    2.00    2.30
   6   0 -14    0.80    1.60
  -6   0  14   -1.90    4.20
  -6   0  14    0.80    2.50
  -6   0  14    2.10    2.00
   5   0 -14    0.90    1.60
   5   0 -14    1.40    2.10
  -5   0  14    2.10    1.60
  -5   0  14    0.50    2.60
  -5   0  14   -0.70    2.40
   4   0 -14   -1.10    1.70
   4   0 -14   -0.20    1.90
   4   0 -14    1.50    1.30
  -4   0  14   -0.20    1.80
  -4   0  14    2.10    2.70
  -4   0  14    1.20    2.10
   3   0 -14   10.10    1.60
   3   0 -14   10.20    2.20
   3   0 -14    7.00    1.80
  -3   0  14    9.40    3.20
  -3   0  14   13.20    2.30
  -3   0  14    9.40    2.30
   2   0 -14    0.50    1.20
   2   0 -14   -0.20    1.00
   2   0 -14    3.30    1.50
  -2   0  14    0.70    1.50
  -2   0  14    1.80    2.60
  -2   0  14    2.20    1.40
   1   0 -14   11.90    1.30
   1   0 -14    9.90    1.10
   1   0 -14    9.60    1.70
  -1   0  14   10.70    1.70
  -1   0  14   15.00    1.80
  -1   0  14    3.20    2.90
   0   0 -14    2.80    1.00
   0   0  14    2.20    1.00
   0   0  14    1.80    1.00
   0   0  14   -0.30    2.60
  -3   0 -14    0.40    0.80
   3   0  14   -1.50    0.90
   3   0  14    0.60    1.10
   6  -1 -14    2.70    2.50
   6  -1 -14   -4.00    1.50
  -6   1  14   -0.80    2.50
  -6   1  14   -1.60    1.70
  -6   1  14    1.60    3.00
   5  -1 -14   -0.90    1.90
   5  -1 -14    1.30    1.50
  -5   1  14   -2.30    2.10
  -5   1  14   -1.20    1.40
  -5   1  14    0.90    2.80
   4  -1 -14    0.70    1.40
   4  -1 -14    2.70    3.50
   4  -1 -14   -1.50    1.70
  -4   1  14   -4.10    2.60
  -4   1  14    3.20    1.90
  -4   1  14    2.20    2.10
   3  -1 -14    1.40    1.30
   3  -1 -14    2.70    1.60
   3  -1 -14    1.80    1.70
  -3   1  14    2.00    1.90
  -3   1  14   -0.30    1.40
  -3   1  14   -1.80    2.50
   2  -1 -14    0.10    1.10
   2  -1 -14    1.10    1.00
   2  -1 -14    1.30    1.50
  -2   1  14    2.00    2.70
  -2   1  14    0.80    1.50
  -2   1  14    1.40    1.30
   1  -1 -14    3.60    0.90
   1  -1 -14    2.10    1.00
   1  -1 -14    4.70    1.40
  -1   1  14    6.40    2.90
  -1   1  14    4.70    1.20
  -1   1  14    4.80    1.30
   0  -1 -14    1.60    0.90
   0  -1 -14    1.70    0.70
   0   1  14   -0.20    2.70
   1   1  14    7.10    3.20
   5  -2 -14    0.30    1.60
   5  -2 -14    1.70    2.10
  -5   2  14    2.80    2.50
  -5   2  14    2.30    1.40
  -5   2  14   -1.80    2.90
   4  -2 -14    3.10    1.50
   4  -2 -14    3.90    2.00
  -4   2  14    0.10    2.10
  -4   2  14    2.10    1.80
  -4   2  14    3.80    3.20
   3  -2 -14   -1.30    1.20
   3  -2 -14    0.00    1.50
  -3   2  14    0.50    2.90
  -3   2  14   -3.00    1.30
  -3   2  14    2.00    1.90
   2  -2 -14    4.40    1.40
   2  -2 -14    3.20    1.10
   2  -2 -14    4.80    1.70
  -2   2  14   -0.40    1.30
  -2   2  14    1.00    1.60
  -2   2  14    4.60    3.10
   1  -2 -14    0.80    1.30
   1  -2 -14    0.30    0.80
  -1   2  14   -0.20    1.20
  -1   2  14    1.20    2.80
  -1   2  14    0.30    1.00
   0  -2 -14    0.10    1.00
   0  -2 -14    0.70    0.80
   0   2  14    2.40    2.80
   0   2  14   -0.80    0.80
   1   2  14   -1.30    2.80
   2   2  14    0.20    2.90
   5  -3 -14   -2.40    2.00
   5  -3 -14   -2.00    1.50
  -5   3  14   -1.20    2.70
  -5   3  14    1.80    2.50
   4  -3 -14   13.40    2.10
   4  -3 -14   18.00    2.70
  -4   3  14   11.50    2.50
  -4   3  14   17.10    3.90
  -4   3  14   14.40    3.10
   3  -3 -14    2.10    1.70
   3  -3 -14    1.60    1.30
  -3   3  14   -1.40    1.80
  -3   3  14    1.10    2.80
  -3   3  14   -0.10    1.40
   2  -3 -14    4.60    1.60
   2  -3 -14    2.70    1.20
  -2   3  14    5.40    1.90
  -2   3  14    3.40    1.60
  -2   3  14    3.30    3.10
   1  -3 -14    1.10    1.00
  -1   3  14    1.50    3.10
  -1   3  14    0.00    1.30
  -1   3  14   -0.70    1.10
   0  -3 -14    0.00    0.80
   0   3  14    0.90    1.00
   0   3  14    0.10    1.20
   0   3  14    1.60    2.90
   1   3  14    2.60    2.90
   4  -4 -14    2.10    1.70
   4  -4 -14   -1.80    1.90
  -4   4  14    1.80    2.40
  -4   4  14    2.20    2.00
  -4   4  14    0.60    3.50
   3  -4 -14    1.50    1.90
   3  -4 -14    3.50    1.60
  -3   4  14   -1.30    1.90
  -3   4  14    1.70    1.80
  -3   4  14    2.60    3.10
   2  -4 -14    3.30    1.80
   2  -4 -14    6.00    1.60
  -2   4  14    2.40    1.70
  -2   4  14    5.80    2.10
  -2   4  14    0.90    2.80
   1  -4 -14    3.30    1.30
  -1   4  14    3.30    3.30
  -1   4  14    3.70    1.80
  -1   4  14    0.10    1.30
   0  -4 -14    5.40    1.30
   0   4  14    6.60    1.90
   0   4  14    5.00    1.50
   0   4  14   10.30    3.60
   1   5 -15    3.50    1.80
   1   5 -15    8.10    2.20
   3   4 -15   -0.70    1.50
   3   4 -15   -2.80    1.90
  -3  -4  15    0.00    1.60
  -3  -4  15   -1.20    2.50
   2   4 -15    1.30    1.90
   2   4 -15    0.10    1.40
  -2  -4  15    1.10    2.60
  -2  -4  15   -1.90    1.90
   1   4 -15   -0.60    1.30
   1   4 -15   -0.10    1.60
  -1  -4  15   -2.10    1.80
  -1  -4  15   -0.80    2.10
   0   4 -15    2.20    1.60
   0   4 -15    0.40    1.40
   0  -4  15   -0.10    1.90
   0  -4  15    0.30    1.80
  -1   4 -15    0.80    1.60
   4   3 -15    1.00    2.30
   4   3 -15    3.10    1.80
  -4  -3  15    2.40    2.70
  -4  -3  15    3.10    2.90
  -4  -3  15    1.40    1.70
   3   3 -15    2.10    1.50
   3   3 -15    0.30    2.00
  -3  -3  15   -0.80    2.00
  -3  -3  15   -2.60    2.30
  -3  -3  15   -0.40    2.40
   2   3 -15    1.80    1.40
   2   3 -15    2.50    1.80
  -2  -3  15    2.80    2.30
  -2  -3  15    4.90    2.20
   1   3 -15    3.60    1.70
   1   3 -15    2.40    1.30
   1   3 -15    3.50    1.60
  -1  -3  15    5.60    2.10
  -1  -3  15    1.70    2.00
   0   3 -15    2.20    1.20
   0   3 -15    0.50    1.30
   0   3 -15    3.20    1.60
   0  -3  15    4.40    1.90
   0  -3  15    5.50    2.10
  -1   3 -15    3.60    1.50
  -1   3 -15    5.40    1.60
  -1   3 -15    1.60    1.10
   1  -3  15    4.90    1.90
   1  -3  15    6.40    2.00
   4   2 -15    0.10    2.00
   4   2 -15    1.10    1.50
  -4  -2  15    2.10    2.80
  -4  -2  15    3.40    2.50
   3   2 -15    4.30    2.10
   3   2 -15    1.70    1.30
  -3  -2  15    1.50    2.00
  -3  -2  15    1.80    2.30
  -3  -2  15    1.80    3.00
   2   2 -15    0.50    1.60
   2   2 -15   -0.10    1.10
  -2  -2  15    2.80    1.90
  -2  -2  15   -0.90    1.90
  -2  -2  15    3.60    2.20
   1   2 -15   12.60    1.90
   1   2 -15   10.10    1.70
   1   2 -15   10.40    1.40
  -1  -2  15   11.50    2.20
  -1  -2  15    6.10    2.10
   0   2 -15    1.80    1.00
   0   2 -15    2.60    1.20
   0  -2  15    3.30    1.70
   0  -2  15    0.80    1.60
  -1   2 -15   10.20    1.50
  -1   2 -15    7.10    1.20
   1  -2  15   10.00    2.00
   1  -2  15   10.40    2.00
   5   1 -15    1.00    1.50
   5   1 -15    3.00    2.50
  -5  -1  15    2.80    1.60
  -5  -1  15    1.40    3.00
   4   1 -15    0.20    1.30
   4   1 -15    2.00    2.10
  -4  -1  15   -0.40    2.30
  -4  -1  15    1.50    2.80
  -4  -1  15    1.90    2.00
   3   1 -15    2.70    1.30
   3   1 -15   -0.10    1.80
  -3  -1  15   -0.50    2.80
  -3  -1  15    2.30    1.90
  -3  -1  15    2.60    2.20
   2   1 -15   -0.90    1.00
   2   1 -15   -1.00    1.40
  -2  -1  15   -2.20    2.40
  -2  -1  15   -1.90    1.70
  -2  -1  15   -1.10    1.50
   1   1 -15   -0.20    1.10
   1   1 -15    1.20    0.90
  -1  -1  15    0.80    1.40
  -1  -1  15    3.80    3.20
  -1  -1  15    0.40    1.50
  -1  -1  15    1.70    1.60
   0   1 -15    0.60    0.80
   0   1 -15    1.50    1.00
   0  -1  15    0.20    1.20
   0  -1  15    1.10    1.40
  -1   1 -15    0.40    0.70
  -1   1 -15    0.30    0.90
   1  -1  15    0.70    1.10
   1  -1  15    0.70    1.10
   5   0 -15    7.90    2.60
   4   0 -15    1.80    1.40
   4   0 -15   -2.80    1.70
  -4   0  15    1.90    2.30
  -4   0  15   -0.50    1.80
  -4   0  15   -0.80    2.80
   3   0 -15    3.00    1.80
   3   0 -15    3.00    1.30
  -3   0  15    5.80    2.20
  -3   0  15    1.70    1.70
  -3   0  15    6.80    3.40
   2   0 -15    0.10    1.00
   2   0 -15    1.20    1.40
  -2   0  15    0.50    2.70
  -2   0  15    0.80    1.70
  -2   0  15   -0.70    1.40
   1   0 -15    2.30    0.90
  -1   0  15    4.50    1.50
  -1   0  15    2.70    2.80
  -1   0  15    2.10    1.20
   0   0  15    0.60    2.70
   0   0  15    2.00    1.00
   0   0  15    1.60    0.90
   4  -1 -15    0.20    1.40
   4  -1 -15   -0.20    1.80
  -4   1  15    1.00    2.20
  -4   1  15   -0.80    3.00
  -4   1  15    2.10    2.00
   3  -1 -15   -0.60    1.20
   3  -1 -15    1.90    1.70
  -3   1  15   -2.50    2.80
  -3   1  15    0.20    1.80
  -3   1  15   -0.30    1.50
   2  -1 -15   -0.20    1.00
   2  -1 -15    1.40    1.40
  -2   1  15    1.00    1.40
  -2   1  15   -2.80    2.70
  -2   1  15    1.10    1.60
   1  -1 -15    3.70    1.00
  -1   1  15    4.10    1.30
  -1   1  15    2.00    1.30
  -1   1  15    2.10    3.10
   0   1  15    6.20    3.40
   1   1  15    3.70    3.50
   3  -2 -15    2.80    1.80
   3  -2 -15    2.60    1.40
  -3   2  15    0.90    2.00
  -3   2  15    1.20    1.60
  -3   2  15   -4.80    2.50
   2  -2 -15    5.00    1.30
  -2   2  15    4.00    1.80
  -2   2  15    6.40    3.30
  -2   2  15    5.00    1.60
   1  -2 -15    0.90    0.90
  -1   2  15    1.90    1.10
  -1   2  15   -0.40    1.30
  -1   2  15   -0.50    3.00
   0  -2 -15    4.10    1.00
   0   2  15    5.00    3.10
_computing_structure_solution     'SHELXT 2014/4 (Sheldrick, 2014)'
;
_shelx_hkl_checksum              52006
_shelx_res_file
;
    mo_sb20a.res created by SHELXL-2014/7
TITL mo_sb20a_a.res in P-1
REM Old TITL mo_SB20a in P-1 #2
REM SHELXT solution in P-1
REM R1 0.159, Rweak 0.014, Alpha 0.037, Orientation as input
REM Formula found by SHELXT: C14 N4 Cl Br
CELL 0.71073 7.6218 8.5238 11.1093 95.739 98.88 94.979
ZERR 2 0.0005 0.0005 0.0007 0.003 0.003 0.003
LATT 1
SFAC C H Br Cl N
UNIT 30 22 2 2 6
L.S. 4
PLAN  20
TEMP 23
BOND $H
LIST 4
MORE -1
CONF
fmap 2
acta 52
REM <olex2.extras>
REM <HklSrc "%.\\mo_SB20a.hkl">
REM </olex2.extras>
WGHT    0.039500    0.234200
FVAR       0.59977
BR1   3    0.178738    1.014516    0.689465    11.00000    0.05960    0.03754 =
         0.08491    0.00593    0.01673    0.00970
CL1   4    0.275592   -0.206352    0.052260    11.00000    0.08626    0.07318 =
         0.05935   -0.01355    0.01749    0.01835
N2    5    0.323079    0.360567    0.531085    11.00000    0.04460    0.03976 =
         0.03993    0.00902    0.00786    0.00791
N3    5    0.338949    0.570478    0.695174    11.00000    0.04863    0.03972 =
         0.03825    0.00998    0.00776    0.00765
N1    5    0.184323    0.493205    0.376099    11.00000    0.04824    0.04660 =
         0.04141    0.01053    0.00584    0.00737
C8    1    0.294214    0.503782    0.577496    11.00000    0.03896    0.03947 =
         0.04102    0.01166    0.00950    0.00417
C9    1    0.207819    0.589555    0.485033    11.00000    0.03939    0.04213 =
         0.04407    0.01452    0.00955    0.00562
C7    1    0.253828    0.361626    0.409370    11.00000    0.03688    0.04266 =
         0.04192    0.00943    0.00816    0.00399
C6    1    0.258994    0.223189    0.321201    11.00000    0.03696    0.04681 =
         0.04260    0.00580    0.00862    0.00163
C11   1    0.216219    0.804144    0.638025    11.00000    0.04360    0.03470 =
         0.05839    0.00943    0.01613    0.00482
C10   1    0.166986    0.740810    0.515079    11.00000    0.04412    0.04074 =
         0.05461    0.01816    0.00943    0.00792
AFIX  43
H10   2    0.109542    0.798197    0.456675    11.00000   -1.20000
AFIX   0
C12   1    0.300979    0.720400    0.725013    11.00000    0.05085    0.04034 =
         0.04585    0.00536    0.01303    0.00376
AFIX  43
H12   2    0.332793    0.767300    0.805612    11.00000   -1.20000
AFIX   0
C1    1    0.325777    0.086651    0.361073    11.00000    0.04623    0.05101 =
         0.04246    0.00664    0.00898    0.00944
AFIX  43
H1    2    0.366925    0.084203    0.444083    11.00000   -1.20000
AFIX   0
C5    1    0.197861    0.224070    0.195746    11.00000    0.04874    0.05206 =
         0.04637    0.00920    0.00329    0.00537
AFIX  43
H5    2    0.151517    0.313682    0.167813    11.00000   -1.20000
AFIX   0
C4    1    0.205430    0.094104    0.113209    11.00000    0.05415    0.06479 =
         0.04072    0.00407    0.00545    0.00301
AFIX  43
H4    2    0.166409    0.096216    0.029886    11.00000   -1.20000
AFIX   0
C2    1    0.331666   -0.044941    0.279048    11.00000    0.05083    0.05152 =
         0.05109    0.00496    0.01334    0.01313
AFIX  43
H2    2    0.375306   -0.135967    0.306289    11.00000   -1.20000
AFIX   0
C3    1    0.271535   -0.039117    0.155601    11.00000    0.04794    0.05544 =
         0.04890   -0.00423    0.01576    0.00532
C13   1    0.429963    0.480874    0.789164    11.00000    0.05319    0.05235 =
         0.04158    0.01074    0.00190    0.01214
AFIX  23
H13A  2    0.519177    0.552836    0.844624    11.00000   -1.20000
H13B  2    0.491576    0.401041    0.749121    11.00000   -1.20000
AFIX   0
C14   1    0.308006    0.402251    0.861517    11.00000    0.06622    0.05213 =
         0.04718    0.01704    0.00239    0.00929
AFIX  43
H14   2    0.360042    0.346120    0.922831    11.00000   -1.20000
AFIX   0
C15   1    0.137422    0.403476    0.848410    11.00000    0.06734    0.07545 =
         0.07649    0.03481    0.01442    0.00967
AFIX  93
H15A  2    0.078884    0.457908    0.788390    11.00000   -1.20000
H15B  2    0.072678    0.349928    0.898959    11.00000   -1.20000
AFIX   0
HKLF 4
REM  mo_sb20a_a.res in P-1
REM R1 =  0.0353 for    3226 Fo > 4sig(Fo)  and  0.0535 for all    4288 data
REM    181 parameters refined using      0 restraints
END
WGHT      0.0395      0.2342
REM Highest difference peak  0.570,  deepest hole -0.473,  1-sigma level  0.052
Q1    1   0.3845 -0.1614  0.0548  11.00000  0.05    0.57
Q2    1   0.1674  0.9803  0.6145  11.00000  0.05    0.45
Q3    1   0.2458  1.0533  0.6390  11.00000  0.05    0.33
Q4    1   0.3288  0.4464  0.8059  11.00000  0.05    0.31
Q5    1   0.2797 -0.0382  0.2131  11.00000  0.05    0.27
Q6    1   0.2193  0.5418  0.5404  11.00000  0.05    0.26
Q7    1   0.2011  0.7625  0.5827  11.00000  0.05    0.25
Q8    1   0.2823  0.7709  0.6668  11.00000  0.05    0.24
Q9    1   0.2808  0.3404  0.4753  11.00000  0.05    0.23
Q10   1   0.1396  0.9114  0.6703  11.00000  0.05    0.23
Q11   1   0.1693  0.6533  0.4988  11.00000  0.05    0.23
Q12   1   0.2487  0.2344  0.2618  11.00000  0.05    0.23
Q13   1   0.2765  0.5190  0.6580  11.00000  0.05    0.22
Q14   1   0.2125 -0.1588  0.0078  11.00000  0.05    0.22
Q15   1   0.1936  0.5660  0.4349  11.00000  0.05    0.22
Q16   1   0.2776  0.1615  0.3552  11.00000  0.05    0.22
Q17   1   0.3697  0.5393  0.7382  11.00000  0.05    0.21
Q18   1   0.1807  0.9657  0.7444  11.00000  0.05    0.21
Q19   1   0.3228  0.5424  0.6334  11.00000  0.05    0.20
Q20   1   0.2023  0.0262  0.1563  11.00000  0.05    0.20
;
_shelx_res_checksum              6904
loop_
_space_group_symop_operation_xyz
'x, y, z'
'-x, -y, -z'
loop_
_atom_site_type_symbol
_atom_site_label
_atom_site_fract_x
_atom_site_fract_y
_atom_site_fract_z
_atom_site_U_iso_or_equiv
_atom_site_adp_type
_atom_site_calc_flag
_atom_site_occupancy
Br Br1 0.17874(3) 1.01452(2) 0.68946(2) 0.05997(10) Uani d 1
Cl Cl1 0.27559(10) -0.20635(8) 0.05226(6) 0.07320(19) Uani d 1
N N1 0.1843(2) 0.4932(2) 0.37610(15) 0.0451(4) Uani d 1
N N2 0.3231(2) 0.36057(19) 0.53108(14) 0.0408(3) Uani d 1
N N3 0.3389(2) 0.57048(19) 0.69517(14) 0.0416(3) Uani d 1
C C1 0.3258(3) 0.0867(2) 0.36107(18) 0.0460(4) Uani d 1
H H1 0.3669 0.0842 0.4441 0.055 Uiso calc 1
C C2 0.3317(3) -0.0449(3) 0.27905(19) 0.0502(5) Uani d 1
H H2 0.3753 -0.1360 0.3063 0.060 Uiso calc 1
C C3 0.2715(3) -0.0391(3) 0.15560(19) 0.0506(5) Uani d 1
C C4 0.2054(3) 0.0941(3) 0.11321(19) 0.0538(5) Uani d 1
H H4 0.1664 0.0962 0.0299 0.065 Uiso calc 1
C C5 0.1979(3) 0.2241(3) 0.19575(19) 0.0493(5) Uani d 1
H H5 0.1515 0.3137 0.1678 0.059 Uiso calc 1
C C6 0.2590(3) 0.2232(2) 0.32120(17) 0.0420(4) Uani d 1
C C7 0.2538(2) 0.3616(2) 0.40937(17) 0.0400(4) Uani d 1
C C8 0.2942(2) 0.5038(2) 0.57750(16) 0.0390(4) Uani d 1
C C9 0.2078(3) 0.5896(2) 0.48503(17) 0.0408(4) Uani d 1
C C10 0.1670(3) 0.7408(2) 0.51508(19) 0.0453(4) Uani d 1
H H10 0.1095 0.7982 0.4567 0.054 Uiso calc 1
C C11 0.2162(3) 0.8041(2) 0.63802(19) 0.0444(4) Uani d 1
C C12 0.3010(3) 0.7204(2) 0.72501(18) 0.0452(4) Uani d 1
H H12 0.3328 0.7673 0.8056 0.054 Uiso calc 1
C C13 0.4300(3) 0.4809(3) 0.78916(18) 0.0489(5) Uani d 1
H H13A 0.5192 0.5528 0.8446 0.059 Uiso calc 1
H H13B 0.4916 0.4010 0.7491 0.059 Uiso calc 1
C C14 0.3080(3) 0.4023(3) 0.8615(2) 0.0550(5) Uani d 1
H H14 0.3600 0.3461 0.9228 0.066 Uiso calc 1
C C15 0.1374(4) 0.4035(3) 0.8484(3) 0.0709(7) Uani d 1
H H15A 0.0789 0.4579 0.7884 0.085 Uiso calc 1
H H15B 0.0727 0.3499 0.8990 0.085 Uiso calc 1
loop_
_atom_site_aniso_label
_atom_site_aniso_U_11
_atom_site_aniso_U_22
_atom_site_aniso_U_33
_atom_site_aniso_U_12
_atom_site_aniso_U_13
_atom_site_aniso_U_23
Br1 0.05960(16) 0.03754(12) 0.08491(19) 0.00970(9) 0.01673(12) 0.00593(10)
Cl1 0.0863(5) 0.0732(4) 0.0594(3) 0.0184(3) 0.0175(3) -0.0136(3)
N1 0.0482(9) 0.0466(9) 0.0414(8) 0.0074(7) 0.0058(7) 0.0105(7)
N2 0.0446(9) 0.0398(8) 0.0399(8) 0.0079(7) 0.0079(7) 0.0090(6)
N3 0.0486(9) 0.0397(8) 0.0383(8) 0.0076(7) 0.0078(7) 0.0100(6)
C1 0.0462(11) 0.0510(11) 0.0425(10) 0.0094(9) 0.0090(8) 0.0066(8)
C2 0.0508(12) 0.0515(12) 0.0511(11) 0.0131(9) 0.0133(9) 0.0050(9)
C3 0.0479(11) 0.0554(12) 0.0489(11) 0.0053(9) 0.0158(9) -0.0042(9)
C4 0.0542(12) 0.0648(14) 0.0407(10) 0.0030(10) 0.0055(9) 0.0041(9)
C5 0.0487(11) 0.0521(12) 0.0464(10) 0.0054(9) 0.0033(9) 0.0092(9)
C6 0.0370(9) 0.0468(11) 0.0426(9) 0.0016(8) 0.0086(8) 0.0058(8)
C7 0.0369(9) 0.0427(10) 0.0419(9) 0.0040(8) 0.0082(7) 0.0094(8)
C8 0.0390(9) 0.0395(9) 0.0410(9) 0.0042(7) 0.0095(7) 0.0117(7)
C9 0.0394(10) 0.0421(10) 0.0441(9) 0.0056(8) 0.0096(8) 0.0145(8)
C10 0.0441(10) 0.0407(10) 0.0546(11) 0.0079(8) 0.0094(9) 0.0182(9)
C11 0.0436(10) 0.0347(9) 0.0584(11) 0.0048(8) 0.0161(9) 0.0094(8)
C12 0.0508(11) 0.0403(10) 0.0458(10) 0.0038(8) 0.0130(9) 0.0054(8)
C13 0.0532(12) 0.0523(12) 0.0416(10) 0.0121(9) 0.0019(9) 0.0107(9)
C14 0.0662(15) 0.0521(12) 0.0472(11) 0.0093(10) 0.0024(10) 0.0170(9)
C15 0.0673(17) 0.0755(18) 0.0765(17) 0.0097(13) 0.0144(13) 0.0348(14)
loop_
_atom_type_symbol
_atom_type_description
_atom_type_scat_dispersion_real
_atom_type_scat_dispersion_imag
_atom_type_scat_source
C C 0.0033 0.0016 'International Tables Vol C Tables 4.2.6.8 and 6.1.1.4'
H H 0.0000 0.0000 'International Tables Vol C Tables 4.2.6.8 and 6.1.1.4'
Br Br -0.2901 2.4595 'International Tables Vol C Tables 4.2.6.8 and 6.1.1.4'
Cl Cl 0.1484 0.1585 'International Tables Vol C Tables 4.2.6.8 and 6.1.1.4'
N N 0.0061 0.0033 'International Tables Vol C Tables 4.2.6.8 and 6.1.1.4'
loop_
_geom_angle_atom_site_label_1
_geom_angle_atom_site_label_2
_geom_angle_atom_site_label_3
_geom_angle
C7 N1 C9 102.65(16)
C8 N2 C7 101.17(15)
C8 N3 C12 119.16(16)
C8 N3 C13 120.08(16)
C12 N3 C13 120.76(16)
C6 C1 H1 119.5
C2 C1 C6 120.95(19)
C2 C1 H1 119.5
C1 C2 H2 120.5
C1 C2 C3 118.9(2)
C3 C2 H2 120.5
C4 C3 Cl1 119.49(17)
C4 C3 C2 121.6(2)
C2 C3 Cl1 118.93(18)
C5 C4 H4 120.4
C5 C4 C3 119.2(2)
C3 C4 H4 120.4
C6 C5 H5 119.5
C4 C5 C6 120.9(2)
C4 C5 H5 119.5
C1 C6 C7 120.23(17)
C1 C6 C5 118.48(19)
C5 C6 C7 121.28(18)
N2 C7 C6 120.09(17)
N1 C7 N2 117.53(17)
N1 C7 C6 122.39(17)
N2 C8 N3 127.66(17)
N2 C8 C9 111.53(16)
N3 C8 C9 120.81(17)
N1 C9 C8 107.12(17)
N1 C9 C10 132.60(18)
C10 C9 C8 120.27(18)
C9 C10 C11 116.59(18)
C9 C10 H10 121.7
C11 C10 H10 121.7
C10 C11 Br1 120.71(15)
C12 C11 Br1 117.03(16)
C12 C11 C10 122.18(18)
N3 C12 C11 120.99(18)
N3 C12 H12 119.5
C11 C12 H12 119.5
N3 C13 H13A 108.8
N3 C13 H13B 108.8
N3 C13 C14 113.74(18)
H13A C13 H13B 107.7
C14 C13 H13A 108.8
C14 C13 H13B 108.8
C13 C14 H14 116.6
C15 C14 C13 126.8(2)
C15 C14 H14 116.6
C14 C15 H15A 120.0
C14 C15 H15B 120.0
H15A C15 H15B 120.0
loop_
_geom_bond_atom_site_label_1
_geom_bond_atom_site_label_2
_geom_bond_distance
Br1 C11 1.886(2)
Cl1 C3 1.744(2)
N1 C7 1.342(3)
N1 C9 1.371(3)
N2 C7 1.375(2)
N2 C8 1.327(2)
N3 C8 1.352(2)
N3 C12 1.355(3)
N3 C13 1.477(2)
C1 H1 0.9300
C1 C2 1.381(3)
C2 H2 0.9300
C2 C3 1.384(3)
C4 H4 0.9300
C4 C3 1.378(3)
C5 H5 0.9300
C5 C4 1.377(3)
C6 C1 1.395(3)
C6 C5 1.401(3)
C7 C6 1.464(3)
C8 C9 1.431(3)
C9 C10 1.373(3)
C10 H10 0.9300
C11 C10 1.399(3)
C11 C12 1.373(3)
C12 H12 0.9300
C13 H13A 0.9700
C13 H13B 0.9700
C13 C14 1.480(3)
C14 H14 0.9300
C14 C15 1.287(4)
C15 H15A 0.9300
C15 H15B 0.9300
loop_
_geom_contact_atom_site_label_1
_geom_contact_atom_site_label_2
_geom_contact_distance
_geom_contact_site_symmetry_2
_geom_contact_publ_flag
Br1 C14 3.624(2) 1_565 n
Br1 C15 3.660(3) 1_565 n
Br1 C2 3.677(2) 2_666 n
Br1 C6 3.729(2) 2_566 n
Br1 H10 3.1682 2_576 n
Cl1 H12 2.8304 1_544 n
Cl1 H14 3.1002 2_656 n
Cl1 H15B 2.9750 2_556 n
N3 C6 3.437(3) 2_666 n
N1 H5 2.6087 . n
N1 H15A 2.5889 2_566 n
N2 H13B 2.5360 . n
N2 H1 2.5251 . n
N3 H15A 2.5350 . n
C1 C11 3.532(3) 2_666 n
C1 C12 3.472(3) 2_666 n
C5 C13 3.595(3) 2_666 n
C6 C12 3.470(3) 2_666 n
C7 C8 3.512(3) 2_666 n
C7 C10 3.499(3) 2_566 n
C8 C15 3.559(4) . n
C9 C9 3.473(3) 2_566 n
C12 C15 3.378(3) . n
C5 H13A 2.8677 2_666 n
C12 H15A 2.8971 . n
H12 H13A 2.4427 . n
loop_
_geom_hbond_atom_site_label_D
_geom_hbond_atom_site_label_H
_geom_hbond_atom_site_label_A
_geom_hbond_site_symmetry_A
_geom_hbond_distance_DH
_geom_hbond_distance_HA
_geom_hbond_distance_DA
_geom_hbond_angle_DHA
_geom_hbond_publ_flag
C15 H15A N1 2_566 0.93 2.59 3.454(4) 155 yes
loop_
_geom_torsion_atom_site_label_1
_geom_torsion_atom_site_label_2
_geom_torsion_atom_site_label_3
_geom_torsion_atom_site_label_4
_geom_torsion
C9 N1 C7 N2 -0.3(2)
C9 N1 C7 C6 -179.75(17)
C7 N1 C9 C8 0.5(2)
C7 N1 C9 C10 179.6(2)
C8 N2 C7 N1 0.0(2)
C8 N2 C7 C6 179.45(17)
C7 N2 C8 N3 -178.58(19)
C7 N2 C8 C9 0.3(2)
C12 N3 C8 N2 178.81(19)
C12 N3 C8 C9 0.0(3)
C13 N3 C8 N2 -0.5(3)
C13 N3 C8 C9 -179.29(18)
C8 N3 C12 C11 0.8(3)
C13 N3 C12 C11 -179.93(19)
C8 N3 C13 C14 -97.3(2)
C12 N3 C13 C14 83.4(2)
C6 C1 C2 C3 0.6(3)
C1 C2 C3 Cl1 -178.98(17)
C1 C2 C3 C4 -0.4(3)
C5 C4 C3 Cl1 178.14(17)
C5 C4 C3 C2 -0.5(3)
C6 C5 C4 C3 1.1(3)
C5 C6 C1 C2 0.0(3)
C7 C6 C1 C2 -179.96(19)
C1 C6 C5 C4 -0.8(3)
C7 C6 C5 C4 179.11(19)
N1 C7 C6 C1 -177.28(18)
N1 C7 C6 C5 2.8(3)
N2 C7 C6 C1 3.3(3)
N2 C7 C6 C5 -176.66(18)
N2 C8 C9 N1 -0.5(2)
N2 C8 C9 C10 -179.82(17)
N3 C8 C9 N1 178.47(17)
N3 C8 C9 C10 -0.8(3)
N1 C9 C10 C11 -178.3(2)
C8 C9 C10 C11 0.8(3)
C12 C11 C10 C9 0.0(3)
Br1 C11 C10 C9 176.73(14)
Br1 C11 C12 N3 -177.67(15)
C10 C11 C12 N3 -0.8(3)
N3 C13 C14 C15 1.2(4)

_cod_database_fobs_code 2242787
