#------------------------------------------------------------------------------
#$Date: 2019-03-30 05:40:36 +0200 (Sat, 30 Mar 2019) $
#$Revision: 214427 $
#$URL: file:///home/coder/svn-repositories/cod/cif/2/24/28/2242882.cif $
#------------------------------------------------------------------------------
#
# This file is available in the Crystallography Open Database (COD),
# http://www.crystallography.net/. The original data for this entry
# were provided by IUCr Journals, http://journals.iucr.org/.
#
# The file may be used within the scientific community so long as
# proper attribution is given to the journal article from which the
# data were obtained.
#
data_2242882
loop_
_publ_author_name
'Diehl III, George L.'
'Je, Lisa'
'Tanski, Joseph M.'
_publ_section_title
;
 Crystallographic and spectroscopic characterization of
 4-nitro-2-(trifluoromethyl)benzoic acid and
 4-nitro-3-(trifluoromethyl)benzoic acid
;
_journal_coeditor_code           PK2616
_journal_issue                   4
_journal_name_full               'Acta Crystallographica Section E'
_journal_page_first              524
_journal_page_last               528
_journal_paper_doi               10.1107/S2056989019003979
_journal_volume                  75
_journal_year                    2019
_chemical_formula_iupac          'C8 H4 F3 N O4'
_chemical_formula_moiety         'C8 H4 F3 N O4'
_chemical_formula_sum            'C8 H4 F3 N O4'
_chemical_formula_weight         235.12
_chemical_name_systematic
;
4-Nitro-3-(trifluoromethyl)benzoic acid
;
_space_group_crystal_system      monoclinic
_space_group_IT_number           14
_space_group_name_Hall           '-P 2yn'
_space_group_name_H-M_alt        'P 1 21/n 1'
_symmetry_space_group_name_Hall  '-P 2yn'
_symmetry_space_group_name_H-M   'P 1 21/n 1'
_atom_sites_solution_hydrogens   mixed
_cell_angle_alpha                90
_cell_angle_beta                 107.685(2)
_cell_angle_gamma                90
_cell_formula_units_Z            4
_cell_length_a                   6.8986(8)
_cell_length_b                   17.240(2)
_cell_length_c                   7.6912(9)
_cell_measurement_reflns_used    9889
_cell_measurement_temperature    125.(2)
_cell_measurement_theta_max      30.5228
_cell_measurement_theta_min      2.3625
_cell_volume                     871.50(18)
_computing_cell_refinement
;
SAINT (Bruker, 2013)
;
_computing_data_collection
;
APEX2 (Bruker, 2013)
;
_computing_data_reduction
;
SAINT (Bruker, 2013)
;
_computing_molecular_graphics
;
SHELXTL (Sheldrick, 2008b)
;
_computing_publication_material
;
SHELXTL (Sheldrick, 2008b), <i>OLEX2</i> (Dolomanov <i>et al.</i>,
2009) and Mercury
(Macrae <i>et al.</i>,  2008)
;
_computing_structure_refinement
;
SHELXL2016 (Sheldrick, 2015b)
;
_computing_structure_solution
;
SHELXT2014 (Sheldrick, 2015a)
;
_diffrn_ambient_temperature      125(2)
_diffrn_detector_area_resol_mean 8.3333
_diffrn_measured_fraction_theta_full 0.999
_diffrn_measured_fraction_theta_max 0.999
_diffrn_measurement_device_type  'Bruker APEXII CCD'
_diffrn_measurement_method       '\f and \w scans'
_diffrn_radiation_monochromator  graphite
_diffrn_radiation_source         'fine-focus sealed tube'
_diffrn_radiation_type           MoK\a
_diffrn_radiation_wavelength     0.71073
_diffrn_reflns_av_R_equivalents  0.0708
_diffrn_reflns_av_unetI/netI     0.0245
_diffrn_reflns_limit_h_max       9
_diffrn_reflns_limit_h_min       -9
_diffrn_reflns_limit_k_max       24
_diffrn_reflns_limit_k_min       0
_diffrn_reflns_limit_l_max       10
_diffrn_reflns_limit_l_min       0
_diffrn_reflns_number            4385
_diffrn_reflns_theta_full        30.53
_diffrn_reflns_theta_max         30.53
_diffrn_reflns_theta_min         2.36
_exptl_absorpt_coefficient_mu    0.183
_exptl_absorpt_correction_T_max  0.98
_exptl_absorpt_correction_T_min  0.89
_exptl_absorpt_correction_type   multi-scan
_exptl_absorpt_process_details
;
(<i>TWINABS</i>; Sheldrick, 2008a)
;
_exptl_crystal_colour            colourless
_exptl_crystal_density_diffrn    1.792
_exptl_crystal_density_method    'not measured'
_exptl_crystal_description       plate
_exptl_crystal_F_000             472
_exptl_crystal_size_max          0.300
_exptl_crystal_size_mid          0.200
_exptl_crystal_size_min          0.100
_refine_diff_density_max         0.499
_refine_diff_density_min         -0.355
_refine_ls_extinction_method     none
_refine_ls_goodness_of_fit_ref   1.052
_refine_ls_hydrogen_treatment    mixed
_refine_ls_matrix_type           full
_refine_ls_number_parameters     150
_refine_ls_number_reflns         2873
_refine_ls_number_restraints     1
_refine_ls_restrained_S_all      1.052
_refine_ls_R_factor_all          0.0718
_refine_ls_R_factor_gt           0.0480
_refine_ls_shift/su_max          0.000
_refine_ls_shift/su_mean         0.000
_refine_ls_structure_factor_coef Fsqd
_refine_ls_weighting_details
'w=1/[\s^2^(Fo^2^)+(0.0909P)^2^+0.0920P] where P=(Fo^2^+2Fc^2^)/3'
_refine_ls_weighting_scheme      calc
_refine_ls_wR_factor_gt          0.1379
_refine_ls_wR_factor_ref         0.1499
_reflns_number_gt                2116
_reflns_number_total             2665
_reflns_threshold_expression     'I > 2\s(I)'
_cod_data_source_file            pk2616sup1.cif
_cod_data_source_block           II
_cod_database_code               2242882
_shelx_hkl_file
;
   1   0   0 0.89841 0.12594   1
   2   0   0 2427.28 23.0134   1
   3   0   0 -0.0517 0.22645   1
   4   0   0 804.584 8.39053   1
   5   0   0 0.53867 0.48437   1
   6   0   0 1.24344 0.66375   1
   7   0   0 -0.2326 0.75257   1
   8   0   0 0.04525 0.98501   1
   9   0   0 -0.1774 1.31880   1
   1   1   0 1.70766 0.11599   1
   2   1   0 377.392 2.79724   1
   3   1   0 34.6498 0.59140   1
   4   1   0 8.41018 0.37616   1
   5   1   0 52.0770 1.14640   1
   6   1   0 17.8580 0.85647   1
   7   1   0 2.49857 0.66240   1
   8   1   0 24.2079 1.41853   1
   9   1   0 12.4164 1.40106   1
   0   2   0 399.506 6.03603  -3
   0   2   0 399.506 6.03603  -2
   0   2   0 399.506 6.03603   1
   1   2   0 517.081 13.2515  -3
   1   2   0 517.081 13.2515   1
   2   2   0 412.170 3.05338   1
   3   2   0 222.369 1.92095   1
   4   2   0 17.0078 0.46974   1
   5   2   0 3.49614 0.46670   1
   6   2   0 1.04998 0.48932   1
   7   2   0 1.80035 0.64334   1
   8   2   0 19.7294 1.46840   1
   9   2   0 26.8411 1.75970   1
   0   3   0 0.13382 0.20108   1
   1   3   0 460.517 12.0535  -3
   1   3   0 460.517 12.0535   1
   2   3   0 35.6803 0.54750   1
   3   3   0 5.71851 0.30507   1
   4   3   0 54.5667 0.82815   1
   5   3   0 6.53975 0.51477   1
   6   3   0 26.3956 1.05277   1
   7   3   0 63.5629 1.71477   1
   8   3   0 1.04820 0.81774   1
   9   3   0 4.09952 1.15284   1
   0   4   0 739.407 18.6800  -3
   0   4   0 739.407 18.6800  -2
   0   4   0 739.407 18.6800   1
   1   4   0 9999.99 241.000  -3
   1   4   0 9999.99 241.000   1
   2   4   0 469.690 3.66751   1
   3   4   0 2.44922 0.26276   1
   4   4   0 230.461 2.15009   1
   5   4   0 -0.3341 0.29617   1
   6   4   0 0.38645 0.47757   1
   7   4   0 53.5772 1.71347   1
   8   4   0 30.2105 1.67908   1
   9   4   0 5.14903 1.13988   1
   0   5   0 -0.1280 0.24493   1
   1   5   0 3905.29 34.8505   1
   2   5   0 29.7222 0.54189   1
   3   5   0 128.735 1.48599   1
   4   5   0 4.38514 0.39989   1
   5   5   0 13.1312 0.72476   1
   6   5   0 0.79413 0.49462   1
   7   5   0 21.7914 1.26571   1
   8   5   0 31.8482 1.62637   1
   9   5   0 3.60691 1.13081   1
   0   6   0 127.153 2.05743   1
   1   6   0 2514.77 43.9555  -3
   1   6   0 2514.77 43.9555  -2
   1   6   0 2514.77 43.9555   1
   1   6   0 2323.05 60.9520  -3
   1   6   0 2323.05 60.9520   1
   2   6   0 1803.20 14.0691   1
   3   6   0 258.031 2.49948   1
   4   6   0 115.499 1.53642   1
   5   6   0 23.1858 0.88460   1
   6   6   0 61.3842 1.61243   1
   7   6   0 20.7340 1.28940   1
   8   6   0 2.15004 0.87391   1
   9   6   0 4.66985 1.13517   1
   0   7   0 -0.0965 0.29635   1
   1   7   0 52.1850 1.74736  -3
   1   7   0 52.1850 1.74736  -2
   1   7   0 52.1850 1.74736   1
   2   7   0 15.7542 0.55897   1
   3   7   0 0.66210 0.27366   1
   4   7   0 177.052 2.14865   1
   5   7   0 11.2917 0.78724   1
   5   7   2 14.7969 3.75789  -2
   6   7   0 14.7969 3.75789   1
   7   7   0 2.22411 0.73204   1
   8   7   0 54.3969 2.01258   1
   9   7   0 3.45559 1.19139   1
   0   8   0 4.66130 1.38072  -3
   0   8   0 4.66130 1.38072   1
   1   8   0 995.983 10.1529  -3
   1   8   0 995.983 10.1529  -2
   1   8   0 995.983 10.1529   1
   2   8   0 217.673 2.37235   1
   3   8   0 222.102 2.39398   1
   4   8   0 49.4367 1.16023   1
   5   8   0 0.58397 0.47864   1
   5   8   2 134.314 5.74504  -2
   6   8   0 134.314 5.74504   1
   7   8   0 12.6279 1.17873   1
   8   8   0 43.6953 1.86956   1
   0   9   0 0.10752 0.30421   1
   1   9   0 364.549 4.32403  -3
   1   9   0 364.549 4.32403  -2
   1   9   0 364.549 4.32403   1
   2   9   0 648.081 6.33855   1
   3   9   0 1.58836 0.38604   1
   4   9   0 -0.3818 0.34213   1
   5   9   0 12.4800 0.90525   1
   5   9   2 6.52166 2.01551  -2
   6   9   0 6.52166 2.01551   1
   7   9   0 18.2217 1.28046   1
   8   9   0 0.82776 0.90067   1
   0  10   0 453.119 5.19650   1
   1  10   0 0.68354 0.57339  -3
   1  10   0 0.68354 0.57339  -2
   1  10   0 0.68354 0.57339   1
   2  10   0 1290.18 20.0955  -3
   2  10   0 1290.18 20.0955   1
   3  10   0 31.4090 0.94768   1
   4  10   0 -0.1057 0.37572   1
   5  10   0 25.4180 1.11617   1
   5  10   2 38.1163 2.65231  -2
   6  10   0 38.1163 2.65231   1
   7  10   0 46.6178 1.81242   1
   8  10   0 7.72273 1.14826   1
   0  11   0 -0.0427 0.34267   1
   1  11   0 637.920 7.10635  -3
   1  11   0 637.920 7.10635  -2
   1  11   0 637.920 7.10635   1
   2  11   0 2.07504 1.13173  -3
   2  11   0 2.07504 1.13173   1
   3  11   0 100.906 1.74292   1
   4  11   0 -0.1207 0.45967   1
   5  11   0 2.04434 0.61687   1
   5  11   2 1.03032 2.35992  -2
   6  11   0 1.03032 2.35992   1
   7  11   0 14.2329 1.33184   1
   8  11   0 12.0917 1.41650   1
   0  12   0 304.160 3.96094   1
   1  12   0 354.814 4.51883  -3
   1  12   0 354.814 4.51883  -2
   1  12   0 354.814 4.51883   1
   2  12   0 16.2339 1.72344  -3
   2  12   0 16.2339 1.72344   1
   3  12   0 260.878 3.23402   1
   4  12   0 12.5447 0.90207   1
   5  12   0 2.89254 0.65566   1
   5  12   2 -0.0366 2.07923  -2
   6  12   0 -0.0366 2.07923   1
   7  12   0 115.337 2.81755   1
   8  12   0 0.57799 0.96694   1
   0  13   0 0.57844 0.40423   1
   1  13   0 11.2480 1.00772  -3
   1  13   0 11.2480 1.00772  -2
   1  13   0 11.2480 1.00772   1
   2  13   0 266.698 11.2326  -3
   2  13   0 266.698 11.2326  -2
   2  13   0 266.698 11.2326   1
   2  13   0 228.089 8.97224  -3
   2  13   0 228.089 8.97224   1
   3  13   0 490.355 5.19878   1
   4  13   0 74.8989 1.69170   1
   5  13   0 57.3759 1.69599   1
   5  13   2 20.2273 3.06848  -2
   6  13   0 20.2273 3.06848   1
   7  13   0 29.1134 1.66172   1
   0  14   0 12.1760 0.89574   1
   1  14   0 1.02587 0.97499  -3
   1  14   0 1.02587 0.97499  -2
   1  14   0 1.02587 0.97499   1
   2  14   0 -2.5954 3.72920  -3
   2  14   0 -2.5954 3.72920  -2
   2  14   0 -2.5954 3.72920   1
   3  14   0 3.88040 4.13132  -3
   3  14   0 3.88040 4.13132   1
   4  14   0 20.8913 1.07088   1
   5  14   0 0.31962 0.61769   1
   5  14   2 31.6568 6.36915  -2
   6  14   0 31.6568 6.36915   1
   7  14   0 7.90121 1.19060   1
   0  15   0 0.23863 0.58186   1
   1  15   0 -0.2981 1.58133  -3
   1  15   0 -0.2981 1.58133  -2
   1  15   0 -0.2981 1.58133   1
   2  15   0 0.30146 1.49410  -3
   2  15   0 0.30146 1.49410  -2
   2  15   0 0.30146 1.49410   1
   3  15   0 -0.4384 2.92895  -3
   3  15   0 -0.4384 2.92895   1
   4  15   0 26.7962 1.19898   1
   5  15   0 22.3238 1.31627   1
   6  15   0 9.87996 1.16982   1
   6  15   2 24.2062 4.79601  -2
   7  15   0 24.2062 4.79601   1
   0  16   0 246.688 4.54872   1
   1  16   0 8.35519 2.38876  -3
   1  16   0 8.35519 2.38876  -2
   1  16   0 8.35519 2.38876   1
   2  16   0 9.75867 1.80565  -3
   2  16   0 9.75867 1.80565  -2
   2  16   0 9.75867 1.80565   1
   3  16   0 1.69952 2.37938  -3
   3  16   0 1.69952 2.37938   1
   4  16   0 179.437 2.92413   1
   5  16   0 0.00744 0.66202   1
   6  16   0 13.2068 1.35590   1
   6  16   2 1.77898 2.99816  -2
   7  16   0 1.77898 2.99816   1
   0  17   0 0.68035 0.70363   1
   1  17   0 98.2136 6.47738  -3
   1  17   0 98.2136 6.47738  -2
   1  17   0 98.2136 6.47738   1
   1  17   0 96.0817 6.18783  -3
   1  17   0 96.0817 6.18783   1
   2  17   0 12.5318 1.93023  -3
   2  17   0 12.5318 1.93023  -2
   2  17   0 12.5318 1.93023   1
   3  17   0 9.31192 2.09015  -3
   3  17   0 9.31192 2.09015   1
   4  17   0 102.683 2.22741   1
   5  17   0 57.0020 1.92175   1
   6  17   0 26.5194 1.67865   1
   0  18   0 26.6333 1.78728   1
   1  18   0 4.70717 3.27829  -3
   1  18   0 4.70717 3.27829   1
   2  18   0 0.35713 1.98925  -3
   2  18   0 0.35713 1.98925  -2
   2  18   0 0.35713 1.98925   1
   3  18   0 -4.2406 2.25565  -3
   3  18   0 -4.2406 2.25565   1
   4  18   0 57.2620 1.84252   1
   5  18   0 16.0283 1.39427   1
   6  18   0 1.48283 1.00072   1
   0  19   0 -0.4527 0.92571   1
   1  19   0 5.05917 1.09410   1
   2  19   0 47.6085 3.14875  -3
   2  19   0 47.6085 3.14875  -2
   2  19   0 47.6085 3.14875   1
   3  19   0 13.9147 3.16339  -3
   3  19   0 13.9147 3.16339   1
   2  19   2 7.30627 5.46454  -2
   3  19   0 7.30627 5.46454   1
   4  19   0 0.56730 0.73512   1
   5  19   0 7.26223 1.17189   1
   0  20   0 3.08944 1.34645   1
   1  20   0 14.3139 4.16232  -3
   1  20   0 14.3139 4.16232   1
   2  20   0 12.6877 2.37992  -3
   2  20   0 12.6877 2.37992  -2
   2  20   0 12.6877 2.37992   1
   3  20   0 -0.6770 2.89340  -3
   3  20   0 -0.6770 2.89340   1
   4  20   0 25.4055 1.57819   1
   5  20   0 14.0660 1.45141   1
   0  21   0 -0.7521 1.15580   1
   1  21   0 3.77242 4.44994  -3
   1  21   0 3.77242 4.44994   1
   2  21   0 4.13592 2.44466  -3
   2  21   0 4.13592 2.44466  -2
   2  21   0 4.13592 2.44466   1
   3  21   0 -1.1841 4.41116  -3
   3  21   0 -1.1841 4.41116   1
   2  21   2 -2.6695 5.92828  -2
   3  21   0 -2.6695 5.92828   1
   4  21   0 -0.1716 6.22534  -3
   4  21   0 -0.1716 6.22534   1
   0  22   0 36.3374 3.03159   1
   1  22   0 0.18639 1.04529   1
   2  22   0 4.81154 3.13387  -3
   2  22   0 4.81154 3.13387  -2
   2  22   0 4.81154 3.13387   1
   2  22   2 8.07433 6.63913  -2
   3  22   0 8.07433 6.63913   1
   4  22   0 4.37217 6.83904  -3
   4  22   0 4.37217 6.83904   1
   0  23   0 -0.7098 1.78707   1
   1  23   0 23.7375 2.44312   1
   2  23   0 -2.1073 3.51568  -3
   2  23   0 -2.1073 3.51568  -2
   2  23   0 -2.1073 3.51568   1
   3  23   0 -4.7173 7.35066  -3
   3  23   0 -4.7173 7.35066  -2
   3  23   0 -4.7173 7.35066   1
   0  24   0 -2.1584 1.88827   1
   1  24   0 0.26077 1.37940   1
   2  24   0 3.92668 4.92607  -3
   2  24   0 3.92668 4.92607  -2
   2  24   0 3.92668 4.92607   1
  -9   0   1 10.5303 1.74915   1
  -8   0   1 -0.4332 1.96504   1
  -7   0   1 198.127 4.10377   1
  -6   0   1 -0.0874 0.65519   1
  -5   0   1 185.888 3.38752   1
  -4   0   1 0.49949 0.37546   1
  -3   0   1 -0.3045 0.28770   1
  -2   0   1 -0.0894 0.25343   1
  -1   0   1 2651.17 27.1087   1
   0   0   1 0.34009 0.09385   1
   1   0   1 1474.71 16.5136   1
   2   0   1 -0.3211 0.23513   1
   3   0   1 246.661 3.61968   1
   4   0   1 0.14986 0.27474   1
   5   0   1 335.297 5.15019   1
   6   0   1 0.06824 0.61266   1
   7   0   1 129.861 3.66648   1
   8   0   1 0.19684 1.04433   1
   9   0   1 2.68058 1.61993   1
  -9   1   1 0.22671 0.93951   1
   7   1   2 -1.8781 1.36097  -2
  -8   1   1 -1.8781 1.36097   1
   6   1   2 107.219 4.98232  -2
  -7   1   1 107.219 4.98232   1
   6   1   0 12.6622 3.88047  -3
  -6   1   1 12.6622 3.88047   1
   5   1   0 2.60149 2.90678  -3
  -5   1   1 2.60149 2.90678   1
  -4   1   1 504.080 4.33766   1
   3   1   0 2367.66 59.8556  -2
  -3   1   1 2367.66 59.8556   1
  -2   1   1 197.849 1.69992   1
  -1   1   1 73.9891 0.68917   1
   0   1   1 207.347 1.66459   1
   1   1   1 178.364 1.69786   1
   2   1   1 825.238 7.26465   1
   3   1   1 49.1972 0.78104   1
   4   1   1 35.7433 0.69829   1
   5   1   1 278.366 3.00898   1
   6   1   1 256.171 3.40070   1
   7   1   1 15.2377 1.11478   1
   8   1   1 6.77066 1.00731   1
   9   1   1 3.99025 1.22898   1
  -9   2   1 5.79291 1.22938   1
   7   2   2 11.4888 1.86282  -2
  -8   2   1 11.4888 1.86282   1
   6   2   2 22.5468 2.41601  -2
  -7   2   1 22.5468 2.41601   1
  -6   2   1 1.09130 0.47166   1
   5   2   0 241.123 9.30669  -3
  -5   2   1 241.123 9.30669   1
  -4   2   1 170.700 1.85818   1
   3   2   0 331.122 5.02125  -2
  -3   2   1 331.122 5.02125   1
   2   2   0 1439.66 35.7233  -2
  -2   2   1 1439.66 35.7233   1
  -1   2   1 732.803 5.07330   1
   0   2   1 306.507 2.14320   1
   1   2   1 830.952 6.18046   1
   2   2   1 20.0165 0.49568   1
   3   2   1 908.577 7.05208   1
   4   2   1 193.522 1.86621   1
   5   2   1 580.165 5.31212   1
   6   2   1 276.843 3.59468   1
   7   2   1 159.166 2.90168   1
   8   2   1 2.21182 0.89232   1
   9   2   1 7.16587 1.33073   1
  -9   3   1 4.08769 1.11642   1
   7   3   2 0.35148 1.74291  -2
  -8   3   1 0.35148 1.74291   1
   6   3   2 9.72507 1.65514  -2
  -7   3   1 9.72507 1.65514   1
  -6   3   1 72.0300 1.55917   1
   5   3   0 25.5163 3.35688  -3
  -5   3   1 25.5163 3.35688   1
  -4   3   1 401.791 3.58849   1
   3   3   0 194.549 2.77027  -2
  -3   3   1 194.549 2.77027   1
   2   3   0 3434.06 85.4442  -2
  -2   3   1 3434.06 85.4442   1
  -1   3   1 1521.72 39.8975  -3
  -1   3   1 1521.72 39.8975   1
   0   3   1 790.658 5.28125   1
   1   3   1 63.1178 0.78847   1
   2   3   1 2.10402 0.25065   1
   3   3   1 9.76828 0.40691   1
   4   3   1 69.3367 0.96730   1
   5   3   1 11.1375 0.67827   1
   6   3   1 21.3118 0.98778   1
   7   3   1 112.715 2.29507   1
   8   3   1 39.0993 1.82265   1
   9   3   1 11.6791 1.55743   1
  -9   4   1 2.38972 1.06695   1
   7   4   2 4.33706 2.01536  -2
  -8   4   1 4.33706 2.01536   1
   6   4   2 6.57839 1.74865  -2
  -7   4   1 6.57839 1.74865   1
  -6   4   1 17.1724 0.93295   1
  -5   4   1 0.31827 0.31943   1
  -4   4   1 571.286 4.84043   1
   3   4   0 39.3839 1.02315  -2
  -3   4   1 39.3839 1.02315   1
  -2   4   1 26.6023 2.17848  -3
  -2   4   1 26.6023 2.17848   1
   2   4   0 76.0095 2.40270  -2
  -2   4   1 76.0095 2.40270   1
  -1   4   1 17.9407 0.36363   1
   0   4   1 1312.56 8.94818   1
   1   4   1 999.515 7.21559   1
   2   4   1 6.20125 0.35834   1
   3   4   1 65.6841 0.91640   1
   4   4   1 74.8471 1.09427   1
   5   4   1 132.941 1.99054   1
   6   4   1 115.475 2.12380   1
   7   4   1 0.34658 0.62728   1
   8   4   1 73.8629 2.35740   1
  -9   5   1 28.9459 1.91011   1
   7   5   2 68.4128 3.36397  -2
  -8   5   1 68.4128 3.36397   1
   6   5   2 0.29354 1.58748  -2
  -7   5   1 0.29354 1.58748   1
  -6   5   1 55.9281 1.47301   1
  -5   5   1 17.2830 0.69146   1
  -4   5   1 230.242 2.25028   1
   3   5   0 1434.53 15.3181  -2
  -3   5   1 1434.53 15.3181   1
   2   5   0 3.09425 0.96721  -2
  -2   5   1 3.09425 0.96721   1
  -1   5   1 4.11190 1.28224  -3
  -1   5   1 4.11190 1.28224   1
   0   5   1 44.4852 0.58807   1
   1   5   1 23.2088 0.44590   1
   2   5   1 0.55613 0.20418   1
   3   5   1 157.172 1.65424   1
   4   5   1 18.3181 0.60942   1
   5   5   1 385.754 4.15934   1
   6   5   1 82.0569 1.93297   1
   7   5   1 5.59338 0.84533   1
   8   5   1 48.6500 1.88663   1
  -9   6   1 0.27332 1.00916   1
   7   6   2 20.4287 2.60035  -2
  -8   6   1 20.4287 2.60035   1
   6   6   2 44.6056 2.53463  -2
  -7   6   1 44.6056 2.53463   1
  -6   6   1 53.4699 1.60331   1
  -5   6   1 16.3711 0.76788   1
   4   6   0 8.38384 1.65109  -3
  -4   6   1 8.38384 1.65109   1
   3   6   0 950.095 11.6086  -2
  -3   6   1 950.095 11.6086   1
   2   6   0 957.477 12.7621  -2
  -2   6   1 957.477 12.7621   1
  -1   6   1 379.228 11.7704  -3
  -1   6   1 379.228 11.7704   1
   0   6   1 82.4646 0.91325   1
   1   6   1 154.983 1.61015   1
   2   6   1 19.6150 0.49964   1
   3   6   1 100.879 1.26518   1
   4   6   1 265.052 2.71864   1
   5   6   1 346.043 3.89546   1
   6   6   1 0.91042 0.55623   1
   7   6   1 20.5827 1.25741   1
   8   6   1 26.1207 1.59201   1
   8   7   2 13.8339 4.47464  -2
  -9   7   1 13.8339 4.47464   1
   7   7   2 6.53515 2.44074  -2
  -8   7   1 6.53515 2.44074   1
   6   7   2 13.5783 2.24223  -2
  -7   7   1 13.5783 2.24223   1
   6   7   0 41.0000 4.88348  -3
  -6   7   1 41.0000 4.88348   1
  -5   7   1 25.9678 0.92996   1
   4   7   0 12.7983 1.56422  -3
  -4   7   1 12.7983 1.56422   1
   3   7   0 322.992 5.18161  -2
  -3   7   1 322.992 5.18161   1
   2   7   0 165.969 2.97851  -2
  -2   7   1 165.969 2.97851   1
  -1   7   1 608.603 5.09418   1
   0   7   1 96.8046 1.06709   1
   1   7   1 236.798 2.28564   1
   2   7   1 24.9689 0.65438   1
   3   7   1 214.842 2.18280   1
   4   7   1 7.51538 0.54789   1
   5   7   1 62.9790 1.50215   1
   6   7   1 0.49285 0.59149   1
   7   7   1 0.99737 0.68645   1
   8   7   1 151.090 3.19911   1
   8   8   2 -3.1600 3.40496  -2
  -9   8   1 -3.1600 3.40496   1
   7   8   2 7.09483 2.90406  -2
  -8   8   1 7.09483 2.90406   1
   6   8   2 10.3453 2.13337  -2
  -7   8   1 10.3453 2.13337   1
   6   8   0 71.3665 5.85726  -3
  -6   8   1 71.3665 5.85726   1
  -5   8   1 -0.2194 0.42286   1
   4   8   0 0.06361 1.50083  -3
  -4   8   1 0.06361 1.50083   1
   3   8   0 371.411 6.58221  -2
  -3   8   1 371.411 6.58221   1
   2   8   0 120.563 3.11790  -2
  -2   8   1 120.563 3.11790   1
  -2   8   1 99.4262 5.09372  -3
  -2   8   1 99.4262 5.09372   1
  -1   8   1 228.100 5.81658  -3
  -1   8   1 228.100 5.81658   1
   0   8   1 5.55857 0.33314   1
   1   8   1 99.2437 4.90944  -3
   1   8   1 99.2437 4.90944   1
   2   8   1 22.9055 0.64266   1
   3   8   1 12.9335 0.59232   1
   4   8   1 84.8024 1.56764   1
   5   8   1 64.5117 1.56245   1
   6   8   1 2.84207 0.68596   1
   7   8   1 159.075 3.09764   1
   8   8   1 1.22066 0.89301   1
   7   9   2 -1.4840 2.51395  -2
  -8   9   1 -1.4840 2.51395   1
   6   9   2 -1.3354 2.03226  -2
  -7   9   1 -1.3354 2.03226   1
  -6   9   1 29.7136 1.35297   1
  -5   9   1 81.0254 1.75748   1
   4   9   0 9.42044 1.94509  -3
  -4   9   1 9.42044 1.94509   1
  -3   9   1 94.4625 1.56194   1
   2   9   0 95.8904 5.07196  -2
  -2   9   1 95.8904 5.07196   1
  -2   9   1 1.02802 2.26889  -3
  -2   9   1 1.02802 2.26889   1
  -1   9   1 127.594 3.84558  -3
  -1   9   1 127.594 3.84558   1
   0   9   1 546.277 4.23698   1
   1   9   1 82.2817 1.27373   1
   2   9   1 367.743 3.46717   1
   3   9   1 59.8584 1.25106   1
   4   9   1 36.6740 1.08678   1
   5   9   1 4.02239 0.66702   1
   6   9   1 1.12783 0.66481   1
   7   9   1 2.54782 0.80427   1
   8   9   1 2.13492 0.95750   1
   7  10   2 3.45065 4.00778  -2
  -8  10   1 3.45065 4.00778   1
   6  10   2 40.4827 2.82594  -2
  -7  10   1 40.4827 2.82594   1
  -6  10   1 198.685 3.40969   1
  -5  10   1 -0.1054 0.45966   1
   4  10   0 5.04447 1.67245  -3
  -4  10   1 5.04447 1.67245   1
   4  10   0 1.44928 3.01381  -2
  -4  10   1 1.44928 3.01381   1
  -3  10   1 163.011 2.23874   1
  -2  10   1 1136.29 15.3580  -3
  -2  10   1 1136.29 15.3580   1
   2  10   0 1140.69 31.2540  -2
  -2  10   1 1140.69 31.2540   1
  -1  10   1 230.964 2.58385   1
   0  10   1 65.7230 0.96781   1
   1  10   1 179.799 6.02657  -3
   1  10   1 179.799 6.02657   1
   1  10   1 210.381 8.81457  -3
   1  10   1 210.381 8.81457  -2
   1  10   1 210.381 8.81457   1
   2  10   1 146.583 1.94654   1
   3  10   1 2.78557 0.47479   1
   4  10   1 558.398 5.69680   1
   5  10   1 6.21878 0.77885   1
   6  10   1 10.0297 1.04488   1
   7  10   1 13.8429 1.30351   1
   7  10   3 17.1153 6.63040  -3
   8  10   1 17.1153 6.63040   1
   7  11   2 6.13085 5.38364  -2
  -8  11   1 6.13085 5.38364   1
   6  11   2 12.0660 2.35399  -2
  -7  11   1 12.0660 2.35399   1
   5  11   2 15.5409 3.49458  -2
  -6  11   1 15.5409 3.49458   1
  -5  11   1 10.8128 0.92028   1
   4  11   0 86.4235 4.25894  -2
  -4  11   1 86.4235 4.25894   1
   4  11   0 91.6596 3.45332  -3
  -4  11   1 91.6596 3.45332   1
  -3  11   1 103.471 1.75905   1
  -2  11   1 749.311 9.69994  -3
  -2  11   1 749.311 9.69994   1
  -1  11   1 21.7661 2.48688  -3
  -1  11   1 21.7661 2.48688   1
   1  11   0 123.832 6.19523  -2
  -1  11   1 123.832 6.19523   1
   0  11   1 688.949 5.51752   1
   1  11   1 35.5755 4.24977  -3
   1  11   1 35.5755 4.24977  -2
   1  11   1 35.5755 4.24977   1
   1  11   1 20.7186 1.79778  -3
   1  11   1 20.7186 1.79778   1
   2  11   1 157.498 2.20221   1
   3  11   1 27.8501 0.97207   1
   4  11   1 782.786 7.56213   1
   5  11   1 0.01619 0.53241   1
   6  11   1 4.27033 0.81755   1
   7  11   1 28.9725 1.65025   1
   6  10   5 5.38074 6.31430  -2
   8  11   1 5.38074 6.31430   1
  -8  12   1 -0.5044 0.91442   1
   6  12   2 33.0008 4.56267  -2
  -7  12   1 33.0008 4.56267   1
   5  12   2 0.88859 1.95069  -2
  -6  12   1 0.88859 1.95069   1
  -5  12   1 4.56335 0.74581   1
   4  12   0 0.48562 1.57676  -3
  -4  12   1 0.48562 1.57676   1
   4  12   0 0.92076 1.56743  -2
  -4  12   1 0.92076 1.56743   1
   3  12   0 7.45325 3.20426  -3
  -3  12   1 7.45325 3.20426   1
  -2  12   1 85.8792 2.97935  -3
  -2  12   1 85.8792 2.97935   1
   1  12   0 96.2023 2.78066  -2
  -1  12   1 96.2023 2.78066   1
   0  12   1 22.4375 0.65623   1
   1  12   1 68.5385 1.43850   1
   2  12   1 69.5431 5.57921  -3
   2  12   1 69.5431 5.57921   1
   3  12   1 14.4233 0.85212   1
   4  12   1 0.14551 0.49839   1
   5  12   1 85.7361 2.00597   1
   6  12   1 10.6910 1.14693   1
   7  12   1 20.8292 1.56201   1
  -8  13   1 -0.3972 0.97731   1
   6  13   2 0.30804 5.51403  -2
  -7  13   1 0.30804 5.51403   1
   5  13   2 21.3609 2.43493  -2
  -6  13   1 21.3609 2.43493   1
  -5  13   1 0.59850 0.58233   1
   4  13   0 281.712 5.23162  -2
  -4  13   1 281.712 5.23162   1
   4  13   0 280.135 5.80446  -3
  -4  13   1 280.135 5.80446   1
  -3  13   1 73.0008 5.93433  -3
  -3  13   1 73.0008 5.93433   1
   3  13   0 88.2392 4.54704  -3
  -3  13   1 88.2392 4.54704   1
  -2  13   1 62.6047 2.52306  -3
  -2  13   1 62.6047 2.52306   1
   1  13   0 1.80066 1.14888  -2
  -1  13   1 1.80066 1.14888   1
   0  13   1 33.6594 0.82864   1
   1  13   1 38.5309 5.02883  -3
   1  13   1 38.5309 5.02883  -2
   1  13   1 38.5309 5.02883   1
   2  13   1 32.4780 4.62762  -3
   2  13   1 32.4780 4.62762   1
   3  13   1 13.5837 0.88404   1
   4  13   1 11.2367 0.89922   1
   5  13   1 12.3517 1.07333   1
   6  13   1 4.55080 0.94259   1
   7  13   1 9.14144 1.22604   1
  -7  14   1 11.3766 1.31373   1
   5  14   2 38.8571 2.83800  -2
  -6  14   1 38.8571 2.83800   1
  -5  14   1 15.6519 1.12742   1
   4  14   0 132.517 3.53418  -2
  -4  14   1 132.517 3.53418   1
   4  14   0 129.912 3.87570  -3
  -4  14   1 129.912 3.87570   1
   3  14   0 -1.1827 1.79917  -3
  -3  14   1 -1.1827 1.79917   1
  -3  14   1 0.43301 2.09868  -3
  -3  14   1 0.43301 2.09868   1
  -2  14   1 44.4248 2.83992  -3
  -2  14   1 44.4248 2.83992   1
  -2  14   1 62.8002 4.89064  -3
  -2  14   1 62.8002 4.89064  -2
  -2  14   1 62.8002 4.89064   1
   1  14   0 67.2126 2.20999  -2
  -1  14   1 67.2126 2.20999   1
  -1  14   1 78.8023 5.34158  -3
  -1  14   1 78.8023 5.34158   1
   0  14   1 57.2576 1.18906   1
   1  14   1 88.2802 1.67333   1
   2  14   1 4.38584 3.79817  -3
   2  14   1 4.38584 3.79817   1
   3  14   1 424.205 4.79671   1
   4  14   1 9.32207 0.89344   1
   5  14   1 26.1717 1.33549   1
   6  14   1 20.2797 1.52476   1
   7  14   1 0.14420 0.92354   1
  -7  15   1 79.4793 2.51734   1
   5  15   2 0.14167 2.10339  -2
  -6  15   1 0.14167 2.10339   1
  -5  15   1 18.9049 1.26903   1
   4  15   0 36.3222 3.52980  -3
  -4  15   1 36.3222 3.52980   1
   4  15   0 39.7331 2.32056  -2
  -4  15   1 39.7331 2.32056   1
  -3  15   1 112.964 4.76461  -3
  -3  15   1 112.964 4.76461   1
   3  15   0 108.990 3.49451  -3
  -3  15   1 108.990 3.49451   1
  -2  15   1 96.9628 4.10413  -3
  -2  15   1 96.9628 4.10413   1
   1  15   0 45.1801 1.96065  -2
  -1  15   1 45.1801 1.96065   1
   0  15   1 88.4658 1.62057   1
   1  15   1 58.1255 1.46599   1
   2  15   1 167.633 8.17616  -3
   2  15   1 167.633 8.17616   1
   2  15   3 142.161 8.33561  -2
   3  15   1 142.161 8.33561   1
   4  15   1 1.02011 0.61691   1
   5  15   1 1.81369 0.72884   1
   6  15   1 12.0662 1.29140   1
   7  15   1 4.15057 1.12989   1
  -7  16   1 3.49554 1.06341   1
   5  16   2 4.45877 2.24255  -2
  -6  16   1 4.45877 2.24255   1
  -5  16   1 82.7677 2.15552   1
   4  16   0 74.1656 3.84049  -3
  -4  16   1 74.1656 3.84049   1
   4  16   0 97.3003 3.55394  -2
  -4  16   1 97.3003 3.55394   1
   3  16   0 43.2859 2.45834  -3
  -3  16   1 43.2859 2.45834   1
  -3  16   1 55.4576 3.17566  -3
  -3  16   1 55.4576 3.17566   1
  -2  16   1 0.01311 0.67926   1
   1  16   0 21.7709 1.58058  -2
  -1  16   1 21.7709 1.58058   1
   0  16   1 1.72670 0.54908   1
   1  16   1 16.9094 0.96949   1
   2  16   1 11.4619 3.80890  -3
   2  16   1 11.4619 3.80890   1
   2  16   3 31.6734 5.79685  -2
   3  16   1 31.6734 5.79685   1
   4  16   1 0.34103 0.58465   1
   5  16   1 3.18992 0.86261   1
   6  16   1 26.1077 1.66974   1
  -7  17   1 11.8397 1.55634   1
   5  17   2 2.62413 2.18264  -2
  -6  17   1 2.62413 2.18264   1
  -5  17   1 1.24512 0.76629   1
   4  17   0 41.3282 2.82717  -2
  -4  17   1 41.3282 2.82717   1
   4  17   0 26.8281 5.82092  -3
  -4  17   1 26.8281 5.82092   1
   3  17   0 -0.5266 1.24136  -3
  -3  17   1 -0.5266 1.24136   1
  -3  17   1 -1.4828 1.84768  -3
  -3  17   1 -1.4828 1.84768   1
  -2  17   1 105.302 7.43180  -3
  -2  17   1 105.302 7.43180   1
   1  17   0 35.0522 1.97099  -2
  -1  17   1 35.0522 1.97099   1
   0  17   1 99.9820 2.05095   1
   1  17   1 94.0609 2.28348   1
   2  17   1 83.7829 6.73165  -3
   2  17   1 83.7829 6.73165   1
   2  17   3 107.909 5.65090  -2
   3  17   1 107.909 5.65090   1
   4  17   1 21.8720 1.26456   1
   5  17   1 14.9749 1.28990   1
   6  17   1 53.3575 2.15134   1
   5  18   2 -1.9407 1.94794  -2
  -6  18   1 -1.9407 1.94794   1
  -5  18   1 51.3857 2.06071   1
   4  18   0 12.2823 2.82914  -2
  -4  18   1 12.2823 2.82914   1
   4  18   0 6.49602 5.40713  -3
  -4  18   1 6.49602 5.40713   1
   3  18   0 0.29709 1.75726  -3
  -3  18   1 0.29709 1.75726   1
  -3  18   1 1.39161 2.25646  -3
  -3  18   1 1.39161 2.25646   1
  -2  18   1 -0.9281 3.13966  -3
  -2  18   1 -0.9281 3.13966   1
   2  18   0 4.18031 3.05981  -3
  -2  18   1 4.18031 3.05981   1
   1  18   0 2.56433 1.51012  -2
  -1  18   1 2.56433 1.51012   1
   0  18   1 7.22912 0.89155   1
   1  18   1 1.72198 0.67738   1
   2  18   1 68.1275 8.08951  -3
   2  18   1 68.1275 8.08951  -2
   2  18   1 68.1275 8.08951   1
   2  18   3 14.4773 3.67895  -2
   3  18   1 14.4773 3.67895   1
   4  18   1 32.8275 1.47749   1
   5  18   1 3.41114 1.01964   1
   6  18   1 0.07778 1.10473   1
   5  19   2 27.4161 2.93773  -2
  -6  19   1 27.4161 2.93773   1
   5  19   0 2.09026 4.17124  -2
  -5  19   1 2.09026 4.17124   1
   4  19   0 -7.3539 5.58037  -2
  -4  19   1 -7.3539 5.58037   1
   3  19   0 6.02792 1.96460  -3
  -3  19   1 6.02792 1.96460   1
  -3  19   1 -0.1453 3.04778  -3
  -3  19   1 -0.1453 3.04778   1
   2  19   0 52.3462 3.04311  -3
  -2  19   1 52.3462 3.04311   1
  -2  19   1 69.2982 7.74986  -3
  -2  19   1 69.2982 7.74986  -2
  -2  19   1 69.2982 7.74986   1
   1  19   0 5.18092 1.69099  -2
  -1  19   1 5.18092 1.69099   1
   0  19   1 3.80525 0.80116   1
   1  19   1 119.399 2.66826   1
   2  19   1 5.08777 1.18876   1
   2  19   3 1.71666 3.56951  -2
   3  19   1 1.71666 3.56951   1
   4  19   1 0.99824 0.83121   1
   5  19   1 3.87821 1.18633   1
   5  20   0 3.63347 3.86872  -2
  -5  20   1 3.63347 3.86872   1
  -4  20   1 12.2879 1.50083   1
   3  20   0 -0.2845 2.22012  -3
  -3  20   1 -0.2845 2.22012   1
   2  20   0 4.59227 2.35455  -3
  -2  20   1 4.59227 2.35455   1
  -2  20   1 11.6155 6.10089  -3
  -2  20   1 11.6155 6.10089  -2
  -2  20   1 11.6155 6.10089   1
   1  20   0 11.1309 2.58141  -2
  -1  20   1 11.1309 2.58141   1
   0  20   0 31.2130 3.02694  -2
   0  20   1 31.2130 3.02694   1
   1  20   1 3.93004 0.98996   1
   2  20   1 84.9374 9.18941  -3
   2  20   1 84.9374 9.18941  -2
   2  20   1 84.9374 9.18941   1
   2  20   3 -3.4706 5.55076  -2
   3  20   1 -3.4706 5.55076   1
   4  20   1 0.53460 0.90512   1
   5  20   1 6.26648 1.41592   1
   4  21   2 12.5541 3.68470  -2
  -5  21   1 12.5541 3.68470   1
  -4  21   1 19.9862 7.48804  -3
  -4  21   1 19.9862 7.48804   1
   3  21   0 -1.6239 3.06146  -3
  -3  21   1 -1.6239 3.06146   1
   2  21   0 5.62046 2.58195  -3
  -2  21   1 5.62046 2.58195   1
   1  21   0 1.16846 2.67442  -2
  -1  21   1 1.16846 2.67442   1
   0  21   1 11.3365 1.70974   1
   1  21   1 4.57097 1.13455   1
   2  21   1 37.4107 8.15999  -3
   2  21   1 37.4107 8.15999  -2
   2  21   1 37.4107 8.15999   1
   2  21   3 2.11620 3.31877  -2
   3  21   1 2.11620 3.31877   1
   4  21   1 30.4257 2.38152   1
  -4  22   1 5.76655 7.31361  -3
  -4  22   1 5.76655 7.31361   1
   3  22   0 9.85617 2.77075  -3
  -3  22   1 9.85617 2.77075   1
   2  22   0 19.2375 3.25878  -3
  -2  22   1 19.2375 3.25878   1
   1  22   0 -5.5179 3.77944  -2
  -1  22   1 -5.5179 3.77944   1
   0  22   0 26.8141 4.19406  -2
   0  22   1 26.8141 4.19406   1
   1  22   1 25.8746 2.03511   1
   2  22   1 2.64054 1.25901   1
   2  22   3 4.60995 4.34429  -2
   3  22   1 4.60995 4.34429   1
   3  23   0 9.93032 2.97186  -3
  -3  23   1 9.93032 2.97186   1
   2  23   0 4.32606 2.96401  -3
  -2  23   1 4.32606 2.96401   1
   1  23   0 16.9633 5.63818  -2
  -1  23   1 16.9633 5.63818   1
   1  23   0 12.3519 5.76764  -3
  -1  23   1 12.3519 5.76764   1
   0  23   1 16.0207 2.14152   1
   1  23   1 110.542 3.85590   1
   2  23   1 6.78040 1.58469   1
   2  24   0 11.7294 4.24928  -3
  -2  24   1 11.7294 4.24928   1
  -1  24   1 2.70524 1.93730   1
   0  24   0 25.4270 4.24456  -2
   0  24   1 25.4270 4.24456   1
   1  24   1 9.74499 1.98273   1
  -9   0   2 -1.4167 1.16724   1
  -8   0   2 81.6431 3.16130   1
  -7   0   2 0.13475 0.73317   1
  -6   0   2 249.641 4.56487   1
  -4   0   2 40.1339 1.18745   1
  -3   0   2 -0.0157 0.24262   1
  -2   0   2 3310.40 31.3801   1
  -1   0   2 0.28350 0.19891   1
   0   0   2 562.428 5.62760   1
   1   0   2 0.24270 0.24929   1
   2   0   2 6577.71 72.7021   1
   3   0   2 -0.4861 0.32895   1
   4   0   2 63.3613 1.74993   1
   5   0   2 -0.9551 0.52250   1
   6   0   2 68.2248 2.37021   1
   6   1   5 7.53449 6.28719  -2
   8   0   2 7.53449 6.28719   1
  -9   1   2 -1.0077 0.83811   1
  -8   1   2 51.1922 1.82808   1
  -7   1   2 43.2989 1.36191   1
  -6   1   1 23.1207 1.15153  -3
  -6   1   2 23.1207 1.15153   1
  -5   1   1 51.5245 1.23727  -3
  -5   1   2 51.5245 1.23727   1
  -4   1   2 201.066 2.15306   1
  -3   1   2 310.069 2.67228   1
  -2   1   2 802.412 5.70613   1
  -1   1   2 87.5803 0.86121   1
   0   1   2 197.800 1.57172   1
   1   1   2 902.520 7.44224   1
   2   1   2 121.722 1.51867   1
   3   1   2 14.7364 0.58264   1
   4   1   2 195.232 2.41770   1
   5   1   2 126.424 1.83353   1
   6   1   2 55.5576 1.59649   1
   5   2   5 -1.3450 1.88289  -2
   7   1   2 -1.3450 1.88289   1
   5   0   5 2.53794 1.70645  -2
   7   1   2 2.53794 1.70645   1
   6   2   5 4.49740 2.65785  -2
   8   1   2 4.49740 2.65785   1
  -9   2   2 0.69898 0.98833   1
  -8   2   2 25.5670 1.38304   1
  -7   2   1 19.2763 4.69848  -3
  -7   2   2 19.2763 4.69848   1
  -6   2   1 149.184 2.37908  -3
  -6   2   2 149.184 2.37908   1
  -5   2   1 300.680 3.41356  -3
  -5   2   2 300.680 3.41356   1
  -4   2   1 85.7724 4.58631  -3
  -4   2   2 85.7724 4.58631   1
  -3   2   2 81.6480 0.96977   1
  -2   2   2 213.425 1.81793   1
  -1   2   2 581.958 4.17137   1
   0   2   2 983.561 7.08194   1
   1   2   2 25.6275 0.47258   1
   2   2   2 10.9745 0.46379   1
   3   2   2 80.9278 1.37371   1
   4   2   2 62.1772 1.13062   1
   5   2   2 724.169 6.84850   1
   6   2   2 173.166 2.92142   1
   5   1   5 13.7137 1.93688  -2
   7   2   2 13.7137 1.93688   1
   5   3   5 17.1729 2.24386  -2
   7   2   2 17.1729 2.24386   1
   6   3   5 4.85177 2.77315  -2
   8   2   2 4.85177 2.77315   1
  -9   3   2 39.8503 2.02580   1
  -8   3   2 19.3308 1.28694   1
  -7   3   1 96.8630 7.06009  -3
  -7   3   2 96.8630 7.06009   1
  -6   3   1 175.820 2.76022  -3
  -6   3   2 175.820 2.76022   1
  -5   3   1 130.816 2.00099  -3
  -5   3   2 130.816 2.00099   1
  -4   3   1 141.125 4.53312  -3
  -4   3   2 141.125 4.53312   1
  -3   3   2 62.9510 0.84757   1
  -2   3   2 1482.06 10.2275   1
  -1   3   2 336.388 2.70373   1
   0   3   2 299.994 2.55530   1
   1   3   2 24.8727 0.47231   1
   2   3   2 215.478 2.05692   1
   3   3   2 6.03306 0.45541   1
   4   3   2 0.85857 0.30134   1
   5   3   2 73.7194 1.42741   1
   6   3   2 122.683 2.41604   1
   5   2   5 0.00722 1.87781  -2
   7   3   2 0.00722 1.87781   1
   5   4   5 3.28394 5.46423  -2
   7   3   2 3.28394 5.46423   1
   6   4   5 5.51863 2.70031  -2
   8   3   2 5.51863 2.70031   1
  -9   4   2 2.62928 1.10300   1
  -8   4   2 4.36060 0.96885   1
  -7   4   1 61.6098 4.20974  -3
  -7   4   2 61.6098 4.20974   1
  -6   4   1 1.31069 1.20254  -3
  -6   4   2 1.31069 1.20254   1
  -5   4   1 2.21610 0.65771  -3
  -5   4   2 2.21610 0.65771   1
  -4   4   1 34.6408 1.27478  -3
  -4   4   2 34.6408 1.27478   1
  -3   4   2 40.5762 0.69113   1
  -2   4   2 144.639 1.40152   1
  -1   4   2 120.445 1.23113   1
   0   4   2 47.9498 0.60196   1
   1   4   2 216.955 1.82704   1
   2   4   2 63.0742 0.90843   1
   3   4   2 689.909 5.89768   1
   4   4   2 14.2474 0.63049   1
   5   4   2 67.8805 1.53375   1
   6   4   2 52.1681 1.62541   1
   5   3   5 0.60970 1.84897  -2
   7   4   2 0.60970 1.84897   1
   6   5   5 13.7376 2.70592  -2
   8   4   2 13.7376 2.70592   1
   7   3   4 10.4446 6.20298  -3
   8   4   2 10.4446 6.20298   1
   8   5   2 1.60783 6.56194  -2
  -9   5   2 1.60783 6.56194   1
  -8   5   2 3.63616 0.90683   1
  -7   5   1 15.8241 2.60165  -3
  -7   5   2 15.8241 2.60165   1
  -6   5   1 53.0849 2.12530  -3
  -6   5   2 53.0849 2.12530   1
  -5   5   1 37.6207 1.26248  -3
  -5   5   2 37.6207 1.26248   1
  -4   5   1 193.579 3.22427  -3
  -4   5   2 193.579 3.22427   1
  -3   5   2 336.050 2.82620   1
  -2   5   2 14.3764 0.42455   1
  -1   5   2 112.839 1.14271   1
   0   5   2 70.5647 0.81591   1
   1   5   2 1699.68 11.6770   1
   2   5   2 270.425 2.67267   1
   3   5   2 44.5798 0.91389   1
   4   5   2 66.4161 1.31804   1
   5   5   2 17.1658 0.90857   1
   6   5   2 3.12636 0.76711   1
   5   4   5 5.95198 1.84758  -2
   7   5   2 5.95198 1.84758   1
   6   6   5 0.02446 2.50302  -2
   8   5   2 0.02446 2.50302   1
   7   4   4 -0.7301 5.94467  -3
   8   5   2 -0.7301 5.94467   1
   8   6   2 50.5097 4.47189  -2
  -9   6   2 50.5097 4.47189   1
  -8   6   2 -0.4464 0.77564   1
  -7   6   1 6.31352 2.01751  -3
  -7   6   2 6.31352 2.01751   1
  -6   6   1 142.881 3.80820  -3
  -6   6   2 142.881 3.80820   1
  -5   6   1 102.415 1.99752  -3
  -5   6   2 102.415 1.99752   1
  -4   6   1 180.910 3.31475  -3
  -4   6   2 180.910 3.31475   1
  -3   6   2 13.1867 0.46811   1
  -2   6   2 19.9526 0.49575   1
  -1   6   2 240.280 2.07282   1
   0   6   2 621.093 4.59318   1
   1   6   2 766.059 5.77865   1
   2   6   2 57.3408 0.87156   1
   3   6   2 343.803 3.42352   1
   4   6   2 519.452 5.17162   1
   5   6   2 31.6653 1.23335   1
   6   6   2 61.7817 1.71193   1
   5   5   5 100.923 4.00298  -2
   7   6   2 100.923 4.00298   1
   7   5   4 21.9112 6.86936  -3
   8   6   2 21.9112 6.86936   1
   6   7   5 28.0221 3.16320  -2
   8   6   2 28.0221 3.16320   1
   8   7   2 0.86039 2.83015  -2
  -9   7   2 0.86039 2.83015   1
  -8   7   2 7.11632 1.11210   1
  -7   7   1 1.28423 1.96070  -3
  -7   7   2 1.28423 1.96070   1
  -6   7   1 3.54190 1.72105  -3
  -6   7   2 3.54190 1.72105   1
  -5   7   1 28.6804 1.43996  -3
  -5   7   2 28.6804 1.43996   1
  -4   7   1 349.436 5.28285  -3
  -4   7   2 349.436 5.28285   1
  -3   7   2 7.89031 0.42624   1
  -2   7   2 42.7600 0.72865   1
  -1   7   2 356.548 2.90854   1
   0   7   2 258.758 2.31241   1
   1   7   2 0.82446 0.20813   1
   2   7   2 6.82026 0.39124   1
   2   8   3 144.588 6.89029  -2
   3   7   2 144.588 6.89029   1
   4   7   2 372.271 4.04637   1
   5   7   2 62.2186 1.51759   1
   6   7   2 37.9825 1.44069   1
   5   6   5 82.6359 4.36102  -2
   7   7   2 82.6359 4.36102   1
   6   8   5 13.7078 2.50967  -2
   8   7   2 13.7078 2.50967   1
   7   6   4 9.63950 4.35007  -3
   8   7   2 9.63950 4.35007   1
   8   8   2 1.91126 2.79058  -2
  -9   8   2 1.91126 2.79058   1
  -8   8   2 25.1835 1.60614   1
  -7   8   1 20.1092 2.39041  -3
  -7   8   2 20.1092 2.39041   1
  -6   8   1 40.0551 2.63644  -3
  -6   8   2 40.0551 2.63644   1
  -5   8   1 3.44082 1.15737  -3
  -5   8   2 3.44082 1.15737   1
  -4   8   1 174.814 2.92058  -3
  -4   8   2 174.814 2.92058   1
  -3   8   2 57.8169 0.94005   1
  -2   8   2 72.9198 1.01093   1
  -1   8   2 37.0756 0.67618   1
   0   8   2 22.3732 0.54648   1
   1   8   2 272.181 2.38998   1
   2   8   2 18.8755 0.57957   1
   2   9   3 173.720 4.35713  -2
   3   8   2 173.720 4.35713   1
   4   8   2 40.0952 1.12354   1
   5   8   2 114.209 2.14736   1
   6   8   2 6.97804 0.90729   1
   5   7   5 31.4464 6.32891  -2
   7   8   2 31.4464 6.32891   1
   7   7   4 9.79134 4.44728  -3
   8   8   2 9.79134 4.44728   1
   6   9   5 15.0125 2.69181  -2
   8   8   2 15.0125 2.69181   1
   8   9   2 9.71073 3.83418  -2
  -9   9   2 9.71073 3.83418   1
  -8   9   2 32.8233 1.71807   1
  -7   9   1 17.9798 2.65902  -3
  -7   9   2 17.9798 2.65902   1
  -6   9   1 72.5253 4.10322  -3
  -6   9   2 72.5253 4.10322   1
  -5   9   1 8.75573 1.58408  -3
  -5   9   2 8.75573 1.58408   1
  -4   9   1 32.9116 1.67223  -3
  -4   9   2 32.9116 1.67223   1
  -3   9   2 29.4801 0.70254   1
  -2   9   2 5.45081 0.39631   1
  -1   9   2 123.040 1.39954   1
   0   9   2 7.97465 0.41200   1
   1   9   2 105.274 1.25267   1
   2   9   2 59.2582 1.13291   1
   2  10   3 48.1877 2.87188  -2
   3   9   2 48.1877 2.87188   1
   4   9   2 207.618 2.79281   1
   5   9   2 31.4373 1.23188   1
   4   8   5 -0.1867 2.88793  -2
   6   9   2 -0.1867 2.88793   1
   5   8   5 1.80429 4.97960  -2
   7   9   2 1.80429 4.97960   1
   7   8   4 0.00719 4.37444  -3
   8   9   2 0.00719 4.37444   1
  -8  10   2 11.6637 1.32448   1
  -7  10   1 49.0453 3.49068  -3
  -7  10   2 49.0453 3.49068   1
  -6  10   1 78.1212 4.44997  -3
  -6  10   2 78.1212 4.44997   1
  -5  10   1 8.44911 1.70559  -3
  -5  10   2 8.44911 1.70559   1
  -4  10   1 28.0407 3.94786  -2
  -4  10   2 28.0407 3.94786   1
  -4  10   1 29.0454 3.57895  -3
   4  10   0 29.0454 3.57895  -2
  -4  10   2 29.0454 3.57895   1
  -4  10   1 27.1189 1.59367  -3
  -4  10   2 27.1189 1.59367   1
  -3  10   2 9.98761 0.54261   1
  -2  10   2 132.857 1.55765   1
  -1  10   2 0.54042 0.25020   1
   0  10   2 442.721 3.64952   1
   1  10   2 45.4321 0.82528   1
   2  10   2 48.1795 1.19597   1
   2  11   3 120.972 4.58722  -2
   3  10   2 120.972 4.58722   1
   4  10   2 0.77168 0.45905   1
   5  10   2 68.4857 1.74275   1
   4   9   5 1.05463 2.51518  -2
   6  10   2 1.05463 2.51518   1
   7  10   2 11.0928 1.23114   1
  -8  11   2 1.57401 0.97670   1
  -7  11   1 14.3895 2.27799  -3
  -7  11   2 14.3895 2.27799   1
  -6  11   1 5.08214 2.56129  -3
  -6  11   2 5.08214 2.56129   1
  -5  11   1 6.74759 1.76120  -3
  -5  11   2 6.74759 1.76120   1
  -4  11   1 58.9227 2.79050  -2
  -4  11   2 58.9227 2.79050   1
  -4  11   1 54.3278 2.21993  -3
  -4  11   2 54.3278 2.21993   1
  -4  11   1 53.3867 4.56946  -3
   4  11   0 53.3867 4.56946  -2
  -4  11   2 53.3867 4.56946   1
  -3  11   1 70.7833 5.14756  -3
  -3  11   2 70.7833 5.14756   1
  -2  11   2 114.656 1.46096   1
  -1  11   2 117.239 1.45719   1
   0  11   2 33.9081 0.76869   1
   1  11   2 1.20904 0.34093   1
   2  11   2 109.158 1.90392   1
   2  12   3 655.411 14.3298  -2
   3  11   2 655.411 14.3298   1
   4  11   2 14.8636 0.89351   1
   5  11   2 31.2803 1.30038   1
   4  10   5 11.7036 2.14806  -2
   6  11   2 11.7036 2.14806   1
   7  11   2 2.14695 0.90910   1
  -8  12   1 -4.0165 5.93727  -3
  -8  12   2 -4.0165 5.93727   1
  -7  12   1 3.85137 2.11948  -3
  -7  12   2 3.85137 2.11948   1
  -6  12   1 12.2400 4.66926  -3
  -6  12   2 12.2400 4.66926   1
  -5  12   1 34.0869 2.45053  -3
  -5  12   2 34.0869 2.45053   1
  -4  12   1 54.2505 2.82014  -2
  -4  12   2 54.2505 2.82014   1
  -4  12   1 55.5741 2.33485  -3
  -4  12   2 55.5741 2.33485   1
  -3  12   1 6.89834 1.56040  -3
  -3  12   2 6.89834 1.56040   1
  -2  12   2 15.3499 0.61907   1
  -1  12   2 539.793 4.61237   1
   0  12   2 59.1962 1.05092   1
   0  11   3 23.0570 3.19164  -2
   1  12   2 23.0570 3.19164   1
   2  12   2 38.5181 1.10913   1
   3  12   2 131.798 2.18308   1
   4  12   2 72.2400 1.66085   1
   5  12   2 1.58188 0.65323   1
   4  11   5 74.9905 3.42648  -2
   6  12   2 74.9905 3.42648   1
   7  12   2 -0.0128 0.86429   1
  -8  13   1 7.48147 3.80281  -3
  -8  13   2 7.48147 3.80281   1
  -7  13   1 -1.5619 2.07989  -3
  -7  13   2 -1.5619 2.07989   1
  -6  13   1 -4.1176 4.36288  -3
  -6  13   2 -4.1176 4.36288   1
  -5  13   1 8.46017 2.10058  -3
  -5  13   2 8.46017 2.10058   1
  -4  13   1 85.4367 3.07084  -2
  -4  13   2 85.4367 3.07084   1
  -4  13   1 60.5694 3.47988  -3
  -4  13   2 60.5694 3.47988   1
  -3  13   1 8.44043 1.65907  -3
  -3  13   2 8.44043 1.65907   1
  -2  13   2 151.977 2.11332   1
  -1  13   2 12.6265 0.62603   1
   0  13   2 232.814 2.54588   1
   0  12   3 82.6843 4.60348  -2
   1  13   2 82.6843 4.60348   1
   2  13   2 377.800 4.26555   1
   3  13   2 46.2706 1.33200   1
   4  13   2 20.0666 1.06171   1
   5  13   2 97.4761 2.24706   1
   4  12   5 38.2320 2.91177  -2
   6  13   2 38.2320 2.91177   1
   7  13   2 8.23018 1.32654   1
  -8  14   2 9.02114 1.33092   1
  -7  14   1 33.5247 3.27734  -3
  -7  14   2 33.5247 3.27734   1
  -6  14   1 28.3000 4.86871  -3
  -6  14   2 28.3000 4.86871   1
  -5  14   1 -7.0735 2.88734  -3
  -5  14   2 -7.0735 2.88734   1
  -4  14   1 7.10013 1.61081  -3
  -4  14   2 7.10013 1.61081   1
  -4  14   1 16.4970 2.07374  -2
  -4  14   2 16.4970 2.07374   1
  -3  14   1 73.3533 2.83328  -3
  -3  14   2 73.3533 2.83328   1
  -2  14   2 -0.0730 0.39497   1
  -1  14   2 118.775 1.77467   1
   0  14   2 46.2470 1.24222   1
   0  13   3 -0.3986 1.75581  -2
   1  14   2 -0.3986 1.75581   1
   2  14   2 219.277 3.01029   1
   3  14   2 66.9956 1.62015   1
   3  15   3 0.88729 2.57048  -2
   4  14   2 0.88729 2.57048   1
   5  14   2 0.02997 0.66308   1
   4  13   5 14.7559 2.88997  -2
   6  14   2 14.7559 2.88997   1
  -7  15   1 2.86876 7.27687  -3
   7  15   0 2.86876 7.27687  -2
  -7  15   2 2.86876 7.27687   1
  -7  15   1 1.99072 4.31828  -3
  -7  15   2 1.99072 4.31828   1
  -6  15   1 -7.5590 4.04610  -3
  -6  15   2 -7.5590 4.04610   1
  -5  15   2 65.1351 1.97395   1
  -4  15   1 35.0651 2.43748  -2
  -4  15   2 35.0651 2.43748   1
  -4  15   1 31.4134 2.41221  -3
  -4  15   2 31.4134 2.41221   1
  -3  15   1 39.3704 2.33448  -3
  -3  15   2 39.3704 2.33448   1
  -2  15   2 14.7754 0.84819   1
  -1  15   2 131.017 2.42024   1
   0  15   2 1.24071 0.46736   1
   0  14   3 98.0034 4.75122  -2
   1  15   2 98.0034 4.75122   1
   2  15   2 38.7919 1.27157   1
   3  15   2 29.3473 1.20939   1
   3  16   3 14.6194 2.07220  -2
   4  15   2 14.6194 2.07220   1
   5  15   2 11.8901 1.34349   1
   4  14   5 14.7410 3.00012  -2
   6  15   2 14.7410 3.00012   1
  -7  16   1 7.77473 3.62917  -3
  -7  16   2 7.77473 3.62917   1
  -6  16   2 -0.0007 1.11781   1
  -5  16   2 6.48301 1.02271   1
  -4  16   1 7.18365 1.95654  -3
  -4  16   2 7.18365 1.95654   1
  -4  16   1 7.40905 2.64489  -2
  -4  16   2 7.40905 2.64489   1
  -3  16   1 98.2351 7.57045  -3
   3  16   0 98.2351 7.57045  -2
  -3  16   2 98.2351 7.57045   1
  -3  16   1 82.1015 3.10776  -3
  -3  16   2 82.1015 3.10776   1
  -2  16   2 154.616 2.63762   1
  -1  16   2 5.07642 0.81171   1
   0  16   2 10.9083 1.05069   1
   1  16   2 59.2443 1.62546   1
   2  16   2 73.3629 1.87714   1
   3  16   2 0.64245 0.64250   1
   3  17   3 -1.7581 2.59465  -2
   4  16   2 -1.7581 2.59465   1
   5  16   2 16.3494 1.57847   1
   4  15   5 7.05842 2.98269  -2
   6  16   2 7.05842 2.98269   1
  -7  17   1 3.11208 3.84189  -3
  -7  17   2 3.11208 3.84189   1
  -6  17   2 1.96235 1.33398   1
  -5  17   2 7.04997 1.17188   1
  -4  17   1 2.18946 1.81699  -3
  -4  17   2 2.18946 1.81699   1
  -4  17   1 0.28564 2.40601  -2
  -4  17   2 0.28564 2.40601   1
  -3  17   1 106.863 5.76457  -3
   3  17   0 106.863 5.76457  -2
  -3  17   2 106.863 5.76457   1
  -3  17   1 97.5356 3.93604  -3
  -3  17   2 97.5356 3.93604   1
  -2  17   1 60.5105 5.35830  -3
  -2  17   2 60.5105 5.35830   1
  -1  17   2 20.2514 1.19457   1
   0  17   2 0.53683 0.62041   1
   1  17   2 308.743 4.43092   1
   2  17   2 -0.0259 0.60675   1
   3  17   2 0.56090 0.67416   1
   3  18   3 0.78916 2.85232  -2
   4  17   2 0.78916 2.85232   1
   5  17   2 8.37883 1.31644   1
   6  17   2 2.37809 1.39543   1
  -6  18   2 32.2782 2.07251   1
  -5  18   1 13.1102 3.23274  -2
  -5  18   2 13.1102 3.23274   1
  -4  18   1 -2.6301 5.20818  -2
  -4  18   2 -2.6301 5.20818   1
  -4  18   1 7.82742 2.72518  -3
  -4  18   2 7.82742 2.72518   1
  -3  18   1 3.09198 3.38289  -3
  -3  18   2 3.09198 3.38289   1
  -3  18   1 1.67241 2.65064  -3
   3  18   0 1.67241 2.65064  -2
  -3  18   2 1.67241 2.65064   1
  -2  18   1 18.0871 3.14425  -3
  -2  18   2 18.0871 3.14425   1
  -1  18   2 2.14959 0.70917   1
   0  18   2 -0.3101 0.65907   1
   1  18   2 201.141 3.75133   1
   2  18   2 2.11058 0.79810   1
   3  18   2 9.13555 1.14821   1
   3  19   3 5.51099 2.80231  -2
   4  18   2 5.51099 2.80231   1
   5  18   2 2.27901 1.06159   1
  -6  19   2 33.2508 2.18508   1
  -5  19   1 7.49784 2.99951  -2
  -5  19   2 7.49784 2.99951   1
  -4  19   1 25.0892 3.01725  -3
  -4  19   2 25.0892 3.01725   1
  -3  19   1 3.36936 3.65480  -3
  -3  19   2 3.36936 3.65480   1
  -3  19   1 3.35509 2.83693  -3
   3  19   0 3.35509 2.83693  -2
  -3  19   2 3.35509 2.83693   1
  -2  19   1 8.97934 2.26587  -3
  -2  19   2 8.97934 2.26587   1
  -1  19   2 -0.8900 0.77401   1
   0  19   2 38.6679 1.73258   1
   1  19   2 28.3817 1.62149   1
   2  19   2 6.91302 1.21154   1
   3  19   2 13.7335 1.47102   1
   3  20   3 4.61703 3.33042  -2
   4  19   2 4.61703 3.33042   1
   3  18   5 -2.3946 6.94259  -2
   5  19   2 -2.3946 6.94259   1
  -5  20   1 2.18975 3.95219  -2
  -5  20   2 2.18975 3.95219   1
  -4  20   1 2.46561 3.20165  -3
  -4  20   2 2.46561 3.20165   1
  -3  20   1 34.1968 3.60903  -3
   3  20   0 34.1968 3.60903  -2
  -3  20   2 34.1968 3.60903   1
  -2  20   1 3.41126 2.25434  -3
  -2  20   2 3.41126 2.25434   1
  -1  20   2 4.34888 1.17764   1
  -1  19   3 20.7455 3.05210  -2
   0  20   2 20.7455 3.05210   1
   1  20   2 31.6584 1.92687   1
   2  20   2 3.43063 1.12101   1
   3  20   2 0.94739 1.01840   1
   3  21   3 14.5681 3.78866  -2
   4  20   2 14.5681 3.78866   1
  -5  21   1 1.79648 4.06167  -2
  -5  21   2 1.79648 4.06167   1
  -4  21   1 6.42458 2.98901  -3
  -4  21   2 6.42458 2.98901   1
  -3  21   1 1.94500 2.81015  -3
   3  21   0 1.94500 2.81015  -2
  -3  21   2 1.94500 2.81015   1
  -3  21   2 7.69446 6.54877  -3
  -3  21   2 7.69446 6.54877   1
  -2  21   1 76.3189 5.37478  -3
  -2  21   2 76.3189 5.37478   1
  -1  21   2 1.08491 1.22583   1
   0  21   2 0.11626 1.58383   1
   1  21   2 2.73922 1.07283   1
   2  21   2 0.06743 0.99903   1
   3  21   2 8.49435 1.41305   1
   4  21   2 11.3178 1.89475   1
  -4  22   1 3.53158 4.15633  -3
  -4  22   2 3.53158 4.15633   1
  -3  22   1 32.9068 4.00950  -3
   3  22   0 32.9068 4.00950  -2
  -3  22   2 32.9068 4.00950   1
  -3  22   2 35.6994 8.54034  -3
  -3  22   2 35.6994 8.54034   1
  -2  22   1 22.7398 4.22964  -3
  -2  22   2 22.7398 4.22964   1
  -1  22   2 27.6274 2.39091   1
   0  22   2 39.7652 3.88982   1
   1  22   2 4.38527 1.21154   1
   2  22   2 8.21393 1.49875   1
   3  22   2 4.40676 1.33906   1
  -3  23   2 1.43447 4.62513  -3
  -3  23   2 1.43447 4.62513   1
  -3  23   1 -1.4821 4.61930  -3
   3  23   0 -1.4821 4.61930  -2
  -3  23   2 -1.4821 4.61930   1
  -2  23   2 1.00713 2.07525   1
  -1  23   2 -0.2473 1.37855   1
   0  23   2 85.4726 5.37579   1
   1  23   2 -1.2951 1.18285   1
   2  23   2 0.05504 1.12634   1
  -1  24   2 8.70984 1.90283   1
   0  24   2 47.3584 4.46057   1
  -9   0   3 4.95042 1.55025   1
  -8   0   3 0.69229 0.99921   1
  -7   0   3 1.63062 0.83573   1
  -5   0   1 13.2464 2.93152  -2
  -5   0   3 13.2464 2.93152   1
  -4   0   3 0.08403 0.28626   1
  -3   0   3 623.479 6.67724   1
  -2   0   3 0.11413 0.25470   1
  -1   0   3 410.430 4.42620   1
   0   0   3 -0.2049 0.21077   1
   1   0   3 393.203 5.18841   1
   2   0   3 0.12106 0.38323   1
   3   0   3 486.084 6.66596   1
   4   0   3 0.89791 0.56843   1
   5   0   3 1.11427 0.65959   1
   6   0   3 0.51018 1.05788   1
   5   1   6 50.9639 3.76691  -2
   7   0   3 50.9639 3.76691   1
   8   0   3 3.40890 2.22593   1
  -9   1   3 72.7450 2.37247   1
  -8   1   3 19.3883 1.27219   1
  -7   1   2 13.3799 4.35293  -3
  -7   1   3 13.3799 4.35293   1
  -6   1   2 3.15319 2.97830  -3
  -6   1   3 3.15319 2.97830   1
  -5   1   2 9.98846 1.35351  -3
  -5   1   1 9.98846 1.35351  -2
  -5   1   3 9.98846 1.35351   1
  -4   1   3 0.30728 0.23934   1
  -3   1   3 82.7831 1.04418   1
  -2   1   3 330.090 2.67759   1
  -1   1   3 253.762 2.08434   1
   0   1   3 256.372 2.08883   1
   1   1   3 341.165 3.25822   1
   2   1   3 459.101 4.33336   1
   3   1   3 390.259 3.96929   1
   4   1   3 51.1336 1.19962   1
   5   1   3 20.8739 0.99339   1
   6   1   3 12.8325 1.31023   1
   5   2   6 -4.3531 2.20895  -2
   7   1   3 -4.3531 2.20895   1
   8   1   3 66.2308 2.37418   1
  -9   2   3 4.66333 1.18751   1
  -8   2   3 42.2458 1.62633   1
  -7   2   2 100.610 7.24435  -3
  -7   2   3 100.610 7.24435   1
  -6   2   2 9.73932 2.68660  -3
  -6   2   1 9.73932 2.68660  -2
  -6   2   3 9.73932 2.68660   1
  -6   2   2 13.0649 3.95932  -3
  -6   2   3 13.0649 3.95932   1
  -5   2   2 85.6430 2.39349  -3
  -5   2   1 85.6430 2.39349  -2
  -5   2   3 85.6430 2.39349   1
  -5   2   2 74.8558 4.91908  -3
  -5   2   3 74.8558 4.91908   1
  -4   2   3 10.1532 0.43066   1
  -3   2   3 0.72572 0.22364   1
  -2   2   3 938.399 6.72043   1
  -1   2   3 1162.10 8.10848   1
   0   2   3 512.247 3.99639   1
   1   2   3 4.20917 0.30688   1
   2   2   3 5.95012 0.45101   1
   3   2   3 191.277 2.35371   1
   4   2   3 0.26860 0.35348   1
   5   2   3 39.6208 1.24900   1
   6   2   3 1.56943 0.80516   1
   5   1   6 0.57138 3.28775  -2
   7   2   3 0.57138 3.28775   1
   5   3   6 0.17548 3.47583  -2
   7   2   3 0.17548 3.47583   1
   8   2   3 2.86262 1.13586   1
  -9   3   3 5.40582 1.19414   1
  -8   3   3 36.8756 1.55032   1
  -7   3   2 47.2878 3.17430  -3
  -7   3   3 47.2878 3.17430   1
  -6   3   2 49.7538 2.49603  -3
  -6   3   1 49.7538 2.49603  -2
  -6   3   3 49.7538 2.49603   1
  -6   3   2 41.6505 3.35089  -3
  -6   3   3 41.6505 3.35089   1
  -5   3   2 118.180 2.82138  -3
  -5   3   1 118.180 2.82138  -2
  -5   3   3 118.180 2.82138   1
  -4   3   3 453.751 3.73360   1
  -3   3   3 826.519 6.10823   1
  -2   3   3 61.2817 0.82924   1
  -1   3   3 229.900 2.19876   1
   0   3   3 1053.14 7.74132   1
   1   3   3 1231.12 9.31651   1
   2   3   3 481.759 4.10037   1
   3   3   3 193.173 2.22705   1
   4   3   3 11.2313 0.71944   1
   5   3   3 16.7518 0.84018   1
   6   3   3 30.4243 1.30987   1
   5   2   6 9.37402 3.57891  -2
   7   3   3 9.37402 3.57891   1
   5   4   6 4.59055 3.45861  -2
   7   3   3 4.59055 3.45861   1
   8   3   3 1.55699 1.08395   1
  -9   4   3 0.63492 0.93483   1
  -8   4   3 8.36007 1.13483   1
  -7   4   2 56.1436 2.94004  -3
  -7   4   3 56.1436 2.94004   1
  -6   4   2 33.6458 2.65466  -3
  -6   4   3 33.6458 2.65466   1
  -6   4   2 42.0617 2.32960  -3
  -6   4   1 42.0617 2.32960  -2
  -6   4   3 42.0617 2.32960   1
  -5   4   2 19.0034 1.50468  -3
  -5   4   1 19.0034 1.50468  -2
  -5   4   3 19.0034 1.50468   1
  -4   4   3 24.3498 0.62526   1
  -3   4   3 11.7204 0.44836   1
  -2   4   3 392.627 3.15129   1
  -1   4   3 6.26705 0.37808   1
   0   4   3 70.4611 0.99252   1
   1   4   3 67.8268 0.90199   1
   2   4   3 16.1842 0.52992   1
   3   4   3 324.770 3.11859   1
   4   4   3 17.3673 0.78111   1
   5   4   3 62.8207 1.44989   1
   6   4   3 9.67191 1.04445   1
   5   3   6 36.4281 4.38682  -2
   7   4   3 36.4281 4.38682   1
   6   5   6 8.03961 6.62997  -2
   8   4   3 8.03961 6.62997   1
  -9   5   3 2.05526 1.01098   1
  -8   5   3 8.66420 1.13158   1
  -7   5   2 33.0833 2.49152  -3
  -7   5   3 33.0833 2.49152   1
  -6   5   2 36.3089 2.02635  -3
  -6   5   1 36.3089 2.02635  -2
  -6   5   3 36.3089 2.02635   1
  -6   5   2 29.6669 3.07679  -3
  -6   5   3 29.6669 3.07679   1
  -5   5   2 83.0867 2.70240  -3
  -5   5   1 83.0867 2.70240  -2
  -5   5   3 83.0867 2.70240   1
  -4   5   3 4.42815 0.38692   1
  -3   5   3 379.100 3.18909   1
  -2   5   3 0.08828 0.19400   1
  -1   5   3 965.293 7.22555   1
   0   5   3 202.865 2.15425   1
   1   5   3 84.7717 1.01099   1
   2   5   3 149.525 1.70927   1
   3   5   3 31.7373 0.78768   1
   4   5   3 0.74029 0.40585   1
   5   5   3 118.413 2.12948   1
   6   5   3 36.1612 1.56800   1
   5   4   6 43.3844 6.37913  -2
   7   5   3 43.3844 6.37913   1
   8   5   3 12.3335 1.75972   1
  -9   6   1 3.21481 6.50521  -3
  -9   6   3 3.21481 6.50521   1
  -8   6   3 17.8353 1.42050   1
  -7   6   2 13.0514 2.48793  -3
  -7   6   3 13.0514 2.48793   1
  -6   6   2 17.3908 2.01764  -3
  -6   6   1 17.3908 2.01764  -2
  -6   6   3 17.3908 2.01764   1
  -5   6   2 9.44795 2.23710  -3
  -5   6   1 9.44795 2.23710  -2
  -5   6   3 9.44795 2.23710   1
  -4   6   3 0.30915 0.26072   1
  -3   6   3 220.730 2.13951   1
  -2   6   3 0.34686 0.21524   1
  -1   6   3 8.16657 0.38748   1
   0   6   3 132.534 1.50449   1
   1   6   3 1021.97 7.36843   1
   2   6   3 41.1022 0.82022   1
   3   6   3 14.7903 0.69742   1
   4   6   3 11.8217 0.75239   1
   5   6   3 63.9267 1.73034   1
   6   6   3 19.0229 1.32657   1
   5   5   6 26.3712 6.49170  -2
   7   6   3 26.3712 6.49170   1
  -9   7   1 61.1469 5.81090  -3
  -9   7   3 61.1469 5.81090   1
  -8   7   3 2.13497 0.90378   1
  -7   7   2 6.64630 4.02784  -3
  -7   7   3 6.64630 4.02784   1
  -6   7   2 49.7390 2.61601  -3
  -6   7   1 49.7390 2.61601  -2
  -6   7   3 49.7390 2.61601   1
  -5   7   2 13.6637 3.54153  -3
  -5   7   1 13.6637 3.54153  -2
  -5   7   3 13.6637 3.54153   1
  -4   7   3 15.2198 0.60497   1
  -3   7   3 20.6548 0.59788   1
  -2   7   3 92.1548 1.16128   1
  -1   7   3 562.110 4.55840   1
   0   7   3 0.18445 0.21320   1
   1   7   3 59.0922 0.89872   1
   2   7   3 18.7046 0.54785   1
   3   7   3 29.7346 0.91920   1
   4   7   3 8.82510 0.78653   1
   3   8   5 13.3183 4.33930  -2
   5   7   3 13.3183 4.33930   1
   4   6   6 -2.3660 3.11180  -2
   6   7   3 -2.3660 3.11180   1
   7   7   3 2.23286 1.16460   1
  -9   8   1 0.52703 3.75605  -3
  -9   8   3 0.52703 3.75605   1
  -8   8   3 48.1513 1.96359   1
  -7   8   2 11.4649 4.25710  -3
  -7   8   3 11.4649 4.25710   1
  -6   8   2 62.8221 2.90391  -3
  -6   8   1 62.8221 2.90391  -2
  -6   8   3 62.8221 2.90391   1
  -5   8   2 107.636 6.89283  -3
  -5   8   1 107.636 6.89283  -2
  -5   8   3 107.636 6.89283   1
  -4   8   3 3.64911 0.44360   1
  -3   8   3 140.834 1.63203   1
  -2   8   3 21.9439 0.57616   1
  -1   8   3 501.965 4.20198   1
   0   8   3 57.4623 0.86214   1
   1   8   3 215.365 2.13993   1
   2   8   3 0.06005 0.26886   1
   3   8   3 33.8184 0.99494   1
   4   8   3 12.3915 0.90716   1
   5   8   3 2.44373 0.69483   1
   4   7   6 13.9093 2.93106  -2
   6   8   3 13.9093 2.93106   1
   7   8   3 31.0396 1.95269   1
  -9   9   3 64.1460 2.41723   1
  -8   9   2 10.5682 5.60274  -3
  -8   9   3 10.5682 5.60274   1
  -7   9   3 9.60428 1.51563   1
  -6   9   2 118.779 4.54681  -3
  -6   9   1 118.779 4.54681  -2
  -6   9   3 118.779 4.54681   1
  -5   9   3 41.4614 1.68021   1
  -4   9   3 7.04603 0.62448   1
  -3   9   3 11.2657 0.52802   1
  -2   9   3 155.310 1.71528   1
  -1   9   3 9.30122 0.42639   1
   0   9   3 77.9096 1.10774   1
   1   9   3 14.0680 0.53971   1
   2   9   3 291.497 3.09529   1
   3   9   3 14.0795 0.76948   1
   4   9   3 31.2924 1.08953   1
   5   9   3 5.90315 0.88686   1
   4   8   6 28.1560 2.36740  -2
   6   9   3 28.1560 2.36740   1
   7   9   3 -0.7107 0.83157   1
  -9  10   3 108.381 3.13738   1
  -8  10   2 18.2130 4.31519  -3
  -8  10   3 18.2130 4.31519   1
  -7  10   2 4.32167 5.79738  -3
  -7  10   1 4.32167 5.79738  -2
  -7  10   3 4.32167 5.79738   1
  -6  10   2 29.2071 2.93863  -3
  -6  10   1 29.2071 2.93863  -2
  -6  10   3 29.2071 2.93863   1
  -5  10   3 32.3011 1.46125   1
  -4  10   2 0.04646 2.80017  -3
  -4  10   3 0.04646 2.80017   1
  -3  10   3 60.4410 1.06378   1
  -2  10   3 13.2740 0.54458   1
  -1  10   3 70.7952 1.09835   1
   0  10   3 13.5314 0.53416   1
   0  11   3 3.13008 1.53543  -2
   1  10   3 3.13008 1.53543   1
   2  10   3 27.7398 0.91655   1
   3  10   3 12.7602 0.87940   1
   4  10   3 134.517 2.24676   1
   5  10   3 24.9420 1.23517   1
   4   9   6 13.0775 2.17751  -2
   6  10   3 13.0775 2.17751   1
   7  10   3 1.67681 0.92793   1
  -8  11   2 17.5781 4.33692  -3
  -8  11   3 17.5781 4.33692   1
  -7  11   2 5.62759 2.84831  -3
  -7  11   1 5.62759 2.84831  -2
  -7  11   3 5.62759 2.84831   1
  -6  11   2 0.67131 2.04592  -3
  -6  11   1 0.67131 2.04592  -2
  -6  11   3 0.67131 2.04592   1
  -5  11   3 22.5904 1.23589   1
  -4  11   2 205.006 4.61484  -3
  -4  11   1 205.006 4.61484  -2
  -4  11   3 205.006 4.61484   1
  -3  11   3 7.97317 0.57842   1
  -2  11   3 22.1562 0.70255   1
  -1  11   3 3.93141 0.40093   1
   0  11   3 21.3973 0.68012   1
   0  12   3 371.866 5.75494  -2
   1  11   3 371.866 5.75494   1
   2  11   3 274.435 3.30111   1
   3  11   3 92.5605 1.89564   1
   4  11   3 1.82743 0.57110   1
   5  11   3 24.4432 1.32736   1
   4  10   6 67.3378 3.69467  -2
   6  11   3 67.3378 3.69467   1
   4  12   5 73.0722 8.06134  -2
   6  11   3 73.0722 8.06134   1
   7  11   3 2.16775 1.09644   1
  -8  12   2 17.2164 4.42128  -3
  -8  12   3 17.2164 4.42128   1
  -7  12   2 11.0122 3.88806  -3
  -7  12   1 11.0122 3.88806  -2
  -7  12   3 11.0122 3.88806   1
  -6  12   2 3.50551 2.78329  -3
  -6  12   1 3.50551 2.78329  -2
  -6  12   3 3.50551 2.78329   1
  -5  12   3 0.83578 0.65320   1
  -4  12   2 58.6700 2.65784  -3
  -4  12   1 58.6700 2.65784  -2
  -4  12   3 58.6700 2.65784   1
  -3  12   3 42.5094 1.12180   1
  -2  12   3 32.8975 0.89237   1
  -1  12   3 183.442 2.23895   1
   0  12   3 0.11243 0.35252   1
   0  13   3 0.02496 1.30918  -2
   1  12   3 0.02496 1.30918   1
   2  12   3 19.9121 0.92028   1
   3  12   3 23.4037 1.02965   1
   4  12   3 48.8297 1.61418   1
   5  12   3 37.5379 1.73900   1
   4  11   6 10.8355 2.54471  -2
   6  12   3 10.8355 2.54471   1
   5  13   4 23.6624 7.07697  -3
   4  13   5 23.6624 7.07697  -2
   6  12   3 23.6624 7.07697   1
  -8  13   2 89.1584 6.54567  -3
  -8  13   3 89.1584 6.54567   1
  -8  13   1 82.3590 9.21705  -3
  -8  13   3 82.3590 9.21705   1
  -7  13   2 13.7857 4.13220  -3
  -7  13   1 13.7857 4.13220  -2
  -7  13   3 13.7857 4.13220   1
  -6  13   2 3.06550 4.15230  -3
  -6  13   3 3.06550 4.15230   1
  -5  13   3 14.0023 1.48049   1
  -4  13   2 66.9278 2.87674  -3
  -4  13   1 66.9278 2.87674  -2
  -4  13   3 66.9278 2.87674   1
  -3  13   3 26.2642 1.03336   1
  -2  13   3 279.433 3.26238   1
  -1  13   3 45.6918 1.12512   1
   0  13   3 1.16982 0.46411   1
   0  14   3 126.740 3.06980  -2
   1  13   3 126.740 3.06980   1
   2  13   3 5.07421 0.77934   1
   3  13   3 22.3985 1.25632   1
   4  13   3 8.54883 1.02448   1
   5  13   3 8.68877 1.19374   1
   4  12   6 6.85165 2.50059  -2
   6  13   3 6.85165 2.50059   1
   5  14   4 20.9325 7.54665  -3
   4  14   5 20.9325 7.54665  -2
   6  13   3 20.9325 7.54665   1
  -8  14   3 70.8113 3.58917   1
  -7  14   2 10.3673 4.08359  -3
  -7  14   1 10.3673 4.08359  -2
  -7  14   3 10.3673 4.08359   1
  -6  14   2 30.5232 5.50064  -3
  -6  14   3 30.5232 5.50064   1
  -5  14   3 119.458 2.80601   1
  -4  14   2 174.409 4.09959  -3
  -4  14   1 174.409 4.09959  -2
  -4  14   3 174.409 4.09959   1
  -3  14   3 26.8285 1.14074   1
  -2  14   3 88.9519 1.78914   1
  -1  14   3 23.7492 0.91022   1
   0  14   3 0.80291 0.48274   1
   0  15   3 22.9833 2.15242  -2
   1  14   3 22.9833 2.15242   1
   2  14   3 44.5232 1.72141   1
   3  14   3 10.1194 1.06570   1
   4  14   3 7.50742 1.01382   1
   5  14   3 45.7269 2.01870   1
   4  13   6 4.89202 2.69376  -2
   6  14   3 4.89202 2.69376   1
   5  15   4 8.96586 7.75920  -3
   4  15   5 8.96586 7.75920  -2
   6  14   3 8.96586 7.75920   1
  -7  15   2 28.1635 4.55399  -3
  -7  15   1 28.1635 4.55399  -2
  -7  15   3 28.1635 4.55399   1
  -6  15   3 2.40491 1.11450   1
  -5  15   3 1.85541 0.83171   1
  -4  15   2 38.3856 2.35908  -3
  -4  15   1 38.3856 2.35908  -2
  -4  15   3 38.3856 2.35908   1
  -3  15   3 2.73675 0.73062   1
  -3  14   3 26.3562 3.75501  -2
  -2  15   3 26.3562 3.75501   1
  -1  15   3 0.95046 0.55880   1
   0  15   3 6.64954 0.78681   1
   0  16   3 10.1201 2.02892  -2
   1  15   3 10.1201 2.02892   1
   2  15   3 113.458 2.51421   1
   3  15   3 20.0083 1.34044   1
   4  15   3 26.2181 1.54037   1
   5  15   3 6.22056 1.18989   1
   5  16   4 19.7388 8.48950  -3
   4  16   5 19.7388 8.48950  -2
   6  15   3 19.7388 8.48950   1
   4  14   6 24.7205 4.73175  -2
   6  15   3 24.7205 4.73175   1
  -7  16   2 4.50276 4.08548  -3
  -7  16   1 4.50276 4.08548  -2
  -7  16   3 4.50276 4.08548   1
  -6  16   2 44.2548 6.38883  -3
  -6  16   3 44.2548 6.38883   1
  -5  16   3 1.93374 0.87484   1
  -4  16   2 9.02089 2.23987  -3
  -4  16   1 9.02089 2.23987  -2
  -4  16   3 9.02089 2.23987   1
  -3  16   3 31.5615 1.52067   1
  -3  15   3 130.439 5.37065  -2
  -2  16   3 130.439 5.37065   1
  -1  16   3 -0.1838 0.54541   1
   0  16   3 1.08965 0.64658   1
   0  17   3 5.64380 2.55797  -2
   1  16   3 5.64380 2.55797   1
   2  16   3 -0.0276 0.66518   1
   3  16   3 20.3960 1.41245   1
   4  16   3 5.71322 1.03265   1
   3  15   6 33.1808 4.82164  -2
   5  16   3 33.1808 4.82164   1
  -7  17   2 44.6921 8.04024  -3
  -7  17   1 44.6921 8.04024  -2
  -7  17   3 44.6921 8.04024   1
  -6  17   2 5.89348 5.19038  -3
  -6  17   3 5.89348 5.19038   1
  -5  17   3 39.5010 1.92247   1
  -4  17   2 -3.2914 3.52123  -3
  -4  17   1 -3.2914 3.52123  -2
  -4  17   3 -3.2914 3.52123   1
  -4  17   2 7.59695 3.74094  -3
  -4  17   3 7.59695 3.74094   1
  -3  17   3 7.11285 1.04396   1
  -3  16   3 6.70869 5.12664  -2
  -2  17   3 6.70869 5.12664   1
  -1  17   3 3.00295 0.81769   1
   0  17   3 27.3665 1.82810   1
   0  18   3 7.90333 3.39479  -2
   1  17   3 7.90333 3.39479   1
   2  17   3 -1.0590 0.65106   1
   3  17   3 -0.1832 0.73567   1
   4  17   3 24.8680 1.67088   1
   3  16   6 15.1191 4.47044  -2
   5  17   3 15.1191 4.47044   1
  -6  18   3 93.1230 3.21436   1
  -5  18   3 8.53690 1.38252   1
  -4  18   2 12.8530 5.33517  -3
  -4  18   1 12.8530 5.33517  -2
  -4  18   3 12.8530 5.33517   1
  -3  18   3 59.7786 3.30776   1
  -3  17   3 -0.4038 5.21140  -2
  -2  18   3 -0.4038 5.21140   1
  -1  18   3 -0.3954 0.82740   1
   0  18   3 8.13698 1.23243   1
   0  19   3 16.4704 5.90062  -2
   1  18   3 16.4704 5.90062   1
   1  19   3 3.76921 3.28557  -2
   2  18   3 3.76921 3.28557   1
   3  18   3 0.59891 0.81736   1
   4  18   3 1.22453 0.92153   1
   5  18   3 2.92757 1.21920   1
  -6  19   3 -0.2475 1.37100   1
  -5  19   3 0.20064 1.21204   1
  -4  19   3 36.5756 3.58536   1
  -3  19   3 10.6259 2.53547   1
  -3  18   3 16.9728 5.85163  -2
  -2  19   3 16.9728 5.85163   1
  -1  19   3 5.90692 1.17649   1
   0  19   3 40.5461 2.05503   1
   1  19   3 -0.0530 0.85187   1
   1  20   3 -1.7718 3.44781  -2
   2  19   3 -1.7718 3.44781   1
   3  19   3 30.7030 1.80174   1
   4  19   3 15.8304 1.57176   1
  -5  20   3 1.21350 1.43549   1
  -4  20   3 21.5297 3.62031   1
  -3  20   2 9.26848 9.79666  -3
  -3  20   1 9.26848 9.79666  -2
  -3  20   3 9.26848 9.79666   1
  -2  20   3 6.99189 1.56816   1
  -1  20   3 6.97673 1.59349   1
   0  20   3 12.6159 1.54214   1
   1  20   3 1.93422 1.04706   1
   1  21   3 3.13733 3.61415  -2
   2  20   3 3.13733 3.61415   1
   3  20   3 2.76573 1.05590   1
   4  20   3 2.55357 1.16262   1
  -5  21   3 -0.6409 1.68392   1
  -4  21   3 5.01127 2.35588   1
  -3  21   2 49.4342 5.74505  -3
  -3  21   1 49.4342 5.74505  -2
  -3  21   3 49.4342 5.74505   1
  -2  21   3 -0.7190 1.20996   1
  -1  21   3 -0.6374 1.22332   1
   0  21   3 5.10191 1.26508   1
   1  21   3 12.4860 1.57433   1
   1  22   3 0.61941 3.79479  -2
   2  21   3 0.61941 3.79479   1
   3  21   3 7.25522 1.49761   1
  -4  22   3 11.6221 2.36092   1
  -3  22   2 1.70726 4.73677  -3
  -3  22   1 1.70726 4.73677  -2
  -3  22   3 1.70726 4.73677   1
  -4  21   3 0.70683 6.39155  -2
  -3  22   3 0.70683 6.39155   1
  -2  22   3 1.00224 1.41093   1
  -1  22   3 3.84719 1.60352   1
   0  22   3 9.13206 1.85106   1
   1  22   3 0.81151 1.10137   1
   1  23   3 -4.1819 3.92652  -2
   2  22   3 -4.1819 3.92652   1
  -3  23   2 4.84590 4.86732  -3
  -3  23   1 4.84590 4.86732  -2
  -3  23   3 4.84590 4.86732   1
  -2  23   3 6.97879 2.11109   1
  -1  23   3 1.34512 1.44715   1
   0  23   3 4.77777 1.71844   1
   1  23   3 2.08769 1.22284   1
  -9   0   4 -0.6205 1.20691   1
  -8   0   4 8.30545 2.04674   1
  -7   0   4 -0.7143 0.75842   1
  -6   0   4 221.822 4.23757   1
  -5   0   4 0.36330 0.57011   1
  -4   0   4 115.188 2.02194   1
  -3   0   4 -0.4775 0.28313   1
  -2   0   4 12.3592 0.62134   1
  -1   0   4 0.33299 0.28301   1
   0   0   4 14.7749 0.59296   1
   1   0   4 0.05959 0.24884   1
   2   0   4 25.9608 1.12263   1
   3   0   4 -0.0949 0.48583   1
   3   1   5 10.1437 2.30242  -3
   4   0   4 10.1437 2.30242   1
   2   1   6 16.9519 3.28838  -2
   4   0   4 16.9519 3.28838   1
   5   0   4 0.09982 1.49221   1
   6   0   4 0.28217 1.12725   1
   7   0   4 1.49541 1.43216   1
  -9   1   2 7.52113 5.08972  -3
  -9   1   4 7.52113 5.08972   1
  -8   1   1 46.0774 1.97603  -2
  -8   1   4 46.0774 1.97603   1
  -7   1   4 7.60619 0.84699   1
  -6   1   4 168.300 2.53751   1
  -5   1   4 483.115 4.96354   1
  -4   1   4 140.464 1.61781   1
  -3   1   4 74.2214 1.04155   1
  -2   1   4 887.150 6.48660   1
  -1   1   4 237.160 2.18946   1
   0   1   4 15.8812 0.42514   1
   1   1   4 3.33807 0.31401   1
   2   1   4 296.755 3.06492   1
   3   1   4 67.3636 1.34381   1
   2   0   6 59.5445 5.04673  -2
   4   1   4 59.5445 5.04673   1
   3   2   5 62.5900 2.77699  -3
   4   1   4 62.5900 2.77699   1
   3   0   5 61.1452 4.90034  -3
   4   1   4 61.1452 4.90034   1
   3   2   6 20.0439 3.68948  -2
   5   1   4 20.0439 3.68948   1
   4   2   5 30.0012 4.97222  -3
   3   2   6 30.0012 4.97222  -2
   5   1   4 30.0012 4.97222   1
   6   1   4 70.4801 2.35532   1
   7   1   4 12.9584 1.50245   1
  -9   2   2 1.34735 4.16508  -3
  -9   2   4 1.34735 4.16508   1
  -8   2   1 9.52747 1.69164  -2
  -8   2   4 9.52747 1.69164   1
  -7   2   4 39.9926 1.36509   1
  -6   2   4 15.3051 0.90984   1
  -5   2   4 -0.2757 0.38408   1
  -4   2   4 25.7863 0.67750   1
  -3   2   4 68.5463 1.00127   1
  -2   2   4 6.10119 0.37020   1
  -1   2   4 19.8203 0.55323   1
   0   2   4 252.785 2.32950   1
   1   2   4 13.0580 0.46954   1
   2   2   4 36.0352 0.90906   1
   3   2   4 3.14521 0.47711   1
   3   3   5 66.3192 5.13472  -3
   4   2   4 66.3192 5.13472   1
   3   1   5 78.9696 5.94207  -3
   2   1   6 78.9696 5.94207  -2
   4   2   4 78.9696 5.94207   1
   2   1   6 66.1584 5.21390  -2
   4   2   4 66.1584 5.21390   1
   3   3   6 22.9812 3.74162  -2
   5   2   4 22.9812 3.74162   1
   4   3   5 18.3298 4.82087  -3
   3   3   6 18.3298 4.82087  -2
   5   2   4 18.3298 4.82087   1
   6   2   4 0.59325 0.80882   1
   7   2   4 37.8180 2.56763   1
  -9   3   2 13.0366 4.35750  -3
  -9   3   4 13.0366 4.35750   1
  -8   3   1 18.9489 2.13301  -2
  -8   3   4 18.9489 2.13301   1
  -7   3   1 9.91700 4.09012  -2
  -7   3   4 9.91700 4.09012   1
  -6   3   4 58.6312 1.45828   1
  -5   3   4 283.522 3.35556   1
  -4   3   4 494.205 4.10227   1
  -3   3   4 242.530 2.28540   1
  -2   3   4 431.919 3.48338   1
  -1   3   4 386.876 3.68488   1
   0   3   4 1.96979 0.26651   1
   1   3   4 148.113 1.58140   1
   2   3   4 3.95369 0.39163   1
   3   3   4 91.3731 1.59943   1
   3   2   5 4.24535 3.77159  -3
   2   2   6 4.24535 3.77159  -2
   4   3   4 4.24535 3.77159   1
   3   4   5 0.92956 2.74172  -3
   4   3   4 0.92956 2.74172   1
   2   2   6 9.44438 3.17971  -2
   4   3   4 9.44438 3.17971   1
   4   4   5 4.38023 4.38077  -3
   3   4   6 4.38023 4.38077  -2
   5   3   4 4.38023 4.38077   1
   6   3   4 4.64200 1.15042   1
   7   3   4 50.0664 2.89124   1
  -9   4   2 24.0948 3.74777  -3
  -9   4   4 24.0948 3.74777   1
  -8   4   1 19.9948 2.70990  -2
  -8   4   4 19.9948 2.70990   1
  -7   4   1 22.5734 2.77833  -2
  -7   4   4 22.5734 2.77833   1
  -6   4   4 151.668 2.40340   1
  -5   4   4 8.40116 0.70608   1
  -4   4   4 0.68721 0.28946   1
  -3   4   4 11.1798 0.49076   1
  -2   4   4 8.10863 0.43037   1
  -1   4   4 796.455 6.77723   1
   0   4   4 65.2518 0.92393   1
   1   4   4 1.27937 0.23647   1
   2   4   4 365.825 3.41930   1
   3   4   4 55.8997 1.20559   1
   3   5   5 7.15288 2.19243  -3
   4   4   4 7.15288 2.19243   1
   4   5   5 3.96376 4.33376  -3
   3   5   6 3.96376 4.33376  -2
   5   4   4 3.96376 4.33376   1
   6   4   4 104.985 2.83787   1
   7   4   4 5.60673 1.24091   1
  -9   5   2 -2.7445 3.27286  -3
  -9   5   4 -2.7445 3.27286   1
  -8   5   1 14.2650 2.70863  -2
  -8   5   4 14.2650 2.70863   1
  -7   5   1 85.5747 3.71746  -2
  -7   5   4 85.5747 3.71746   1
  -6   5   4 91.4767 1.83709   1
  -5   5   4 0.77902 0.39712   1
  -4   5   4 279.608 2.68165   1
  -3   5   4 42.9764 0.81777   1
  -2   5   4 54.9688 0.92493   1
  -1   5   4 1.24565 0.31458   1
   0   5   4 328.031 3.13660   1
   1   5   4 4.78512 0.33544   1
   2   5   4 32.6543 0.82823   1
   2   4   5 4.61742 2.50192  -3
   3   5   4 4.61742 2.50192   1
   3   6   5 15.8929 4.49581  -3
   4   5   4 15.8929 4.49581   1
   4   6   5 9.15786 4.71331  -3
   3   6   6 9.15786 4.71331  -2
   5   5   4 9.15786 4.71331   1
   6   5   4 2.97069 0.98821   1
   7   5   4 18.1252 1.82506   1
  -9   6   2 5.16122 3.29296  -3
  -9   6   4 5.16122 3.29296   1
  -9   6   1 -1.5686 4.25536  -2
  -9   6   4 -1.5686 4.25536   1
  -8   6   1 4.35862 2.93605  -2
  -8   6   4 4.35862 2.93605   1
  -7   6   1 15.3305 2.25948  -2
  -7   6   4 15.3305 2.25948   1
  -6   6   4 0.63460 0.49428   1
  -5   6   4 43.7385 1.11329   1
  -4   6   4 41.5651 0.88543   1
  -3   6   4 11.6944 0.51274   1
  -2   6   4 33.4296 0.73952   1
  -1   6   4 715.429 6.26643   1
   0   6   4 0.59714 0.29074   1
   1   6   4 80.5825 1.10358   1
   2   6   4 15.6153 0.63714   1
   2   5   5 136.252 4.70406  -3
   3   6   4 136.252 4.70406   1
   2   5   6 51.3226 4.69886  -2
   4   6   4 51.3226 4.69886   1
   3   5   5 61.1411 5.09986  -3
   2   5   6 61.1411 5.09986  -2
   4   6   4 61.1411 5.09986   1
   5   6   4 8.62019 1.62788   1
   6   6   4 12.6777 1.28676   1
   7   6   4 -0.4986 1.10431   1
  -9   7   2 6.69601 2.84531  -3
  -9   7   4 6.69601 2.84531   1
  -9   7   1 7.12625 6.01909  -2
  -9   7   4 7.12625 6.01909   1
  -8   7   4 0.14696 0.81712   1
  -7   7   1 7.41107 2.41429  -2
  -7   7   4 7.41107 2.41429   1
  -6   7   4 11.1015 0.85194   1
  -5   7   4 0.28143 0.40040   1
  -4   7   4 9.46800 0.58815   1
  -3   7   4 477.144 3.99527   1
  -2   7   4 308.223 2.92976   1
  -1   7   4 88.2740 1.41638   1
   0   7   4 2.53576 0.39661   1
   1   7   4 144.826 1.64289   1
   2   7   4 -0.0836 0.26088   1
   2   6   5 0.41380 1.33722  -3
   3   7   4 0.41380 1.33722   1
   2   6   6 15.9286 2.49196  -2
   4   7   4 15.9286 2.49196   1
   3   6   5 15.1417 3.95455  -3
   2   6   6 15.1417 3.95455  -2
   4   7   4 15.1417 3.95455   1
   4   8   5 73.7452 5.72695  -3
   3   8   6 73.7452 5.72695  -2
   5   7   4 73.7452 5.72695   1
   5   8   5 47.5136 4.02583  -3
   6   7   4 47.5136 4.02583   1
   7   7   4 16.0219 2.03317   1
  -9   8   1 0.21016 4.09966  -2
  -9   8   4 0.21016 4.09966   1
  -9   8   2 1.40726 2.73064  -3
  -9   8   4 1.40726 2.73064   1
  -8   8   4 30.0245 1.73053   1
  -7   8   1 110.064 3.96489  -2
  -7   8   4 110.064 3.96489   1
  -6   8   4 32.1418 1.38258   1
  -5   8   4 85.4508 1.58832   1
  -4   8   4 123.778 1.68083   1
  -3   8   4 -0.0938 0.27058   1
  -2   8   4 52.6151 1.03296   1
  -1   8   4 106.688 1.46092   1
   0   8   4 306.048 3.41369   1
   1   8   4 70.0177 1.34350   1
   2   8   4 0.87376 0.37537   1
   2   7   5 14.8991 1.96618  -3
   3   8   4 14.8991 1.96618   1
   2   7   6 27.7714 2.20470  -2
   4   8   4 27.7714 2.20470   1
   4   9   5 40.0055 5.45674  -3
   3   9   6 40.0055 5.45674  -2
   5   8   4 40.0055 5.45674   1
   5   9   5 19.2059 6.19826  -3
   6   8   4 19.2059 6.19826   1
   7   8   4 -0.0468 1.24519   1
  -9   9   2 3.82543 2.77564  -3
  -9   9   4 3.82543 2.77564   1
  -8   9   4 46.2936 2.41383   1
  -7   9   1 57.8421 3.20172  -2
  -7   9   4 57.8421 3.20172   1
  -6   9   4 7.25252 0.85481   1
  -5   9   4 166.740 2.34786   1
  -4   9   4 21.8105 0.83543   1
  -3   9   4 79.7698 1.38141   1
  -2   9   4 12.2503 0.60803   1
  -1   9   4 10.3197 0.57631   1
   0   9   4 0.15850 0.32844   1
   1   9   4 193.542 2.53259   1
   2   9   4 47.9144 1.40165   1
   2   8   5 73.7968 4.11135  -3
   3   9   4 73.7968 4.11135   1
   1   8   6 108.675 6.83387  -2
   3   9   4 108.675 6.83387   1
   2   8   6 50.8798 2.50711  -2
   4   9   4 50.8798 2.50711   1
   4  10   5 34.3320 5.74263  -3
   3  10   6 34.3320 5.74263  -2
   5   9   4 34.3320 5.74263   1
   5  10   5 9.27437 7.09872  -3
   4  10   6 9.27437 7.09872  -2
   6   9   4 9.27437 7.09872   1
  -8  10   4 6.52248 1.38563   1
  -7  10   1 9.37470 2.85604  -2
  -7  10   4 9.37470 2.85604   1
  -6  10   4 9.17278 1.15620   1
  -5  10   4 -0.6694 0.48393   1
  -4  10   4 25.2541 0.94034   1
  -3  10   4 224.287 2.62459   1
  -2  10   4 0.06792 0.34417   1
  -1  10   4 63.0924 1.35716   1
   0  10   4 15.6394 0.76714   1
   1  10   4 28.6258 0.98696   1
   2  10   4 0.93144 0.53844   1
   2   9   5 18.1616 2.95547  -3
   3  10   4 18.1616 2.95547   1
   1   9   6 23.6625 4.16924  -2
   3  10   4 23.6625 4.16924   1
   3   9   5 8.91581 4.62434  -3
   2   9   6 8.91581 4.62434  -2
   4  10   4 8.91581 4.62434   1
   2   9   6 -0.5169 1.62940  -2
   4  10   4 -0.5169 1.62940   1
   4  11   5 26.0781 5.88803  -3
   3  11   6 26.0781 5.88803  -2
   5  10   4 26.0781 5.88803   1
   5  11   5 28.6998 4.73351  -3
   4  11   6 28.6998 4.73351  -2
   6  10   4 28.6998 4.73351   1
  -8  11   2 6.67447 4.11403  -3
  -8  11   4 6.67447 4.11403   1
  -7  11   1 2.66460 2.78554  -2
  -7  11   4 2.66460 2.78554   1
  -6  11   4 17.7407 1.45202   1
  -5  11   4 -0.2525 0.59952   1
  -4  11   4 0.31684 0.48513   1
  -3  11   4 0.89813 0.42816   1
  -2  11   4 92.2927 1.59146   1
  -1  11   4 19.6820 0.87407   1
   0  11   4 29.8136 0.99530   1
   1  11   4 124.429 2.37030   1
   2  11   4 -0.4038 0.48127   1
   2  10   5 11.9492 3.37116  -3
   1  10   6 11.9492 3.37116  -2
   3  11   4 11.9492 3.37116   1
   4  11   4 4.56479 0.90767   1
   4  12   5 73.6952 5.30991  -3
   5  11   4 73.6952 5.30991   1
   5  12   5 29.2607 4.97413  -3
   4  12   6 29.2607 4.97413  -2
   6  11   4 29.2607 4.97413   1
  -8  12   2 3.96164 3.44153  -3
  -8  12   4 3.96164 3.44153   1
  -7  12   1 -1.1851 2.45270  -2
  -7  12   4 -1.1851 2.45270   1
  -6  12   4 -0.0319 0.80296   1
  -5  12   4 2.93691 0.77588   1
  -4  12   4 1.05214 0.57130   1
  -3  12   4 250.302 3.07845   1
  -2  12   4 598.033 6.06466   1
  -1  12   4 3.36011 0.57450   1
   0  12   4 146.917 2.30299   1
   1  12   4 10.1827 0.95977   1
   2  12   4 93.2145 2.16455   1
   2  11   5 3.91141 4.44185  -3
   1  11   6 3.91141 4.44185  -2
   3  12   4 3.91141 4.44185   1
   4  12   4 0.91996 0.69954   1
   4  13   5 19.5415 3.35057  -3
   5  12   4 19.5415 3.35057   1
   6  12   4 0.40749 1.19712   1
  -8  13   2 44.4435 4.50977  -3
  -8  13   4 44.4435 4.50977   1
  -7  13   1 1.07094 6.09136  -2
  -7  13   4 1.07094 6.09136   1
  -6  13   4 17.3665 1.41552   1
  -5  13   4 11.6326 1.19015   1
  -4  13   4 53.9733 1.66594   1
  -3  13   4 9.93877 0.94752   1
  -3  12   4 84.0408 5.42299  -2
  -2  13   4 84.0408 5.42299   1
  -1  13   4 19.6818 0.96536   1
   0  13   4 141.978 2.51330   1
   1  13   4 88.0118 2.10196   1
   2  13   4 -0.5354 0.56797   1
   2  12   5 107.762 5.58955  -3
   1  12   6 107.762 5.58955  -2
   3  13   4 107.762 5.58955   1
   4  13   4 18.7024 1.39022   1
   4  14   5 7.78693 3.22335  -3
   5  13   4 7.78693 3.22335   1
   6  13   4 4.24282 1.49369   1
  -8  14   2 43.8517 7.51711  -3
  -8  14   4 43.8517 7.51711   1
  -7  14   1 10.1928 6.54049  -2
  -7  14   4 10.1928 6.54049   1
  -6  14   4 52.6095 2.23970   1
  -5  14   4 43.1007 1.78947   1
  -4  14   4 6.72388 1.10551   1
  -3  14   4 61.3904 1.79234   1
  -3  13   4 6.17923 2.15621  -2
  -2  14   4 6.17923 2.15621   1
  -1  14   4 212.666 3.19869   1
   0  14   4 114.554 2.42858   1
   0  15   4 80.2175 6.42759  -2
   1  14   4 80.2175 6.42759   1
   1  13   5 5.86480 3.95412  -3
   2  14   4 5.86480 3.95412   1
   2  13   5 15.7836 3.49018  -3
   1  13   6 15.7836 3.49018  -2
   3  14   4 15.7836 3.49018   1
   4  14   4 179.703 3.49188   1
   4  15   5 11.6617 3.04050  -3
   5  14   4 11.6617 3.04050   1
  -7  15   4 1.03495 1.28832   1
  -6  15   1 3.93333 3.91906  -2
  -6  15   4 3.93333 3.91906   1
  -5  15   4 1.63129 0.99130   1
  -4  15   4 15.0533 1.44478   1
  -3  15   4 -0.0802 0.64376   1
  -3  14   4 10.2608 2.07540  -2
  -2  15   4 10.2608 2.07540   1
  -2  16   3 74.5128 7.11612  -2
  -1  15   4 74.5128 7.11612   1
   0  15   4 -0.1659 0.57821   1
   1  15   4 12.1038 1.12410   1
   2  15   4 60.8845 2.14788   1
   1  14   6 7.80348 2.27852  -2
   3  15   4 7.80348 2.27852   1
   4  15   4 23.6612 1.58906   1
   4  16   5 4.58180 3.06311  -3
   5  15   4 4.58180 3.06311   1
  -7  16   4 -0.3664 1.41893   1
  -6  16   1 0.25891 3.92145  -2
  -6  16   4 0.25891 3.92145   1
  -5  16   4 2.14463 1.13916   1
  -4  16   4 3.59669 1.06666   1
  -3  16   4 19.5564 1.52067   1
  -3  15   4 14.1968 2.18124  -2
  -2  16   4 14.1968 2.18124   1
  -2  17   3 391.633 16.3673  -2
  -1  16   4 391.633 16.3673   1
   0  16   4 1.74517 0.73851   1
   0  17   4 120.986 8.02479  -2
   1  16   4 120.986 8.02479   1
   1  15   5 20.7435 3.68641  -3
   2  16   4 20.7435 3.68641   1
   1  15   6 12.2117 2.51497  -2
   3  16   4 12.2117 2.51497   1
   4  16   4 4.40565 1.04780   1
   5  16   4 10.6833 1.47387   1
  -6  17   1 -0.4275 3.95346  -2
  -6  17   4 -0.4275 3.95346   1
  -5  17   4 0.35264 1.07166   1
  -4  17   4 3.06939 1.07833   1
  -3  17   4 0.04787 0.91088   1
  -3  16   4 13.3070 2.73626  -2
  -2  17   4 13.3070 2.73626   1
  -2  18   3 177.089 7.20877  -2
  -1  17   4 177.089 7.20877   1
   0  17   4 8.48875 1.23575   1
   1  17   4 5.77273 1.09266   1
   1  16   5 16.3476 2.81585  -3
   2  17   4 16.3476 2.81585   1
   1  16   6 60.9357 5.64353  -2
   3  17   4 60.9357 5.64353   1
   2  16   5 63.8198 7.18450  -3
   1  16   6 63.8198 7.18450  -2
   3  17   4 63.8198 7.18450   1
   4  17   4 0.28976 0.89934   1
  -6  18   1 7.01052 7.78354  -2
  -6  19   1 7.01052 7.78354  -2
  -6  18   4 7.01052 7.78354   1
  -6  19   1 6.88223 8.43479  -2
  -6  18   1 6.88223 8.43479  -2
  -6  18   4 6.88223 8.43479   1
  -5  18   4 7.50021 1.50285   1
  -4  18   4 0.82114 1.12280   1
  -3  18   4 2.98558 1.17518   1
  -3  17   4 -0.1031 3.16944  -2
  -2  18   4 -0.1031 3.16944   1
  -2  19   3 5.44980 3.23272  -2
  -1  18   4 5.44980 3.23272   1
   0  18   4 6.04682 1.15083   1
   1  18   4 -0.0106 0.82975   1
   1  17   5 8.79996 6.50686  -3
   0  17   6 8.79996 6.50686  -2
   2  18   4 8.79996 6.50686   1
   1  17   5 2.98302 4.82233  -3
   2  18   4 2.98302 4.82233   1
   1  17   6 49.4712 5.81357  -2
   3  18   4 49.4712 5.81357   1
   2  17   5 66.8511 7.61761  -3
   1  17   6 66.8511 7.61761  -2
   3  18   4 66.8511 7.61761   1
   4  18   4 0.95092 0.96774   1
  -6  19   4 2.10277 3.13955   1
  -5  19   4 0.23619 1.20746   1
  -4  19   4 1.17523 1.30109   1
  -3  19   4 1.21999 1.10582   1
  -3  18   4 10.2722 6.05051  -2
  -2  19   4 10.2722 6.05051   1
  -2  20   3 4.93260 3.45991  -2
  -1  19   4 4.93260 3.45991   1
   0  19   4 10.1993 1.59309   1
   1  19   4 0.99004 0.95917   1
   1  18   5 21.7986 5.45427  -3
   0  18   6 21.7986 5.45427  -2
   2  19   4 21.7986 5.45427   1
   1  18   6 88.4443 7.46387  -2
   3  19   4 88.4443 7.46387   1
  -5  20   4 20.1609 2.53501   1
  -4  20   4 8.25517 1.76071   1
  -4  19   4 6.21102 6.36327  -2
  -3  20   4 6.21102 6.36327   1
  -2  20   4 16.0541 2.13071   1
  -2  21   3 -3.1606 3.54446  -2
  -1  20   4 -3.1606 3.54446   1
   0  20   4 39.4933 2.28181   1
   1  20   4 4.86857 1.25317   1
   1  19   5 1.96411 4.46985  -3
   2  20   4 1.96411 4.46985   1
   1  19   5 -3.8645 5.09014  -3
   0  19   6 -3.8645 5.09014  -2
   2  20   4 -3.8645 5.09014   1
   1  19   6 4.41066 4.95311  -2
   3  20   4 4.41066 4.95311   1
  -4  21   4 0.58590 1.39435   1
  -4  20   4 4.82329 4.12392  -2
  -3  21   4 4.82329 4.12392   1
  -2  21   4 0.36221 1.37367   1
  -2  22   3 27.7423 4.94963  -2
  -1  21   4 27.7423 4.94963   1
   0  21   4 42.3134 2.37096   1
   1  21   4 -0.5440 1.01871   1
   1  20   5 11.7123 7.93394  -3
   0  20   6 11.7123 7.93394  -2
   2  21   4 11.7123 7.93394   1
  -4  21   4 -0.2074 4.31478  -2
  -3  22   4 -0.2074 4.31478   1
  -2  22   4 3.49455 1.62184   1
  -2  23   3 -3.7386 4.40633  -2
  -1  22   4 -3.7386 4.40633   1
  -1  23   3 61.5472 9.70867  -2
   0  22   4 61.5472 9.70867   1
   0  21   5 -3.1876 4.54088  -3
   1  22   4 -3.1876 4.54088   1
  -9   0   5 -0.8615 1.27428   1
  -8   0   5 1.13106 1.01108   1
  -7   0   5 14.8715 1.47959   1
  -6   0   5 0.99028 0.79080   1
  -5   0   5 565.247 8.05510   1
  -4   0   5 0.38529 0.44349   1
  -4   1   4 34.3113 1.18494  -2
  -3   0   5 34.3113 1.18494   1
  -2   0   5 0.20267 0.31694   1
  -1   0   5 183.541 2.58768   1
   0   0   5 -0.1355 0.29009   1
   1   0   5 0.83477 0.37437   1
   3   0   5 95.9687 2.46329   1
   4   1   6 54.5885 5.74838  -3
   5   0   5 54.5885 5.74838   1
   6   0   5 -1.5169 1.44708   1
   7   0   5 25.3188 4.86896   1
  -9   1   5 22.6913 1.57041   1
  -8   1   5 3.74709 0.83812   1
  -7   1   5 18.5245 1.11706   1
  -6   1   5 398.201 4.54802   1
  -5   1   5 114.169 1.94366   1
  -4   1   5 42.4502 0.90193   1
  -4   2   4 323.520 4.18073  -2
  -3   1   5 323.520 4.18073   1
  -4   0   4 331.686 4.25264  -2
  -3   1   5 331.686 4.25264   1
  -2   1   5 37.7829 0.72918   1
  -1   1   5 29.7732 0.64478   1
   0   1   5 60.4108 0.90143   1
   1   1   5 215.360 2.08636   1
   0   0   6 105.105 1.92565  -2
   2   1   5 105.105 1.92565   1
   0   2   6 137.576 2.69315  -2
   2   1   5 137.576 2.69315   1
   3   1   5 9.49439 0.76961   1
   3   2   6 46.3543 2.95576  -3
   4   1   5 46.3543 2.95576   1
   4   2   6 3.70427 2.79562  -3
   5   1   5 3.70427 2.79562   1
   6   1   5 1.82444 1.18202   1
  -9   2   5 0.73232 0.87444   1
  -8   2   5 22.2469 1.32664   1
  -7   2   5 1.29239 0.60022   1
  -6   2   5 16.5060 0.97919   1
  -5   2   5 214.590 2.84776   1
  -4   2   5 14.1181 0.61447   1
  -4   3   4 128.423 2.24683  -2
  -3   2   5 128.423 2.24683   1
  -4   1   4 75.4772 1.82285  -2
  -3   2   5 75.4772 1.82285   1
  -2   2   5 81.6811 1.10524   1
  -1   2   5 62.4817 1.06088   1
   0   2   5 3.87957 0.36576   1
   1   2   5 34.4814 0.71256   1
   0   1   6 260.020 4.39874  -2
   2   2   5 260.020 4.39874   1
   0   3   6 119.998 2.95860  -2
   2   2   5 119.998 2.95860   1
   2   1   6 16.5715 3.17475  -3
   3   2   5 16.5715 3.17475   1
   3   1   6 138.954 5.58284  -3
   4   2   5 138.954 5.58284   1
   3   3   6 138.463 4.67505  -3
   4   2   5 138.463 4.67505   1
   4   3   6 5.05574 2.52418  -3
   5   2   5 5.05574 2.52418   1
   6   2   5 -0.4102 1.21390   1
  -9   3   5 28.9492 1.91959   1
  -8   3   5 44.2259 1.71484   1
  -7   3   5 171.066 2.79156   1
  -6   3   5 32.1937 1.16066   1
  -5   3   5 502.109 5.20845   1
  -5   2   4 152.981 6.13284  -2
  -4   3   5 152.981 6.13284   1
  -4   4   4 653.135 7.34987  -2
  -3   3   5 653.135 7.34987   1
  -4   2   4 671.383 11.4969  -2
  -3   3   5 671.383 11.4969   1
  -2   3   5 234.851 2.23285   1
  -1   3   5 532.322 4.84196   1
   0   3   5 86.5041 1.26958   1
   1   3   5 26.3682 0.72028   1
   0   2   6 55.5796 2.16517  -2
   2   3   5 55.5796 2.16517   1
   0   4   6 27.9232 1.53481  -2
   2   3   5 27.9232 1.53481   1
   2   2   6 -1.4972 2.30087  -3
   3   3   5 -1.4972 2.30087   1
   3   2   6 12.5711 2.21121  -3
   4   3   5 12.5711 2.21121   1
   3   4   6 11.9399 2.27884  -3
   4   3   5 11.9399 2.27884   1
   4   4   6 2.45436 1.91650  -3
   5   3   5 2.45436 1.91650   1
   6   3   5 -1.2583 1.04775   1
  -9   4   5 11.7798 1.52650   1
  -8   4   5 28.9297 1.53112   1
  -7   4   5 145.937 2.56929   1
  -6   4   5 54.5759 1.44685   1
  -5   4   5 250.856 3.02694   1
  -5   3   4 78.0387 4.09174  -2
  -4   4   5 78.0387 4.09174   1
  -4   5   4 146.016 2.48327  -2
  -3   4   5 146.016 2.48327   1
  -4   3   4 152.530 6.55334  -2
  -3   4   5 152.530 6.55334   1
  -2   4   5 182.110 2.28698   1
  -1   4   5 12.9384 0.67277   1
   0   4   5 1.33924 0.33589   1
   1   4   5 16.9011 0.61950   1
   0   5   6 -2.1615 1.58520  -2
   2   4   5 -2.1615 1.58520   1
   0   3   6 12.7186 1.44021  -2
   2   4   5 12.7186 1.44021   1
   2   3   6 80.8502 2.88056  -3
   3   4   5 80.8502 2.88056   1
   3   5   6 33.8105 3.42130  -3
   4   4   5 33.8105 3.42130   1
   3   3   6 38.5758 2.78762  -3
   4   4   5 38.5758 2.78762   1
   4   5   6 8.18556 1.96348  -3
   5   4   5 8.18556 1.96348   1
   6   4   5 5.02789 1.33972   1
  -9   5   5 2.34929 1.16215   1
  -8   5   5 1.51661 0.91283   1
  -7   5   5 25.9464 1.25289   1
  -6   5   5 49.9994 1.41024   1
  -5   5   5 153.798 2.20104   1
  -5   4   4 159.965 3.42900  -2
  -4   5   5 159.965 3.42900   1
  -4   6   4 10.2768 1.59740  -2
  -3   5   5 10.2768 1.59740   1
  -2   5   5 68.1479 1.35970   1
  -1   5   5 270.432 3.13430   1
   0   5   5 12.0481 0.66922   1
   1   5   5 101.630 1.75655   1
   0   6   6 2.58978 1.77268  -2
   2   5   5 2.58978 1.77268   1
   2   4   6 215.934 5.46901  -3
   3   5   5 215.934 5.46901   1
   1   6   6 216.013 10.4483  -2
   3   5   5 216.013 10.4483   1
   3   6   6 54.5660 3.44740  -3
   4   5   5 54.5660 3.44740   1
   3   4   6 43.6691 2.84734  -3
   4   5   5 43.6691 2.84734   1
   4   6   6 3.61085 1.95253  -3
   5   5   5 3.61085 1.95253   1
   6   5   5 39.7705 2.32269   1
  -9   6   5 3.04882 1.35740   1
  -8   6   5 1.37780 1.00703   1
  -7   6   5 5.34302 0.90861   1
  -6   6   5 0.52564 0.52810   1
  -5   6   5 5.75231 0.67145   1
  -5   5   4 2.20034 1.27350  -2
  -4   6   5 2.20034 1.27350   1
  -3   6   5 67.9606 1.29067   1
  -2   6   5 6.53015 0.61363   1
  -1   6   5 179.034 2.40019   1
   0   6   5 81.0885 1.49371   1
  -1   5   6 18.4303 1.50555  -2
   1   6   5 18.4303 1.50555   1
   2   6   5 25.4476 1.06386   1
   2   5   6 202.477 5.26884  -3
   3   6   5 202.477 5.26884   1
   1   7   6 206.806 4.82860  -2
   3   6   5 206.806 4.82860   1
   3   5   6 14.6999 3.03037  -3
   4   6   5 14.6999 3.03037   1
   3   7   6 11.9252 3.15260  -3
   4   6   5 11.9252 3.15260   1
   4   7   6 17.9554 2.31317  -3
   5   6   5 17.9554 2.31317   1
   6   6   5 2.17774 1.13876   1
  -9   7   3 25.2774 4.94992  -3
  -9   7   5 25.2774 4.94992   1
  -8   7   5 87.6234 2.89750   1
  -7   7   5 49.2234 2.09954   1
  -6   7   5 7.26535 0.89033   1
  -5   7   5 0.23129 0.47371   1
  -5   6   4 240.406 4.48789  -2
  -4   7   5 240.406 4.48789   1
  -3   7   5 0.89459 0.44137   1
  -2   7   5 33.9287 1.03944   1
  -1   7   5 1.45501 0.41644   1
   0   7   5 28.7793 0.93935   1
  -1   6   6 14.5326 1.31594  -2
   1   7   5 14.5326 1.31594   1
   2   7   5 35.1971 1.13999   1
   1   8   6 14.1265 1.95174  -2
   3   7   5 14.1265 1.95174   1
   2   6   6 15.1443 2.03372  -3
   3   7   5 15.1443 2.03372   1
   3   8   6 2.32806 3.03634  -3
   4   7   5 2.32806 3.03634   1
   3   6   6 0.12685 2.88787  -3
   4   7   5 0.12685 2.88787   1
   4   8   6 7.14207 2.20484  -3
   5   7   5 7.14207 2.20484   1
   5   8   6 7.32648 2.88010  -3
   6   7   5 7.32648 2.88010   1
  -9   8   3 3.56154 4.34584  -3
  -9   8   5 3.56154 4.34584   1
  -8   8   5 62.3580 2.55896   1
  -7   8   5 0.39797 0.84570   1
  -6   8   5 15.9390 1.12797   1
  -5   8   5 8.94473 0.83353   1
  -5   7   4 165.405 3.59923  -2
  -4   8   5 165.405 3.59923   1
  -3   8   5 144.805 2.24268   1
  -3   9   4 58.7578 2.82363  -2
  -2   8   5 58.7578 2.82363   1
  -1   8   5 18.7177 0.83946   1
   0   8   5 3.22540 0.52311   1
  -1   7   6 130.785 2.98248  -2
   1   8   5 130.785 2.98248   1
   2   8   5 10.2924 0.81634   1
   1   9   6 15.3584 1.92369  -2
   3   8   5 15.3584 1.92369   1
   2   7   6 12.4454 2.00609  -3
   3   8   5 12.4454 2.00609   1
   3   9   6 8.70240 4.59803  -3
   4   8   5 8.70240 4.59803   1
   3   7   6 1.31932 4.25020  -3
   4   8   5 1.31932 4.25020   1
   4   9   6 8.74873 2.32457  -3
   5   8   5 8.74873 2.32457   1
   5   9   6 33.2189 3.63457  -3
   6   8   5 33.2189 3.63457   1
  -8   9   5 46.6239 2.35338   1
  -7   9   5 59.8482 2.35644   1
  -6   9   5 5.58499 1.03309   1
  -5   9   5 12.2091 0.94064   1
  -5   8   4 974.656 12.9473  -2
  -4   9   5 974.656 12.9473   1
  -3   9   5 66.5349 1.51238   1
  -3  10   4 31.3722 1.78294  -2
  -2   9   5 31.3722 1.78294   1
  -1   9   5 2.39268 0.50778   1
   0   9   5 85.7120 1.64901   1
  -1   8   6 14.7424 1.34076  -2
   1   9   5 14.7424 1.34076   1
   1   8   6 23.1967 4.65946  -3
   2   9   5 23.1967 4.65946   1
   2   8   6 13.8647 2.37583  -3
   3   9   5 13.8647 2.37583   1
   1  10   6 -1.4870 1.61618  -2
   3   9   5 -1.4870 1.61618   1
   3  10   6 2.41494 5.20203  -3
   4   9   5 2.41494 5.20203   1
   3   8   6 7.29751 4.43525  -3
   4   9   5 7.29751 4.43525   1
   4  10   6 3.18110 2.29542  -3
   5   9   5 3.18110 2.29542   1
   5  10   6 26.3833 3.71262  -3
   6   9   5 26.3833 3.71262   1
  -8  10   5 3.45323 1.30077   1
  -7  10   5 3.80162 1.06706   1
  -6  10   5 3.59707 0.98171   1
  -5  10   5 8.90146 1.11966   1
  -5   9   4 82.6817 2.67528  -2
  -4  10   5 82.6817 2.67528   1
  -3  10   5 -0.0392 0.46470   1
  -3  11   4 164.716 3.64399  -2
  -2  10   5 164.716 3.64399   1
  -1  10   5 11.2610 0.81816   1
   0  10   5 14.4666 0.85183   1
  -1   9   6 2.22993 1.26503  -2
   1  10   5 2.22993 1.26503   1
   1   9   6 32.5803 3.57483  -3
   2  10   5 32.5803 3.57483   1
   1  11   6 31.0619 2.39026  -2
   3  10   5 31.0619 2.39026   1
   2   9   6 26.0552 1.98015  -3
   3  10   5 26.0552 1.98015   1
   3   9   6 84.0578 7.21832  -3
   4  10   5 84.0578 7.21832   1
   4  11   6 17.0997 2.76300  -3
   5  10   5 17.0997 2.76300   1
   6  10   5 7.76839 2.41248   1
  -8  11   5 6.84943 1.83251   1
  -7  11   5 16.6513 2.17347   1
  -6  11   5 16.0266 1.86685   1
  -5  11   5 2.44836 0.79620   1
  -5  10   4 35.3797 2.26301  -2
  -4  11   5 35.3797 2.26301   1
  -3  11   5 3.24883 0.63807   1
  -3  12   4 184.419 3.99234  -2
  -2  11   5 184.419 3.99234   1
  -1  11   5 19.6831 0.95950   1
   0  11   5 30.0153 1.09301   1
  -1  10   6 44.8038 2.24164  -2
   1  11   5 44.8038 2.24164   1
   1  10   6 6.96927 2.32380  -3
   2  11   5 6.96927 2.32380   1
   2  10   6 78.2336 3.04303  -3
   3  11   5 78.2336 3.04303   1
   1  12   6 77.8511 3.35375  -2
   3  11   5 77.8511 3.35375   1
   4  11   5 8.81839 1.22296   1
   4  12   6 6.09776 2.73282  -3
   5  11   5 6.09776 2.73282   1
  -8  12   5 25.8491 2.77614   1
  -7  12   5 0.10477 1.25229   1
  -6  12   5 10.6433 1.77702   1
  -5  12   5 13.1278 1.50827   1
  -5  11   4 5.86363 1.78452  -2
  -4  12   5 5.86363 1.78452   1
  -3  12   5 82.5355 1.89185   1
  -3  13   4 22.9745 1.84912  -2
  -2  12   5 22.9745 1.84912   1
  -1  12   5 11.9672 0.88356   1
   0  12   5 3.11404 0.69013   1
  -1  11   6 65.0394 2.77325  -2
   1  12   5 65.0394 2.77325   1
   1  11   6 151.945 5.20619  -3
   2  12   5 151.945 5.20619   1
   1  13   6 14.7013 2.28523  -2
   3  12   5 14.7013 2.28523   1
   2  11   6 9.35359 2.46877  -3
   3  12   5 9.35359 2.46877   1
   4  12   5 2.96049 0.84751   1
   4  13   6 2.47092 2.73593  -3
   5  12   5 2.47092 2.73593   1
  -8  13   5 1.28529 1.56361   1
  -7  13   5 0.95931 1.39580   1
  -6  13   5 20.2792 2.24034   1
  -6  12   4 80.5786 7.32686  -2
  -5  13   5 80.5786 7.32686   1
  -5  12   4 8.96586 1.92889  -2
  -4  13   5 8.96586 1.92889   1
  -3  13   5 426.254 5.54728   1
  -3  14   4 13.9688 1.84305  -2
  -2  13   5 13.9688 1.84305   1
  -1  13   5 21.7239 1.06331   1
   0  13   5 2.38295 0.71512   1
  -1  12   6 7.30557 1.92067  -2
   1  13   5 7.30557 1.92067   1
   1  12   6 11.5229 2.03341  -3
   2  13   5 11.5229 2.03341   1
   1  14   6 14.3948 2.48953  -2
   3  13   5 14.3948 2.48953   1
   2  12   6 7.08937 2.61780  -3
   3  13   5 7.08937 2.61780   1
   4  13   5 52.5020 1.99527   1
   4  14   6 5.38010 3.06063  -3
   5  13   5 5.38010 3.06063   1
  -7  14   5 2.07973 1.48141   1
  -6  14   5 18.0971 2.18563   1
  -6  13   4 -0.1624 2.63555  -2
  -5  14   5 -0.1624 2.63555   1
  -5  13   4 14.8589 3.32783  -2
  -4  14   5 14.8589 3.32783   1
  -3  14   5 230.788 3.74864   1
  -3  15   4 3.64596 1.91387  -2
  -2  14   5 3.64596 1.91387   1
  -1  14   5 44.5976 1.50618   1
   0  14   5 2.02683 0.74026   1
  -1  13   6 6.43813 2.01754  -2
   1  14   5 6.43813 2.01754   1
   1  13   6 20.1208 2.27932  -3
   2  14   5 20.1208 2.27932   1
   1  15   6 58.7246 3.38613  -2
   3  14   5 58.7246 3.38613   1
   2  13   6 64.0776 4.90968  -3
   3  14   5 64.0776 4.90968   1
   2  15   6 89.8154 6.47923  -2
   4  14   5 89.8154 6.47923   1
   5  14   5 30.1608 1.93400   1
  -7  15   5 10.2557 2.07487   1
  -6  15   5 28.4039 2.50181   1
  -6  14   4 9.63606 2.76910  -2
  -5  15   5 9.63606 2.76910   1
  -5  14   4 5.96404 4.80685  -2
  -4  15   5 5.96404 4.80685   1
  -3  15   5 23.1260 1.36363   1
  -3  16   4 5.01665 2.60403  -2
  -2  15   5 5.01665 2.60403   1
  -1  15   5 -0.2884 0.64439   1
  -2  14   6 1.08460 4.52378  -2
   0  15   5 1.08460 4.52378   1
   1  15   5 0.76206 0.74935   1
   1  14   6 3.59082 2.49990  -3
   2  15   5 3.59082 2.49990   1
   1  16   6 47.9115 3.25861  -2
   3  15   5 47.9115 3.25861   1
   2  14   6 48.3676 4.59621  -3
   3  15   5 48.3676 4.59621   1
   2  16   6 36.0792 3.60811  -2
   4  15   5 36.0792 3.60811   1
  -7  16   5 5.23586 1.80245   1
  -6  16   5 -0.0381 1.29155   1
  -6  15   4 -0.1874 2.65697  -2
  -5  16   5 -0.1874 2.65697   1
  -4  16   5 6.36351 1.18627   1
  -3  16   5 26.8142 1.62931   1
  -3  17   4 88.9257 7.22746  -2
  -2  16   5 88.9257 7.22746   1
  -2  17   4 53.0688 6.90529  -2
  -1  16   5 53.0688 6.90529   1
  -2  15   6 81.7871 3.59317  -2
   0  16   5 81.7871 3.59317   1
   0  15   6 0.00098 3.42624  -3
   1  16   5 0.00098 3.42624   1
   1  15   6 11.6582 2.81967  -3
   2  16   5 11.6582 2.81967   1
   2  15   6 1.91952 3.00270  -3
   3  16   5 1.91952 3.00270   1
   1  17   6 4.42575 2.54295  -2
   3  16   5 4.42575 2.54295   1
   2  17   6 18.0303 3.37712  -2
   4  16   5 18.0303 3.37712   1
  -6  17   5 -0.2978 1.33587   1
  -6  16   4 2.81213 2.63242  -2
  -5  17   5 2.81213 2.63242   1
  -4  17   5 16.5515 1.69699   1
  -3  17   5 21.0211 1.97067   1
  -2  17   5 82.5522 2.53762   1
  -2  18   4 5.06759 3.39843  -2
  -1  17   5 5.06759 3.39843   1
  -2  16   6 10.0866 2.27552  -2
   0  17   5 10.0866 2.27552   1
   0  16   6 -0.6831 3.52178  -3
   1  17   5 -0.6831 3.52178   1
   1  16   6 0.19681 3.36507  -3
   2  17   5 0.19681 3.36507   1
   2  16   6 46.3861 6.75469  -3
   3  17   5 46.3861 6.75469   1
   1  18   6 40.6734 7.96619  -2
   3  17   5 40.6734 7.96619   1
  -6  18   5 2.16048 1.58503   1
  -6  17   4 25.9839 3.23523  -2
  -5  18   5 25.9839 3.23523   1
  -4  18   5 32.0790 2.54053   1
  -3  18   5 27.9845 2.09995   1
  -2  18   5 34.7929 2.00155   1
  -2  19   4 0.58095 3.35749  -2
  -1  18   5 0.58095 3.35749   1
  -2  17   6 2.17826 2.72918  -2
   0  18   5 2.17826 2.72918   1
   0  17   6 7.62603 3.89118  -3
   1  18   5 7.62603 3.89118   1
   1  17   6 18.7448 2.96792  -3
   2  18   5 18.7448 2.96792   1
   2  17   6 11.7398 5.71957  -3
   3  18   5 11.7398 5.71957   1
  -6  18   4 10.0267 3.84584  -2
  -5  19   5 10.0267 3.84584   1
  -4  19   5 9.99869 1.85346   1
  -3  19   5 8.04078 1.56741   1
  -2  19   5 24.3136 2.09703   1
  -2  20   4 2.78501 3.73361  -2
  -1  19   5 2.78501 3.73361   1
  -2  18   6 -0.8070 2.72037  -2
   0  19   5 -0.8070 2.72037   1
   0  18   6 -4.4872 3.63142  -3
   1  19   5 -4.4872 3.63142   1
   0  20   5 4.23118 4.93075  -3
   1  19   5 4.23118 4.93075   1
   1  18   6 23.2312 3.29963  -3
   2  19   5 23.2312 3.29963   1
  -4  20   5 26.1589 2.73724   1
  -3  20   5 1.95928 1.49380   1
  -2  20   5 2.07659 1.39895   1
  -2  21   4 88.4816 6.18473  -2
  -1  20   5 88.4816 6.18473   1
  -2  19   6 1.61275 2.70739  -2
   0  20   5 1.61275 2.70739   1
   0  21   5 2.89282 5.38625  -3
   1  20   5 2.89282 5.38625   1
   0  19   6 1.76799 3.92578  -3
   1  20   5 1.76799 3.92578   1
   1  19   6 2.79768 3.71391  -3
   2  20   5 2.79768 3.71391   1
  -3  21   5 3.96552 1.68619   1
  -2  21   5 1.00925 1.52093   1
  -2  22   4 23.7734 4.63092  -2
  -1  21   5 23.7734 4.63092   1
  -2  20   6 21.6187 3.14672  -2
   0  21   5 21.6187 3.14672   1
   0  20   6 6.30835 5.11979  -3
   1  21   5 6.30835 5.11979   1
  -9   0   6 -0.4804 1.28922   1
  -8   0   6 3.19920 1.29761   1
  -7   0   6 0.52257 0.98749   1
  -7   1   4 7.17849 1.82476  -2
  -6   0   6 7.17849 1.82476   1
  -5   0   6 -0.3356 0.69473   1
  -4   0   6 58.8899 1.71212   1
  -3   0   6 -0.6217 0.44140   1
  -2   0   6 5.70478 0.70195   1
   0   0   6 4.04753 0.84368   1
   1   0   6 -0.4679 0.58703   1
   2   0   6 2.31246 0.90763   1
   3   0   6 0.23654 0.82039   1
   4   0   6 2.66351 1.22299   1
   5   0   6 -0.9257 1.41432   1
   6   0   6 0.05461 2.01443   1
  -9   1   6 8.73301 1.33843   1
  -8   1   6 2.46340 0.89405   1
  -7   1   6 45.7553 1.69172   1
  -7   2   4 72.1806 2.96921  -2
  -6   1   6 72.1806 2.96921   1
  -6   2   4 14.9037 2.51459  -2
  -5   1   6 14.9037 2.51459   1
  -4   1   6 10.7780 0.77098   1
  -3   1   6 1.52236 0.38534   1
  -2   1   6 115.086 1.68968   1
  -2   0   6 10.9828 1.22019  -3
  -1   1   6 10.9828 1.22019   1
  -2   2   6 12.4126 1.32210  -3
  -1   1   6 12.4126 1.32210   1
   0   1   6 1576.16 13.5826   1
   1   1   6 43.6796 1.15867   1
   2   1   6 104.381 1.96597   1
   3   1   6 16.1636 1.08287   1
   4   1   6 21.7931 1.53459   1
   5   1   6 1.49818 0.92280   1
   6   1   6 16.8032 3.03979   1
  -9   2   6 16.6120 1.77253   1
  -8   2   6 55.8202 2.00838   1
  -7   2   6 57.9044 1.85747   1
  -7   3   4 0.37781 2.58035  -2
  -6   2   6 0.37781 2.58035   1
  -7   1   4 2.61478 1.47681  -2
  -6   2   6 2.61478 1.47681   1
  -6   3   4 64.6798 2.44348  -2
  -5   2   6 64.6798 2.44348   1
  -4   2   6 104.013 1.62404   1
  -3   2   6 52.7280 1.26826   1
  -3   1   6 49.3566 4.75146  -3
  -2   2   6 49.3566 4.75146   1
  -2   1   6 10.0364 1.78838  -3
  -1   2   6 10.0364 1.78838   1
  -2   3   6 5.97621 1.28169  -3
  -1   2   6 5.97621 1.28169   1
  -2   3   6 277.435 7.76151  -2
   0   2   6 277.435 7.76151   1
   1   2   6 241.881 3.22622   1
   2   2   6 4.93298 0.68077   1
   3   2   6 25.0543 1.42594   1
   4   2   6 28.9994 1.70895   1
   5   2   6 11.7866 1.61456   1
   6   2   6 16.6416 3.06868   1
  -9   3   6 0.60569 1.11159   1
  -8   3   6 4.09108 1.04158   1
  -7   3   6 21.3866 1.44716   1
  -7   4   4 -0.6991 3.35892  -2
  -6   3   6 -0.6991 3.35892   1
  -7   2   4 4.14991 1.82721  -2
  -6   3   6 4.14991 1.82721   1
  -6   4   4 82.6288 2.75750  -2
  -5   3   6 82.6288 2.75750   1
  -4   3   6 10.5428 0.78896   1
  -3   3   6 19.5157 0.87739   1
  -3   2   6 5.22561 1.81684  -3
  -2   3   6 5.22561 1.81684   1
  -2   4   6 220.919 4.17086  -3
  -1   3   6 220.919 4.17086   1
  -2   2   6 233.255 5.59708  -3
  -1   3   6 233.255 5.59708   1
  -2   4   6 127.352 5.30477  -2
   0   3   6 127.352 5.30477   1
   1   3   6 754.470 7.19553   1
   2   3   6 23.0243 1.07030   1
   3   3   6 55.5202 2.04072   1
   3   2   7 3.52544 2.37141  -3
   4   3   6 3.52544 2.37141   1
   5   3   6 35.4006 2.66216   1
   6   3   6 1.39817 1.99818   1
  -9   4   6 0.60673 1.24735   1
  -8   4   6 9.90757 1.36425   1
  -7   4   6 47.1967 1.85168   1
  -7   3   4 25.0720 2.37576  -2
  -6   4   6 25.0720 2.37576   1
  -6   5   4 7.02235 1.68116  -2
  -5   4   6 7.02235 1.68116   1
  -4   4   6 9.97625 0.79068   1
  -3   4   6 70.0856 1.50257   1
  -3   3   6 4.39817 2.12914  -3
  -2   4   6 4.39817 2.12914   1
  -2   5   6 15.0534 1.55985  -3
  -1   4   6 15.0534 1.55985   1
  -2   3   6 9.05808 2.45986  -3
  -1   4   6 9.05808 2.45986   1
  -3   3   6 15.6755 3.11285  -2
  -1   4   6 15.6755 3.11285   1
  -1   5   6 23.5596 3.95837  -3
   0   4   6 23.5596 3.95837   1
  -2   5   6 33.0408 3.30467  -2
   0   4   6 33.0408 3.30467   1
   1   4   6 202.889 2.72659   1
   2   4   6 1.64585 0.56305   1
   3   4   6 20.6531 1.14268   1
   3   3   7 27.7393 5.35971  -3
   4   4   6 27.7393 5.35971   1
   5   4   6 1.02605 1.43737   1
   6   4   6 -0.8158 1.89388   1
  -9   5   6 6.87181 1.57926   1
  -8   5   6 58.3727 2.40173   1
  -7   5   6 0.85913 0.77623   1
  -7   4   4 4.31210 1.94531  -2
  -6   5   6 4.31210 1.94531   1
  -6   6   4 18.4472 1.99203  -2
  -5   5   6 18.4472 1.99203   1
  -4   5   6 37.3961 1.20038   1
  -3   5   6 11.1898 0.80529   1
  -3   4   6 127.882 7.06381  -3
  -2   5   6 127.882 7.06381   1
  -2   6   6 150.440 3.81974  -3
  -1   5   6 150.440 3.81974   1
  -1   6   6 17.6683 4.57085  -3
  -2   6   6 17.6683 4.57085  -2
   0   5   6 17.6683 4.57085   1
  -1   6   6 4.05779 1.99367  -3
   0   5   6 4.05779 1.99367   1
  -2   6   6 3.19937 3.42915  -2
   0   5   6 3.19937 3.42915   1
   1   5   6 60.9824 1.40708   1
   2   5   6 235.806 3.56879   1
   3   5   6 -0.3182 0.62487   1
   3   4   7 85.8466 7.64220  -3
   4   5   6 85.8466 7.64220   1
   5   5   6 10.6004 1.71086   1
   6   5   6 0.47245 3.27161   1
  -9   6   6 0.16932 1.44042   1
  -8   6   6 20.4436 2.10751   1
  -7   6   6 27.8780 1.72993   1
  -7   5   4 58.3940 3.33724  -2
  -6   6   6 58.3940 3.33724   1
  -6   7   4 1.19747 1.34011  -2
  -5   6   6 1.19747 1.34011   1
  -4   6   6 29.2937 1.12926   1
  -3   6   6 2.01878 0.52156   1
  -3   5   6 50.9695 2.74793  -3
  -2   6   6 50.9695 2.74793   1
  -2   7   6 138.131 4.27974  -3
  -1   6   6 138.131 4.27974   1
  -1   7   6 11.8755 3.31316  -3
   0   6   6 11.8755 3.31316   1
  -1   7   6 26.0781 4.80114  -3
  -2   7   6 26.0781 4.80114  -2
   0   6   6 26.0781 4.80114   1
   1   6   6 111.365 1.95167   1
   2   6   6 50.9919 1.61118   1
   3   6   6 6.02563 0.96210   1
   4   6   6 10.7955 1.18479   1
   5   6   6 7.24288 1.48718   1
  -9   7   6 30.7077 2.79167   1
  -8   7   6 2.04633 1.41009   1
  -7   7   6 11.4466 1.54538   1
  -7   6   4 148.919 5.05092  -2
  -6   7   6 148.919 5.05092   1
  -6   8   4 28.1401 2.23354  -2
  -5   7   6 28.1401 2.23354   1
  -4   7   6 9.54716 0.83557   1
  -3   7   6 2.16981 0.53814   1
  -3   6   6 27.7136 2.06497  -3
  -2   7   6 27.7136 2.06497   1
  -2   8   6 375.796 8.02806  -3
  -1   7   6 375.796 8.02806   1
  -1   8   6 43.5573 4.82004  -3
   0   7   6 43.5573 4.82004   1
  -1   8   6 51.4057 5.38178  -3
  -2   8   6 51.4057 5.38178  -2
   0   7   6 51.4057 5.38178   1
   1   7   6 81.6232 1.68232   1
   2   7   6 33.9668 1.24441   1
   2   6   7 3.73420 4.23790  -3
   3   7   6 3.73420 4.23790   1
   4   7   6 16.5535 1.42846   1
   5   7   6 1.60232 1.14429   1
  -8   8   6 5.39985 1.66474   1
  -8   7   4 4.84744 3.61315  -2
  -7   8   6 4.84744 3.61315   1
  -7   7   4 7.15710 2.47421  -2
  -6   8   6 7.15710 2.47421   1
  -6   9   4 52.9606 2.97747  -2
  -5   8   6 52.9606 2.97747   1
  -4   8   6 9.30343 0.91112   1
  -3   8   6 32.2073 1.50349   1
  -3   7   6 70.4071 3.99334  -3
  -2   8   6 70.4071 3.99334   1
  -2   9   6 70.5828 3.92326  -3
  -1   8   6 70.5828 3.92326   1
  -1   9   6 13.1625 3.21747  -3
  -2   9   6 13.1625 3.21747  -2
   0   8   6 13.1625 3.21747   1
   1   8   6 5.92899 0.74922   1
   2   8   6 450.938 5.71914   1
   2   7   7 9.78865 4.87586  -3
   3   8   6 9.78865 4.87586   1
   4   8   6 2.33398 0.97432   1
   5   8   6 0.25583 1.04400   1
  -8   9   6 17.3454 2.27031   1
  -8   8   4 7.36626 3.60329  -2
  -7   9   6 7.36626 3.60329   1
  -7   8   4 31.9871 3.13468  -2
  -6   9   6 31.9871 3.13468   1
  -6  10   4 16.1159 2.26052  -2
  -5   9   6 16.1159 2.26052   1
  -4   9   6 10.2686 0.93266   1
  -3   9   6 37.3190 1.26540   1
  -3   8   6 2.73287 1.48250  -3
  -2   9   6 2.73287 1.48250   1
  -2  10   6 7.69147 3.53823  -3
  -1   9   6 7.69147 3.53823   1
  -1  10   6 8.65171 2.71594  -3
   0   9   6 8.65171 2.71594   1
  -1  10   6 41.8482 5.65559  -3
  -2  10   6 41.8482 5.65559  -2
   0   9   6 41.8482 5.65559   1
   0  10   6 20.6285 4.80108  -3
   1   9   6 20.6285 4.80108   1
   2   9   6 0.29536 0.60692   1
   2   8   7 144.343 9.65604  -3
   3   9   6 144.343 9.65604   1
   4   9   6 15.2375 1.46376   1
   5   9   6 3.34443 1.39583   1
  -8  10   6 17.7093 2.39121   1
  -8   9   4 65.0473 5.19871  -2
  -7  10   6 65.0473 5.19871   1
  -6  10   6 1.06028 1.11369   1
  -6  11   4 1.12247 2.10563  -2
  -5  10   6 1.12247 2.10563   1
  -4  10   6 12.8861 1.03497   1
  -3  10   6 22.4628 1.08492   1
  -3   9   6 228.981 6.17345  -3
  -2  10   6 228.981 6.17345   1
  -1  10   6 74.8452 1.70223   1
  -1  11   6 6.73468 1.83727  -3
   0  10   6 6.73468 1.83727   1
   0  11   6 14.2272 5.95204  -3
  -1  12   6 14.2272 5.95204  -2
   1  10   6 14.2272 5.95204   1
   2  10   6 12.9438 1.07882   1
   2   9   7 27.0159 3.97374  -3
   3  10   6 27.0159 3.97374   1
   4  10   6 9.98387 1.42985   1
   5  10   6 9.85808 1.61417   1
  -8  11   6 -0.3536 1.39871   1
  -8  10   4 70.2999 5.17071  -2
  -7  11   6 70.2999 5.17071   1
  -6  11   6 0.36894 1.13200   1
  -6  12   4 70.9151 4.86974  -2
  -5  11   6 70.9151 4.86974   1
  -5  12   4 2.10510 2.75903  -2
  -4  11   6 2.10510 2.75903   1
  -3  11   6 61.6056 1.64174   1
  -3  10   6 144.383 4.90598  -3
  -2  11   6 144.383 4.90598   1
  -1  11   6 1.14389 0.57790   1
  -1  12   6 87.1752 3.40363  -3
   0  11   6 87.1752 3.40363   1
   0  12   6 41.1500 5.86018  -3
   1  11   6 41.1500 5.86018   1
   2  11   6 40.6956 1.54014   1
   2  10   7 107.621 6.00168  -3
   3  11   6 107.621 6.00168   1
   4  11   6 4.37208 1.16835   1
   5  11   6 -0.3120 1.13947   1
  -8  12   6 0.71936 1.57712   1
  -8  11   4 -0.4708 3.32917  -2
  -7  12   6 -0.4708 3.32917   1
  -6  12   6 26.4273 2.28933   1
  -6  13   4 9.49045 3.54385  -2
  -5  12   6 9.49045 3.54385   1
  -5  13   4 7.23510 3.13745  -2
  -4  12   6 7.23510 3.13745   1
  -3  12   6 29.9105 1.32852   1
  -3  11   6 16.1559 2.64729  -3
  -2  12   6 16.1559 2.64729   1
  -1  12   6 17.9113 1.07310   1
  -1  13   6 12.4057 2.13986  -3
   0  12   6 12.4057 2.13986   1
   1  12   6 15.1704 1.69035   1
   2  12   6 35.7541 1.54466   1
   2  11   7 51.7465 4.87715  -3
   3  12   6 51.7465 4.87715   1
   4  12   6 0.69900 1.02009   1
  -8  12   4 42.4360 4.58308  -2
  -7  13   6 42.4360 4.58308   1
  -6  13   6 9.23226 1.75885   1
  -6  14   4 10.8631 5.80719  -2
  -5  13   6 10.8631 5.80719   1
  -5  14   4 7.50195 2.52167  -2
  -4  13   6 7.50195 2.52167   1
  -4  12   6 31.7953 3.13992  -3
  -3  13   6 31.7953 3.13992   1
  -3  12   6 3.44918 3.06071  -3
  -2  13   6 3.44918 3.06071   1
  -4  12   6 -1.9825 3.71478  -2
  -2  13   6 -1.9825 3.71478   1
  -1  13   6 8.60591 0.97727   1
  -1  14   6 7.37577 2.12308  -3
   0  13   6 7.37577 2.12308   1
   1  13   6 40.8609 2.28710   1
   1  12   7 12.1599 5.32709  -3
   2  13   6 12.1599 5.32709   1
   2  12   7 2.35535 3.57083  -3
   3  13   6 2.35535 3.57083   1
   4  13   6 3.45191 1.02534   1
  -8  13   4 37.8683 4.70194  -2
  -7  14   6 37.8683 4.70194   1
  -6  14   6 44.5054 2.88237   1
  -5  14   6 31.1851 2.12631   1
  -5  15   4 60.1858 3.61045  -2
  -4  14   6 60.1858 3.61045   1
  -4  13   6 216.315 5.58661  -3
  -3  14   6 216.315 5.58661   1
  -3  13   6 5.27541 3.14400  -3
  -2  14   6 5.27541 3.14400   1
  -1  14   6 111.178 2.61794   1
  -1  15   6 23.2598 2.64270  -3
   0  14   6 23.2598 2.64270   1
   1  14   6 71.6781 3.02158   1
   1  13   7 29.8837 4.11504  -3
   2  14   6 29.8837 4.11504   1
   2  13   7 -0.9798 5.01601  -3
   3  14   6 -0.9798 5.01601   1
   4  14   6 110.653 2.95764   1
  -8  14   4 2.77900 5.74634  -2
  -7  15   6 2.77900 5.74634   1
  -6  15   6 36.7792 2.77007   1
  -5  15   6 4.28701 1.47945   1
  -5  16   4 48.2108 3.41449  -2
  -4  15   6 48.2108 3.41449   1
  -4  14   6 101.881 3.56513  -3
  -3  15   6 101.881 3.56513   1
  -3  14   6 8.60604 5.14155  -3
  -2  15   6 8.60604 5.14155   1
  -1  15   6 0.45625 0.68888   1
  -1  16   6 19.1831 2.76620  -3
   0  15   6 19.1831 2.76620   1
   1  15   6 12.1185 1.72658   1
   1  14   7 29.6715 3.63463  -3
   2  15   6 29.6715 3.63463   1
   3  15   6 0.15737 1.05272   1
  -6  16   6 1.71629 1.48400   1
  -5  16   6 15.2879 1.91075   1
  -5  17   4 24.6057 3.40875  -2
  -4  16   6 24.6057 3.40875   1
  -4  15   6 9.27191 2.90519  -3
  -3  16   6 9.27191 2.90519   1
  -2  16   6 2.12609 0.98183   1
  -1  16   6 0.53403 0.80564   1
  -1  17   6 0.07690 2.53414  -3
   0  16   6 0.07690 2.53414   1
  -2  15   7 0.39468 5.40349  -2
   0  16   6 0.39468 5.40349   1
   1  16   6 41.6397 2.56860   1
   1  15   7 2.94974 3.12693  -3
   2  16   6 2.94974 3.12693   1
   1  17   6 -3.5740 6.32691  -3
   2  16   6 -3.5740 6.32691   1
   3  16   6 25.8156 2.09195   1
  -6  17   6 1.09312 1.49765   1
  -5  17   6 0.42874 1.20776   1
  -5  18   4 12.0400 3.03630  -2
  -4  17   6 12.0400 3.03630   1
  -4  16   6 24.9575 4.28422  -3
  -3  17   6 24.9575 4.28422   1
  -2  17   6 5.44502 1.19731   1
  -1  17   6 0.43972 0.94048   1
  -2  16   7 5.62831 4.10161  -2
   0  17   6 5.62831 4.10161   1
  -1  18   6 1.84530 6.23428  -3
   0  17   6 1.84530 6.23428   1
   1  17   6 1.35235 1.18821   1
   1  16   7 2.91150 5.44128  -3
   2  17   6 2.91150 5.44128   1
   1  18   6 -4.1385 6.76471  -3
   2  17   6 -4.1385 6.76471   1
  -5  18   6 41.8755 3.01245   1
  -5  19   4 25.2936 3.91091  -2
  -4  18   6 25.2936 3.91091   1
  -5  17   6 32.2173 7.70641  -3
  -4  18   6 32.2173 7.70641   1
  -4  17   6 12.4430 6.29897  -3
  -3  18   6 12.4430 6.29897   1
  -2  18   6 -0.2091 0.97092   1
  -1  18   6 2.06080 1.11914   1
  -2  17   7 24.4469 3.79271  -2
   0  18   6 24.4469 3.79271   1
  -1  19   6 31.8647 4.78567  -3
   0  18   6 31.8647 4.78567   1
   0  17   7 -1.0118 5.40388  -3
   1  18   6 -1.0118 5.40388   1
   1  17   7 -2.7863 5.70654  -3
   2  18   6 -2.7863 5.70654   1
  -5  20   4 62.8588 5.30131  -2
  -4  19   6 62.8588 5.30131   1
  -5  18   6 59.8503 8.59079  -3
  -4  19   6 59.8503 8.59079   1
  -4  18   6 -4.0854 4.01632  -3
  -3  19   6 -4.0854 4.01632   1
  -2  19   6 1.51177 1.10025   1
  -1  19   6 -0.5490 0.95119   1
  -1  20   6 0.62506 4.42414  -3
   0  19   6 0.62506 4.42414   1
  -2  18   7 -1.5361 6.01001  -2
   0  19   6 -1.5361 6.01001   1
   0  18   7 37.3353 5.19311  -3
   1  19   6 37.3353 5.19311   1
  -4  21   4 -1.2705 5.98353  -2
  -3  20   6 -1.2705 5.98353   1
  -4  19   6 6.31619 4.47646  -3
  -3  20   6 6.31619 4.47646   1
  -2  20   6 12.9388 2.11106   1
  -1  20   6 0.28672 1.10169   1
   0  20   6 8.02538 1.62306   1
  -9   0   7 1.07643 1.70593   1
  -7   0   7 94.4614 4.05335   1
  -6   0   7 -0.3169 1.39927   1
  -5   0   7 124.464 5.43009   1
  -4   0   7 -1.0817 0.80647   1
  -3   0   7 431.249 7.81015   1
  -2   1   7 159.067 4.15458  -3
  -1   0   7 159.067 4.15458   1
   0   0   7 -0.7588 0.80821   1
   1   0   7 100.635 3.09521   1
   2   0   7 -0.2901 0.77236   1
   3   0   7 -1.6174 1.12056   1
   5   0   7 3.39167 2.40507   1
  -9   1   7 0.15928 1.22324   1
  -9   2   4 1.18305 3.29893  -2
  -8   1   7 1.18305 3.29893   1
  -7   1   7 1.61898 1.07849   1
  -6   1   7 19.3763 1.49615   1
  -5   1   7 5.08486 1.11370   1
  -4   1   7 107.476 2.22856   1
  -3   1   7 0.94156 0.61617   1
  -3   0   7 32.4520 2.26200  -3
  -2   1   7 32.4520 2.26200   1
  -3   2   7 16.2408 2.04323  -3
  -2   1   7 16.2408 2.04323   1
  -2   2   7 3.65651 1.76833  -3
  -1   1   7 3.65651 1.76833   1
   0   1   7 2.29683 0.68214   1
   1   1   7 69.6912 1.82961   1
   2   1   7 13.1141 1.05590   1
   3   1   7 22.0041 1.82891   1
   1   1   9 8.88173 4.69063  -2
   4   1   7 8.88173 4.69063   1
   1   3   9 7.28295 3.60995  -2
   4   1   7 7.28295 3.60995   1
   5   1   7 48.7094 4.27976   1
  -9   2   7 0.40544 1.35871   1
  -9   3   4 43.4106 4.67393  -2
  -8   2   7 43.4106 4.67393   1
  -9   1   4 46.7266 4.00509  -2
  -8   2   7 46.7266 4.00509   1
  -7   2   7 11.8852 1.41288   1
  -6   2   7 19.1425 1.48712   1
  -5   2   7 1.00245 0.74856   1
  -4   2   7 8.90701 0.90086   1
  -3   2   7 57.2821 1.58559   1
  -3   1   7 60.0292 2.69965  -3
  -2   2   7 60.0292 2.69965   1
  -3   3   7 68.6181 4.30433  -3
  -2   2   7 68.6181 4.30433   1
  -2   3   7 130.835 3.19885  -3
  -1   2   7 130.835 3.19885   1
  -2   1   7 129.457 5.19428  -3
  -1   2   7 129.457 5.19428   1
   0   2   7 273.731 3.89495   1
   1   2   7 10.1049 0.90266   1
   2   2   7 43.4458 1.40566   1
   3   2   7 5.04581 0.92467   1
   1   0   9 24.0804 3.65098  -2
   4   2   7 24.0804 3.65098   1
   1   4   9 13.0938 3.96429  -2
   4   2   7 13.0938 3.96429   1
  -9   3   7 3.81351 1.46302   1
  -9   4   4 3.78113 2.93151  -2
  -8   3   7 3.78113 2.93151   1
  -9   2   4 5.24953 3.25702  -2
  -8   3   7 5.24953 3.25702   1
  -7   3   7 3.13431 1.01419   1
  -6   3   7 3.03560 0.91625   1
  -5   3   7 61.7807 2.08729   1
  -4   3   7 11.6732 0.89121   1
  -3   3   7 119.500 2.28717   1
  -3   2   7 14.3882 1.84642  -3
  -2   3   7 14.3882 1.84642   1
  -2   4   7 275.920 5.03171  -3
  -1   3   7 275.920 5.03171   1
   0   3   7 232.092 3.73822   1
   1   3   7 1.17214 0.56667   1
   2   3   7 51.4122 1.51126   1
   3   3   7 0.17780 0.73751   1
   1   1   9 13.7232 4.73085  -2
   4   3   7 13.7232 4.73085   1
  -9   5   4 0.78788 2.93464  -2
  -8   4   7 0.78788 2.93464   1
  -9   3   4 1.14623 5.35334  -2
  -8   4   7 1.14623 5.35334   1
  -7   4   7 1.33555 0.96296   1
  -6   4   7 48.1068 2.01117   1
  -5   4   7 88.0809 2.38617   1
  -4   4   7 116.833 2.15040   1
  -4   3   7 62.7253 6.00727  -3
  -3   4   7 62.7253 6.00727   1
  -3   3   7 325.049 7.45793  -3
  -2   4   7 325.049 7.45793   1
  -2   5   7 4.12514 1.41271  -3
  -1   4   7 4.12514 1.41271   1
   0   4   7 9.13888 1.15357   1
   1   4   7 -0.1452 0.51996   1
   2   4   7 -0.3981 0.63318   1
   3   4   7 26.3340 1.54734   1
   1   6   9 -0.8716 4.68854  -2
   4   4   7 -0.8716 4.68854   1
   1   2   9 7.03228 4.84535  -2
   4   4   7 7.03228 4.84535   1
   2   6   9 40.5427 3.45960  -2
   5   4   7 40.5427 3.45960   1
  -9   6   4 3.96333 3.13397  -2
  -8   5   7 3.96333 3.13397   1
  -7   5   7 0.93417 0.96768   1
  -6   5   7 13.9637 1.42449   1
  -5   5   7 1.09017 0.71956   1
  -4   5   7 0.34077 0.53975   1
  -3   5   7 48.4869 1.39264   1
  -3   4   7 6.12553 1.57774  -3
  -2   5   7 6.12553 1.57774   1
  -2   6   7 2.39587 1.40947  -3
  -1   5   7 2.39587 1.40947   1
  -1   6   7 57.0085 5.42444  -3
   0   5   7 57.0085 5.42444   1
   1   5   7 7.29003 0.84042   1
   2   5   7 15.1853 1.07976   1
   3   5   7 -0.7194 0.74543   1
   1   3   9 6.87145 4.23460  -2
   4   5   7 6.87145 4.23460   1
   2   7   9 45.2030 3.38669  -2
   5   5   7 45.2030 3.38669   1
  -9   7   4 3.59486 4.34665  -2
  -8   6   7 3.59486 4.34665   1
  -8   7   4 19.1474 3.27824  -2
  -7   6   7 19.1474 3.27824   1
  -6   6   7 5.06226 1.07139   1
  -5   6   7 17.0232 1.32462   1
  -4   6   7 12.4694 0.94881   1
  -4   5   7 2.60731 1.78197  -3
  -3   6   7 2.60731 1.78197   1
  -3   5   7 54.2720 2.20589  -3
  -2   6   7 54.2720 2.20589   1
  -2   7   7 43.3151 2.19994  -3
  -1   6   7 43.3151 2.19994   1
   0   6   7 2.18985 0.87902   1
   1   6   7 98.1460 2.11692   1
   2   6   7 0.23408 0.60811   1
   0   4   9 25.2133 5.56976  -2
   3   6   7 25.2133 5.56976   1
   1   4   9 3.42945 3.69332  -2
   4   6   7 3.42945 3.69332   1
  -9   8   4 3.67480 4.39606  -2
  -8   7   7 3.67480 4.39606   1
  -8   8   4 9.11171 3.07025  -2
  -7   7   7 9.11171 3.07025   1
  -6   7   7 16.6434 1.56405   1
  -5   7   7 32.8877 1.57865   1
  -4   7   7 0.20458 0.57029   1
  -4   6   7 -0.8589 1.75195  -3
  -3   7   7 -0.8589 1.75195   1
  -3   6   7 156.529 3.67195  -3
  -2   7   7 156.529 3.67195   1
  -2   8   7 42.4792 2.23703  -3
  -1   7   7 42.4792 2.23703   1
   0   7   7 13.8427 1.30858   1
   1   7   7 165.968 3.01774   1
   2   7   7 0.15256 0.66357   1
   0   5   9 11.4309 5.05024  -2
   3   7   7 11.4309 5.05024   1
   1   5   9 6.35049 5.55240  -2
   4   7   7 6.35049 5.55240   1
  -9   9   4 -6.0126 6.47411  -2
  -8   8   7 -6.0126 6.47411   1
  -8   9   4 10.9849 3.91148  -2
  -7   8   7 10.9849 3.91148   1
  -6   8   7 11.1049 1.33800   1
  -5   8   7 5.21556 0.98445   1
  -4   8   7 -0.0780 0.58983   1
  -4   7   7 61.2844 2.62106  -3
  -3   8   7 61.2844 2.62106   1
  -3   7   7 18.2175 1.76419  -3
  -2   8   7 18.2175 1.76419   1
  -2   9   7 19.6041 1.97507  -3
  -1   8   7 19.6041 1.97507   1
   0   8   7 31.3874 1.66281   1
   1   8   7 2.45952 0.67958   1
   2   8   7 3.91802 0.89705   1
   0   6   9 12.0018 2.35543  -2
   3   8   7 12.0018 2.35543   1
   1   6   9 27.8550 6.50438  -2
   4   8   7 27.8550 6.50438   1
  -8   9   7 0.61820 1.43200   1
  -8  10   4 2.15821 5.84240  -2
  -7   9   7 2.15821 5.84240   1
  -6   9   7 85.1020 2.74186   1
  -5   9   7 5.46299 0.99907   1
  -4   9   7 5.51155 0.86344   1
  -4   8   7 19.3206 1.99971  -3
  -3   9   7 19.3206 1.99971   1
  -3   8   7 233.028 6.29333  -3
  -2   9   7 233.028 6.29333   1
  -2  10   7 140.675 3.80695  -3
  -1   9   7 140.675 3.80695   1
  -1  10   7 11.4728 3.74871  -3
   0   9   7 11.4728 3.74871   1
   1   9   7 5.07011 0.86840   1
   2   9   7 1.68124 0.77385   1
   0   7   9 5.20421 2.26744  -2
   3   9   7 5.20421 2.26744   1
   4   9   7 16.2634 1.82588   1
  -8  10   7 2.95016 1.62948   1
  -8  11   4 -3.8139 3.40245  -2
  -7  10   7 -3.8139 3.40245   1
  -6  10   7 0.26173 1.04646   1
  -5  10   7 52.8389 1.99656   1
  -4  10   7 23.8835 1.30803   1
  -4   9   7 205.649 4.63189  -3
  -3  10   7 205.649 4.63189   1
  -2  10   7 29.6994 1.84819   1
  -2  11   7 1.69511 2.02950  -3
  -1  10   7 1.69511 2.02950   1
  -1  11   7 92.9066 6.73221  -3
   0  10   7 92.9066 6.73221   1
   1  10   7 2.37956 0.83750   1
   2  10   7 32.9658 1.59390   1
   0   8   9 4.72322 2.32763  -2
   3  10   7 4.72322 2.32763   1
   4  10   7 28.0433 2.11016   1
  -8  12   4 8.90311 3.82377  -2
  -7  11   7 8.90311 3.82377   1
  -6  11   7 4.59218 1.48290   1
  -5  11   7 0.75377 0.91884   1
  -4  11   7 23.8614 1.33529   1
  -4  10   7 24.7393 2.10065  -3
  -3  11   7 24.7393 2.10065   1
  -4  12   6 42.7634 4.48654  -2
  -2  11   7 42.7634 4.48654   1
  -3  10   7 39.4595 5.03225  -3
  -2  11   7 39.4595 5.03225   1
  -2  12   7 5.59917 5.01138  -3
  -1  11   7 5.59917 5.01138   1
  -1  12   7 8.65622 2.37473  -3
   0  11   7 8.65622 2.37473   1
   1  11   7 10.6097 1.41313   1
   2  11   7 79.5692 2.30396   1
   0   9   9 37.0806 3.12577  -2
   3  11   7 37.0806 3.12577   1
   4  11   7 4.76714 2.61840   1
  -8  13   4 2.93007 3.63831  -2
  -7  12   7 2.93007 3.63831   1
  -6  12   7 52.6149 2.99576   1
  -5  12   7 9.13033 1.33169   1
  -4  12   7 0.16847 0.71095   1
  -4  11   7 1.03645 1.65433  -3
  -3  12   7 1.03645 1.65433   1
  -4  13   6 3.68756 5.15810  -2
  -2  12   7 3.68756 5.15810   1
  -2  13   7 33.8378 4.18436  -3
  -1  12   7 33.8378 4.18436   1
  -1  13   7 14.2786 2.35699  -3
   0  12   7 14.2786 2.35699   1
   1  12   7 0.79122 1.07789   1
   2  12   7 1.38646 0.82106   1
   0  10   9 37.2108 2.74846  -2
   3  12   7 37.2108 2.74846   1
  -8  14   4 6.40922 5.44740  -2
  -7  13   7 6.40922 5.44740   1
  -6  13   7 0.49497 1.30238   1
  -5  13   7 23.2374 1.81323   1
  -5  12   7 12.7415 3.82534  -3
  -4  13   7 12.7415 3.82534   1
  -4  12   7 1.36736 1.73221  -3
  -3  13   7 1.36736 1.73221   1
  -2  13   7 28.7196 1.99174   1
  -2  14   7 111.847 9.19147  -3
  -1  13   7 111.847 9.19147   1
  -1  14   7 11.4578 2.63014  -3
   0  13   7 11.4578 2.63014   1
   1  13   7 3.60570 1.24390   1
   2  13   7 0.07824 0.83983   1
   0  11   9 28.6864 2.71232  -2
   3  13   7 28.6864 2.71232   1
  -6  14   7 0.44865 1.37970   1
  -5  14   7 2.28387 1.23517   1
  -5  13   7 123.001 5.25455  -3
  -4  14   7 123.001 5.25455   1
  -4  13   7 28.5993 2.33133  -3
  -3  14   7 28.5993 2.33133   1
  -2  14   7 7.63478 1.52966   1
  -2  15   7 3.55323 5.67547  -3
  -1  14   7 3.55323 5.67547   1
  -1  15   7 11.4630 7.16964  -3
  -2  16   7 11.4630 7.16964  -2
   0  14   7 11.4630 7.16964   1
  -1  15   7 17.0546 3.36465  -3
   0  14   7 17.0546 3.36465   1
   1  14   7 3.45084 1.39187   1
   2  14   7 9.67409 1.26024   1
  -7  16   4 8.28996 7.31617  -2
  -6  15   7 8.28996 7.31617   1
  -5  15   7 10.7403 1.71318   1
  -5  14   7 48.2359 3.43193  -3
  -4  15   7 48.2359 3.43193   1
  -4  14   7 6.80891 2.54248  -3
  -3  15   7 6.80891 2.54248   1
  -2  15   7 3.75572 1.60021   1
  -1  15   7 0.58827 0.83931   1
  -1  16   7 8.50011 3.17043  -3
   0  15   7 8.50011 3.17043   1
   1  15   7 48.1296 2.80173   1
   2  15   7 0.78881 0.92579   1
  -5  16   7 18.7036 2.09996   1
  -5  15   7 0.49213 2.89096  -3
  -4  16   7 0.49213 2.89096   1
  -4  15   7 5.57343 2.26487  -3
  -3  16   7 5.57343 2.26487   1
  -2  16   7 10.5162 2.64017   1
  -1  16   7 13.9901 1.49652   1
  -1  17   7 23.1068 3.09710  -3
   0  16   7 23.1068 3.09710   1
   1  16   7 6.90619 1.65993   1
   2  16   7 116.052 5.14544   1
  -5  17   7 6.62032 1.87406   1
  -5  16   7 2.39046 2.97224  -3
  -4  17   7 2.39046 2.97224   1
  -4  16   7 0.86554 4.37236  -3
  -3  17   7 0.86554 4.37236   1
  -2  17   7 6.99848 1.73147   1
  -1  17   7 4.84081 1.29453   1
  -1  18   7 6.91073 2.96408  -3
   0  17   7 6.91073 2.96408   1
   0  18   7 -3.9099 3.12608  -3
   1  17   7 -3.9099 3.12608   1
  -5  17   7 8.60024 3.38954  -3
  -4  18   7 8.60024 3.38954   1
  -3  18   7 1.65300 2.13188   1
  -2  18   7 33.4817 2.21819   1
  -1  18   7 1.61976 1.15206   1
   0  18   7 0.24230 1.10837   1
  -2  19   7 -1.1963 2.28437   1
  -8   0   8 1.73825 2.08847   1
  -7   0   8 0.58020 2.74249   1
  -7   1   7 14.7024 3.99250  -3
  -6   0   8 14.7024 3.99250   1
  -5   0   8 0.61943 1.53428   1
  -4   0   8 58.8655 2.70922   1
  -3   0   8 0.66643 1.05158   1
  -3   1   8 213.563 6.24155  -3
  -2   0   8 213.563 6.24155   1
  -1   0   8 0.24503 1.10404   1
   0   0   8 29.3922 2.04255   1
   1   0   8 0.65776 0.96021   1
  -1   2   9 0.05725 2.33069  -2
   2   0   8 0.05725 2.33069   1
   3   0   8 0.92265 1.91924   1
   4   0   8 0.68965 2.12112   1
  -9   2   5 1.71556 6.05742  -2
  -8   1   8 1.71556 6.05742   1
  -8   2   7 4.83809 5.67418  -3
  -7   1   8 4.83809 5.67418   1
  -7   2   7 -2.9945 3.34646  -3
  -6   1   8 -2.9945 3.34646   1
  -7   0   7 1.99217 3.55664  -3
  -6   1   8 1.99217 3.55664   1
  -5   1   8 70.7328 3.15935   1
  -4   1   8 0.67196 0.72608   1
  -3   1   8 14.7049 1.47816   1
  -3   2   8 4.30853 3.21023  -3
  -2   1   8 4.30853 3.21023   1
  -2   2   8 50.3342 6.26813  -3
  -1   1   8 50.3342 6.26813   1
   0   1   8 94.0771 2.31735   1
   1   1   8 26.1770 1.40256   1
  -1   3   9 61.5058 3.15372  -2
   2   1   8 61.5058 3.15372   1
  -1   1   9 59.4423 3.42903  -2
   2   1   8 59.4423 3.42903   1
   3   1   8 4.31887 1.58472   1
   1   1  10 6.05622 6.42321  -2
   4   1   8 6.05622 6.42321   1
  -9   3   5 10.2375 4.36965  -2
  -8   2   8 10.2375 4.36965   1
  -8   1   7 47.4246 5.07880  -3
  -7   2   8 47.4246 5.07880   1
  -7   1   7 1.64641 3.62205  -3
  -6   2   8 1.64641 3.62205   1
  -7   3   7 1.17441 3.34075  -3
  -6   2   8 1.17441 3.34075   1
  -5   2   8 21.3065 2.08447   1
  -4   2   8 8.37531 1.06205   1
  -3   2   8 43.5081 1.96965   1
  -3   3   8 147.216 6.40818  -3
  -2   2   8 147.216 6.40818   1
  -3   1   8 152.305 4.51659  -3
  -2   2   8 152.305 4.51659   1
  -2   3   8 115.034 4.68600  -3
  -1   2   8 115.034 4.68600   1
   0   2   8 33.5709 1.54031   1
   1   2   8 23.2146 1.33976   1
  -1   4   9 140.452 5.00727  -2
   2   2   8 140.452 5.00727   1
  -1   0   9 151.200 7.08667  -2
   2   2   8 151.200 7.08667   1
   3   2   8 104.819 3.03488   1
   4   2   8 6.48808 1.79368   1
  -9   4   5 15.4568 4.53382  -2
  -8   3   8 15.4568 4.53382   1
  -8   2   7 20.1239 6.12569  -3
  -7   3   8 20.1239 6.12569   1
  -7   4   7 19.8832 3.85525  -3
  -6   3   8 19.8832 3.85525   1
  -7   2   7 16.6180 4.07168  -3
  -6   3   8 16.6180 4.07168   1
  -5   3   8 15.1518 1.89091   1
  -6   1   7 6.60428 4.28251  -2
  -4   3   8 6.60428 4.28251   1
  -5   5   7 42.0011 5.71845  -2
  -3   3   8 42.0011 5.71845   1
  -5   4   7 59.6900 6.85957  -2
  -3   3   8 59.6900 6.85957   1
  -3   2   8 18.6305 2.39951  -3
  -2   3   8 18.6305 2.39951   1
  -2   4   8 39.6174 3.37689  -3
  -1   3   8 39.6174 3.37689   1
   0   3   8 19.9547 1.32816   1
  -2   1   9 4.02783 3.28481  -2
   1   3   8 4.02783 3.28481   1
  -1   5   9 4.03731 2.07140  -2
   2   3   8 4.03731 2.07140   1
   3   3   8 34.8683 1.99862   1
   4   3   8 6.60647 2.13558   1
  -9   5   5 4.42646 4.25223  -2
  -8   4   8 4.42646 4.25223   1
  -8   3   7 0.53018 3.99553  -3
  -7   4   8 0.53018 3.99553   1
  -7   3   7 52.9649 5.01455  -3
  -6   4   8 52.9649 5.01455   1
  -7   5   7 55.0741 4.81160  -3
  -6   4   8 55.0741 4.81160   1
  -6   5   7 6.61745 5.23601  -3
  -5   4   8 6.61745 5.23601   1
  -6   2   7 6.99590 4.57664  -2
  -4   4   8 6.99590 4.57664   1
  -5   6   7 15.4529 4.72439  -2
  -3   4   8 15.4529 4.72439   1
  -3   3   8 3.95574 2.36877  -3
  -2   4   8 3.95574 2.36877   1
  -2   5   8 7.30227 2.69867  -3
  -1   4   8 7.30227 2.69867   1
   0   4   8 0.58215 0.68535   1
  -2   2   9 18.8764 4.99572  -2
   1   4   8 18.8764 4.99572   1
  -1   6   9 20.9071 2.93647  -2
   2   4   8 20.9071 2.93647   1
   3   4   8 16.3908 1.66911   1
   4   4   8 11.1527 1.80673   1
  -9   6   5 5.83387 4.27988  -2
  -8   5   8 5.83387 4.27988   1
  -8   4   7 1.12970 3.94545  -3
  -7   5   8 1.12970 3.94545   1
  -7   6   7 7.91722 3.56815  -3
  -6   5   8 7.91722 3.56815   1
  -7   4   7 3.35776 5.29155  -3
  -6   5   8 3.35776 5.29155   1
  -6   6   7 2.05303 3.38425  -3
  -5   5   8 2.05303 3.38425   1
  -6   3   7 11.9400 4.95565  -2
  -4   5   8 11.9400 4.95565   1
  -5   7   7 7.80045 4.44510  -2
  -3   5   8 7.80045 4.44510   1
  -4   4   8 2.88317 4.13860  -3
  -3   5   8 2.88317 4.13860   1
  -3   4   8 2.29913 2.03959  -3
  -2   5   8 2.29913 2.03959   1
  -2   6   8 10.0520 2.35166  -3
  -1   5   8 10.0520 2.35166   1
   0   5   8 26.5949 1.32280   1
  -2   3   9 19.7999 2.62003  -2
   1   5   8 19.7999 2.62003   1
  -1   7   9 1.07474 2.60469  -2
   2   5   8 1.07474 2.60469   1
   3   5   8 1.47067 1.15122   1
  -9   7   5 7.21434 6.52956  -2
  -8   6   8 7.21434 6.52956   1
  -8   5   7 8.30789 4.16799  -3
  -7   6   8 8.30789 4.16799   1
  -7   7   7 11.2024 2.92599  -3
  -6   6   8 11.2024 2.92599   1
  -6   7   7 1.15298 2.58408  -3
  -5   6   8 1.15298 2.58408   1
  -4   6   8 89.5865 2.94769   1
  -4   5   8 3.76733 4.53217  -3
  -3   6   8 3.76733 4.53217   1
  -5   8   7 8.20749 3.47315  -2
  -3   6   8 8.20749 3.47315   1
  -3   5   8 49.1210 2.86844  -3
  -2   6   8 49.1210 2.86844   1
  -2   7   8 5.40480 2.15740  -3
  -1   6   8 5.40480 2.15740   1
   0   6   8 -0.0642 0.62109   1
  -2   4   9 14.6110 2.21703  -2
   1   6   8 14.6110 2.21703   1
  -1   8   9 1.75980 2.76592  -2
   2   6   8 1.75980 2.76592   1
   3   6   8 5.36765 1.42037   1
  -9   8   5 -6.1331 5.70239  -2
  -8   7   8 -6.1331 5.70239   1
  -8   6   7 0.86773 4.06853  -3
  -7   7   8 0.86773 4.06853   1
  -7   8   7 66.3475 4.14308  -3
  -6   7   8 66.3475 4.14308   1
  -6   8   7 0.12412 2.61153  -3
  -5   7   8 0.12412 2.61153   1
  -4   7   8 19.2430 1.84594   1
  -4   6   8 14.0267 2.85614  -3
  -3   7   8 14.0267 2.85614   1
  -3   6   8 17.6724 2.41254  -3
  -2   7   8 17.6724 2.41254   1
  -2   8   8 -1.4580 2.11047  -3
  -1   7   8 -1.4580 2.11047   1
   0   7   8 2.28054 0.80223   1
  -2   5   9 62.1910 3.11369  -2
   1   7   8 62.1910 3.11369   1
  -1   9   9 14.3034 2.54317  -2
   2   7   8 14.3034 2.54317   1
   3   7   8 14.2968 1.69124   1
  -8   7   7 4.39616 3.34559  -3
  -7   8   8 4.39616 3.34559   1
  -7   9   7 4.21345 2.99573  -3
  -6   8   8 4.21345 2.99573   1
  -6   9   7 5.34021 2.68161  -3
  -5   8   8 5.34021 2.68161   1
  -6   7   7 39.5300 4.37780  -2
  -4   8   8 39.5300 4.37780   1
  -4   7   8 2.31711 2.30280  -3
  -3   8   8 2.31711 2.30280   1
  -3   7   8 2.45013 4.45634  -3
  -2   8   8 2.45013 4.45634   1
  -2   9   8 4.74514 2.97068  -3
  -1   8   8 4.74514 2.97068   1
   0   8   8 85.7365 2.47405   1
  -2   6   9 14.5583 2.71275  -2
   1   8   8 14.5583 2.71275   1
  -1  10   9 24.2051 3.63625  -2
   2   8   8 24.2051 3.63625   1
   0  10   9 35.4747 4.59126  -2
   3   8   8 35.4747 4.59126   1
   0   6  10 36.0962 7.60501  -2
   3   8   8 36.0962 7.60501   1
  -8   8   7 23.3109 4.68683  -3
  -7   9   8 23.3109 4.68683   1
  -7  10   7 8.47234 5.45430  -3
  -6   9   8 8.47234 5.45430   1
  -6  10   7 2.95739 2.65201  -3
  -5   9   8 2.95739 2.65201   1
  -6   8   7 2.97960 2.67790  -2
  -4   9   8 2.97960 2.67790   1
  -4   8   8 2.01437 2.34925  -3
  -3   9   8 2.01437 2.34925   1
  -4  11   7 23.4210 5.55208  -2
  -2   9   8 23.4210 5.55208   1
  -3   8   8 18.8409 5.35413  -3
  -2   9   8 18.8409 5.35413   1
  -2  10   8 11.7149 3.84234  -3
  -1   9   8 11.7149 3.84234   1
   0   9   8 7.22477 1.10968   1
  -2   7   9 -1.3566 2.51266  -2
   1   9   8 -1.3566 2.51266   1
  -1  11   9 -0.4473 3.17530  -2
   2   9   8 -0.4473 3.17530   1
   0  11   9 -0.0719 3.21463  -2
   3   9   8 -0.0719 3.21463   1
   0   7  10 -2.6447 6.21760  -2
   3   9   8 -2.6447 6.21760   1
  -8   9   7 -1.7113 6.17162  -3
  -7  10   8 -1.7113 6.17162   1
  -7  11   7 -0.5718 4.95373  -3
  -6  10   8 -0.5718 4.95373   1
  -6  11   7 2.22449 3.17795  -3
  -5  10   8 2.22449 3.17795   1
  -5  11   7 -3.4924 5.26814  -3
  -4  10   8 -3.4924 5.26814   1
  -6   9   7 4.70489 3.47785  -2
  -4  10   8 4.70489 3.47785   1
  -4   9   8 -0.5052 2.21593  -3
  -3  10   8 -0.5052 2.21593   1
  -3   9   8 9.77983 4.98536  -3
  -2  10   8 9.77983 4.98536   1
  -4  12   7 9.57899 5.74989  -2
  -2  10   8 9.57899 5.74989   1
  -2  11   8 24.7666 5.14392  -3
  -1  10   8 24.7666 5.14392   1
   0  10   8 16.9746 1.56314   1
  -2   8   9 1.31593 3.15150  -2
   1  10   8 1.31593 3.15150   1
  -1  12   9 1.44917 4.00410  -2
   2  10   8 1.44917 4.00410   1
   0  12   9 -0.5068 4.30328  -2
   3  10   8 -0.5068 4.30328   1
  -8  12   5 13.3992 6.30396  -2
  -7  11   8 13.3992 6.30396   1
  -7  12   7 6.45099 5.48086  -3
  -6  11   8 6.45099 5.48086   1
  -6  12   7 33.4636 4.31992  -3
  -5  11   8 33.4636 4.31992   1
  -6  10   7 8.01804 5.02498  -2
  -4  11   8 8.01804 5.02498   1
  -4  10   8 33.6188 2.59790  -3
  -3  11   8 33.6188 2.59790   1
  -4  13   7 1.32566 3.94904  -2
  -2  11   8 1.32566 3.94904   1
  -3  10   8 4.06298 4.06982  -3
  -2  11   8 4.06298 4.06982   1
  -1  11   8 5.54054 1.10976   1
  -1  12   8 24.7923 5.42141  -3
   0  11   8 24.7923 5.42141   1
  -2   9   9 4.16209 5.93277  -2
   1  11   8 4.16209 5.93277   1
   2  11   8 16.7149 1.55744   1
  -7  13   7 4.13225 5.76889  -3
  -6  12   8 4.13225 5.76889   1
  -6  13   7 2.32464 3.64168  -3
  -5  12   8 2.32464 3.64168   1
  -5  11   8 15.2537 4.39008  -3
  -4  12   8 15.2537 4.39008   1
  -5  13   7 20.4074 4.19813  -3
  -4  12   8 20.4074 4.19813   1
  -4  11   8 -1.4983 2.04996  -3
  -3  12   8 -1.4983 2.04996   1
  -4  14   7 30.2512 3.71957  -2
  -2  12   8 30.2512 3.71957   1
  -1  12   8 6.17355 1.05050   1
  -1  13   8 12.8269 6.18533  -3
   0  12   8 12.8269 6.18533   1
  -2  10   9 10.4450 6.43153  -2
   1  12   8 10.4450 6.43153   1
   2  12   8 31.8418 1.95880   1
  -6  13   8 5.12489 1.72073   1
  -7  11   7 3.75855 5.79918  -2
  -5  13   8 3.75855 5.79918   1
  -6  14   7 1.74430 3.79056  -3
  -5  13   8 1.74430 3.79056   1
  -5  12   8 0.37367 3.13914  -3
  -4  13   8 0.37367 3.13914   1
  -5  14   7 0.11725 3.76342  -3
  -4  13   8 0.11725 3.76342   1
  -4  12   8 1.45303 2.39260  -3
  -3  13   8 1.45303 2.39260   1
  -4  15   7 7.73410 5.07994  -2
  -2  13   8 7.73410 5.07994   1
  -1  13   8 57.8936 2.18103   1
  -1  14   8 0.92037 3.93823  -3
   0  13   8 0.92037 3.93823   1
   1  13   8 0.76253 1.08275   1
  -6  15   7 13.6202 4.16397  -3
  -5  14   8 13.6202 4.16397   1
  -5  15   7 23.2991 4.41909  -3
  -4  14   8 23.2991 4.41909   1
  -5  13   8 13.4168 3.54604  -3
  -4  14   8 13.4168 3.54604   1
  -4  13   8 29.1187 2.83947  -3
  -3  14   8 29.1187 2.83947   1
  -4  16   7 12.8478 5.48011  -2
  -2  14   8 12.8478 5.48011   1
  -1  14   8 9.24641 1.29219   1
  -3  12   9 17.4932 4.80544  -2
   0  14   8 17.4932 4.80544   1
  -1  15   8 18.4569 4.62841  -3
   0  14   8 18.4569 4.62841   1
   1  14   8 12.3235 1.64700   1
  -5  15   8 2.34234 2.29568   1
  -5  14   8 6.58878 3.51905  -3
  -4  15   8 6.58878 3.51905   1
  -5  16   7 10.8393 4.14091  -3
  -4  15   8 10.8393 4.14091   1
  -4  14   8 9.54377 2.84187  -3
  -3  15   8 9.54377 2.84187   1
  -2  15   8 -1.3416 1.15311   1
  -1  15   8 20.9840 1.70433   1
  -1  16   8 9.98047 4.99692  -3
   0  15   8 9.98047 4.99692   1
  -3  13   9 3.83767 3.41770  -2
   0  15   8 3.83767 3.41770   1
  -5  15   8 6.65321 3.37207  -3
  -4  16   8 6.65321 3.37207   1
  -5  17   7 5.16563 4.05696  -3
  -4  16   8 5.16563 4.05696   1
  -4  15   8 3.35551 2.86071  -3
  -3  16   8 3.35551 2.86071   1
  -2  16   8 7.54271 1.53953   1
  -1  16   8 21.0467 1.81455   1
  -8   1   8 7.23641 3.65839  -3
  -7   0   9 7.23641 3.65839   1
  -5   0   9 8.17381 2.56040   1
  -4   0   9 0.96988 1.23592   1
  -3   0   9 85.2784 3.46132   1
  -2   0   9 -0.7614 1.06882   1
  -1   0   9 99.5076 3.68001   1
   0   0   9 1.02998 1.23302   1
  -2   2  10 29.9659 4.92262  -2
   1   0   9 29.9659 4.92262   1
   2   0   9 -1.0429 1.50462   1
  -8   0   8 15.8098 3.85078  -3
  -7   1   9 15.8098 3.85078   1
  -8   2   8 13.3189 4.07315  -3
  -7   1   9 13.3189 4.07315   1
  -7   2   8 7.10978 4.62985  -3
  -6   1   9 7.10978 4.62985   1
  -5   1   9 13.8261 2.08799   1
  -4   1   9 39.4720 1.84282   1
  -3   1   9 4.44693 0.98813   1
  -2   1   9 20.5666 1.51866   1
  -1   1   9 20.5662 1.49817   1
   0   1   9 4.87489 1.00064   1
  -2   1  10 30.7277 3.73556  -2
   1   1   9 30.7277 3.73556   1
  -1   3  10 -1.9825 4.30164  -2
   2   1   9 -1.9825 4.30164   1
  -8   3   8 0.42149 3.72993  -3
  -7   2   9 0.42149 3.72993   1
  -8   1   8 -0.0916 3.05659  -3
  -7   2   9 -0.0916 3.05659   1
  -7   1   8 14.1458 5.70887  -3
  -6   2   9 14.1458 5.70887   1
  -7   3   8 12.0599 5.44048  -3
  -6   2   9 12.0599 5.44048   1
  -5   2   9 1.28842 1.30847   1
  -4   2   9 19.6792 1.56981   1
  -3   2   9 5.93002 1.05463   1
  -2   2   9 0.31233 0.78065   1
  -1   2   9 2.14652 0.90220   1
   0   2   9 2.54078 0.90160   1
  -2   0  10 105.915 4.14073  -2
   1   2   9 105.915 4.14073   1
  -1   4  10 113.410 5.09604  -2
   2   2   9 113.410 5.09604   1
  -8   4   8 -5.1650 3.73415  -3
  -7   3   9 -5.1650 3.73415   1
  -8   2   8 2.38841 2.85913  -3
  -7   3   9 2.38841 2.85913   1
  -7   2   8 1.12116 7.23160  -3
  -8   1   7 1.12116 7.23160  -2
  -6   3   9 1.12116 7.23160   1
  -7   2   8 -1.3945 5.13799  -3
  -6   3   9 -1.3945 5.13799   1
  -7   4   8 -2.9757 3.08484  -3
  -6   3   9 -2.9757 3.08484   1
  -5   3   9 -0.4495 1.44502   1
  -4   3   9 6.82707 1.12697   1
  -3   3   9 0.49889 0.84753   1
  -2   3   9 44.4800 1.86798   1
  -1   3   9 1.15134 0.81551   1
   0   3   9 0.56173 0.81736   1
  -2   1  10 19.9141 2.61715  -2
   1   3   9 19.9141 2.61715   1
  -1   5  10 30.6223 3.57806  -2
   2   3   9 30.6223 3.57806   1
  -8   5   8 2.67931 4.19764  -3
  -7   4   9 2.67931 4.19764   1
  -8   3   8 6.83418 3.49470  -3
  -7   4   9 6.83418 3.49470   1
  -7   5   8 -0.9717 2.98468  -3
  -6   4   9 -0.9717 2.98468   1
  -7   3   8 -10.311 4.84100  -3
  -6   4   9 -10.311 4.84100   1
  -5   4   9 11.2730 2.28696   1
  -4   4   9 45.8673 1.93192   1
  -3   4   9 24.6311 1.60536   1
  -2   4   9 0.53529 0.83377   1
  -1   4   9 2.76606 0.90851   1
   0   4   9 0.73741 0.82057   1
  -2   2  10 9.33604 2.12887  -2
   1   4   9 9.33604 2.12887   1
  -1   6  10 0.62996 2.34864  -2
   2   4   9 0.62996 2.34864   1
  -8   4   8 13.0072 3.68927  -3
  -7   5   9 13.0072 3.68927   1
  -8   6   8 6.98594 4.43753  -3
  -7   5   9 6.98594 4.43753   1
  -7   6   8 4.53170 3.01005  -3
  -6   5   9 4.53170 3.01005   1
  -6   6   8 13.2790 7.32385  -3
  -7   7   7 13.2790 7.32385  -2
  -5   5   9 13.2790 7.32385   1
  -4   5   9 11.1118 1.27095   1
  -3   5   9 33.7336 1.74075   1
  -2   5   9 36.5401 1.76572   1
  -1   5   9 9.18016 1.13557   1
   0   5   9 106.008 2.68841   1
  -2   3  10 3.16213 1.97090  -2
   1   5   9 3.16213 1.97090   1
  -1   7  10 13.9941 3.40481  -2
   2   5   9 13.9941 3.40481   1
  -8   5   8 15.2354 3.80640  -3
  -7   6   9 15.2354 3.80640   1
  -8   7   8 7.63301 5.85704  -3
  -7   6   9 7.63301 5.85704   1
  -7   7   8 5.05452 3.05328  -3
  -6   6   9 5.05452 3.05328   1
  -6   7   8 1.10390 4.84864  -3
  -5   6   9 1.10390 4.84864   1
  -6   7   8 10.5051 7.34564  -3
  -7   8   7 10.5051 7.34564  -2
  -5   6   9 10.5051 7.34564   1
  -4   6   9 1.17130 0.93780   1
  -5   8   8 20.0652 6.62203  -2
  -3   6   9 20.0652 6.62203   1
  -2   6   9 5.82950 1.06031   1
  -1   6   9 0.02992 0.79007   1
  -3   8   9 44.8164 7.56588  -2
   0   6   9 44.8164 7.56588   1
  -2   4  10 7.29815 1.89525  -2
   1   6   9 7.29815 1.89525   1
  -1   8  10 5.03394 3.24047  -2
   2   6   9 5.03394 3.24047   1
  -8   6   8 4.29637 5.12492  -3
  -7   7   9 4.29637 5.12492   1
  -7   8   8 10.4400 3.51766  -3
  -6   7   9 10.4400 3.51766   1
  -6   8   8 6.32398 6.96982  -3
  -7   9   7 6.32398 6.96982  -2
  -5   7   9 6.32398 6.96982   1
  -4   7   9 3.16309 1.10802   1
  -3   7   9 3.03183 0.97078   1
  -2   7   9 0.66845 0.83147   1
  -1   7   9 0.69405 0.86044   1
  -3   9   9 23.7806 6.35299  -2
   0   7   9 23.7806 6.35299   1
  -2   5  10 48.7690 3.58083  -2
   1   7   9 48.7690 3.58083   1
   2   7   9 3.96532 1.71309   1
  -7   9   8 3.94426 3.48211  -3
  -6   8   9 3.94426 3.48211   1
  -6   9   8 16.9564 6.69111  -3
  -7  10   7 16.9564 6.69111  -2
  -5   8   9 16.9564 6.69111   1
  -4   8   9 36.4353 2.00332   1
  -3   8   9 3.89762 1.05553   1
  -2   8   9 -0.2718 0.82288   1
  -1   8   9 18.5945 1.53776   1
  -3  10   9 14.1639 4.27865  -2
   0   8   9 14.1639 4.27865   1
  -2   6  10 4.75496 2.88194  -2
   1   8   9 4.75496 2.88194   1
   2   8   9 16.4934 2.34978   1
  -7  10   8 1.01717 3.58536  -3
  -6   9   9 1.01717 3.58536   1
  -6  10   8 4.92424 6.35775  -3
  -7  11   7 4.92424 6.35775  -2
  -5   9   9 4.92424 6.35775   1
  -4   9   9 1.65283 0.94305   1
  -3   9   9 34.6071 1.71941   1
  -2   9   9 2.08496 0.96587   1
  -1   9   9 8.50370 1.28611   1
  -3   7  10 -2.4998 5.66794  -2
   0   9   9 -2.4998 5.66794   1
  -3  11   9 3.21393 4.32760  -2
   0   9   9 3.21393 4.32760   1
  -2   7  10 2.90352 4.44308  -2
   1   9   9 2.90352 4.44308   1
  -6  10   9 17.4652 3.30103   1
  -6  11   8 13.6807 4.61832  -3
  -7  12   7 13.6807 4.61832  -2
  -5  10   9 13.6807 4.61832   1
  -4  10   9 1.63320 0.97821   1
  -3  10   9 0.06140 0.84680   1
  -2  10   9 1.51692 0.87478   1
  -1  10   9 79.8025 2.58242   1
  -3  12   9 23.5569 3.94426  -2
   0  10   9 23.5569 3.94426   1
  -3   8  10 21.5620 4.70662  -2
   0  10   9 21.5620 4.70662   1
  -2   8  10 18.9839 6.93075  -2
   1  10   9 18.9839 6.93075   1
  -5  11   9 -0.2370 1.85737   1
  -4  11   9 -0.5458 0.92108   1
  -3  11   9 4.07393 1.09423   1
  -2  11   9 31.3287 1.76097   1
  -1  11   9 14.4246 1.55034   1
  -3  13   9 4.94519 2.98560  -2
   0  11   9 4.94519 2.98560   1
  -3   9  10 11.7356 3.24048  -2
   0  11   9 11.7356 3.24048   1
  -6  13   8 2.33103 3.41909  -3
  -5  12   9 2.33103 3.41909   1
  -5  13   8 8.36437 5.94838  -3
  -4  12   9 8.36437 5.94838   1
  -3  12   9 6.87143 1.22528   1
  -2  12   9 3.87294 1.17684   1
  -1  12   9 9.57094 1.42613   1
  -3  14   9 2.86230 3.41293  -2
   0  12   9 2.86230 3.41293   1
  -5  14   8 48.4458 7.35072  -3
  -4  13   9 48.4458 7.35072   1
  -3  13   9 1.27372 1.09341   1
  -2  13   9 4.35032 1.22701   1
  -1  13   9 10.1301 1.47503   1
  -3  14   9 0.87447 1.20976   1
  -2  14   9 48.5544 2.57030   1
  -7   1   9 13.5673 5.47775  -3
  -8   2   8 13.5673 5.47775  -2
  -6   0  10 13.5673 5.47775   1
  -5   0  10 1.16920 2.02778   1
  -4   0  10 13.2912 2.13190   1
  -3   0  10 1.11968 1.32429   1
  -2   0  10 22.7838 2.47859   1
   0   0  10 43.5402 2.84233   1
   1   0  10 -1.1258 1.28623   1
  -7   0   9 30.2614 8.69822  -3
  -8   1   8 30.2614 8.69822  -2
  -6   1  10 30.2614 8.69822   1
  -7   2   9 39.4786 6.12047  -3
  -8   3   8 39.4786 6.12047  -2
  -6   1  10 39.4786 6.12047   1
  -5   1  10 2.50745 1.60104   1
  -4   1  10 14.3457 1.49349   1
  -3   1  10 6.39662 1.10487   1
  -2   1  10 1.85026 0.99800   1
  -4   1  10 11.6129 2.48173  -2
  -1   1  10 11.6129 2.48173   1
  -4   3  10 6.91146 2.07189  -2
  -1   1  10 6.91146 2.07189   1
   0   1  10 8.82342 1.29209   1
   1   1  10 1.37175 1.08122   1
  -7   3   9 45.1838 6.26048  -3
  -8   4   8 45.1838 6.26048  -2
  -6   2  10 45.1838 6.26048   1
  -5   2  10 129.570 4.79795   1
  -4   2  10 48.1157 2.16479   1
  -3   2  10 16.2217 1.54929   1
  -2   2  10 12.7635 1.55590   1
  -4   0  10 3.70139 2.46104  -2
  -1   2  10 3.70139 2.46104   1
  -4   4  10 -1.8583 2.10559  -2
  -1   2  10 -1.8583 2.10559   1
   0   2  10 2.39292 0.97484   1
   1   2  10 8.96541 1.38867   1
  -7   4   9 28.1391 5.94506  -3
  -8   5   8 28.1391 5.94506  -2
  -6   3  10 28.1391 5.94506   1
  -5   3  10 5.77678 1.79511   1
  -4   3  10 6.32939 1.19235   1
  -3   3  10 5.84278 1.20059   1
  -5   1  10 0.70208 4.26950  -2
  -2   3  10 0.70208 4.26950   1
  -4   5  10 -0.6497 2.36274  -2
  -1   3  10 -0.6497 2.36274   1
  -4   1  10 1.66831 2.94071  -2
  -1   3  10 1.66831 2.94071   1
   0   3  10 2.16774 0.98595   1
   1   3  10 0.23884 1.14517   1
  -7   5   9 12.4842 5.77506  -3
  -8   6   8 12.4842 5.77506  -2
  -6   4  10 12.4842 5.77506   1
  -5   4  10 -0.1256 1.39211   1
  -4   4  10 0.93589 1.00469   1
  -3   4  10 9.51634 1.36007   1
  -5   2  10 15.8168 3.41173  -2
  -2   4  10 15.8168 3.41173   1
  -4   2  10 12.9680 3.24797  -2
  -1   4  10 12.9680 3.24797   1
  -4   6  10 13.0095 2.83441  -2
  -1   4  10 13.0095 2.83441   1
   0   4  10 27.4325 1.88504   1
  -7   6   9 46.5919 9.14027  -3
  -8   7   8 46.5919 9.14027  -2
  -6   5  10 46.5919 9.14027   1
  -5   5  10 2.02586 1.56200   1
  -4   5  10 2.17107 1.13969   1
  -3   5  10 0.87640 0.97241   1
  -5   3  10 11.2636 2.69751  -2
  -2   5  10 11.2636 2.69751   1
  -4   3  10 72.2798 8.64257  -2
  -1   5  10 72.2798 8.64257   1
  -4   7  10 63.6811 3.99391  -2
  -1   5  10 63.6811 3.99391   1
  -3   7  10 3.89979 6.86232  -2
   0   5  10 3.89979 6.86232   1
  -5   6  10 0.02210 1.45934   1
  -4   6  10 50.4363 2.38710   1
  -3   6  10 27.0948 1.91582   1
  -5   4  10 3.62120 2.40266  -2
  -2   6  10 3.62120 2.40266   1
  -4   8  10 7.13947 3.61941  -2
  -1   6  10 7.13947 3.61941   1
  -3   8  10 0.75230 3.43940  -2
   0   6  10 0.75230 3.43940   1
  -5   7  10 -1.7989 1.37810   1
  -4   7  10 6.48997 1.36691   1
  -3   7  10 18.6954 1.70363   1
  -5   5  10 1.19956 2.19526  -2
  -2   7  10 1.19956 2.19526   1
  -4   9  10 8.55333 3.93164  -2
  -1   7  10 8.55333 3.93164   1
  -3   9  10 5.84504 5.73814  -2
   0   7  10 5.84504 5.73814   1
  -5   8  10 3.62044 1.70142   1
  -4   8  10 22.5837 1.98475   1
  -3   8  10 1.80714 1.10848   1
  -5   6  10 6.78443 2.27506  -2
  -2   8  10 6.78443 2.27506   1
  -1   8  10 0.68149 1.10898   1
  -4   9  10 4.98019 1.45144   1
  -3   9  10 -0.0063 1.06117   1
  -5   7  10 2.65252 2.14136  -2
  -2   9  10 2.65252 2.14136   1
  -1   9  10 8.13849 1.63541   1
  -3  10  10 21.1411 1.92729   1
  -5   8  10 0.85269 2.79333  -2
  -2  10  10 0.85269 2.79333   1
   0   0   0    0.00    0.00   0
;
_shelx_hkl_checksum              35210
_shelx_res_file
;
TITL LJ2153C3_0m_a.res in P2(1)/n
    LJ2153C3_0t.res
    created by SHELXL-2016/6 at 14:14:57 on 14-Mar-2019
REM Old TITL LJ2153C3_0m in P2(1)/n
REM SHELXT solution in P2(1)/n
REM R1 0.123,  Rweak 0.005,  Alpha 0.021,  Orientation as input
REM Formula found by SHELXT:  C9 F3 O4
CELL  0.71073   6.8986  17.2397   7.6912   90.000  107.685   90.000
ZERR    4.000   0.0008   0.0021   0.0009    0.000    0.002    0.000
LATT  1
SYMM 1/2-X, 1/2+Y, 1/2-Z
SFAC C H F N O
UNIT 32 16 12 4 16
TEMP -148
SIZE 0.3 0.2 0.1
REM colourless plate
ACTA
WPDB -1
L.S. 16
DFIX 0.84 O2 H2
HTAB
EQIV $1 -x, -y+1, -z
HTAB O2 O1_$1
EQIV $2 x, y, z+1
HTAB C5 O2_$2
EQIV $3 x, y, -1+z
RTAB FO F1 O4_$3
MPLA 3 O1 C7 O2
MPLA 6 C1 C2 C3 C4 C5 C6
MPLA 3 O3 N1 O4
BOND $H
CONF
LIST 4
FMAP 2
PLAN 20
REM EXTI    0.000000
WGHT    0.090900    0.092000
BASF   0.09613   0.03258
FVAR       0.67179
F1    3    0.868533    0.331498    0.388677    11.00000    0.03130    0.06605 =
         0.02528    0.01604    0.01530    0.02414
F2    3    0.787102    0.231883    0.518396    11.00000    0.03518    0.02421 =
         0.04080   -0.00743    0.00156    0.01179
F3    3    0.974581    0.321290    0.680024    11.00000    0.01444    0.03560 =
         0.02408    0.00324    0.00084    0.00428
O1    5    0.039365    0.499609    0.227702    11.00000    0.02034    0.02659 =
         0.01896   -0.00022    0.00232    0.00985
O2    5    0.221984    0.442365    0.068143    11.00000    0.02429    0.03068 =
         0.01547    0.00230    0.00265    0.01139
H2    2    0.136106    0.465064   -0.014960    11.00000   -1.20000
O3    5    0.740837    0.259181    0.880517    11.00000    0.03299    0.02532 =
         0.03165    0.01201    0.00834    0.00800
O4    5    0.754048    0.372009    1.008893    11.00000    0.04820    0.04254 =
         0.01686   -0.00087   -0.00242    0.00571
N1    4    0.703354    0.328146    0.877292    11.00000    0.01895    0.02786 =
         0.01863    0.00760    0.00495    0.00417
C1    1    0.325354    0.424536    0.387902    11.00000    0.01382    0.01454 =
         0.01559    0.00123    0.00180    0.00042
C2    1    0.497613    0.383567    0.382901    11.00000    0.01513    0.01645 =
         0.01512    0.00053    0.00339    0.00114
AFIX  43
H2A   2    0.527015    0.377515    0.270740    11.00000   -1.20000
AFIX   0
C3    1    0.626963    0.351421    0.542619    11.00000    0.01406    0.01483 =
         0.01666    0.00052    0.00219    0.00107
C4    1    0.578227    0.361986    0.703202    11.00000    0.01595    0.01543 =
         0.01554    0.00295    0.00157    0.00021
C5    1    0.410657    0.404163    0.711202    11.00000    0.02080    0.02616 =
         0.01731    0.00279    0.00762    0.00355
AFIX  43
H5A   2    0.384027    0.411841    0.824123    11.00000   -1.20000
AFIX   0
C6    1    0.282294    0.435017    0.550968    11.00000    0.01544    0.02168 =
         0.01983    0.00121    0.00441    0.00371
AFIX  43
H6A   2    0.164860    0.463335    0.552985    11.00000   -1.20000
AFIX   0
C7    1    0.184687    0.458152    0.217546    11.00000    0.01675    0.01594 =
         0.01615   -0.00020    0.00281    0.00181
C8    1    0.813769    0.308610    0.532427    11.00000    0.01966    0.02554 =
         0.01800    0.00331    0.00350    0.00725
HKLF 5
REM  LJ2153C3_0m_a.res in P2(1)/n
REM R1 =  0.0480 for    2116 Fo > 4sig(Fo)  and  0.0718 for all    2873 data
REM    150 parameters refined using      1 restraints
END
WGHT      0.0929      0.0395
REM Instructions for potential hydrogen bonds
HTAB O2 O1_$1
HTAB C5 O2_$2
REM Highest difference peak  0.499,  deepest hole -0.355,  1-sigma level  0.080
Q1    1   0.7164  0.3341  0.5387  11.00000  0.05    0.50
Q2    1   0.2594  0.4365  0.3063  11.00000  0.05    0.49
Q3    1   0.3561  0.4214  0.6239  11.00000  0.05    0.45
Q4    1   0.3294  0.4299  0.4750  11.00000  0.05    0.45
Q5    1   0.5229  0.3872  0.7134  11.00000  0.05    0.39
Q6    1   0.3997  0.3971  0.3877  11.00000  0.05    0.39
Q7    1   0.6420  0.3487  0.7784  11.00000  0.05    0.38
Q8    1   0.5620  0.3636  0.4681  11.00000  0.05    0.37
Q9    1  -0.0561  0.5037  0.1179  11.00000  0.05    0.35
Q10   1   0.6300  0.3646  0.6410  11.00000  0.05    0.35
Q11   1   0.5891  0.3547  0.6215  11.00000  0.05    0.33
Q12   1   0.6907  0.3423  1.0110  11.00000  0.05    0.33
Q13   1   0.7880  0.3339  0.2584  11.00000  0.05    0.30
Q14   1   0.7635  0.3159  0.3373  11.00000  0.05    0.28
Q15   1   0.2136  0.4451  0.5513  11.00000  0.05    0.27
Q16   1   0.1136  0.4856  0.2293  11.00000  0.05    0.26
Q17   1   0.0340  0.5101  0.2968  11.00000  0.05    0.26
Q18   1   0.8706  0.2358  0.6066  11.00000  0.05    0.26
Q19   1   0.9564  0.3226  0.5673  11.00000  0.05    0.24
Q20   1   0.8810  0.3171  0.6083  11.00000  0.05    0.23
;
_shelx_res_checksum              5221
loop_
_space_group_symop_operation_xyz
'x, y, z'
'-x+1/2, y+1/2, -z+1/2'
'-x, -y, -z'
'x-1/2, -y-1/2, z-1/2'
loop_
_atom_site_type_symbol
_atom_site_label
_atom_site_fract_x
_atom_site_fract_y
_atom_site_fract_z
_atom_site_U_iso_or_equiv
_atom_site_adp_type
_atom_site_calc_flag
_atom_site_occupancy
F F1 0.86853(17) 0.33150(8) 0.38868(15) 0.0394(3) Uani d 1
F F2 0.78710(18) 0.23188(6) 0.51840(16) 0.0356(3) Uani d 1
F F3 0.97458(14) 0.32129(6) 0.68002(13) 0.0258(3) Uani d 1
O O1 0.03937(17) 0.49961(7) 0.22770(15) 0.0228(3) Uani d 1
O O2 0.22198(18) 0.44236(8) 0.06814(16) 0.0242(3) Uani d 1
H H2 0.136(3) 0.4651(13) -0.015(3) 0.029 Uiso d 1
O O3 0.7408(2) 0.25918(8) 0.88052(18) 0.0303(3) Uani d 1
O O4 0.7540(2) 0.37201(10) 1.00889(17) 0.0386(4) Uani d 1
N N1 0.7034(2) 0.32815(9) 0.87729(19) 0.0220(3) Uani d 1
C C1 0.3254(2) 0.42454(9) 0.3879(2) 0.0152(3) Uani d 1
C C2 0.4976(2) 0.38357(9) 0.3829(2) 0.0158(3) Uani d 1
H H2A 0.527015 0.377515 0.27074 0.019 Uiso calc 1
C C3 0.6270(2) 0.35142(9) 0.5426(2) 0.0157(3) Uani d 1
C C4 0.5782(2) 0.36199(9) 0.7032(2) 0.0164(3) Uani d 1
C C5 0.4107(2) 0.40416(10) 0.7112(2) 0.0210(3) Uani d 1
H H5A 0.384027 0.411841 0.824123 0.025 Uiso calc 1
C C6 0.2823(2) 0.43502(10) 0.5510(2) 0.0192(3) Uani d 1
H H6A 0.16486 0.463335 0.552985 0.023 Uiso calc 1
C C7 0.1847(2) 0.45815(9) 0.2175(2) 0.0168(3) Uani d 1
C C8 0.8138(2) 0.30861(10) 0.5324(2) 0.0216(3) Uani d 1
loop_
_atom_site_aniso_label
_atom_site_aniso_U_11
_atom_site_aniso_U_22
_atom_site_aniso_U_33
_atom_site_aniso_U_12
_atom_site_aniso_U_13
_atom_site_aniso_U_23
F1 0.0313(6) 0.0661(9) 0.0253(6) 0.0241(6) 0.0153(5) 0.0160(5)
F2 0.0352(6) 0.0242(6) 0.0408(7) 0.0118(4) 0.0016(5) -0.0074(5)
F3 0.0144(4) 0.0356(6) 0.0241(5) 0.0043(4) 0.0008(4) 0.0032(4)
O1 0.0203(6) 0.0266(6) 0.0190(6) 0.0099(5) 0.0023(4) -0.0002(4)
O2 0.0243(6) 0.0307(7) 0.0155(5) 0.0114(5) 0.0027(5) 0.0023(5)
O3 0.0330(7) 0.0253(7) 0.0316(7) 0.0080(5) 0.0083(6) 0.0120(5)
O4 0.0482(9) 0.0425(9) 0.0169(6) 0.0057(7) -0.0024(6) -0.0009(6)
N1 0.0189(6) 0.0279(8) 0.0186(7) 0.0042(5) 0.0050(5) 0.0076(5)
C1 0.0138(6) 0.0145(7) 0.0156(7) 0.0004(5) 0.0018(5) 0.0012(5)
C2 0.0151(6) 0.0165(7) 0.0151(7) 0.0011(5) 0.0034(5) 0.0005(5)
C3 0.0141(6) 0.0148(7) 0.0167(7) 0.0011(5) 0.0022(5) 0.0005(5)
C4 0.0160(7) 0.0154(7) 0.0155(7) 0.0002(5) 0.0016(5) 0.0029(5)
C5 0.0208(7) 0.0262(9) 0.0173(7) 0.0035(6) 0.0076(6) 0.0028(6)
C6 0.0154(7) 0.0217(8) 0.0198(7) 0.0037(6) 0.0044(6) 0.0012(6)
C7 0.0168(6) 0.0159(7) 0.0161(7) 0.0018(5) 0.0028(5) -0.0002(5)
C8 0.0197(7) 0.0255(8) 0.0180(7) 0.0073(6) 0.0035(6) 0.0033(6)
loop_
_atom_type_symbol
_atom_type_description
_atom_type_scat_dispersion_real
_atom_type_scat_dispersion_imag
_atom_type_scat_source
C C 0.0033 0.0016 'International Tables Vol C Tables 4.2.6.8 and 6.1.1.4'
H H 0.0000 0.0000 'International Tables Vol C Tables 4.2.6.8 and 6.1.1.4'
F F 0.0171 0.0103 'International Tables Vol C Tables 4.2.6.8 and 6.1.1.4'
N N 0.0061 0.0033 'International Tables Vol C Tables 4.2.6.8 and 6.1.1.4'
O O 0.0106 0.0060 'International Tables Vol C Tables 4.2.6.8 and 6.1.1.4'
loop_
_geom_angle_atom_site_label_1
_geom_angle_atom_site_label_2
_geom_angle_atom_site_label_3
_geom_angle
C7 O2 H2 107.5(16)
O3 N1 O4 125.51(15)
O3 N1 C4 117.88(14)
O4 N1 C4 116.54(15)
C6 C1 C2 120.69(13)
C6 C1 C7 118.92(14)
C2 C1 C7 120.39(14)
C1 C2 C3 120.00(14)
C1 C2 H2A 120.0
C3 C2 H2A 120.0
C4 C3 C2 117.95(14)
C4 C3 C8 123.56(13)
C2 C3 C8 118.48(14)
C5 C4 C3 122.73(14)
C5 C4 N1 115.73(14)
C3 C4 N1 121.53(14)
C4 C5 C6 118.62(15)
C4 C5 H5A 120.7
C6 C5 H5A 120.7
C1 C6 C5 119.98(15)
C1 C6 H6A 120.0
C5 C6 H6A 120.0
O1 C7 O2 124.04(14)
O1 C7 C1 119.12(14)
O2 C7 C1 116.84(13)
F1 C8 F2 107.05(14)
F1 C8 F3 106.48(14)
F2 C8 F3 106.73(13)
F1 C8 C3 111.13(13)
F2 C8 C3 112.97(14)
F3 C8 C3 112.10(14)
loop_
_geom_bond_atom_site_label_1
_geom_bond_atom_site_label_2
_geom_bond_distance
F1 C8 1.332(2)
F2 C8 1.335(2)
F3 C8 1.3424(18)
O1 C7 1.2528(18)
O2 C7 1.281(2)
O2 H2 0.826(16)
O3 N1 1.2154(19)
O4 N1 1.226(2)
N1 C4 1.4751(19)
C1 C6 1.386(2)
C1 C2 1.393(2)
C1 C7 1.491(2)
C2 C3 1.395(2)
C2 H2A 0.95
C3 C4 1.387(2)
C3 C8 1.508(2)
C4 C5 1.383(2)
C5 C6 1.387(2)
C5 H5A 0.95
C6 H6A 0.95
loop_
_geom_hbond_atom_site_label_D
_geom_hbond_atom_site_label_H
_geom_hbond_atom_site_label_A
_geom_hbond_site_symmetry_A
_geom_hbond_distance_DH
_geom_hbond_distance_HA
_geom_hbond_distance_DA
_geom_hbond_angle_DHA
_geom_hbond_publ_flag
O2 H2 O1 3_565 0.826(16) 1.819(16) 2.6337(16) 168.(2) y
C5 H5A O2 1_556 0.95 2.51 3.440(2) 164.7 ?
loop_
_geom_torsion_atom_site_label_1
_geom_torsion_atom_site_label_2
_geom_torsion_atom_site_label_3
_geom_torsion_atom_site_label_4
_geom_torsion
C6 C1 C2 C3 1.1(2)
C7 C1 C2 C3 -179.15(14)
C1 C2 C3 C4 -0.2(2)
C1 C2 C3 C8 -179.01(14)
C2 C3 C4 C5 -1.5(2)
C8 C3 C4 C5 177.26(15)
C2 C3 C4 N1 178.27(14)
C8 C3 C4 N1 -3.0(2)
O3 N1 C4 C5 127.62(17)
O4 N1 C4 C5 -49.6(2)
O3 N1 C4 C3 -52.1(2)
O4 N1 C4 C3 130.66(17)
C3 C4 C5 C6 2.2(2)
N1 C4 C5 C6 -177.56(14)
C2 C1 C6 C5 -0.4(2)
C7 C1 C6 C5 179.87(15)
C4 C5 C6 C1 -1.2(2)
C6 C1 C7 O1 5.0(2)
C2 C1 C7 O1 -174.71(15)
C6 C1 C7 O2 -175.09(15)
C2 C1 C7 O2 5.2(2)
C4 C3 C8 F1 -155.52(15)
C2 C3 C8 F1 23.2(2)
C4 C3 C8 F2 84.14(19)
C2 C3 C8 F2 -97.15(17)
C4 C3 C8 F3 -36.5(2)
C2 C3 C8 F3 142.23(14)

_cod_database_fobs_code 2242882
