#------------------------------------------------------------------------------
#$Date: 2017-07-25 12:50:41 +0300 (Tue, 25 Jul 2017) $
#$Revision: 199199 $
#$URL: file:///home/coder/svn-repositories/cod/cif/2/24/22/2242237.cif $
#------------------------------------------------------------------------------
#
# This file is available in the Crystallography Open Database (COD),
# http://www.crystallography.net/. The original data for this entry
# were provided by IUCr Journals, http://journals.iucr.org/.
#
# The file may be used within the scientific community so long as
# proper attribution is given to the journal article from which the
# data were obtained.
#
data_2242237
loop_
_publ_author_name
'Pe\~na-Sol\'orzano, Diana'
'K\"onig, Burkhard'
'Sierra, Cesar A.'
'Ochoa-Puentes, Cristian'
_publ_section_title
;
 Crystal structures of three
 <i>N</i>-(3-acetylphenyl)quinoline-2-carboxamides
;
_journal_coeditor_code           LH5839
_journal_issue                   6
_journal_name_full               'Acta Crystallographica Section E'
_journal_page_first              804
_journal_page_last               808
_journal_paper_doi               10.1107/S2056989017006272
_journal_volume                  73
_journal_year                    2017
_chemical_formula_moiety         'C18 H13 Br N2 O2'
_chemical_formula_sum            'C18 H13 Br N2 O2'
_chemical_formula_weight         369.21
_chemical_name_systematic
;
<i>N</i>-(5-Acetyl-2-bromophenyl)quinoline-2-carboxamide
;
_space_group_crystal_system      triclinic
_space_group_IT_number           2
_space_group_name_Hall           '-P 1'
_space_group_name_H-M_alt        'P -1'
_symmetry_space_group_name_Hall  '-P 1'
_symmetry_space_group_name_H-M   'P -1'
_atom_sites_solution_hydrogens   geom
_audit_creation_method
;
OLEX2 1.2-alpha
(compiled 2015.11.10 svn.r3248 for OlexSys, GUI svn.r5133)
;
_cell_angle_alpha                103.788(2)
_cell_angle_beta                 95.515(2)
_cell_angle_gamma                96.195(2)
_cell_formula_units_Z            2
_cell_length_a                   4.29848(12)
_cell_length_b                   11.6353(3)
_cell_length_c                   15.5888(4)
_cell_measurement_reflns_used    10806
_cell_measurement_temperature    123.1(4)
_cell_measurement_theta_max      73.8130
_cell_measurement_theta_min      3.9050
_cell_volume                     746.76(4)
_computing_cell_refinement
;
CrysAlis PRO (Rigaku OD, 2015)
;
_computing_data_collection
;
CrysAlis PRO (Rigaku OD, 2015)
;
_computing_data_reduction
;
CrysAlis PRO (Rigaku OD, 2015)
;
_computing_molecular_graphics
;
<i>OLEX2</i> (Dolomanov <i>et al.</i>,  2009)
;
_computing_publication_material
;
<i>OLEX2</i> (Dolomanov <i>et al.</i>,  2009)
;
_computing_structure_refinement
;
SHELXL2014 (Sheldrick, 2015b)
;
_computing_structure_solution
;
SHELXT (Sheldrick, 2015a)
;
_diffrn_ambient_temperature      123.1(4)
_diffrn_detector_area_resol_mean 4.1818
_diffrn_measured_fraction_theta_full 0.998
_diffrn_measured_fraction_theta_max 0.980
_diffrn_measurement_device       'four-circle diffractometer'
_diffrn_measurement_device_type  'Agilent TitanS2 GV1000'
_diffrn_measurement_method       '\w scans'
_diffrn_radiation_monochromator  mirror
_diffrn_radiation_type           CuK\a
_diffrn_radiation_wavelength     1.54184
_diffrn_reflns_av_R_equivalents  0.0329
_diffrn_reflns_limit_h_max       5
_diffrn_reflns_limit_h_min       -5
_diffrn_reflns_limit_k_max       14
_diffrn_reflns_limit_k_min       -13
_diffrn_reflns_limit_l_max       19
_diffrn_reflns_limit_l_min       -19
_diffrn_reflns_number            12899
_diffrn_reflns_theta_full        67.684
_diffrn_reflns_theta_max         73.655
_diffrn_reflns_theta_min         2.942
_exptl_absorpt_coefficient_mu    3.851
_exptl_absorpt_correction_T_max  0.900
_exptl_absorpt_correction_T_min  0.540
_exptl_absorpt_correction_type   gaussian
_exptl_absorpt_process_details
;
[CrysAlis PRO (Rigaku OD, 2015), based on expressions
derived by Clark & Reid (1995)]
;
_exptl_crystal_colour            'clear colourless'
_exptl_crystal_density_diffrn    1.642
_exptl_crystal_description       plank
_exptl_crystal_F_000             372
_exptl_crystal_size_max          0.652
_exptl_crystal_size_mid          0.104
_exptl_crystal_size_min          0.061
_refine_diff_density_max         0.478
_refine_diff_density_min         -0.653
_refine_ls_extinction_coef       0.0018(3)
_refine_ls_extinction_expression Fc^*^=kFc[1+0.001xFc^2^\l^3^/sin(2\q)]^-1/4^
_refine_ls_extinction_method
;
SHELXL2014 (Sheldrick, 2015b)
;
_refine_ls_goodness_of_fit_ref   1.046
_refine_ls_hydrogen_treatment    constr
_refine_ls_matrix_type           full
_refine_ls_number_parameters     210
_refine_ls_number_reflns         2966
_refine_ls_number_restraints     0
_refine_ls_restrained_S_all      1.046
_refine_ls_R_factor_all          0.0245
_refine_ls_R_factor_gt           0.0238
_refine_ls_shift/su_max          0.001
_refine_ls_shift/su_mean         0.000
_refine_ls_structure_factor_coef Fsqd
_refine_ls_weighting_details
'w=1/[\s^2^(Fo^2^)+(0.0390P)^2^+0.3702P] where P=(Fo^2^+2Fc^2^)/3'
_refine_ls_weighting_scheme      calc
_refine_ls_wR_factor_gt          0.0641
_refine_ls_wR_factor_ref         0.0648
_reflns_number_gt                2870
_reflns_number_total             2966
_reflns_threshold_expression     'I > 2\s(I)'
_cod_data_source_file            lh5839sup1.cif
_cod_data_source_block           II
_cod_original_cell_volume        746.76(3)
_cod_database_code               2242237
_shelx_space_group_comment
;
The symmetry employed for this shelxl refinement is uniquely defined
by the following loop, which should always be used as a source of
symmetry information in preference to the above space-group names.
They are only intended as comments.
;
_shelx_hkl_file
;
   0   0  -1  303.20    4.98
   0   0   1  295.58    5.21
   0   0   2  507.36    8.53
   0   0  -2  489.12    8.36
   0   0   3  486.86    8.84
   0   0  -3  469.42    8.53
   0   0  -4    0.41    0.16
   0   0  -4    0.18    0.14
   0   0  -4    0.26    0.14
   0   0  -5   31.67    1.62
   0   0   5   33.98    1.52
   0   0  -5   35.16    1.62
   0   0  -5   34.58    1.41
   0   0   5   34.36    1.31
   0   0  -5   33.43    1.68
   0   0  -5   32.27    1.47
   0   0  -6   64.28    2.72
   0   0   6   66.96    2.09
   0   0  -6   70.29    2.30
   0   0  -6   66.03    2.44
   0   0  -6   65.23    2.72
   0   0  -6   65.29    2.61
   0   0   6   64.83    2.34
   0   0   7  373.21    7.35
   0   0  -7  367.95    8.20
   0   0  -7  379.10    8.79
   0   0  -7  343.31    7.59
   0   0  -7  377.25    8.65
   0   0  -7  380.28    8.97
   0   0  -7  359.76    8.83
   0   0   7  375.98    8.10
   0   0   8   12.33    1.31
   0   0   8   10.72    1.11
   0   0  -8   12.61    1.36
   0   0  -8   11.79    1.31
   0   0  -8   11.09    1.15
   0   0  -8   11.24    1.38
   0   0  -8   12.05    1.40
   0   0  -8   11.04    0.99
   0   0  -9  343.75    9.68
   0   0  -9  336.69    7.73
   0   0  -9  335.71    9.14
   0   0   9  353.55    8.87
   0   0  -9  331.91    8.60
   0   0  -9  332.28    9.69
   0   0 -10  289.96    8.97
   0   0 -10  314.06    9.88
   0   0 -10  305.64    8.63
   0   0  10  290.51    8.48
   0   0 -10  302.62    9.73
   0   0 -10  286.87    7.40
   0   0  10  319.35    9.25
   0   0 -11  417.93   12.96
   0   0 -11  463.38   13.40
   0   0  11  420.22   11.89
   0   0 -11  463.01   10.41
   0   0 -11  449.01   11.84
   0   0  11  435.82   12.12
   0   0 -11  422.47   12.13
   0   0 -11  439.39   12.74
   0   0 -11  432.26   12.13
   0   0 -12  638.60   17.01
   0   0 -12  709.06   16.90
   0   0  12  647.28   16.42
   0   0 -12  663.86   17.59
   0   0 -12  717.98   18.37
   0   0  12  689.82   16.92
   0   0 -12  655.52   18.11
   0   0 -12  670.41   18.27
   0   0 -13    5.07    1.35
   0   0 -13    4.26    1.37
   0   0  13    5.70    1.28
   0   0 -13    5.13    1.43
   0   0  13    2.61    0.84
   0   0  13    5.09    1.10
   0   0 -13    4.09    1.07
   0   0 -13    3.94    1.05
   0   0 -13    4.61    1.39
   0   0 -14   74.08    5.36
   0   0 -14   75.08    5.49
   0   0 -14   70.22    5.24
   0   0  14   71.09    4.56
   0   0 -14   69.46    5.09
   0   0  14   63.74    3.92
   0   0  15   68.88    4.39
   0   0 -15   65.23    4.96
   0   0  15   70.99    3.99
   0   0 -15   70.94    5.26
   0   0 -15   66.85    4.89
   0   0 -15   77.38    5.48
   0   0  16    1.98    0.65
   0   0 -16    2.62    0.93
   0   0 -16    0.54    0.60
   0   0  16    1.43    0.60
   0   0 -17    6.48    1.28
   0   0 -17    6.13    1.50
   0   0  17    6.65    1.14
   0   0 -17    7.52    1.47
   0   0  18    4.05    0.81
   0   0 -18    3.78    0.79
   0   0  18    3.57    0.63
   0   0 -18    3.30    0.84
   0   0 -18    3.73    0.94
   0   1 -18   55.75    3.53
   0  -1  18   58.84    3.00
   0   1 -18   54.48    3.64
   0   1 -17   43.94    3.23
   0   1 -17   52.33    4.11
   0  -1  17   53.63    3.33
   0   1 -17   51.88    3.89
   0  -1  17   48.20    2.82
   0  -1  16  148.34    5.79
   0   1 -16  126.80    6.92
   0  -1  16  149.43    6.33
   0   1 -16  134.39    6.55
   0   1 -15  290.74   11.12
   0   1 -15  266.69   10.33
   0   1 -15  289.72   10.98
   0  -1  15  286.66    9.71
   0  -1  15  272.07    8.90
   0  -1  15  255.17    9.21
   0   1 -15  299.49   11.34
   0   1 -14   36.69    3.69
   0   1 -14   35.88    3.64
   0   1 -14   39.37    3.70
   0   1 -14   35.09    3.68
   0  -1  14   37.80    3.26
   0  -1  14   37.48    3.24
   0   1 -13  126.70    5.30
   0  -1  13  128.72    6.12
   0   1 -13  124.40    6.28
   0   1 -13  115.78    6.20
   0   1 -13  124.11    6.90
   0   1 -13  120.73    6.73
   0   1 -13  128.08    5.17
   0  -1  13  123.86    6.07
   0   1 -13  123.46    6.62
   0   1 -12  838.65   19.95
   0   1 -12  931.85   18.78
   0   1 -12  888.98   21.39
   0  -1  12  910.39   20.30
   0   1 -12  827.79   20.14
   0  -1  12  835.38   19.15
   0   1 -12  891.60   21.66
   0  -1  12  915.33   20.31
   0   1 -12  879.09   21.12
   0   1 -12  897.44   18.29
   0  -1  11   16.20    1.95
   0   1 -11   16.84    2.09
   0   1 -11   15.08    2.05
   0   1 -11   15.52    2.12
   0   1 -11   16.43    1.67
   0  -1  11   16.26    1.83
   0   1 -11   15.63    1.53
   0  -1  11   14.96    1.91
   0   1 -11   14.51    1.78
   0   1 -11   14.32    1.80
   0   1 -11   19.14    2.27
   0   1 -10   27.85    2.28
   0   1 -10   29.46    2.35
   0   1 -10   33.95    2.86
   0  -1  10   26.74    2.18
   0   1 -10   31.56    2.04
   0   1 -10   27.74    2.52
   0   1  -9   13.45    1.43
   0  -1   9   12.41    1.38
   0  -1   9   10.43    1.12
   0   1  -9   13.43    1.45
   0   1  -9   11.52    1.14
   0   1  -9   10.69    1.40
   0   1  -9   11.40    1.50
   0  -1   8   82.52    3.46
   0  -1   8   79.61    3.03
   0   1  -8   89.69    3.64
   0   1  -8   77.47    3.59
   0   1  -8   86.44    3.83
   0   1  -8   85.98    3.72
   0   1  -8   86.17    3.42
   0  -1   8   95.31    3.22
   0   1  -8   77.03    2.94
   0   1  -7  462.60   10.27
   0   1  -7  443.95    9.19
   0  -1   7  461.06    9.30
   0   1  -7  462.57    9.73
   0   1  -7  447.26   10.01
   0   1  -6  927.06   17.06
   0  -1   6  917.99   16.32
   0   1  -6  917.24   16.99
   0   1  -6  935.40   16.43
   0   1  -6  948.89   17.27
   0  -1   5  880.64   15.76
   0   1  -5  873.38   15.63
   0   1  -5  895.59   15.48
   0   1  -5  903.21   15.24
   0  -1   5  899.59   15.20
   0   1  -4  595.40   10.82
   0   1  -4  601.45   10.91
   0  -1   4  655.41   10.88
   0   1  -4  647.01   10.84
   0   1  -4  588.13   11.02
   0   1  -3  315.23    5.81
   0   1  -3  301.45    5.69
   0   1  -3  317.65    5.87
   0  -1   2  641.90   10.66
   0   1  -2  644.49   10.42
   0  -1   1  646.29   11.05
   0   1  -1  668.38   10.87
   0   1   0    7.30    0.41
   0  -1   0    7.06    0.28
   0  -1  -1  136.94    2.66
   0   1   1  133.06    2.93
   0   1   2  155.89    3.62
   0   1   2  161.10    2.78
   0  -1  -2  160.16    3.25
   0   1   3  167.15    3.05
   0  -1  -3  176.01    4.16
   0  -1  -3  175.45    3.68
   0  -1  -3  178.35    3.76
   0   1   4  305.58    5.48
   0  -1  -4  352.31    6.58
   0  -1  -4  324.70    6.34
   0  -1  -4  330.24    7.01
   0   1   4  363.68    6.81
   0  -1  -4  314.05    6.18
   0  -1  -5 1045.83   16.82
   0  -1  -5  957.30   17.53
   0   1   5  914.10   15.44
   0  -1  -5  999.69   17.06
   0  -1  -5  918.96   16.38
   0   1   5  976.93   16.95
   0  -1  -5 1090.29   18.03
   0  -1  -6   70.99    3.07
   0  -1  -6   69.85    2.92
   0  -1  -6   60.57    2.86
   0  -1  -6   65.59    2.65
   0  -1  -6   60.81    2.19
   0   1   6   60.03    2.43
   0  -1  -6   60.12    2.36
   0  -1  -7  579.42   12.36
   0  -1  -7  552.98   12.17
   0   1   7  514.62   11.12
   0  -1  -7  525.13   12.25
   0  -1  -7  543.61   11.15
   0  -1  -7  558.53   11.75
   0  -1  -7  570.30   10.61
   0  -1  -8  352.44    8.94
   0  -1  -8  334.21    8.19
   0  -1  -8  339.72    9.48
   0  -1  -8  342.64    7.44
   0  -1  -8  349.28    9.22
   0   1   8  325.58    8.15
   0  -1  -8  336.99    9.25
   0  -1  -9  311.23    8.93
   0  -1  -9  317.66    9.45
   0  -1  -9  310.02    8.16
   0  -1  -9  321.45    9.85
   0  -1  -9  312.00    7.22
   0  -1  -9  323.62    9.29
   0  -1 -10  659.50   17.55
   0  -1 -10  737.14   17.73
   0  -1 -10  716.44   16.92
   0  -1 -10  710.84   16.82
   0  -1 -10  700.46   17.30
   0   1  10  699.59   16.18
   0  -1 -10  704.17   15.57
   0   1  10  681.80   16.34
   0  -1 -11   36.76    3.52
   0  -1 -11   39.69    3.34
   0   1  11   42.30    3.18
   0  -1 -11   42.35    3.06
   0  -1 -11   40.48    3.41
   0  -1 -11   40.78    3.43
   0  -1 -11   41.29    3.68
   0   1  11   39.57    3.20
   0   1  11   37.68    2.79
   0   1  12   84.73    4.42
   0  -1 -12   85.62    4.76
   0  -1 -12   82.29    5.23
   0  -1 -12   84.04    5.66
   0   1  12   75.24    4.67
   0  -1 -12   81.82    5.21
   0  -1 -12   80.05    5.11
   0  -1 -12   90.81    5.95
   0   1  13   18.28    2.03
   0   1  13   16.19    2.22
   0  -1 -13   18.54    2.74
   0  -1 -13   16.32    2.21
   0  -1 -13   17.14    2.51
   0  -1 -13   17.82    2.55
   0  -1 -13   21.43    2.86
   0  -1 -13   15.23    2.45
   0  -1 -14  113.57    6.83
   0  -1 -14  120.75    7.15
   0   1  14  118.46    5.99
   0  -1 -14  106.48    6.54
   0   1  14  111.91    5.17
   0  -1 -14  113.10    6.50
   0  -1 -15  161.76    8.17
   0   1  15  159.48    6.90
   0   1  15  166.86    6.14
   0  -1 -15  174.06    8.41
   0  -1 -15  163.15    7.93
   0  -1 -15  166.88    7.94
   0   1  16  113.01    5.30
   0  -1 -16  109.57    5.95
   0  -1 -16  118.86    6.50
   0   1  17  151.72    5.59
   0  -1 -17  144.47    6.15
   0   1  17  161.24    6.19
   0  -1 -17  149.90    6.73
   0  -1 -17  164.57    6.88
   0  -1 -18    6.40    1.05
   0   1  18    7.12    0.91
   0  -1 -18    6.13    1.08
   0   1  18    7.12    1.02
   0   2 -19   98.50    4.14
   0   2 -18  187.64    6.85
   0   2 -18  190.14    7.31
   0  -2  18  192.95    6.05
   0   2 -17  176.51    7.52
   0  -2  17  179.72    6.19
   0   2 -17  191.55    8.15
   0  -2  17  185.98    6.71
   0  -2  16  114.35    5.54
   0   2 -16  120.92    6.54
   0   2 -16  123.88    5.20
   0  -2  16  119.18    5.65
   0  -2  16  119.49    5.31
   0   2 -16  110.79    5.71
   0   2 -15   16.04    2.22
   0  -2  15   13.63    1.94
   0   2 -15   11.71    2.11
   0   2 -15   13.38    2.23
   0   2 -15   13.70    1.72
   0   2 -15   17.33    2.50
   0  -2  15   13.01    1.88
   0   2 -14   54.21    4.54
   0  -2  14   58.40    4.08
   0   2 -14   56.48    4.58
   0   2 -14   56.29    3.59
   0  -2  14   61.14    4.21
   0   2 -14   55.76    4.43
   0   2 -14   58.81    4.60
   0   2 -14   61.55    3.70
   0   2 -13   29.60    2.91
   0   2 -13   35.18    3.46
   0   2 -13   33.74    3.43
   0   2 -13   32.88    3.18
   0   2 -13   32.81    3.29
   0  -2  13   35.48    3.09
   0   2 -13   35.43    2.76
   0  -2  13   33.48    3.05
   0  -2  13   32.48    2.85
   0   2 -13   34.79    2.68
   0   2 -13   32.60    3.31
   0   2 -12   26.90    2.64
   0  -2  12   29.23    2.57
   0   2 -12   26.96    2.87
   0  -2  12   28.28    2.69
   0   2 -12   30.17    3.13
   0   2 -12   30.01    2.82
   0  -2  12   32.16    2.85
   0   2 -12   33.29    3.28
   0   2 -12   32.03    3.07
   0   2 -12   32.96    2.56
   0   2 -12   29.17    2.28
   0  -2  11  266.11    8.78
   0  -2  11  264.00    8.33
   0   2 -11  282.48    9.47
   0  -2  11  283.90    8.98
   0   2 -11  270.98    8.00
   0   2 -11  297.17    9.61
   0   2 -11  264.96    9.40
   0   2 -11  258.27    8.32
   0   2 -11  273.35    7.73
   0   2 -11  282.83    8.90
   0  -2  10  418.29   10.53
   0   2 -10  390.52   10.97
   0   2 -10  379.35   10.16
   0   2 -10  419.26   10.84
   0   2 -10  437.84    9.91
   0   2 -10  405.76   11.24
   0   2  -9  955.51   19.20
   0   2  -9 1088.95   21.28
   0  -2   9  932.78   18.86
   0   2  -9 1053.47   20.16
   0  -2   9 1069.73   20.44
   0   2  -9 1036.83   20.37
   0   2  -9 1064.02   21.00
   0   2  -8  471.69   10.80
   0   2  -8  535.37   11.01
   0   2  -8  504.50   10.30
   0   2  -8  498.51   11.40
   0   2  -8  504.68   11.36
   0  -2   8  500.00   11.03
   0  -2   8  455.44    9.80
   0   2  -7  221.91    5.66
   0  -2   7  220.89    5.81
   0   2  -7  210.58    5.85
   0   2  -7  210.53    5.18
   0   2  -6  179.46    4.69
   0   2  -6  177.75    4.86
   0   2  -6  194.05    4.50
   0  -2   6  190.03    4.93
   0   2  -5  418.01    8.31
   0  -2   5  432.46    8.59
   0   2  -5  438.25    8.65
   0  -2   4   18.21    0.74
   0   2  -4   19.96    1.07
   0   2  -4   23.10    1.21
   0   2  -4   21.62    1.03
   0   2  -3  180.59    3.59
   0  -2   3  177.50    3.98
   0   2  -3  178.41    3.70
   0   2  -2   87.29    2.08
   0   2  -2   85.87    2.38
   0  -2   2   83.45    2.33
   0  -2   2   81.22    2.34
   0   2  -2   85.71    2.15
   0  -2   1   31.42    0.76
   0  -2   1   29.79    1.21
   0   2   0    3.02    0.37
   0   2   0    2.26    0.25
   0  -2   0    2.97    0.26
   0  -2  -1 2024.56   32.17
   0   2   1 1998.60   32.28
   0   2   1 2064.55   32.76
   0  -2  -1 1974.55   32.06
   0  -2  -2 1478.39   24.70
   0  -2  -2 1524.47   25.13
   0   2   2 1511.27   25.49
   0   2   3  890.65   15.90
   0  -2  -3  950.14   16.49
   0   2   3  906.17   16.35
   0  -2  -3  965.76   16.32
   0  -2  -3  898.10   15.56
   0  -2  -3  893.23   15.44
   0  -2  -4 1726.10   29.19
   0  -2  -4 1669.71   28.09
   0  -2  -4 1727.59   27.73
   0  -2  -4 1699.61   28.96
   0   2   4 1770.33   28.62
   0  -2  -5  267.92    5.67
   0  -2  -5  264.79    5.87
   0  -2  -5  268.41    6.94
   0  -2  -5  260.53    6.11
   0  -2  -5  271.24    5.79
   0   2   5  274.00    6.34
   0  -2  -6   21.44    1.21
   0  -2  -6   20.28    1.45
   0   2   6   20.33    1.46
   0  -2  -6   20.51    1.33
   0  -2  -6   20.50    1.67
   0  -2  -6   20.77    1.73
   0  -2  -6   21.81    1.71
   0   2   7  297.66    7.75
   0  -2  -7  324.53    8.63
   0  -2  -7  312.98    7.97
   0  -2  -7  323.22    6.84
   0  -2  -7  311.26    8.88
   0  -2  -7  337.04    8.86
   0   2   7  313.22    7.90
   0  -2  -7  326.40    7.49
   0  -2  -8    3.12    0.89
   0  -2  -8    3.36    0.78
   0  -2  -8    3.59    0.67
   0   2   8    3.13    0.70
   0   2   8    3.05    0.71
   0  -2  -8    4.52    0.95
   0  -2  -8    3.71    0.86
   0  -2  -9    9.99    1.66
   0  -2  -9    9.70    1.41
   0   2   9    9.32    1.29
   0  -2  -9    7.97    1.42
   0  -2  -9    8.99    1.49
   0   2   9    7.61    1.29
   0  -2  -9    9.03    1.15
   0   2   9    6.60    1.08
   0  -2 -10  600.39   15.90
   0  -2 -10  578.29   16.34
   0   2  10  605.68   14.95
   0  -2 -10  573.97   15.35
   0  -2 -10  612.16   15.27
   0   2  10  585.41   13.61
   0   2  11  152.23    6.70
   0  -2 -11  150.11    6.04
   0  -2 -11  148.70    7.14
   0  -2 -11  154.44    7.53
   0  -2 -11  150.73    7.62
   0  -2 -11  150.34    7.14
   0   2  11  142.73    5.77
   0  -2 -12    6.76    1.44
   0  -2 -12    5.93    1.54
   0  -2 -12    7.75    1.66
   0   2  12    9.28    1.63
   0  -2 -12    6.19    1.31
   0   2  12    7.96    1.34
   0  -2 -12    6.70    1.59
   0  -2 -12    7.76    1.79
   0  -2 -13  360.77   12.83
   0   2  13  349.95   10.07
   0   2  13  338.47   11.26
   0  -2 -13  348.83   13.40
   0  -2 -13  341.58   12.59
   0  -2 -13  349.00   13.15
   0  -2 -13  344.48   11.97
   0  -2 -13  373.98   13.06
   0   2  14  318.20   10.67
   0   2  14  320.25    9.38
   0  -2 -14  343.55   12.47
   0  -2 -14  335.52   12.98
   0  -2 -14  320.16   11.61
   0  -2 -15   87.78    5.41
   0   2  15   92.47    5.00
   0  -2 -15   96.92    6.05
   0   2  15   89.70    4.06
   0  -2 -15   89.56    5.79
   0  -2 -16  105.58    5.70
   0   2  16  104.19    4.84
   0   2  16  107.11    5.25
   0  -2 -16  103.75    5.64
   0  -2 -16  103.19    5.79
   0  -2 -17    6.70    1.26
   0   2  17    4.76    0.84
   0   2  17    3.54    0.81
   0  -2 -17    4.93    1.06
   0  -2 -17    3.94    1.01
   0   3 -19   53.87    2.91
   0   3 -18    3.81    0.97
   0   3 -18    4.38    0.96
   0  -3  18    5.69    1.01
   0  -3  17    9.69    1.46
   0   3 -17   11.45    1.71
   0  -3  17   13.16    1.54
   0   3 -17   10.58    1.80
   0  -3  17   13.27    1.59
   0   3 -17   12.13    1.47
   0  -3  16   64.28    4.00
   0   3 -16   67.59    3.88
   0  -3  16   64.70    4.10
   0   3 -16   61.40    4.45
   0   3 -15  135.89    7.10
   0  -3  15  150.61    6.60
   0   3 -15  157.36    6.34
   0  -3  15  148.07    6.71
   0   3 -15  134.86    6.15
   0   3 -15  135.90    7.13
   0   3 -15  135.52    7.15
   0  -3  14  195.15    7.71
   0   3 -14  170.99    8.11
   0   3 -14  185.73    8.44
   0   3 -14  178.71    6.98
   0   3 -14  188.97    7.23
   0  -3  14  179.12    7.21
   0   3 -14  177.32    8.26
   0  -3  14  185.30    7.66
   0  -3  13  151.65    6.50
   0   3 -13  157.62    7.46
   0   3 -13  149.52    7.15
   0   3 -13  152.67    7.37
   0   3 -13  149.44    7.32
   0  -3  13  150.95    6.75
   0   3 -13  136.22    6.37
   0  -3  13  160.48    6.14
   0   3 -13  150.81    6.13
   0   3 -13  159.70    6.34
   0  -3  13  145.20    6.59
   0  -3  12  128.62    5.72
   0   3 -12  131.78    5.81
   0   3 -12  135.84    5.60
   0   3 -12  138.57    6.67
   0  -3  12  134.85    6.07
   0   3 -12  124.21    5.27
   0   3 -12  136.10    6.53
   0  -3  12  129.59    6.01
   0  -3  12  124.05    5.41
   0   3 -12  129.91    6.39
   0   3 -12  146.40    6.59
   0   3 -11  676.96   16.47
   0  -3  11  638.79   15.13
   0  -3  11  665.82   15.89
   0   3 -11  635.83   16.40
   0  -3  11  700.07   16.05
   0   3 -11  679.30   16.37
   0   3 -11  614.59   14.86
   0   3 -11  650.55   14.59
   0   3 -11  654.35   15.86
   0   3 -11  672.66   15.05
   0   3 -10  263.05    7.56
   0  -3  10  264.74    7.88
   0   3 -10  252.94    7.20
   0   3 -10  249.42    7.99
   0   3 -10  250.42    8.17
   0   3  -9    9.42    1.09
   0   3  -9    9.76    1.36
   0  -3   9    8.81    1.20
   0   3  -9   10.22    1.32
   0   3  -9    9.05    1.11
   0   3  -8 1022.96   19.33
   0   3  -8  995.40   19.51
   0  -3   8 1016.81   19.32
   0  -3   8  984.73   19.23
   0   3  -8  976.81   18.44
   0   3  -8  999.50   18.54
   0   3  -7  110.32    3.39
   0   3  -7   99.76    3.63
   0   3  -7   99.78    3.72
   0  -3   7   99.01    3.67
   0   3  -7  101.69    3.32
   0   3  -6  588.09   10.72
   0  -3   6  605.21   11.00
   0   3  -6  555.34   10.13
   0   3  -6  570.42   10.80
   0  -3   5    5.77    0.37
   0  -3   5    8.08    0.88
   0   3  -5    9.08    0.84
   0   3  -5    8.78    0.84
   0   3  -5    7.75    0.86
   0   3  -5    7.75    0.71
   0   3  -4 1162.97   19.88
   0   3  -4 1120.04   19.41
   0  -3   4 1136.15   19.89
   0   3  -4 1136.00   19.15
   0   3  -4 1094.89   19.43
   0   3  -3  316.65    6.76
   0  -3   3  293.41    6.69
   0   3  -3  315.90    6.30
   0   3  -3  323.03    6.20
   0  -3   3  295.58    6.67
   0   3  -2 1093.45   18.85
   0   3  -2 1110.85   18.26
   0  -3   2 1052.04   18.85
   0  -3   1  738.76   12.19
   0   3  -1  786.81   13.50
   0   3   0  215.63    4.43
   0  -3   0  215.39    4.23
   0   3   1 1069.78   18.94
   0  -3  -1 1070.45   18.15
   0  -3  -1 1064.06   18.03
   0  -3  -2  432.73    8.07
   0   3   2  450.73    8.62
   0   3   2  425.21    9.03
   0  -3  -2  417.45    8.40
   0  -3  -3   28.85    1.61
   0  -3  -3   28.46    1.34
   0  -3  -3   33.61    1.37
   0   3   3   26.66    1.68
   0   3   3   31.59    1.62
   0  -3  -3   32.22    1.85
   0  -3  -4   65.77    2.13
   0   3   4   63.19    2.82
   0   3   4   62.42    2.52
   0  -3  -4   59.83    2.63
   0  -3  -4   61.74    2.12
   0  -3  -4   57.81    2.77
   0  -3  -4   65.51    2.37
   0  -3  -5  200.90    6.10
   0   3   5  198.61    5.56
   0  -3  -5  202.11    5.21
   0  -3  -5  217.78    6.17
   0  -3  -5  203.22    4.88
   0  -3  -5  199.52    4.64
   0  -3  -5  199.04    4.72
   0  -3  -6  298.61    8.16
   0  -3  -6  267.79    8.01
   0  -3  -6  309.83    8.04
   0  -3  -6  299.18    7.25
   0   3   6  265.31    7.19
   0  -3  -6  288.79    6.64
   0  -3  -7    5.04    0.87
   0  -3  -7    6.92    1.24
   0  -3  -7    5.90    1.10
   0  -3  -7    4.53    0.70
   0  -3  -7    5.29    1.02
   0   3   7    6.11    0.95
   0   3   7    5.07    0.86
   0  -3  -8  269.45    8.65
   0  -3  -8  298.80    8.31
   0   3   8  246.50    7.75
   0  -3  -8  274.17    9.25
   0   3   8  255.56    7.55
   0  -3  -8  282.08    7.25
   0  -3  -8  280.67    8.96
   0   3   9  232.35    7.32
   0   3   9  268.31    8.83
   0  -3  -9  246.56    8.96
   0  -3  -9  250.01    8.90
   0  -3  -9  245.40    8.10
   0  -3  -9  237.06    9.29
   0  -3  -9  243.64    7.09
   0   3   9  249.88    7.33
   0  -3  -9  239.81    8.37
   0   3  10  146.55    5.39
   0  -3 -10  154.76    6.76
   0   3  10  139.19    5.55
   0  -3 -10  148.49    7.15
   0   3  10  137.63    6.41
   0  -3 -10  139.99    7.27
   0  -3 -10  146.64    5.62
   0  -3 -10  146.17    7.69
   0  -3 -10  152.66    7.25
   0  -3 -11  363.95   12.66
   0  -3 -11  384.65   11.96
   0  -3 -11  357.93   13.07
   0   3  11  357.00   10.07
   0  -3 -11  332.18   12.34
   0  -3 -11  375.67   12.74
   0   3  11  354.83   11.44
   0  -3 -12  547.98   17.62
   0  -3 -12  554.65   16.89
   0  -3 -12  565.58   17.33
   0  -3 -12  543.62   15.45
   0   3  12  510.79   14.72
   0   3  12  513.55   13.07
   0  -3 -13    9.39    2.06
   0  -3 -13   10.36    2.22
   0  -3 -13    7.43    1.91
   0  -3 -13    8.56    1.72
   0  -3 -13    9.82    2.01
   0  -3 -13    8.99    1.89
   0   3  13    8.18    1.25
   0   3  13    6.24    1.32
   0  -3 -14    9.07    1.96
   0  -3 -14    9.17    2.16
   0  -3 -14    5.55    1.60
   0  -3 -14    5.33    1.38
   0   3  14    4.44    1.24
   0   3  14    6.01    1.30
   0  -3 -15   -0.41    0.76
   0   3  15    0.41    0.47
   0  -3 -15    1.20    0.72
   0   3  15    0.45    0.65
   0  -3 -15   -0.21    0.57
   0  -3 -16   30.74    2.82
   0  -3 -16   34.64    3.07
   0   3  16   32.65    2.43
   0   3  16   31.90    2.56
   0  -3 -16   36.22    2.90
   0  -3 -17   60.27    3.32
   0   3  17   56.70    2.81
   0   4 -18   88.12    4.42
   0  -4  18   92.59    3.80
   0   4 -18   87.41    3.66
   0  -4  17  202.19    7.22
   0  -4  17  206.17    6.98
   0   4 -17  216.59    7.05
   0   4 -17  194.23    7.24
   0   4 -17  202.49    8.01
   0   4 -16  511.96   13.21
   0   4 -16  489.96   13.96
   0   4 -16  503.87   14.92
   0  -4  16  521.48   13.50
   0  -4  16  520.24   13.82
   0   4 -15   49.88    3.52
   0   4 -15   49.13    3.69
   0  -4  15   52.44    3.74
   0   4 -15   45.32    3.90
   0  -4  15   46.44    3.45
   0  -4  15   45.71    3.58
   0   4 -15   47.59    3.93
   0   4 -14  191.06    8.30
   0   4 -14  187.01    7.31
   0   4 -14  185.05    8.18
   0  -4  14  189.28    7.49
   0  -4  14  184.74    7.51
   0   4 -14  176.53    7.23
   0   4 -14  180.67    8.21
   0  -4  14  184.80    7.69
   0  -4  14  200.04    6.99
   0   4 -13   82.06    5.12
   0   4 -13   78.68    4.45
   0  -4  13   80.38    4.75
   0   4 -13   86.13    4.64
   0   4 -13   80.29    5.01
   0  -4  13   85.30    4.41
   0   4 -13   78.69    5.01
   0  -4  13   82.74    4.86
   0   4 -13   72.74    4.84
   0   4 -13   77.43    5.05
   0  -4  13   82.69    4.67
   0  -4  12   49.93    3.32
   0   4 -12   50.31    3.84
   0   4 -12   55.61    3.54
   0  -4  12   52.05    3.67
   0  -4  12   46.44    3.36
   0   4 -12   52.22    3.83
   0   4 -12   50.26    3.81
   0   4 -12   46.50    3.19
   0   4 -12   47.35    3.61
   0  -4  12   46.78    3.51
   0   4 -12   49.53    3.74
   0   4 -11   50.92    3.50
   0   4 -11   57.70    3.34
   0  -4  11   56.38    3.61
   0   4 -11   57.51    3.44
   0  -4  11   57.60    3.75
   0   4 -11   54.77    3.72
   0   4 -11   52.95    3.16
   0  -4  11   53.42    3.56
   0  -4  11   52.65    3.42
   0   4 -11   51.28    3.65
   0   4 -11   54.94    3.70
   0  -4  10   32.85    2.53
   0   4 -10   31.22    2.50
   0   4 -10   28.54    2.48
   0  -4  10   28.55    2.37
   0   4 -10   30.82    2.26
   0   4 -10   31.27    2.16
   0   4 -10   35.47    2.48
   0  -4  10   30.07    2.51
   0   4  -9    7.90    1.20
   0   4  -9    8.17    1.22
   0   4  -9   11.44    1.26
   0  -4   9    7.88    1.19
   0   4  -9    7.25    1.15
   0   4  -9    8.50    0.99
   0  -4   9    6.91    1.09
   0   4  -8   70.12    3.07
   0   4  -8   72.77    2.81
   0   4  -8   69.73    3.33
   0   4  -8   73.35    3.54
   0  -4   8   75.94    3.54
   0   4  -8   76.07    3.52
   0  -4   8   71.97    3.44
   0   4  -7 1286.33   22.80
   0   4  -7 1287.51   22.00
   0   4  -7 1243.40   23.69
   0   4  -7 1343.30   23.67
   0   4  -7 1181.46   23.09
   0  -4   7 1343.95   23.79
   0   4  -6  844.67   15.86
   0   4  -6  839.76   15.67
   0   4  -6  811.70   14.32
   0   4  -6  810.55   15.22
   0  -4   6  799.20   16.09
   0   4  -6  836.72   16.17
   0   4  -5  208.22    5.36
   0   4  -5  209.71    4.21
   0  -4   5  201.46    5.71
   0   4  -5  204.29    5.23
   0   4  -5  206.31    5.10
   0   4  -5  211.26    5.75
   0  -4   5  211.50    5.79
   0   4  -4  452.94    8.77
   0  -4   4  453.01    9.55
   0  -4   4  486.12    9.72
   0   4  -4  418.00    7.32
   0   4  -4  447.76    8.66
   0   4  -4  471.47    9.60
   0  -4   3  429.76    7.53
   0   4  -3  460.88    9.40
   0  -4   3  442.70    9.41
   0  -4   3  434.88    9.01
   0  -4   3  458.90    9.56
   0  -4   2  764.89   12.73
   0  -4   2  752.09   14.13
   0   4  -1    2.23    0.46
   0  -4   1    1.71    0.23
   0  -4   0   10.27    0.92
   0  -4   0    8.65    0.66
   0   4   0   10.69    1.02
   0  -4  -1  345.85    7.72
   0  -4  -1  344.80    6.84
   0  -4  -1  356.31    7.13
   0   4   1  337.54    7.85
   0   4   1  338.48    7.21
   0  -4  -2   12.25    1.01
   0   4   2   13.36    1.08
   0  -4  -2   11.45    1.13
   0  -4  -2   13.23    0.86
   0   4   2   12.35    1.19
   0   4   3    1.46    0.43
   0  -4  -3    0.82    0.22
   0  -4  -3    1.17    0.37
   0  -4  -3    0.93    0.43
   0   4   3    0.40    0.26
   0  -4  -4  805.21   14.55
   0   4   4  843.06   15.98
   0   4   4  857.04   16.66
   0  -4  -4  830.53   16.83
   0  -4  -4  804.80   16.12
   0  -4  -4  802.86   15.04
   0   4   5  945.64   17.99
   0  -4  -5  930.66   19.23
   0  -4  -5  935.97   17.34
   0  -4  -5  931.75   18.73
   0  -4  -5  932.68   16.62
   0   4   5  897.16   17.99
   0  -4  -6  367.77    9.51
   0   4   6  353.35    8.75
   0  -4  -6  328.68    9.82
   0  -4  -6  352.67    8.52
   0  -4  -6  330.89    9.51
   0  -4  -6  346.39    7.71
   0   4   6  345.44    8.99
   0  -4  -7  267.72    6.84
   0  -4  -7  285.16    9.07
   0   4   7  278.16    7.74
   0  -4  -7  285.63    8.74
   0  -4  -7  267.74    9.15
   0  -4  -7  275.03    7.78
   0   4   8  228.24    6.80
   0   4   8  201.75    7.69
   0  -4  -8  195.61    5.90
   0  -4  -8  193.13    7.55
   0  -4  -8  198.19    6.91
   0   4   8  197.55    6.49
   0  -4  -8  206.49    7.97
   0  -4  -8  195.51    8.19
   0  -4  -9  200.30    7.38
   0   4   9  214.91    8.09
   0  -4  -9  194.71    8.28
   0   4   9  202.24    6.57
   0  -4  -9  173.47    8.38
   0   4   9  183.08    6.45
   0  -4  -9  194.29    7.65
   0  -4  -9  175.06    7.75
   0  -4 -10   12.57    2.15
   0  -4 -10   12.89    2.47
   0   4  10   12.74    1.53
   0  -4 -10   13.10    2.16
   0  -4 -10   10.57    1.71
   0   4  10    9.36    1.35
   0  -4 -10   14.12    2.35
   0   4  10   13.27    1.98
   0  -4 -11   55.94    4.22
   0   4  11   54.95    4.15
   0  -4 -11   57.28    5.09
   0   4  11   64.84    3.55
   0   4  11   59.63    3.51
   0  -4 -11   57.08    4.88
   0  -4 -11   62.99    5.05
   0  -4 -11   55.38    4.75
   0   4  12   52.19    3.22
   0  -4 -12   51.44    4.91
   0  -4 -12   53.41    4.48
   0  -4 -12   51.29    4.77
   0  -4 -12   54.83    4.27
   0   4  12   49.29    3.87
   0  -4 -12   50.64    4.36
   0  -4 -12   58.19    5.03
   0   4  12   50.90    4.10
   0  -4 -13   65.60    4.89
   0   4  13   68.64    4.63
   0   4  13   63.21    4.30
   0  -4 -13   74.66    5.27
   0  -4 -13   70.71    5.79
   0  -4 -13   70.13    5.50
   0  -4 -13   71.85    5.52
   0  -4 -13   64.45    4.58
   0  -4 -14   15.03    2.60
   0   4  14   12.08    1.79
   0  -4 -14   11.39    2.12
   0  -4 -14   13.78    2.19
   0   4  14   15.47    2.06
   0  -4 -14   16.26    2.22
   0  -4 -15  118.20    5.38
   0   4  15  102.57    4.75
   0  -4 -15  103.12    5.50
   0   4  15  101.34    4.90
   0  -4 -15  109.57    5.72
   0  -4 -16  111.40    5.00
   0  -4 -16  113.11    4.97
   0   4  16  113.37    4.45
   0  -5  18  171.72    5.80
   0   5 -18  166.86    5.44
   0   5 -18  158.44    5.68
   0   5 -17   29.49    2.42
   0  -5  17   27.02    2.41
   0   5 -17   33.57    3.23
   0  -5  17   29.04    2.32
   0  -5  16   10.19    1.56
   0   5 -16    9.49    1.49
   0  -5  16   11.45    1.66
   0  -5  16    8.48    1.43
   0   5 -16    8.55    1.47
   0  -5  15   68.84    4.26
   0   5 -15   68.55    4.74
   0   5 -15   74.40    4.41
   0  -5  15   67.48    4.37
   0  -5  15   68.40    3.70
   0  -5  15   65.03    4.18
   0  -5  14    3.43    0.99
   0   5 -14    3.95    1.03
   0  -5  14    3.99    1.02
   0   5 -14    2.61    0.79
   0  -5  14    3.81    1.10
   0  -5  14    4.00    0.96
   0  -5  13  156.13    6.96
   0   5 -13  170.10    6.95
   0   5 -13  159.08    6.97
   0   5 -13  162.50    6.83
   0  -5  13  157.25    6.40
   0  -5  13  164.47    6.92
   0   5 -13  167.74    7.58
   0  -5  13  160.98    7.01
   0  -5  12  133.12    6.26
   0   5 -12  117.35    5.49
   0   5 -12  119.21    5.97
   0   5 -12  115.25    5.84
   0   5 -12  117.17    5.06
   0  -5  12  117.68    5.75
   0   5 -12  113.92    5.41
   0   5 -12  114.72    5.58
   0   5 -12  109.02    5.70
   0  -5  12  113.36    5.52
   0  -5  12  119.78    5.83
   0   5 -11  258.87    8.88
   0   5 -11  271.76    8.38
   0   5 -11  247.02    8.65
   0   5 -11  272.02    8.49
   0   5 -11  247.86    8.68
   0  -5  11  270.80    8.92
   0  -5  11  264.25    8.60
   0   5 -11  256.73    7.86
   0  -5  11  268.23    9.06
   0  -5  11  264.38    8.65
   0   5 -11  239.84    8.20
   0   5 -10  117.48    5.07
   0   5 -10  110.93    4.67
   0   5 -10  131.22    5.66
   0   5 -10  124.15    5.05
   0  -5  10  132.85    5.79
   0  -5  10  126.95    5.43
   0   5 -10  135.10    5.33
   0  -5  10  133.76    5.57
   0   5 -10  128.80    5.52
   0   5  -9  354.42    9.60
   0   5  -9  327.06    8.87
   0   5  -9  329.02    9.10
   0  -5   9  371.47    9.84
   0  -5   9  348.20    9.62
   0   5  -9  361.64    9.92
   0  -5   8  481.32   11.88
   0   5  -8  490.88   11.63
   0   5  -8  514.44   12.14
   0   5  -8  475.32   11.08
   0   5  -8  513.67   11.38
   0   5  -7  689.10   14.07
   0  -5   7  697.90   14.98
   0   5  -7  728.72   15.16
   0   5  -7  689.50   14.08
   0  -5   6  339.70    8.84
   0   5  -6  337.88    8.03
   0   5  -6  324.65    7.75
   0   5  -5    3.14    0.66
   0   5  -5    2.23    0.48
   0  -5   5    2.96    0.65
   0   5  -5    2.77    0.57
   0  -5   5    3.17    0.67
   0  -5   4    3.02    0.66
   0  -5   4    3.81    0.72
   0  -5   4    2.77    0.61
   0  -5   4    3.77    0.66
   0  -5   4    3.15    0.53
   0   5  -4    2.71    0.54
   0   5  -4    4.43    0.75
   0  -5   3    8.63    0.60
   0   5  -3   10.47    1.11
   0  -5   3   10.82    1.09
   0   5  -2  319.05    7.76
   0  -5   2  309.88    6.47
   0  -5   2  327.18    7.94
   0  -5   1  158.63    4.30
   0   5  -1  160.02    4.94
   0   5   0  440.67    9.91
   0  -5   0  430.20    9.32
   0  -5   0  427.64    8.30
   0  -5  -1  737.92   13.57
   0  -5  -1  749.62   12.97
   0  -5  -2  369.63    7.22
   0  -5  -2  374.85    8.32
   0  -5  -2  364.28    9.09
   0   5   3 1298.45   23.99
   0  -5  -3 1278.03   21.42
   0  -5  -3 1236.10   23.04
   0  -5  -3 1221.99   23.98
   0  -5  -3 1258.05   21.94
   0   5   4    7.60    1.13
   0  -5  -4    9.11    1.33
   0  -5  -4    8.85    1.15
   0  -5  -4    8.73    0.92
   0  -5  -5   45.35    2.91
   0  -5  -5   45.78    2.41
   0  -5  -5   42.16    2.81
   0   5   5   44.19    2.63
   0  -5  -5   45.52    3.22
   0   5   6   61.40    3.91
   0  -5  -6   55.91    2.97
   0  -5  -6   55.30    3.85
   0  -5  -6   56.43    3.47
   0  -5  -6   53.76    3.48
   0   5   6   58.27    3.78
   0   5   6   62.96    3.28
   0   5   6   51.25    3.13
   0   5   6   55.31    3.06
   0   5   7   13.21    1.91
   0   5   7   10.85    1.50
   0  -5  -7   10.36    1.66
   0   5   7   14.29    1.94
   0   5   7   12.09    1.45
   0  -5  -7   12.37    1.99
   0  -5  -7   12.33    1.47
   0   5   7   11.82    1.45
   0  -5  -7   11.93    1.74
   0  -5  -8   18.95    2.05
   0   5   8   22.74    2.56
   0  -5  -8   24.63    2.71
   0   5   8   21.48    1.99
   0  -5  -8   21.96    2.53
   0  -5  -8   22.46    2.85
   0   5   8   25.07    2.19
   0   5   8   19.68    2.40
   0   5   9   48.10    3.79
   0  -5  -9   40.83    3.70
   0  -5  -9   39.13    3.96
   0  -5  -9   43.43    3.33
   0   5   9   42.37    3.63
   0   5   9   38.50    2.76
   0  -5  -9   35.21    3.92
   0   5   9   38.63    2.79
   0  -5  -9   43.34    3.88
   0  -5 -10   65.74    5.32
   0  -5 -10   65.20    5.03
   0   5  10   59.84    3.52
   0   5  10   64.11    4.57
   0   5  10   64.21    4.51
   0  -5 -10   66.69    5.76
   0  -5 -10   69.99    5.52
   0   5  10   63.32    3.64
   0  -5 -10   70.49    5.32
   0  -5 -11  184.58    9.43
   0  -5 -11  164.65    9.04
   0   5  11  161.74    7.40
   0  -5 -11  185.67    8.37
   0  -5 -11  178.05    8.97
   0   5  11  176.89    6.41
   0   5  11  175.71    7.84
   0  -5 -12  280.30   10.57
   0   5  12  266.12    9.86
   0   5  12  265.05    8.02
   0   5  12  281.19    9.76
   0  -5 -12  257.97   11.55
   0  -5 -12  288.73   11.74
   0  -5 -12  306.46   11.17
   0  -5 -12  289.03   12.33
   0   5  13   55.19    3.82
   0  -5 -13   64.25    5.45
   0  -5 -13   57.18    4.29
   0   5  13   48.10    3.72
   0  -5 -14   89.99    5.10
   0  -5 -14   91.28    5.31
   0   5  14   91.06    4.68
   0  -5 -15  127.21    5.66
   0  -5 -15  137.49    5.57
   0   5  15  128.54    4.97
   0  -6  18    2.61    0.66
   0   6 -18    2.82    0.65
   0  -6  17   31.63    2.24
   0   6 -17   29.99    2.43
   0  -6  17   32.92    2.60
   0   6 -16   20.41    2.22
   0  -6  16   21.63    2.11
   0  -6  16   23.14    2.36
   0  -6  16   21.72    2.21
   0  -6  15  269.44    8.25
   0   6 -15  264.07    9.34
   0   6 -15  273.66    9.26
   0  -6  15  273.78    8.98
   0  -6  15  270.52    9.23
   0  -6  15  277.46    9.51
   0   6 -14  280.41    9.55
   0  -6  14  284.68    9.58
   0  -6  14  253.16    8.53
   0  -6  14  286.51    9.50
   0  -6  14  255.82    9.35
   0   6 -13  172.41    7.13
   0   6 -13  177.40    7.36
   0  -6  13  152.17    6.77
   0   6 -13  150.20    6.14
   0  -6  13  156.24    6.99
   0  -6  13  157.89    6.91
   0  -6  12  428.86   12.55
   0  -6  12  431.66   12.58
   0   6 -12  427.06   12.81
   0  -6  12  466.83   13.53
   0   6 -12  436.79   12.39
   0  -6  12  410.35   12.19
   0   6 -12  454.70   12.44
   0   6 -12  404.08   11.39
   0   6 -11  195.37    7.77
   0   6 -11  225.22    7.77
   0  -6  11  208.23    7.77
   0   6 -11  192.71    7.38
   0   6 -11  209.45    7.22
   0  -6  11  203.65    7.71
   0  -6  11  217.70    8.01
   0  -6  11  199.35    7.80
   0  -6  10   30.09    2.60
   0   6 -10   28.92    2.49
   0  -6  10   28.59    2.64
   0  -6  10   25.81    2.45
   0   6 -10   30.15    2.50
   0   6 -10   28.17    2.32
   0   6 -10   25.55    2.49
   0   6  -9  101.37    4.57
   0   6  -9   91.84    4.30
   0   6  -9   90.07    4.12
   0   6  -9   91.93    4.65
   0  -6   9   99.67    5.01
   0  -6   9   95.32    4.71
   0  -6   8    8.74    1.32
   0   6  -8    8.83    1.34
   0   6  -8    7.60    1.09
   0  -6   8    8.39    1.30
   0  -6   7    1.97    0.65
   0   6  -7    1.71    0.62
   0   6  -7    1.74    0.56
   0  -6   6  179.36    6.18
   0  -6   6  184.01    6.37
   0   6  -6  178.99    6.07
   0   6  -6  182.92    5.63
   0  -6   5   83.02    3.91
   0   6  -5   86.29    3.77
   0  -6   5   92.37    4.13
   0   6  -4  116.44    4.51
   0  -6   4  117.35    4.67
   0  -6   4  119.61    4.71
   0  -6   4  121.52    4.85
   0  -6   4  116.76    4.29
   0  -6   4  122.34    4.48
   0  -6   3  739.57   14.77
   0  -6   3  692.67   14.62
   0  -6   3  730.59   15.46
   0   6  -3  682.75   14.86
   0   6  -2  307.78    8.19
   0  -6   2  294.81    6.81
   0  -6   1  547.84   12.51
   0  -6   1  538.45   11.31
   0   6  -1  577.68   12.60
   0  -6   0  500.82   11.05
   0   6   0  481.53   11.47
   0  -6  -1   82.46    3.78
   0   6   1   89.35    4.01
   0  -6  -2    2.64    0.45
   0  -6  -2    2.87    0.82
   0   6   2    3.03    0.77
   0  -6  -3    6.00    0.96
   0  -6  -3    8.67    0.91
   0   6   3    7.51    1.21
   0  -6  -3    7.59    1.29
   0   6   4    0.41    0.41
   0  -6  -4    0.52    0.33
   0  -6  -4    0.85    0.49
   0  -6  -4    0.15    0.20
   0  -6  -4    0.73    0.53
   0  -6  -5    7.54    1.01
   0   6   5    8.42    1.25
   0  -6  -5    7.95    1.32
   0   6   5    7.82    1.38
   0  -6  -5    7.03    1.24
   0   6   5    8.85    1.50
   0   6   5    7.87    1.22
   0  -6  -5    7.65    1.48
   0  -6  -6  242.87    9.72
   0  -6  -6  253.15    7.64
   0  -6  -6  242.48    8.63
   0  -6  -6  259.53    8.88
   0   6   6  280.32    9.49
   0   6   6  279.61    8.21
   0   6   6  261.73    8.05
   0   6   6  250.77    8.15
   0   6   6  264.90    9.31
   0   6   7  160.92    7.01
   0  -6  -7  144.92    7.68
   0  -6  -7  140.73    6.61
   0   6   7  138.75    6.65
   0  -6  -7  146.05    6.80
   0  -6  -7  145.74    5.81
   0  -6  -8  394.13   12.97
   0   6   8  424.38   12.75
   0  -6  -8  410.94   11.62
   0   6   8  400.27   11.01
   0  -6  -8  397.90   13.88
   0   6   8  389.18   12.46
   0  -6  -8  375.95   12.77
   0  -6  -8  433.02   14.97
   0  -6  -9  112.82    7.21
   0   6   9  105.86    5.04
   0  -6  -9  119.00    7.30
   0  -6  -9  110.61    6.59
   0   6   9  109.68    5.97
   0   6   9  114.17    6.13
   0   6  10  176.33    7.80
   0  -6 -10  179.72    9.49
   0   6  10  182.16    7.79
   0  -6 -10  181.74    8.94
   0  -6 -10  193.10    8.28
   0  -6 -10  192.54    9.77
   0   6  11  217.59    8.57
   0   6  11  213.71    8.35
   0  -6 -11  225.27    9.07
   0  -6 -11  231.39    9.34
   0  -6 -11  218.37   10.61
   0  -6 -11  214.62    9.92
   0   6  11  198.63    7.01
   0  -6 -11  222.77   10.74
   0  -6 -12   17.42    2.96
   0   6  12   13.02    1.89
   0  -6 -12   12.58    1.95
   0   6  12   11.21    1.37
   0  -6 -13   10.35    1.72
   0   6  13    9.37    1.38
   0  -6 -13   12.20    1.78
   0  -6 -14   10.59    1.58
   0   6  14    9.51    1.26
   0   7 -18  138.70    4.66
   0   7 -18  127.83    4.23
   0  -7  18  142.69    4.83
   0  -7  17  144.07    5.53
   0  -7  17  143.29    5.39
   0   7 -17  129.53    5.21
   0  -7  16  184.68    6.97
   0  -7  16  172.86    6.60
   0  -7  16  158.49    5.82
   0   7 -16  177.85    6.75
   0  -7  15   86.73    4.25
   0   7 -15   84.54    4.76
   0  -7  15   91.26    4.55
   0  -7  15   92.48    4.94
   0  -7  15   91.60    5.01
   0   7 -14   20.87    2.13
   0  -7  14   19.52    2.31
   0  -7  14   21.41    2.19
   0  -7  14   22.92    2.38
   0  -7  14   21.60    2.43
   0   7 -14   21.76    2.46
   0  -7  13   16.11    2.18
   0   7 -13   17.95    2.22
   0  -7  13   18.29    2.24
   0   7 -13   16.48    1.99
   0  -7  13   17.45    2.17
   0   7 -12   19.53    2.25
   0  -7  12   23.10    2.52
   0   7 -12   22.81    2.29
   0  -7  12   22.21    2.50
   0  -7  12   23.79    2.56
   0  -7  12   22.86    2.56
   0   7 -12   17.97    2.40
   0  -7  11    0.30    0.53
   0  -7  11    0.36    0.42
   0   7 -11   -0.74    0.80
   0  -7  11    2.02    0.86
   0   7 -11    0.71    0.57
   0   7 -11    0.89    0.50
   0  -7  10   38.53    3.18
   0   7 -10   41.61    3.16
   0  -7  10   42.36    3.37
   0   7 -10   40.39    3.11
   0   7 -10   29.44    2.54
   0   7 -10   40.27    3.22
   0  -7  10   39.49    3.19
   0   7  -9  157.28    6.19
   0  -7   9  157.64    6.54
   0  -7   9  160.14    6.81
   0   7  -9  145.51    5.80
   0   7  -9  147.71    6.29
   0   7  -8  249.98    9.14
   0   7  -8  270.04    8.23
   0   7  -8  243.32    7.57
   0  -7   8  260.73    8.48
   0  -7   8  259.97    8.63
   0   7  -8  239.91    8.14
   0  -7   7  245.14    8.19
   0   7  -7  236.85    7.16
   0   7  -7  237.80    7.53
   0   7  -7  216.73    7.44
   0  -7   7  249.66    8.08
   0   7  -6  357.46   10.02
   0  -7   6  358.22   10.42
   0   7  -5  814.35   17.81
   0  -7   5  863.18   18.32
   0  -7   5  818.31   18.03
   0  -7   4  671.59   15.34
   0   7  -4  643.54   15.07
   0  -7   4  682.63   14.97
   0  -7   4  675.96   14.66
   0  -7   4  647.73   15.29
   0  -7   3  148.07    5.53
   0   7  -3  159.79    5.87
   0  -7   3  156.69    5.59
   0  -7   3  169.51    6.31
   0  -7   2   80.15    4.10
   0  -7   2   75.72    3.85
   0   7  -2   73.72    3.86
   0  -7   1  236.48    7.11
   0  -7   1  214.93    6.41
   0   7  -1  236.35    7.48
   0  -7   1  230.56    7.52
   0   7   0   59.20    3.48
   0  -7   0   59.30    3.28
   0   7   1   92.78    4.54
   0  -7  -1   94.40    4.54
   0   7   2  355.61   10.19
   0   7   2  368.03   10.75
   0  -7  -2  350.31    9.25
   0   7   2  372.94   10.02
   0   7   3  421.32   10.91
   0   7   3  403.30   11.29
   0   7   3  429.62   12.04
   0   7   3  406.70   11.02
   0  -7  -3  369.97   11.62
   0   7   3  377.05   10.06
   0  -7  -3  417.41   10.70
   0   7   4  217.55    7.84
   0   7   4  195.79    7.08
   0   7   4  220.19    7.35
   0  -7  -4  197.08    8.36
   0   7   4  208.10    6.96
   0  -7  -4  207.17    7.43
   0   7   4  209.45    8.06
   0   7   5  236.97    7.91
   0   7   5  229.09    7.70
   0  -7  -5  239.74    8.56
   0   7   5  246.21    9.02
   0   7   5  228.78    7.74
   0  -7  -5  222.99    9.59
   0   7   6  136.16    6.61
   0  -7  -6  139.02    6.69
   0  -7  -6  146.26    7.98
   0   7   6  141.68    5.92
   0   7   6  131.02    5.61
   0  -7  -7   69.13    4.94
   0   7   7   70.43    4.70
   0  -7  -7   80.03    6.15
   0  -7  -7   71.62    5.51
   0   7   7   74.42    4.19
   0  -7  -7   75.46    5.80
   0   7   8   72.14    4.23
   0  -7  -8   78.69    5.98
   0  -7  -8   78.51    6.17
   0   7   8   75.30    4.90
   0  -7  -8   80.12    5.52
   0  -7  -9    0.89    1.00
   0  -7  -9    1.10    0.77
   0  -7  -9    1.60    1.15
   0   7   9    0.52    0.50
   0   7   9    0.51    0.69
   0  -7 -10   27.79    3.72
   0   7  10   24.07    2.24
   0   7  10   22.78    2.57
   0  -7 -10   30.35    3.53
   0  -7 -10   34.19    4.06
   0  -7 -11   14.51    2.62
   0   7  11   12.47    1.82
   0   7  12  133.32    5.63
   0  -7 -12  129.32    6.29
   0  -7 -13  110.84    5.11
   0   7  13  108.09    4.43
   0   8 -18   75.44    3.09
   0  -8  18   79.71    3.19
   0  -8  17   28.71    2.18
   0  -8  17   29.16    2.16
   0   8 -17   30.85    2.25
   0   8 -17   25.91    1.76
   0   8 -16   19.76    2.00
   0  -8  16   19.94    2.03
   0   8 -16   16.98    1.63
   0  -8  16   23.52    2.18
   0  -8  15   54.74    3.60
   0  -8  15   50.31    3.13
   0   8 -15   49.63    3.47
   0  -8  15   54.44    3.64
   0  -8  15   50.54    3.08
   0  -8  14    1.53    0.62
   0   8 -14    0.46    0.52
   0   8 -14    0.72    0.41
   0  -8  14    0.72    0.61
   0  -8  14    2.55    0.88
   0   8 -13   10.41    1.61
   0   8 -13   10.39    1.72
   0  -8  13   13.35    2.00
   0  -8  13   10.39    1.70
   0  -8  13   11.61    1.71
   0  -8  12  377.32   11.82
   0   8 -12  372.60   11.16
   0  -8  12  406.13   11.96
   0  -8  12  405.67   12.15
   0   8 -12  382.26   11.45
   0  -8  11  363.17   11.24
   0   8 -11  353.21   10.68
   0  -8  11  365.18   11.46
   0   8 -11  355.85   10.90
   0  -8  11  353.46   11.14
   0  -8  10  274.22    9.66
   0   8 -10  275.44    9.62
   0   8 -10  292.84    9.38
   0   8 -10  272.74    9.03
   0  -8  10  290.07    9.65
   0  -8  10  285.10    9.74
   0   8  -9  260.05   10.16
   0  -8   9  259.54    9.60
   0   8  -9  285.39    8.91
   0   8  -9  284.39    8.62
   0   8  -9  297.22    9.72
   0  -8   9  297.22    9.83
   0   8  -9  294.80    9.31
   0  -8   8  115.45    5.56
   0   8  -8  106.44    5.42
   0   8  -8  116.91    5.29
   0   8  -8  108.36    4.96
   0   8  -8  104.06    5.96
   0   8  -7  102.66    4.86
   0  -8   7  114.66    5.47
   0   8  -7  109.96    4.86
   0   8  -7  107.14    5.31
   0   8  -7  111.27    6.05
   0  -8   7  117.12    5.69
   0   8  -6   14.98    1.77
   0   8  -6   17.08    1.97
   0  -8   6   16.18    1.97
   0   8  -6   15.19    1.67
   0  -8   6   15.16    1.91
   0   8  -6   15.69    2.49
   0   8  -6   14.03    1.89
   0  -8   5   58.64    3.78
   0   8  -5   56.71    3.68
   0   8  -5   58.67    3.88
   0  -8   5   52.47    3.62
   0   8  -5   57.68    3.27
   0  -8   4   28.08    2.58
   0  -8   4   34.74    2.98
   0  -8   4   34.62    2.71
   0   8  -4   40.20    3.39
   0  -8   4   31.72    2.73
   0   8  -4   34.26    2.79
   0   8  -4   30.25    2.31
   0   8  -4   34.35    2.94
   0  -8   3   57.89    3.56
   0   8  -3   55.03    3.12
   0  -8   3   55.06    3.37
   0   8  -3   56.87    3.63
   0  -8   3   58.01    3.80
   0   8  -3   57.35    3.80
   0  -8   3   56.33    3.58
   0   8  -3   63.07    4.26
   0   8  -2    8.99    1.43
   0   8  -2    5.42    1.19
   0   8  -2   10.17    1.69
   0  -8   2    6.16    1.22
   0  -8   2    4.57    1.04
   0   8  -1  237.90    8.32
   0  -8   1  263.91    8.97
   0   8  -1  258.80    8.84
   0   8  -1  284.82    9.43
   0  -8   0  345.21   10.83
   0   8   0  363.84   10.95
   0   8   0  346.68   10.62
   0   8   0  326.81   10.15
   0  -8   0  333.92   10.28
   0  -8  -1  271.35    9.62
   0   8   1  235.51    8.16
   0  -8  -1  239.10    8.61
   0   8   1  252.66    8.63
   0   8   1  261.92    9.04
   0   8   1  284.92    9.30
   0  -8  -1  237.99    8.76
   0  -8  -2  144.89    6.83
   0   8   2  164.15    6.83
   0   8   2  155.79    6.87
   0  -8  -2  150.65    7.01
   0   8   2  145.94    6.43
   0   8   2  157.19    6.36
   0   8   3  261.42    9.36
   0   8   3  262.85    9.05
   0  -8  -3  245.19    9.75
   0   8   3  244.44    7.80
   0   8   3  243.32    8.37
   0  -8  -3  244.84    9.74
   0   8   4   89.49    5.04
   0  -8  -4   83.51    5.68
   0   8   4   78.52    4.45
   0   8   4   77.77    4.89
   0  -8  -4   76.60    5.52
   0   8   4   76.51    4.13
   0   8   5    2.08    0.87
   0  -8  -5    0.21    0.62
   0  -8  -5    3.01    1.05
   0   8   5    1.21    0.70
   0  -8  -5    2.40    1.09
   0  -8  -5    3.26    1.28
   0   8   6    4.06    1.14
   0   8   6    5.02    1.12
   0  -8  -6    4.45    1.54
   0  -8  -6    4.86    1.41
   0  -8  -6    4.65    1.42
   0  -8  -7   46.21    4.74
   0   8   7   43.75    3.66
   0   8   7   37.13    3.01
   0  -8  -7   42.12    4.34
   0  -8  -7   47.48    4.23
   0  -8  -8   22.39    3.42
   0   8   8   23.68    2.63
   0  -8  -8   24.88    3.08
   0  -8  -8   24.77    3.44
   0   8   8   19.76    2.14
   0  -8  -9   41.35    4.01
   0  -8  -9   43.93    4.65
   0   8   9   40.71    3.32
   0  -8  -9   41.82    4.63
   0   8  10  110.05    5.30
   0  -8 -11  102.18    5.18
   0   8  11   98.30    4.59
   0  -8 -12   78.53    3.90
   0   8  12   82.13    3.62
   0   9 -17   24.47    1.82
   0  -9  17   27.35    1.91
   0  -9  16  148.24    5.43
   0   9 -16  143.76    5.39
   0  -9  16  150.04    5.55
   0  -9  15  252.00    8.18
   0  -9  15  259.96    8.16
   0   9 -15  246.55    8.08
   0  -9  15  257.14    7.52
   0  -9  14  201.42    7.37
   0   9 -14  196.18    7.27
   0  -9  14  200.74    7.49
   0   9 -14  191.90    6.28
   0   9 -13  138.47    5.36
   0  -9  13  130.15    6.12
   0  -9  13  150.27    6.41
   0  -9  13  145.06    5.89
   0   9 -13  129.05    5.82
   0   9 -13  139.22    6.10
   0  -9  12   14.65    1.98
   0   9 -12   11.82    1.50
   0   9 -12   15.13    1.95
   0  -9  12   14.21    1.85
   0  -9  12   13.62    1.96
   0  -9  12   14.24    1.98
   0   9 -12   11.68    1.68
   0  -9  11   65.54    4.39
   0  -9  11   61.15    4.09
   0   9 -11   68.23    4.25
   0  -9  11   68.34    4.28
   0   9 -11   63.02    3.60
   0   9 -11   70.67    4.28
   0  -9  10  112.47    5.72
   0   9 -10  110.98    5.45
   0   9 -10  115.44    5.55
   0  -9  10  111.59    5.63
   0   9 -10  109.49    6.42
   0  -9  10  119.94    6.04
   0  -9   9   10.14    1.74
   0   9  -9    7.00    1.54
   0  -9   9    7.75    1.47
   0   9  -9    8.28    1.43
   0   9  -9    9.09    1.47
   0   9  -9    8.05    1.56
   0  -9   8    1.50    0.82
   0   9  -8    0.89    0.71
   0   9  -8    1.05    0.41
   0  -9   8    1.08    0.52
   0   9  -8    1.54    0.73
   0   9  -8    0.74    0.48
   0   9  -7   45.94    4.03
   0   9  -7   52.34    3.43
   0  -9   7   56.01    4.00
   0   9  -7   49.62    3.74
   0   9  -7   52.46    3.43
   0  -9   7   50.79    3.71
   0   9  -6  159.98    6.20
   0   9  -6  174.70    7.45
   0  -9   6  164.07    7.13
   0   9  -6  170.60    8.05
   0  -9   6  170.19    7.06
   0   9  -6  168.79    6.41
   0   9  -6  173.06    7.23
   0   9  -5  189.69    7.51
   0  -9   5  201.48    7.80
   0   9  -5  173.70    7.41
   0  -9   5  180.81    7.33
   0   9  -5  185.30    6.67
   0  -9   4  222.18    8.38
   0   9  -4  232.51    8.63
   0  -9   4  224.35    8.30
   0   9  -4  211.56    8.09
   0   9  -4  240.81    9.38
   0   9  -4  200.63    7.13
   0   9  -3  273.55    9.52
   0   9  -3  268.94    9.25
   0   9  -3  291.29   10.31
   0  -9   3  280.72    9.54
   0   9  -3  247.75    7.86
   0  -9   3  279.83    9.88
   0  -9   3  251.09    8.83
   0  -9   3  266.32    9.33
   0   9  -2  173.34    7.65
   0  -9   2  169.37    7.55
   0  -9   2  165.42    6.75
   0  -9   2  169.11    7.24
   0   9  -2  159.57    6.91
   0   9  -2  171.29    7.25
   0  -9   2  162.90    6.87
   0   9  -1  177.12    7.52
   0  -9   1  205.87    8.49
   0   9  -1  202.18    8.26
   0  -9   1  172.57    7.44
   0   9  -1  181.30    7.42
   0   9   0  110.29    5.84
   0   9   0  117.76    5.87
   0   9   0  126.89    6.33
   0   9   1   12.05    1.95
   0  -9  -1   13.55    2.32
   0   9   1   12.33    1.89
   0   9   1   12.30    1.89
   0   9   2    7.76    1.56
   0   9   2   10.83    1.79
   0  -9  -2    9.28    1.90
   0   9   2    7.61    1.55
   0   9   3   26.72    2.82
   0   9   3   25.41    2.27
   0   9   3   23.38    2.62
   0  -9  -3   23.71    3.05
   0  -9  -4  209.21    9.72
   0   9   4  208.41    8.46
   0  -9  -4  214.53    9.29
   0  -9  -5  343.78   12.73
   0  -9  -5  340.57   13.32
   0   9   5  371.71   11.71
   0  -9  -6   95.01    6.77
   0  -9  -6   97.23    6.51
   0   9   6   88.80    5.20
   0  -9  -7   10.96    2.12
   0  -9  -7   12.10    2.47
   0   9   7   10.51    1.69
   0  -9  -8   44.01    4.46
   0   9   8   40.34    3.18
   0   9   9  177.12    6.63
   0   9  10   57.89    3.23
   0   9  11    7.28    0.97
   0 -10  16   66.86    3.10
   0  10 -16   64.11    3.02
   0 -10  15   59.47    3.25
   0 -10  15   55.35    2.81
   0 -10  15   59.31    3.22
   0  10 -15   57.40    3.14
   0 -10  14    5.29    1.09
   0 -10  14    4.69    0.98
   0  10 -14    4.86    0.98
   0 -10  13    2.95    0.78
   0  10 -13    1.99    0.73
   0 -10  13    1.98    0.65
   0  10 -12  114.86    5.27
   0 -10  12  125.24    5.92
   0  10 -12  107.97    5.26
   0 -10  12  123.33    5.28
   0 -10  12  109.12    5.32
   0 -10  12  120.20    5.64
   0 -10  11   96.34    5.07
   0  10 -11   97.50    5.02
   0 -10  11  104.75    5.48
   0 -10  11   95.65    4.84
   0  10 -11   94.80    4.81
   0  10 -11  102.35    6.02
   0 -10  10  247.91    8.82
   0  10 -10  243.27    8.58
   0 -10  10  261.79    9.27
   0  10 -10  251.72    8.38
   0  10 -10  253.85   10.35
   0 -10  10  253.48    8.75
   0 -10   9    1.73    0.71
   0 -10   9   -0.07    0.44
   0  10  -9    1.73    0.82
   0  10  -9    1.44    0.66
   0  10  -9    2.03    1.04
   0  10  -8  405.27   11.08
   0  10  -8  408.00   13.86
   0 -10   8  402.07   12.21
   0  10  -7  320.37   12.06
   0  10  -7  320.87    9.45
   0  10  -7  314.45    9.77
   0 -10   7  314.91   10.37
   0  10  -6  251.57   10.27
   0  10  -6  222.89    8.86
   0 -10   6  244.77    8.88
   0 -10   6  259.82    9.47
   0  10  -6  219.66    7.87
   0 -10   5  127.29    6.22
   0  10  -5  133.15    7.16
   0  10  -5  111.30    5.23
   0  10  -5  127.54    6.32
   0 -10   5  131.27    6.53
   0  10  -5  129.74    6.45
   0  10  -4   10.58    1.97
   0 -10   4   10.56    1.80
   0 -10   4   13.44    2.02
   0  10  -4   12.61    2.01
   0  10  -4    9.70    1.77
   0 -10   3   40.69    3.68
   0  10  -3   44.07    3.65
   0  10  -3   40.86    3.44
   0 -10   3   40.10    3.49
   0  10  -3   38.69    3.77
   0 -10   2   94.95    5.45
   0  10  -2   88.87    5.20
   0  10  -2   92.61    5.78
   0 -10   2   97.32    5.84
   0  10  -2   98.79    5.53
   0 -10   1   90.93    5.46
   0  10  -1   84.96    5.44
   0  10  -1   79.59    4.90
   0  10  -1   90.08    5.29
   0 -10   0    2.59    0.99
   0  10   0    3.59    1.04
   0  10   0    3.35    1.07
   0 -10   0    5.12    1.31
   0 -10  -1  138.50    7.38
   0  10   1  122.59    6.33
   0  10   1  135.69    6.77
   0  10   2   33.74    3.23
   0  10   2   35.94    3.30
   0  10   3   27.89    2.88
   0  10   4  619.24   16.09
   0 -10  -4  613.45   18.56
   0  10   5   67.44    4.29
   0  10   6   16.49    2.05
   0  10   7   59.48    3.62
   0  10   8    1.97    0.67
   0  10   9   22.85    1.83
   0  11 -15   32.23    1.93
   0 -11  15   38.26    2.24
   0  11 -14   78.47    3.45
   0 -11  14   82.94    3.74
   0 -11  14   79.92    3.72
   0 -11  13  104.45    4.55
   0  11 -13   91.01    4.00
   0 -11  13   95.75    4.38
   0  11 -12  203.81    6.67
   0 -11  12  209.46    7.21
   0 -11  12  210.96    7.22
   0 -11  11  196.68    7.42
   0  11 -11  179.17    7.91
   0  11 -11  175.52    6.21
   0 -11  11  177.32    6.81
   0  11 -10    1.57    1.02
   0  11 -10    1.78    0.66
   0 -11  10    1.43    0.78
   0 -11  10    1.57    0.70
   0 -11  10    1.97    0.75
   0 -11   9    6.98    1.31
   0  11  -9    6.94    1.15
   0 -11   9    4.61    1.19
   0 -11   9    5.90    1.25
   0  11  -9    3.75    1.33
   0 -11   8  233.94    8.89
   0  11  -8  228.95    7.33
   0  11  -8  249.13   10.39
   0  11  -7   48.18    4.42
   0 -11   7   44.43    3.75
   0  11  -6    0.45    0.62
   0  11  -5   45.20    4.21
   0 -11   5   48.41    3.77
   0 -11   5   50.33    4.11
   0  11  -5   44.59    3.65
   0  11  -4   53.13    4.54
   0  11  -4   57.10    4.16
   0 -11   4   64.33    4.75
   0 -11   4   63.18    4.42
   0  11  -3   83.26    5.67
   0  11  -3   81.80    5.01
   0 -11   3   95.16    5.99
   0 -11   3   75.65    5.05
   0  11  -2    0.57    0.57
   0 -11   2    0.02    0.52
   0  11  -2    0.64    0.71
   0 -11   2    1.81    0.76
   0 -11   1  193.64    8.73
   0  11  -1  179.54    8.33
   0  11  -1  171.17    7.49
   0  11   0  490.64   14.70
   0  11   0  467.52   13.75
   0  11   1   41.15    3.60
   0  11   1   39.36    3.31
   0 -11  -1   41.91    3.99
   0 -11  -2   14.44    2.38
   0  11   2   14.78    2.00
   0  11   3   92.64    4.95
   0  11   4   59.33    3.77
   0  11   5    9.46    1.40
   0  11   6   85.80    4.07
   0  11   7   35.50    2.28
   0  11   8   31.94    1.89
   0 -12  14   71.93    2.97
   0 -12  13   87.01    3.67
   0 -12  12   30.84    2.28
   0 -12  12   26.71    2.11
   0  12 -11    0.05    0.63
   0 -12  11    0.31    0.48
   0 -12  11    1.31    0.58
   0 -12  10   25.82    2.35
   0  12 -10   24.47    2.75
   0  12  -9    6.99    1.57
   0 -12   9    6.16    1.23
   0 -12   8   26.36    2.42
   0  12  -8   23.55    2.96
   0 -12   8   28.15    2.62
   0 -12   8   23.72    2.56
   0 -12   7  167.80    7.37
   0  12  -7  141.20    7.51
   0  12  -6  187.38    8.84
   0 -12   6  214.00    8.71
   0  12  -5   74.99    5.29
   0  12  -4  160.25    6.80
   0  12  -4  161.70    7.94
   0  12  -3  220.20    8.24
   0  12  -3  230.61    9.58
   0 -12   2  157.06    7.49
   0  12  -2  135.88    6.22
   0  12  -2  136.01    7.09
   0 -12   1    4.85    1.33
   0  12  -1    5.17    1.20
   0  12  -1    3.82    1.04
   0  12   0  154.54    6.48
   0 -12   0  173.13    8.03
   0  12   0  153.12    7.08
   0  12   1    9.22    1.45
   0  12   1    9.97    1.57
   0  12   2    0.63    0.38
   0  12   3   45.72    2.98
   0  12   4    9.74    1.28
   0  12   5   85.41    3.57
   0  12   6   60.15    2.60
   0 -13  12   70.26    2.99
   0 -13  11   26.56    1.93
   0  13 -10  114.28    5.26
   0  13  -9  133.23    6.19
   0  13  -8   18.59    2.33
   0 -13   8   19.75    1.95
   0 -13   7  101.96    4.71
   0  13  -7   85.58    5.20
   0 -13   6   65.78    3.76
   0  13  -6   51.99    4.05
   0  13  -5    1.89    0.73
   0  13  -4   35.47    3.29
   0  13  -3    2.56    0.84
   0  13  -2   70.15    4.43
   0  13  -2   67.02    3.65
   0  13  -1    0.29    0.44
   0  13  -1    0.34    0.43
   0  13   0   16.80    1.69
   0  13   1   42.93    2.58
   0  13   2  103.82    3.97
   0  13   3   50.52    2.43
   0  14  -8    9.54    1.36
   0  14  -7    6.81    1.19
   0  14  -6    5.62    1.11
   0  14  -5    5.82    1.11
   0  14  -4   10.55    1.38
   0  14  -3  108.90    4.65
  -1  14  -2   20.64    1.91
  -1  14  -3   14.10    1.74
  -1  14  -4    1.01    0.60
  -1  14  -5    1.54    0.60
  -1  14  -6    5.87    1.18
  -1  14  -7   46.84    3.20
  -1  14  -8   47.79    3.04
  -1  13   2   66.66    2.89
  -1  13   1    4.15    0.77
  -1  13   0   26.41    2.50
  -1  13  -1    1.40    0.77
  -1  13  -2   76.59    4.88
  -1  13  -3    6.65    1.47
  -1  13  -4   73.61    4.99
  -1  13  -5   33.04    3.32
  -1  13  -6  104.19    5.99
  -1  13  -7  204.62    8.56
  -1  13  -8   85.41    5.20
   1 -13   8   92.25    3.86
  -1  13  -9   20.35    2.35
  -1  13 -10   10.81    1.59
   1 -13  12    0.97    0.34
  -1  12   5   14.39    1.32
  -1  12   4   32.40    2.20
  -1  12   3    0.45    0.48
  -1  12   2   13.83    1.65
  -1  12   1   29.50    2.51
  -1  12   1   27.93    2.84
  -1  12   0   44.48    3.19
  -1  12   0   40.68    3.66
  -1  12  -1  198.80    8.89
  -1  12  -1  201.42    7.41
  -1  12  -2  316.56    9.90
  -1  12  -2  320.81   11.92
  -1  12  -3   93.90    6.19
   1 -12   4   52.81    3.72
  -1  12  -4   53.11    4.68
  -1  12  -5   54.95    4.78
   1 -12   5   62.60    4.15
  -1  12  -6    1.08    0.78
   1 -12   6    1.11    0.40
  -1  12  -7   10.57    2.01
   1 -12   7   13.10    1.89
  -1  12  -8   14.28    2.38
  -1  12  -9   14.26    2.29
   1 -12   9   15.28    1.71
  -1  12 -10   16.07    2.20
   1 -12  10   18.60    1.81
  -1  12 -11  119.50    4.58
   1 -12  11  136.03    4.93
   1 -12  12  178.42    5.51
   1 -12  13  102.03    3.86
  -1  11   7    5.39    0.87
  -1  11   6   20.28    1.82
  -1  11   5   42.12    2.87
  -1  11   4   47.36    3.22
  -1  11   3  209.36    6.88
  -1  11   3  215.20    7.72
  -1  11   2  203.19    7.68
  -1  11   2  201.07    6.70
  -1  11   2  195.23    8.34
  -1  11   1   96.32    5.19
  -1  11   1   95.40    5.92
  -1  11   1   95.63    4.30
  -1  11   0    3.77    1.07
  -1  11   0    3.38    1.12
  -1  11  -1  129.29    5.15
  -1  11  -1  118.44    7.09
  -1  11  -1  128.13    6.19
  -1  11  -2   88.03    4.22
  -1  11  -2   83.48    6.02
  -1  11  -2   82.20    4.92
  -1  11  -3   10.96    1.44
  -1  11  -3   11.01    1.72
  -1  11  -3   11.63    2.18
  -1  11  -4    0.88    0.58
   1 -11   4    0.06    0.36
  -1  11  -4   -0.22    0.83
  -1  11  -5   16.90    2.68
   1 -11   5   13.15    1.96
  -1  11  -5   15.30    1.70
  -1  11  -6  145.23    8.32
  -1  11  -6  132.74    5.34
   1 -11   6  133.21    6.49
  -1  11  -7   20.27    2.09
   1 -11   7   22.97    2.57
  -1  11  -7   19.85    3.00
  -1  11  -7   18.88    1.88
   1 -11   7   22.18    2.19
   1 -11   8  116.46    5.95
  -1  11  -8  101.87    4.57
   1 -11   8  120.95    5.34
  -1  11  -8  112.25    7.12
  -1  11  -8  113.03    5.21
  -1  11  -9  251.67    8.35
  -1  11  -9  241.62    7.56
   1 -11   9  269.72    8.50
  -1  11  -9  249.12   10.74
   1 -11   9  269.14    9.41
  -1  11 -10   66.42    5.00
   1 -11  10   75.43    4.08
  -1  11 -10   64.98    3.42
   1 -11  10   70.86    3.93
   1 -11  10   79.07    4.63
  -1  11 -10   73.93    4.09
  -1  11 -11  208.41    6.51
   1 -11  11  218.62    7.24
  -1  11 -11  214.21    7.34
   1 -11  11  228.11    7.47
  -1  11 -12   23.23    1.79
  -1  11 -12   26.07    2.23
   1 -11  12   22.47    2.04
   1 -11  12   23.87    2.04
   1 -11  13   20.76    1.88
   1 -11  13   21.55    1.89
   1 -11  13   24.68    2.34
  -1  11 -13   17.63    1.45
   1 -11  13   22.89    1.87
  -1  11 -13   20.63    1.86
  -1  11 -14    1.57    0.50
   1 -11  14    1.30    0.45
   1 -11  14    1.12    0.37
   1 -11  15   28.97    1.66
  -1  11 -15   26.40    1.71
  -1  10   9   99.29    3.75
  -1  10   8   53.44    3.01
  -1  10   7   65.77    3.68
  -1  10   7   68.19    3.76
  -1  10   6  230.18    7.88
  -1  10   6  253.34    8.29
  -1  10   5   44.59    3.34
  -1  10   5   41.56    3.02
  -1  10   5   43.40    3.19
  -1  10   4  131.42    5.95
  -1  10   4  141.17    5.90
  -1  10   4  146.29    6.45
  -1  10   3   13.36    1.78
  -1  10   3   16.26    1.91
  -1  10   3   17.39    2.18
  -1  10   2   47.07    4.13
  -1  10   2   43.30    3.25
  -1  10   2   48.41    3.71
  -1  10   2   50.86    3.25
  -1  10   1  337.49   12.54
  -1  10   1  364.57   11.58
  -1  10   0   52.71    3.30
  -1  10   0   45.31    4.24
  -1  10   0   46.27    3.69
   1 -10   0   48.47    3.93
  -1  10   0   50.79    3.11
  -1  10  -1   60.91    3.34
  -1  10  -1   60.02    5.05
  -1  10  -1   57.16    3.50
  -1  10  -1   66.91    4.42
   1 -10   1   62.36    4.44
  -1  10  -2  164.61    8.57
  -1  10  -2  158.37    6.15
   1 -10   2  172.87    7.48
  -1  10  -2  167.32    7.26
  -1  10  -3  287.80    8.92
  -1  10  -3  303.26   12.35
  -1  10  -3  318.61   10.50
   1 -10   3  316.12   10.46
  -1  10  -4  138.18    8.06
  -1  10  -4  142.02    6.56
   1 -10   4  131.56    6.33
  -1  10  -4  121.87    5.34
   1 -10   5  268.56    9.50
  -1  10  -5  273.45   11.74
  -1  10  -5  266.00    8.64
  -1  10  -5  274.97    8.51
   1 -10   6  576.27   14.26
  -1  10  -6  594.69   14.62
  -1  10  -6  540.69   13.80
  -1  10  -6  565.73   18.32
   1 -10   6  581.30   15.48
   1 -10   7    5.76    1.30
  -1  10  -7    4.89    1.63
  -1  10  -7    7.85    1.33
  -1  10  -7    6.26    1.24
   1 -10   7    5.74    1.19
  -1  10  -8    0.91    0.54
  -1  10  -8    0.50    0.56
   1 -10   8    1.28    0.51
  -1  10  -8    1.35    0.65
   1 -10   8    0.84    0.49
  -1  10  -9   71.23    4.33
   1 -10   9   73.13    4.64
  -1  10  -9   61.98    3.73
   1 -10   9   68.06    4.05
  -1  10  -9   66.81    5.43
  -1  10 -10   11.67    1.74
   1 -10  10    9.92    1.54
   1 -10  10   10.67    1.59
  -1  10 -10   10.75    2.18
   1 -10  10   12.30    1.88
  -1  10 -10    9.59    1.42
  -1  10 -11    0.85    0.57
   1 -10  11    1.05    0.77
  -1  10 -11    1.47    0.66
   1 -10  11    2.68    0.89
   1 -10  11    1.36    0.57
  -1  10 -12   70.63    4.13
   1 -10  12   67.74    3.87
  -1  10 -12   60.93    3.47
   1 -10  12   66.57    3.82
  -1  10 -13   76.61    4.19
  -1  10 -13   79.05    3.79
   1 -10  13   81.61    4.10
   1 -10  13   79.22    4.01
  -1  10 -14   93.10    4.34
   1 -10  14   89.35    4.06
   1 -10  14   83.83    4.40
  -1  10 -14   78.63    3.58
   1 -10  14   91.41    4.13
   1 -10  14   90.61    4.03
   1 -10  15   83.19    3.49
   1 -10  15   79.95    3.44
  -1  10 -15   75.72    3.13
  -1  10 -15   82.57    3.73
  -1  10 -16  129.90    4.25
  -1   9  10   87.37    3.95
  -1   9  10  101.03    4.09
  -1   9   9   74.30    3.84
  -1   9   9   78.64    3.98
  -1   9   8   66.35    3.95
  -1   9   8   65.42    3.84
   1  -9  -8   75.38    5.47
   1  -9  -7  205.92    8.44
  -1   9   7  184.59    7.21
  -1   9   7  199.14    7.30
  -1   9   7  195.41    7.47
  -1   9   6  160.30    6.60
  -1   9   6  147.12    6.38
  -1   9   6  159.58    6.86
   1  -9  -6  167.23    7.21
  -1   9   5    1.90    0.84
  -1   9   5    0.49    0.54
   1  -9  -5    0.40    0.57
  -1   9   5    0.46    0.46
  -1   9   4   80.01    4.48
  -1   9   4   81.02    4.39
  -1   9   4   81.86    4.93
  -1   9   3   10.26    1.75
  -1   9   3    8.01    1.40
   1  -9  -3    9.05    1.74
  -1   9   3    8.30    1.83
  -1   9   3    8.10    1.35
   1  -9  -2    6.56    1.34
  -1   9   2    6.02    1.23
  -1   9   2    6.02    1.26
  -1   9   2    6.68    1.15
  -1   9   2    6.84    1.68
  -1   9   1  534.51   13.86
  -1   9   1  572.76   15.13
  -1   9   1  554.57   13.67
  -1   9   1  565.98   13.41
  -1   9   1  518.65   16.25
  -1   9   0  497.82   15.72
  -1   9   0  466.44   12.67
   1  -9   0  506.43   14.00
  -1   9   0  546.75   14.37
  -1   9   0  521.05   12.30
  -1   9   0  517.62   12.86
   1  -9   0  556.96   15.36
  -1   9  -1   55.30    3.40
  -1   9  -1   51.78    4.52
  -1   9  -1   53.30    3.05
   1  -9   1   59.12    4.20
   1  -9   1   55.01    3.81
  -1   9  -1   61.09    4.08
  -1   9  -2  168.27    8.51
  -1   9  -2  173.30    6.39
   1  -9   2  174.17    7.30
  -1   9  -2  175.76    7.22
   1  -9   2  161.34    6.77
  -1   9  -3  143.63    8.03
  -1   9  -3  134.02    5.54
  -1   9  -3  129.40    5.50
  -1   9  -3  144.87    6.44
   1  -9   3  136.95    6.00
  -1   9  -4  191.31    6.97
  -1   9  -4  221.14    8.07
  -1   9  -4  205.01    9.80
  -1   9  -4  188.58    6.83
   1  -9   4  160.21    7.21
   1  -9   4  186.98    7.24
   1  -9   5   54.28    3.72
  -1   9  -5   56.71    4.99
   1  -9   5   45.23    3.80
   1  -9   5   51.76    3.58
  -1   9  -5   51.96    3.37
  -1   9  -5   50.85    3.43
   1  -9   6    1.20    0.72
  -1   9  -6    1.60    0.73
  -1   9  -6    1.35    0.50
   1  -9   6    2.52    1.13
  -1   9  -6    0.85    0.73
   1  -9   7  226.04    8.48
   1  -9   7  239.32    9.61
  -1   9  -7  233.32    8.31
  -1   9  -7  223.81    7.81
  -1   9  -7  224.05   10.48
   1  -9   7  231.86    7.82
   1  -9   8   73.03    4.16
  -1   9  -8   73.27    4.45
  -1   9  -8   69.82    5.63
   1  -9   8   71.27    4.52
  -1   9  -8   73.88    4.21
  -1   9  -9   18.50    2.24
   1  -9   9   14.25    1.86
  -1   9  -9   17.59    2.06
  -1   9  -9   15.69    2.56
   1  -9   9   16.31    2.18
  -1   9 -10   71.34    4.22
  -1   9 -10   85.59    4.89
  -1   9 -10   85.70    5.94
   1  -9  10   80.94    4.59
   1  -9  10   85.97    5.11
   1  -9  10   82.37    4.56
   1  -9  11  352.01   11.29
  -1   9 -11  310.55    9.81
   1  -9  11  323.12   10.18
   1  -9  11  317.48   10.04
  -1   9 -11  347.92   10.85
  -1   9 -12  166.51    7.07
  -1   9 -12  169.71    6.69
   1  -9  12  178.21    6.92
   1  -9  12  175.39    6.93
   1  -9  13  218.39    7.59
  -1   9 -13  200.67    7.21
   1  -9  13  208.70    7.50
  -1   9 -13  206.35    7.76
   1  -9  14  151.12    5.93
   1  -9  14  162.96    6.19
   1  -9  14  154.61    6.57
  -1   9 -14  150.34    6.23
   1  -9  14  158.27    6.05
  -1   9 -14  141.76    5.66
   1  -9  15   48.61    2.94
   1  -9  15   50.15    3.01
   1  -9  15   47.15    2.88
  -1   9 -15   47.57    3.08
  -1   9 -15   48.22    2.87
   1  -9  16   31.69    2.04
  -1   9 -16   27.46    1.88
   1  -9  16   28.97    1.89
  -1   9 -16   26.00    2.01
  -1   8  12   39.11    2.28
  -1   8  11   21.59    1.91
  -1   8  11   23.74    2.00
  -1   8  10   86.12    4.45
  -1   8  10   85.15    4.26
   1  -8  -9   19.47    2.59
  -1   8   9   20.10    2.07
  -1   8   9   22.21    2.33
   1  -8  -8   23.18    2.37
  -1   8   8   22.05    2.28
  -1   8   8   25.83    2.63
  -1   8   8   19.79    2.28
   1  -8  -8   25.06    2.82
  -1   8   7    4.57    1.17
  -1   8   7    5.68    1.27
   1  -8  -7    4.47    1.26
  -1   8   7    5.14    1.14
   1  -8  -7    6.22    1.13
  -1   8   6    5.06    1.30
  -1   8   6    6.68    1.30
   1  -8  -6    5.58    1.07
  -1   8   6    8.09    1.44
   1  -8  -6    4.60    1.47
   1  -8  -6    6.67    1.45
  -1   8   5  953.62   20.63
  -1   8   5  918.61   21.61
   1  -8  -5  947.64   22.63
  -1   8   5  906.60   20.54
   1  -8  -4  271.51    7.89
  -1   8   4  250.72    9.20
  -1   8   4  271.46    8.61
  -1   8   4  262.67    8.42
   1  -8  -4  260.72    9.39
   1  -8  -3   58.38    3.85
  -1   8   3   55.79    3.43
  -1   8   3   51.43    3.77
  -1   8   3   55.13    3.35
  -1   8   3   46.98    3.99
  -1   8   2  329.76   11.66
  -1   8   2  346.19    9.88
  -1   8   2  360.06   10.00
   1  -8  -2  365.20   10.36
  -1   8   2  346.33   10.84
  -1   8   2  355.41    9.59
  -1   8   1    7.21    1.17
  -1   8   1    6.88    1.36
  -1   8   1    8.55    1.32
  -1   8   1    6.32    1.08
   1  -8  -1    7.53    1.49
  -1   8   1    8.02    1.21
   1  -8  -1    7.44    1.22
  -1   8   1    6.77    1.60
   1  -8   0   84.74    4.69
  -1   8   0   83.40    4.06
  -1   8   0   89.61    3.94
  -1   8   0   94.64    4.86
  -1   8   0   80.32    4.08
  -1   8   0   94.90    5.82
  -1   8   0   87.60    4.22
  -1   8  -1  306.55    8.81
   1  -8   1  313.30    9.62
  -1   8  -1  316.42   11.52
  -1   8  -1  340.30   10.02
   1  -8   1  297.24    9.01
  -1   8  -1  307.58    8.62
  -1   8  -2    1.36    0.49
  -1   8  -2    1.54    1.09
  -1   8  -2    0.69    0.41
  -1   8  -2    0.92    0.47
   1  -8   2    1.11    0.48
   1  -8   2    0.66    0.53
  -1   8  -2    0.65    0.58
   1  -8   2    0.68    0.57
  -1   8  -3   14.24    1.63
  -1   8  -3   11.60    2.21
   1  -8   3   10.58    1.63
   1  -8   3   11.13    1.54
  -1   8  -3   12.06    1.70
  -1   8  -3   12.03    1.50
   1  -8   3    9.00    1.36
  -1   8  -4   18.19    2.71
   1  -8   4   13.93    1.93
  -1   8  -4   20.27    2.20
   1  -8   4   14.69    1.76
  -1   8  -4   17.15    1.86
  -1   8  -4   15.66    1.81
   1  -8   5  221.31    7.69
   1  -8   5  211.82    8.64
  -1   8  -5  233.16    7.80
  -1   8  -5  250.37    7.88
  -1   8  -5  241.70   10.41
  -1   8  -5  253.16    8.59
   1  -8   6  257.55    9.81
   1  -8   6  263.88    8.74
  -1   8  -6  271.46    8.51
  -1   8  -6  280.89    8.86
  -1   8  -6  261.78   10.89
   1  -8   7  837.45   20.28
  -1   8  -7  797.91   17.77
  -1   8  -7  710.54   20.52
   1  -8   7  772.31   18.10
  -1   8  -7  799.42   18.04
   1  -8   7  739.82   16.97
  -1   8  -8   28.84    2.69
   1  -8   8   30.48    2.54
  -1   8  -8   23.42    3.11
   1  -8   8   30.10    3.20
   1  -8   8   30.52    2.84
  -1   8  -8   33.78    2.82
   1  -8   9  362.38   10.78
  -1   8  -9  394.93   11.35
  -1   8  -9  376.25   13.34
  -1   8  -9  373.55   11.35
   1  -8   9  390.28   11.89
   1  -8  10  560.30   14.49
  -1   8 -10  542.71   14.52
   1  -8  10  582.96   14.92
   1  -8  10  581.66   15.68
  -1   8 -10  562.00   15.05
   1  -8  10  599.37   16.97
  -1   8 -11   28.64    2.82
   1  -8  11   26.43    2.86
   1  -8  11   25.26    2.51
   1  -8  11   26.64    2.66
  -1   8 -12    4.97    1.20
   1  -8  12    4.49    1.14
   1  -8  12    3.63    1.04
  -1   8 -13   36.72    3.18
   1  -8  13   42.22    3.29
   1  -8  13   41.13    3.22
  -1   8 -14   17.36    2.08
   1  -8  14   17.86    2.04
  -1   8 -14   17.64    2.03
   1  -8  14   20.45    2.19
   1  -8  14   17.60    2.18
   1  -8  14   19.10    2.10
  -1   8 -15   46.63    3.24
   1  -8  15   45.66    3.21
   1  -8  15   43.46    2.94
   1  -8  15   47.14    3.15
   1  -8  15   48.12    3.17
  -1   8 -15   44.68    3.09
   1  -8  16  139.22    4.91
  -1   8 -16  132.17    5.16
   1  -8  16  131.97    5.04
  -1   8 -16  130.20    5.06
  -1   8 -17   87.80    3.51
  -1   8 -17   91.94    3.54
   1  -8  17   86.60    3.11
   1  -8  17   95.56    3.60
   1  -7 -14   40.05    2.73
  -1   7  13   -0.11    0.27
   1  -7 -13    1.24    0.73
  -1   7  12    0.01    0.34
  -1   7  12    0.11    0.30
   1  -7 -12   -0.65    0.85
   1  -7 -11   12.38    2.30
  -1   7  11   12.94    1.58
  -1   7  11   11.84    1.64
   1  -7 -11   13.30    2.20
  -1   7  10  228.49    8.39
   1  -7 -10  255.06    8.92
   1  -7 -10  254.44    9.91
  -1   7  10  216.29    8.32
  -1   7  10  229.20    7.75
   1  -7  -9   97.13    5.13
  -1   7   9  104.34    5.53
  -1   7   9   99.65    5.43
  -1   7   9  109.63    5.08
   1  -7  -9  102.33    5.89
   1  -7  -8   28.85    2.54
  -1   7   8   25.65    2.41
   1  -7  -8   27.52    2.87
  -1   7   8   23.59    2.61
  -1   7   8   24.49    2.56
  -1   7   8   23.49    2.60
  -1   7   7  105.29    4.96
   1  -7  -7  107.37    6.15
  -1   7   7   93.84    5.26
   1  -7  -7   95.42    4.57
  -1   7   7   87.78    5.17
  -1   7   7   99.02    5.19
  -1   7   6  367.85   11.27
   1  -7  -6  396.83   10.16
  -1   7   6  318.90    9.80
   1  -7  -6  383.41   12.02
  -1   7   6  384.34   10.93
  -1   7   6  369.31   10.41
  -1   7   6  343.44   11.15
  -1   7   5  750.90   17.36
  -1   7   5  699.88   16.42
   1  -7  -5  879.59   19.43
  -1   7   5  832.30   17.58
  -1   7   5  757.39   18.28
   1  -7  -5  828.45   16.85
  -1   7   5  790.90   18.81
  -1   7   4   14.42    1.54
  -1   7   4   16.37    1.80
  -1   7   4   14.78    1.94
  -1   7   4   14.08    1.68
   1  -7  -4   19.46    2.13
   1  -7  -3   48.73    2.91
  -1   7   3   43.74    2.48
  -1   7   3   47.98    2.95
  -1   7   3   46.04    3.03
  -1   7   3   46.59    3.42
  -1   7   3   55.50    3.20
   1  -7  -2   41.94    2.71
  -1   7   2   39.89    2.19
  -1   7   2   36.58    2.61
  -1   7   2   36.93    2.63
  -1   7   2   44.44    2.77
  -1   7   2   41.09    2.61
   1  -7  -1   58.06    3.34
  -1   7   1   56.13    3.11
   1  -7   0  117.65    4.88
   1  -7   0  122.84    5.08
  -1   7   0  129.07    4.76
   1  -7   1   74.24    3.80
   1  -7   1   71.27    3.84
   1  -7   2  357.46    9.56
  -1   7  -2  369.48    8.85
   1  -7   2  364.05    9.26
  -1   7  -3  452.91   10.40
   1  -7   3  452.15   11.04
   1  -7   3  447.89   11.34
  -1   7  -4  340.67    8.48
   1  -7   4  328.47    9.12
   1  -7   5  414.46   10.99
   1  -7   5  449.13   11.16
  -1   7  -6  247.99    7.78
  -1   7  -6  210.01    9.18
   1  -7   6  244.47    9.13
  -1   7  -6  222.10    7.80
   1  -7   6  227.27    7.56
  -1   7  -6  242.82    7.77
   1  -7   7   93.53    5.34
  -1   7  -7   93.59    4.65
  -1   7  -7   77.09    5.25
  -1   7  -7   82.69    4.67
   1  -7   7   83.53    4.04
   1  -7   7   89.35    4.58
  -1   7  -8   16.46    1.91
  -1   7  -8   17.07    2.53
   1  -7   8   22.39    2.58
  -1   7  -8   17.87    1.82
   1  -7   8   17.72    1.88
   1  -7   8   16.61    2.03
  -1   7  -8   15.89    2.04
   1  -7   9   64.70    4.58
  -1   7  -9   59.54    3.56
   1  -7   9   58.81    4.03
   1  -7   9   55.62    3.55
  -1   7  -9   52.69    3.75
  -1   7  -9   69.16    4.21
   1  -7  10  126.88    6.61
  -1   7 -10  127.56    6.00
   1  -7  10  126.18    5.85
  -1   7 -10  120.39    5.44
   1  -7  10  124.83    6.21
   1  -7  10  117.66    5.53
  -1   7 -11   51.66    3.80
   1  -7  11   52.66    4.22
  -1   7 -11   40.15    3.13
   1  -7  11   47.85    3.48
   1  -7  11   44.70    3.47
   1  -7  12   60.52    4.00
  -1   7 -12   59.28    4.13
  -1   7 -12   55.14    3.78
   1  -7  12   56.76    3.97
   1  -7  13  153.22    6.78
   1  -7  13  152.32    6.72
   1  -7  13  164.34    7.44
  -1   7 -13  145.61    6.71
   1  -7  13  155.30    6.74
   1  -7  14  259.70    8.92
   1  -7  14  257.66    8.96
   1  -7  14  271.42    8.94
   1  -7  14  258.26    9.31
  -1   7 -14  241.94    8.83
   1  -7  15  319.24    9.79
  -1   7 -15  290.51    9.48
   1  -7  15  322.55    9.81
   1  -7  15  331.81    9.89
   1  -7  15  310.30    9.29
  -1   7 -16   83.81    4.18
   1  -7  16   91.98    4.07
   1  -7  16   95.63    4.48
   1  -7  17   82.58    3.64
   1  -7  17   80.89    3.17
  -1   7 -17   76.41    3.63
  -1   7 -17   73.89    3.33
  -1   7 -18   51.41    2.38
   1  -6 -15   26.81    2.23
  -1   6  14   58.14    2.73
   1  -6 -14   76.11    4.18
  -1   6  13  102.63    4.26
  -1   6  13  104.95    4.99
   1  -6 -13  114.85    5.77
  -1   6  13  100.86    4.61
  -1   6  12  139.18    5.47
  -1   6  12  146.56    6.42
   1  -6 -12  147.27    7.47
   1  -6 -12  157.20    8.03
  -1   6  12  140.79    6.11
  -1   6  11  204.45    7.12
  -1   6  11  195.47    7.88
  -1   6  11  195.33    7.81
   1  -6 -11  221.71    8.39
   1  -6 -11  205.72    8.92
   1  -6 -10  144.67    6.51
  -1   6  10  156.65    6.14
  -1   6  10  140.02    6.63
  -1   6  10  145.02    6.74
   1  -6 -10  150.24    7.28
   1  -6  -9   76.59    4.89
  -1   6   9   65.84    4.33
  -1   6   9   77.62    4.82
  -1   6   9   73.85    4.10
   1  -6  -9   72.28    5.17
   1  -6  -9   75.87    4.32
  -1   6   9   70.14    4.61
  -1   6   8  106.76    5.62
  -1   6   8  124.56    5.37
  -1   6   8  104.18    5.13
  -1   6   8  118.89    5.74
   1  -6  -8  112.55    5.10
  -1   6   8  109.45    5.77
   1  -6  -8  115.71    6.31
   1  -6  -7   84.46    4.05
   1  -6  -7   80.56    3.72
  -1   6   7   77.88    4.04
  -1   6   7   85.36    4.62
  -1   6   7   76.80    4.16
  -1   6   7   79.53    4.75
  -1   6   7   80.22    4.70
   1  -6  -7   78.47    4.76
   1  -6  -6   32.00    2.34
   1  -6  -6   31.68    2.26
  -1   6   6   29.29    2.23
  -1   6   6   30.50    2.76
  -1   6   6   31.34    2.49
  -1   6   6   28.56    2.76
  -1   6   6   32.07    2.63
   1  -6  -6   33.13    2.88
  -1   6   5    8.10    1.05
   1  -6  -5    6.81    1.14
   1  -6  -5    6.68    1.02
  -1   6   5    7.16    1.32
   1  -6  -5    8.10    1.11
  -1   6   5    7.11    1.22
  -1   6   5    7.25    1.18
  -1   6   5    9.11    1.49
  -1   6   4  197.97    5.73
   1  -6  -4  188.56    6.60
   1  -6  -4  187.50    6.10
   1  -6  -3  165.13    5.58
   1  -6  -3  167.52    6.74
  -1   6   3  161.05    4.77
  -1   6   2  321.24    7.17
  -1   6   2  296.20    8.10
   1  -6  -2  300.78    8.37
   1  -6  -1  475.04   11.17
  -1   6   1  457.94   10.89
   1  -6   0  783.05   16.95
  -1   6   0  807.00   16.20
   1  -6   1   54.43    2.86
  -1   6  -1   60.27    2.72
   1  -6   1   51.63    3.11
  -1   6  -2   40.50    2.16
   1  -6   2   41.05    2.50
   1  -6   2   41.00    2.35
   1  -6   3  136.77    4.96
   1  -6   3  139.23    4.80
  -1   6  -3  141.49    4.40
  -1   6  -4  190.88    5.32
   1  -6   4  181.79    5.85
   1  -6   5   26.23    2.09
  -1   6  -5   29.95    1.85
   1  -6   6   19.56    1.72
  -1   6  -6   19.58    1.79
   1  -6   6   18.07    1.81
  -1   6  -6   22.74    1.68
   1  -6   7   37.89    2.55
   1  -6   7   45.08    3.43
   1  -6   7   39.18    2.82
  -1   6  -7   38.37    2.66
  -1   6  -8  132.06    5.47
   1  -6   8  143.23    6.43
   1  -6   8  137.10    5.37
  -1   6  -8  139.33    5.71
  -1   6  -8  136.36    6.20
   1  -6   8  137.16    5.83
   1  -6   9  278.30    8.72
   1  -6   9  277.68    9.56
  -1   6  -9  267.72    8.61
  -1   6  -9  267.40    8.73
   1  -6   9  250.76    8.13
   1  -6   9  278.17    9.15
   1  -6  10  460.56   13.09
   1  -6  10  449.87   12.24
   1  -6  10  444.56   13.26
  -1   6 -10  444.68   12.60
   1  -6  10  476.69   12.72
  -1   6 -10  463.96   12.61
  -1   6 -10  447.99   13.08
   1  -6  11  593.77   16.20
  -1   6 -11  610.49   15.51
   1  -6  11  610.05   15.36
   1  -6  11  597.24   15.05
  -1   6 -11  597.72   15.97
   1  -6  12  232.47    9.32
   1  -6  12  217.33    8.22
  -1   6 -12  220.66    8.92
  -1   6 -12  225.98    8.54
  -1   6 -12  218.82    8.40
   1  -6  12  217.40    8.35
  -1   6 -12  210.20    8.30
  -1   6 -13   12.00    1.87
  -1   6 -13   13.69    2.01
  -1   6 -13   15.89    2.17
   1  -6  13   14.49    2.04
   1  -6  13   15.75    2.09
   1  -6  13   16.48    2.10
  -1   6 -13   13.04    2.08
   1  -6  13   14.46    2.13
   1  -6  14  144.84    6.21
  -1   6 -14  121.11    6.01
   1  -6  14  153.02    6.66
   1  -6  14  152.62    6.71
  -1   6 -14  120.50    6.40
   1  -6  14  150.79    6.68
  -1   6 -14  126.55    6.34
  -1   6 -15    2.97    0.87
  -1   6 -15    1.53    0.59
   1  -6  15    3.74    1.05
   1  -6  15    3.50    0.96
   1  -6  15    2.18    0.65
   1  -6  16    4.57    1.05
  -1   6 -16    3.66    0.92
   1  -6  16    3.46    0.78
  -1   6 -17   52.26    2.77
   1  -6  17   56.03    3.11
   1  -6  17   55.57    3.12
   1  -6  17   51.80    2.57
  -1   6 -18   27.25    1.87
   1  -5 -16   97.06    4.17
   1  -5 -15   29.95    2.60
  -1   5  15   25.39    2.12
  -1   5  14  131.88    5.32
   1  -5 -14  139.09    6.46
  -1   5  14  128.41    5.60
  -1   5  14  127.79    4.65
   1  -5 -14  143.09    5.99
   1  -5 -13  227.15    9.60
   1  -5 -13  250.97   10.26
  -1   5  13  223.95    8.04
  -1   5  13  239.26    8.55
   1  -5 -13  249.99    8.79
  -1   5  13  223.27    7.10
   1  -5 -12  148.85    6.94
  -1   5  12  164.66    6.10
   1  -5 -12  168.25    7.18
  -1   5  12  142.31    6.61
  -1   5  12  149.29    6.88
   1  -5 -12  168.30    8.02
  -1   5  11    0.58    0.82
   1  -5 -11    0.55    0.48
  -1   5  11    0.84    0.57
   1  -5 -11    1.39    0.83
  -1   5  11    0.38    0.47
   1  -5 -11    0.55    0.69
   1  -5 -10   11.12    1.83
  -1   5  10   10.96    1.59
   1  -5 -10   12.20    1.77
   1  -5 -10   12.78    2.19
  -1   5  10   10.14    1.63
   1  -5 -10    9.64    1.89
  -1   5  10    9.07    1.69
  -1   5  10   10.91    1.83
  -1   5   9    9.61    1.65
  -1   5   9   10.13    1.44
  -1   5   9    8.21    1.51
   1  -5  -9    8.89    1.28
   1  -5  -9    9.10    1.40
   1  -5  -9    8.73    1.70
   1  -5  -9   10.35    1.76
  -1   5   9    7.94    1.45
  -1   5   9    9.67    1.49
   1  -5  -8   49.69    3.53
   1  -5  -8   55.51    3.28
  -1   5   8   55.77    3.35
  -1   5   8   54.20    3.38
   1  -5  -8   55.82    3.07
  -1   5   8   48.56    3.70
   1  -5  -8   47.60    2.78
  -1   5   8   58.30    3.96
  -1   5   8   60.14    3.82
   1  -5  -8   53.73    3.91
  -1   5   7   76.30    4.40
   1  -5  -7   72.00    3.49
  -1   5   7   75.07    3.95
   1  -5  -7   79.39    3.61
  -1   5   7   76.00    4.13
   1  -5  -7   77.01    3.69
  -1   5   7   71.41    4.32
  -1   5   7   77.39    3.72
   1  -5  -7   74.10    3.50
   1  -5  -7   83.95    4.57
   1  -5  -7   75.09    4.01
   1  -5  -6  290.41    8.17
  -1   5   6  295.67    8.24
   1  -5  -6  275.52    7.85
  -1   5   6  259.23    7.38
   1  -5  -6  279.08    7.63
  -1   5   6  277.50    8.26
  -1   5   6  292.29    8.42
   1  -5  -6  270.44    7.61
   1  -5  -5  274.74    7.41
   1  -5  -5  274.93    7.48
   1  -5  -5  266.85    7.52
   1  -5  -5  267.79    7.84
  -1   5   5  280.62    7.25
  -1   5   4  492.18   10.46
   1  -5  -4  459.52   10.91
   1  -5  -4  482.94   11.93
   1  -5  -4  467.90   11.42
  -1   5   3  900.63   16.68
   1  -5  -3  848.91   18.78
   1  -5  -3  879.98   17.55
   1  -5  -2  474.93   10.12
  -1   5   2  471.79    9.67
  -1   5   1  458.27    9.21
   1  -5  -1  449.52   10.08
  -1   5   1  426.12    9.52
  -1   5   0   19.57    1.39
  -1   5   0   21.39    1.28
   1  -5   0   18.42    1.61
   1  -5   1  213.79    5.99
   1  -5   1  200.19    6.66
  -1   5  -2  761.47   14.46
   1  -5   2  748.43   14.91
   1  -5   2  732.75   15.16
  -1   5  -3  167.99    4.43
   1  -5   3  163.57    4.89
   1  -5   4  906.68   17.42
  -1   5  -4  872.47   17.51
   1  -5   4  903.50   17.65
   1  -5   5  510.87   11.38
  -1   5  -5  492.83   11.21
  -1   5  -5  489.45    9.98
   1  -5   6  459.73   11.69
   1  -5   6  418.82   10.37
  -1   5  -6  434.44    9.28
  -1   5  -6  392.42   10.15
   1  -5   6  416.68    9.82
   1  -5   7  412.20   11.37
  -1   5  -7  394.23   10.53
   1  -5   7  399.79    9.96
   1  -5   7  395.22   10.48
   1  -5   8  408.45   11.41
  -1   5  -8  429.91    9.95
   1  -5   8  419.90   10.54
  -1   5  -8  370.62   10.70
   1  -5   8  376.78   10.73
   1  -5   9  184.02    7.22
  -1   5  -9  188.21    7.51
  -1   5  -9  175.18    7.02
   1  -5   9  192.69    6.72
  -1   5  -9  195.38    7.17
   1  -5   9  187.79    7.10
   1  -5   9  192.67    6.88
  -1   5 -10   57.09    3.97
   1  -5  10   52.01    3.76
   1  -5  10   51.56    3.43
  -1   5 -10   57.12    4.12
   1  -5  10   56.98    3.67
  -1   5 -10   54.14    3.70
  -1   5 -10   53.89    3.95
   1  -5  11    1.49    0.66
   1  -5  11    1.71    0.72
   1  -5  11    1.73    0.68
  -1   5 -11    2.34    0.95
  -1   5 -11    2.18    0.72
  -1   5 -11    2.07    0.95
  -1   5 -11    2.12    1.17
  -1   5 -11    2.89    1.21
  -1   5 -12    4.61    1.31
   1  -5  12    5.82    1.46
  -1   5 -12    7.18    1.53
  -1   5 -12    5.05    1.18
   1  -5  12    4.81    1.11
   1  -5  12    5.76    1.42
   1  -5  12    5.03    1.17
   1  -5  12    5.84    1.31
  -1   5 -12    5.81    1.53
  -1   5 -12    4.90    1.30
  -1   5 -13    9.34    1.76
   1  -5  13   10.00    1.64
   1  -5  13    9.28    1.59
  -1   5 -13    7.74    1.70
   1  -5  13    7.19    1.33
   1  -5  13    7.98    1.43
  -1   5 -13    7.02    1.41
  -1   5 -13    7.15    1.48
  -1   5 -13    7.59    1.54
  -1   5 -14   26.09    2.98
   1  -5  14   24.00    2.58
   1  -5  14   26.48    2.51
   1  -5  14   26.60    2.69
  -1   5 -14   23.73    2.76
  -1   5 -14   26.72    2.66
   1  -5  14   26.74    2.61
  -1   5 -14   26.63    3.17
   1  -5  15  123.66    5.49
  -1   5 -15  128.32    5.75
   1  -5  15  134.41    6.16
  -1   5 -15  136.07    6.45
  -1   5 -15  124.23    6.65
  -1   5 -16  121.19    5.04
   1  -5  16  114.05    5.26
   1  -5  16  116.89    4.76
  -1   5 -16  112.46    5.86
   1  -5  17  209.80    5.84
   1  -5  17  194.41    6.63
   1  -4 -16  127.87    5.53
  -1   4  16  127.29    4.84
   1  -4 -16  118.37    5.25
  -1   4  15   84.39    4.39
  -1   4  15   88.61    4.16
   1  -4 -15   88.11    5.03
   1  -4 -15   89.08    4.74
  -1   4  14    1.79    0.67
  -1   4  14    1.55    0.65
   1  -4 -14    2.99    1.22
   1  -4 -14    1.66    0.77
  -1   4  14    1.04    0.29
  -1   4  13   10.57    1.68
  -1   4  13   11.46    1.93
   1  -4 -13   12.54    2.16
   1  -4 -13   12.40    2.20
   1  -4 -13   11.69    1.85
  -1   4  13   11.87    1.45
   1  -4 -12   86.88    5.13
  -1   4  12   76.74    4.80
   1  -4 -12   75.94    4.82
  -1   4  12   77.43    4.92
  -1   4  12   77.96    4.13
   1  -4 -12   72.79    5.06
   1  -4 -11  227.23    8.96
  -1   4  11  210.42    8.52
   1  -4 -11  232.48    8.49
  -1   4  11  219.67    8.22
   1  -4 -11  222.97    9.55
  -1   4  11  214.13    7.61
  -1   4  11  207.38    8.41
   1  -4 -11  225.32    7.61
   1  -4 -11  248.61    9.79
   1  -4 -10   83.79    5.03
   1  -4 -10   82.65    4.46
   1  -4 -10   75.98    3.92
  -1   4  10   75.49    4.28
  -1   4  10   75.34    4.68
  -1   4  10   67.05    4.49
  -1   4  10   76.54    4.21
  -1   4  10   69.77    4.34
   1  -4 -10   74.41    4.94
   1  -4 -10   83.65    4.89
   1  -4  -9  545.81   14.17
   1  -4  -9  517.69   12.35
   1  -4  -9  516.27   12.86
   1  -4  -9  540.12   14.31
  -1   4   9  543.59   13.18
  -1   4   9  517.47   13.54
  -1   4   9  535.94   13.23
  -1   4   9  505.41   13.95
   1  -4  -8  330.64    8.86
  -1   4   8  330.93    8.85
  -1   4   8  317.74    9.45
  -1   4   8  348.42    9.36
   1  -4  -8  330.50    9.81
  -1   4   8  310.45    9.24
  -1   4   8  312.08    9.83
   1  -4  -8  323.59    8.46
   1  -4  -8  313.43    8.43
   1  -4  -8  312.16    8.51
   1  -4  -8  344.91   10.00
   1  -4  -7  666.17   13.98
  -1   4   7  655.43   14.00
   1  -4  -7  641.75   13.90
   1  -4  -7  633.04   13.73
   1  -4  -7  644.56   13.77
   1  -4  -6  175.64    5.70
  -1   4   6  175.32    5.53
   1  -4  -6  173.15    5.46
   1  -4  -6  166.98    5.42
  -1   4   5    9.64    1.13
   1  -4  -5    8.16    1.06
   1  -4  -5    8.72    1.10
   1  -4  -5    8.58    1.17
  -1   4   4   89.25    3.50
   1  -4  -4   80.84    3.65
   1  -4  -4   87.78    3.85
   1  -4  -4   88.29    3.57
   1  -4  -3   48.74    2.87
   1  -4  -3   47.47    2.52
  -1   4   3   46.34    2.34
   1  -4  -2    1.09    0.37
  -1   4   2    1.28    0.43
  -1   4   2    2.25    0.48
  -1   4   1  305.47    6.73
   1  -4  -1  299.71    7.20
  -1   4   1  294.24    6.63
   1  -4   0  631.64   13.28
  -1   4   0  670.63   12.18
  -1   4   0  664.85   12.28
   1  -4   1  385.65    8.35
   1  -4   1  404.75    8.18
   1  -4   1  383.70    9.34
  -1   4  -1  412.77    7.96
  -1   4  -1  413.73    7.93
   1  -4   2  985.18   20.22
  -1   4  -2 1083.09   18.10
  -1   4  -2 1059.40   17.94
   1  -4   2 1105.46   18.94
   1  -4   2 1020.70   18.62
  -1   4  -3  419.55    9.22
  -1   4  -3  430.57    8.05
   1  -4   3  401.85    8.68
  -1   4  -3  408.39    7.70
   1  -4   3  428.81   10.42
   1  -4   3  410.45    8.94
  -1   4  -4  180.88    3.97
  -1   4  -4  172.15    5.26
  -1   4  -4  183.78    4.33
  -1   4  -4  175.76    4.07
   1  -4   4  190.03    5.36
   1  -4   5  596.68   13.32
  -1   4  -5  543.12   12.32
  -1   4  -5  565.87   10.88
   1  -4   5  568.26   12.21
  -1   4  -5  596.71   11.12
   1  -4   6    5.95    0.86
  -1   4  -6    5.61    0.74
   1  -4   6    6.23    0.98
  -1   4  -6    5.58    1.02
   1  -4   6    5.05    0.96
  -1   4  -6    5.84    0.73
  -1   4  -7  103.04    4.66
  -1   4  -7  121.11    4.03
   1  -4   7  112.57    4.87
   1  -4   7  111.99    4.29
  -1   4  -7  103.90    3.75
   1  -4   7  115.37    4.69
   1  -4   8   14.01    1.68
  -1   4  -8   15.40    1.84
  -1   4  -8   13.15    1.35
   1  -4   8   14.25    1.54
  -1   4  -8   14.96    1.40
   1  -4   8   16.73    1.81
  -1   4  -9    3.26    0.72
  -1   4  -9    3.86    1.10
   1  -4   9    3.66    0.87
   1  -4   9    2.87    0.74
  -1   4 -10   40.56    3.50
   1  -4  10   41.41    3.21
  -1   4 -10   41.54    3.23
   1  -4  10   43.52    3.07
   1  -4  10   40.81    3.04
  -1   4 -10   42.67    3.43
  -1   4 -10   41.55    3.54
  -1   4 -10   43.99    3.50
   1  -4  11  363.15   10.82
   1  -4  11  399.61   11.79
  -1   4 -11  355.04   11.02
  -1   4 -11  356.18   12.23
   1  -4  11  371.19   10.90
  -1   4 -11  368.71   12.03
   1  -4  11  378.41   11.36
   1  -4  11  384.14   11.14
  -1   4 -11  359.21   12.04
  -1   4 -11  356.74   11.68
   1  -4  12  134.73    6.05
   1  -4  12  131.19    6.23
   1  -4  12  144.83    6.39
  -1   4 -12  137.76    7.37
  -1   4 -12  134.72    6.79
  -1   4 -12  141.91    7.21
  -1   4 -12  130.82    6.99
  -1   4 -12  131.10    6.18
   1  -4  12  143.74    6.46
   1  -4  13  225.01    8.23
  -1   4 -13  228.00    8.50
   1  -4  13  243.33    8.63
   1  -4  13  239.15    8.70
  -1   4 -13  241.26   10.26
  -1   4 -13  227.03    9.26
  -1   4 -13  242.55   10.10
  -1   4 -13  245.27   10.07
   1  -4  13  232.12    8.79
  -1   4 -14  516.15   16.07
  -1   4 -14  473.15   14.24
  -1   4 -14  506.32   13.45
  -1   4 -14  512.18   15.54
   1  -4  14  511.69   14.03
   1  -4  14  513.36   13.32
  -1   4 -14  460.22   15.22
   1  -4  15   95.78    4.68
  -1   4 -15   89.27    4.59
  -1   4 -15   96.31    5.28
  -1   4 -15   92.77    5.92
  -1   4 -15   98.34    5.90
  -1   4 -15   98.02    6.06
   1  -4  15   97.09    5.17
  -1   4 -16   94.14    4.64
  -1   4 -16   90.41    5.19
   1  -4  16   96.83    4.77
   1  -4  16   98.67    4.26
  -1   4 -16   96.66    5.69
   1  -4  16   95.23    4.82
  -1   4 -17   82.30    4.68
   1  -4  17   88.34    4.11
  -1   3  17    0.77    0.39
   1  -3 -17    0.29    0.42
   1  -3 -17    0.77    0.49
   1  -3 -17    1.97    0.63
  -1   3  16   56.35    3.10
  -1   3  16   55.77    3.39
   1  -3 -16   59.62    3.97
   1  -3 -16   53.24    3.54
   1  -3 -16   54.43    3.67
  -1   3  15   85.24    4.75
   1  -3 -15   88.14    5.03
  -1   3  15   89.67    4.57
   1  -3 -15   91.50    5.45
  -1   3  14   58.25    4.10
  -1   3  14   66.38    3.44
  -1   3  14   58.92    3.97
   1  -3 -14   63.28    4.87
   1  -3 -14   63.73    4.42
   1  -3 -14   62.98    4.81
  -1   3  13  300.20    8.90
  -1   3  13  292.81   10.32
   1  -3 -13  287.36   11.03
   1  -3 -13  305.99   10.61
   1  -3 -13  293.01   10.96
   1  -3 -12  275.97    9.74
  -1   3  12  277.19    9.93
  -1   3  12  291.55    8.97
   1  -3 -12  264.63   10.04
   1  -3 -11  162.59    7.57
  -1   3  11  171.69    6.82
  -1   3  11  162.96    7.21
   1  -3 -11  185.07    7.82
  -1   3  11  164.95    6.55
   1  -3 -11  168.24    6.91
   1  -3 -11  174.76    6.47
   1  -3 -11  175.02    7.45
  -1   3  10  125.13    5.58
   1  -3 -10  146.03    6.47
   1  -3 -10  146.59    5.94
  -1   3  10  142.44    5.61
   1  -3 -10  138.69    5.04
  -1   3  10  145.90    6.50
   1  -3 -10  150.80    5.61
   1  -3 -10  140.21    6.24
   1  -3 -10  142.45    6.46
   1  -3  -9   87.61    4.59
  -1   3   9   80.58    4.51
  -1   3   9   78.50    4.20
  -1   3   9   88.90    4.24
  -1   3   9   91.89    4.84
  -1   3   9   81.80    3.91
   1  -3  -9   82.00    3.98
   1  -3  -9   87.72    3.81
   1  -3  -9   79.73    4.33
   1  -3  -9   81.95    3.72
   1  -3  -9   78.65    3.75
   1  -3  -8  105.82    4.19
  -1   3   8  114.26    4.48
   1  -3  -8  109.74    4.31
   1  -3  -8  102.97    4.18
   1  -3  -8  105.42    4.17
   1  -3  -7   -0.13    0.26
   1  -3  -7    0.36    0.24
  -1   3   7   -0.16    0.33
   1  -3  -7    0.51    0.34
   1  -3  -7    0.54    0.39
   1  -3  -6   21.57    1.68
   1  -3  -6   23.51    1.78
  -1   3   6   27.83    2.03
   1  -3  -6   24.96    1.78
  -1   3   5  175.96    5.42
   1  -3  -5  159.06    4.95
   1  -3  -5  158.00    5.16
   1  -3  -5  160.47    5.00
  -1   3   4 1075.61   20.01
   1  -3  -4 1062.76   20.15
   1  -3  -4 1027.24   20.08
   1  -3  -3  551.77    9.82
   1  -3  -3  535.25   10.97
  -1   3   3  526.91   11.03
   1  -3  -3  531.15   11.64
   1  -3  -3  513.77   11.06
   1  -3  -2  662.47   12.36
  -1   3   2  645.88   12.70
   1  -3  -2  662.60   13.76
  -1   3   1  918.43   17.10
  -1   3   1  941.99   16.44
   1  -3   0  285.79    6.72
  -1   3   0  295.25    5.61
  -1   3  -1  715.56   11.79
   1  -3   1  672.23   13.54
   1  -3   1  681.26   12.40
   1  -3   1  693.61   12.25
  -1   3  -1  693.17   12.79
   1  -3   2  344.81    8.16
   1  -3   2  321.29    7.19
  -1   3  -2  357.07    7.73
  -1   3  -2  368.02    6.34
  -1   3  -2  344.93    6.85
  -1   3  -2  341.30    7.20
   1  -3   2  339.88    6.91
  -1   3  -3    4.42    0.68
   1  -3   3    3.29    0.70
  -1   3  -3    3.99    0.39
  -1   3  -3    3.57    0.47
   1  -3   3    3.18    0.54
   1  -3   4  149.94    4.94
  -1   3  -4  150.43    4.70
   1  -3   4  143.82    4.35
  -1   3  -4  136.41    3.84
  -1   3  -4  151.55    3.56
   1  -3   5    9.18    1.14
   1  -3   5    8.92    1.02
  -1   3  -5    9.33    0.80
  -1   3  -5    7.18    1.05
  -1   3  -5    7.95    0.84
   1  -3   6  576.22   12.66
  -1   3  -6  574.98   12.60
   1  -3   6  555.06   12.10
  -1   3  -7  368.67    9.23
  -1   3  -7  383.84   10.17
   1  -3   7  402.18    9.50
   1  -3   7  409.38   10.10
   1  -3   8  521.15   12.01
   1  -3   8  535.18   12.61
  -1   3  -8  499.20   12.02
  -1   3  -8  496.68   12.75
   1  -3   9  158.56    5.64
   1  -3   9  149.78    5.91
  -1   3  -9  148.76    6.35
   1  -3   9  143.29    5.54
  -1   3  -9  143.52    5.82
  -1   3 -10  302.60   10.39
  -1   3 -10  324.47   10.00
   1  -3  10  325.69    9.83
  -1   3 -10  304.06   10.54
   1  -3  10  296.50    9.46
   1  -3  10  324.58    9.61
   1  -3  10  309.03    9.28
  -1   3 -10  313.04   10.38
   1  -3  10  316.45    9.41
  -1   3 -10  297.99    9.68
  -1   3 -11  219.01    8.88
  -1   3 -11  206.14    8.12
   1  -3  11  225.41    7.98
   1  -3  11  212.82    7.68
   1  -3  11  215.77    7.83
  -1   3 -11  195.15    8.64
  -1   3 -11  203.75    7.76
  -1   3 -11  212.46    8.81
   1  -3  11  219.14    7.70
  -1   3 -11  226.35    9.52
  -1   3 -12  348.25   10.92
  -1   3 -12  396.98   13.16
   1  -3  12  386.80   11.36
   1  -3  12  368.29   10.99
   1  -3  12  373.04   10.96
  -1   3 -12  357.79   11.88
  -1   3 -12  383.42   13.45
   1  -3  12  378.54   11.41
  -1   3 -12  358.14   12.71
  -1   3 -12  387.43   12.82
   1  -3  13   53.90    3.68
  -1   3 -13   48.73    3.50
  -1   3 -13   50.40    4.34
  -1   3 -13   50.58    4.47
  -1   3 -13   54.66    4.63
  -1   3 -13   53.87    4.81
   1  -3  13   49.85    3.76
  -1   3 -14   11.19    2.16
   1  -3  14   10.53    1.62
  -1   3 -14   10.49    2.11
  -1   3 -14   10.11    1.96
  -1   3 -14    9.10    2.05
   1  -3  14   10.86    1.81
   1  -3  15    1.26    0.61
   1  -3  15    1.12    0.56
   1  -3  15    1.10    0.70
  -1   3 -15    0.21    0.87
  -1   3 -15    1.20    0.59
  -1   3 -15    1.72    1.21
  -1   3 -15    0.93    0.61
  -1   3 -16    3.36    0.98
   1  -3  16    2.84    0.78
  -1   3 -16    1.80    1.07
  -1   3 -16    4.26    1.26
   1  -3  16    3.40    0.72
  -1   3 -17   81.29    4.49
   1  -3  17   86.64    3.97
  -1   3 -17   72.78    3.73
  -1   3 -17   79.92    4.77
  -1   3 -18  152.99    5.77
  -1   2  18   79.52    3.15
   1  -2 -17   86.84    4.27
   1  -2 -17   98.34    4.91
  -1   2  17  104.08    4.46
   1  -2 -17   98.31    4.69
   1  -2 -16  197.33    7.75
  -1   2  16  206.01    7.07
  -1   2  16  220.24    7.65
   1  -2 -16  198.72    7.78
   1  -2 -16  208.77    8.27
   1  -2 -15   40.17    3.48
  -1   2  15   42.57    3.41
   1  -2 -15   35.25    3.45
   1  -2 -14   47.04    4.05
  -1   2  14   44.89    3.67
  -1   2  14   51.96    3.13
   1  -2 -14   48.10    3.91
   1  -2 -14   47.51    4.09
  -1   2  13  134.07    6.58
  -1   2  13  134.74    5.62
   1  -2 -13  120.58    6.58
   1  -2 -12  188.09    7.56
   1  -2 -12  206.38    8.32
   1  -2 -12  185.29    7.87
   1  -2 -12  204.64    6.62
  -1   2  12  179.66    7.73
  -1   2  12  180.08    7.09
   1  -2 -12  186.32    7.00
   1  -2 -12  178.91    8.17
  -1   2  12  181.55    6.94
   1  -2 -11   38.69    3.23
   1  -2 -11   30.43    2.23
  -1   2  11   36.16    2.78
   1  -2 -11   35.73    2.57
   1  -2 -11   31.93    2.55
  -1   2  11   33.95    3.06
   1  -2 -11   31.82    2.74
  -1   2  11   31.66    2.76
   1  -2 -11   35.05    2.98
   1  -2 -11   35.99    3.21
   1  -2 -10   32.89    2.80
  -1   2  10   25.37    2.40
  -1   2  10   30.75    2.43
  -1   2  10   30.57    2.32
   1  -2 -10   29.51    2.14
   1  -2 -10   28.54    2.37
  -1   2  10   29.32    2.71
   1  -2 -10   27.84    2.56
   1  -2 -10   29.74    2.26
   1  -2 -10   29.37    2.26
   1  -2  -9  131.43    4.95
   1  -2  -9  128.07    4.81
  -1   2   9  127.44    5.60
   1  -2  -9  135.59    4.84
   1  -2  -9  136.99    4.89
   1  -2  -9  143.43    5.59
  -1   2   9  142.96    5.13
   1  -2  -8  151.19    4.92
  -1   2   8  154.02    5.30
   1  -2  -8  137.17    4.80
   1  -2  -8  147.34    4.90
   1  -2  -8  150.12    4.98
   1  -2  -7  219.61    5.88
   1  -2  -7  210.49    6.03
   1  -2  -7  208.90    5.93
   1  -2  -7  208.85    5.93
  -1   2   7  231.73    6.70
  -1   2   6 1095.69   21.13
   1  -2  -6 1094.04   20.34
   1  -2  -6 1078.75   20.46
  -1   2   5 1713.54   29.75
   1  -2  -5 1659.45   29.03
   1  -2  -5 1623.16   29.24
   1  -2  -5 1724.65   29.22
   1  -2  -4  290.66    7.37
  -1   2   4  301.23    7.52
   1  -2  -4  321.51    7.36
   1  -2  -4  327.65    5.75
   1  -2  -3    3.89    0.44
   1  -2  -3    3.29    0.63
  -1   2   3    3.74    0.67
   1  -2  -3    3.51    0.60
   1  -2  -2  538.06   10.26
   1  -2  -2  542.75   10.81
  -1   2   2  545.07   11.00
   1  -2  -1   29.00    1.54
  -1   2   1   32.48    1.71
   1  -2  -1   31.45    1.86
   1  -2   0  116.33    3.53
  -1   2   0  112.01    3.48
   1  -2   0  113.90    2.58
   1  -2   0  116.39    2.44
  -1   2  -1  291.80    6.10
   1  -2   1  297.51    6.70
  -1   2  -1  286.38    6.37
   1  -2   2  276.05    6.36
  -1   2  -2  271.24    5.76
   1  -2   3  428.41    9.27
  -1   2  -3  413.76    9.11
   1  -2   3  396.05    8.61
  -1   2  -3  401.14    8.55
   1  -2   4  125.31    4.16
  -1   2  -4  127.16    4.16
  -1   2  -4  125.42    3.79
   1  -2   4  128.14    3.92
   1  -2   5  357.95    8.46
  -1   2  -5  351.33    8.13
  -1   2  -5  341.65    8.46
   1  -2   6 1675.71   30.10
  -1   2  -6 1711.41   30.59
  -1   2  -6 1678.98   30.17
  -1   2  -6 1697.94   29.92
  -1   2  -7  526.96   12.52
   1  -2   7  521.67   12.07
   1  -2   7  558.04   11.91
  -1   2  -7  526.52   12.29
  -1   2  -7  556.88   12.67
   1  -2   7  546.36   11.80
  -1   2  -7  531.86   12.64
  -1   2  -7  510.80   11.84
   1  -2   8   65.51    3.42
   1  -2   8   53.22    3.18
  -1   2  -8   56.57    3.51
  -1   2  -8   62.12    3.57
   1  -2   8   62.66    3.06
   1  -2   8   65.39    3.30
  -1   2  -8   61.34    3.81
  -1   2  -8   55.62    3.49
   1  -2   9  189.66    6.52
  -1   2  -9  182.36    6.98
   1  -2   9  176.72    6.26
   1  -2   9  187.23    6.61
  -1   2  -9  196.54    7.56
  -1   2  -9  186.64    7.21
   1  -2  10    0.54    0.43
  -1   2 -10    1.74    0.52
  -1   2 -10    1.26    0.70
   1  -2  10    0.13    0.37
  -1   2 -10    0.58    0.49
   1  -2  10    0.84    0.45
   1  -2  10    1.29    0.58
   1  -2  10    1.24    0.74
  -1   2 -10    0.91    0.66
  -1   2 -10    0.22    0.61
  -1   2 -11   16.81    2.52
   1  -2  11   17.40    2.01
   1  -2  11   17.31    2.06
   1  -2  11   17.54    2.00
  -1   2 -11   17.73    2.43
   1  -2  11   17.59    1.99
  -1   2 -11   17.45    2.33
  -1   2 -11   18.10    2.60
  -1   2 -12    2.07    0.76
  -1   2 -12    2.88    1.07
   1  -2  12    2.07    0.76
  -1   2 -12    3.45    1.29
   1  -2  12    2.75    0.79
  -1   2 -12    2.35    1.21
  -1   2 -12    3.84    1.15
  -1   2 -13  135.71    7.83
  -1   2 -13  137.18    7.66
   1  -2  13  135.51    6.38
  -1   2 -13  147.28    7.98
   1  -2  13  131.13    5.90
  -1   2 -13  137.31    7.52
  -1   2 -14    8.62    1.88
   1  -2  14    7.78    1.42
  -1   2 -14    7.94    1.78
   1  -2  14    8.46    1.39
  -1   2 -14    8.23    1.89
   1  -2  14    8.50    1.59
  -1   2 -14    8.68    2.15
  -1   2 -15  327.02   11.63
   1  -2  15  322.65    9.25
  -1   2 -15  342.16   12.46
  -1   2 -15  359.53   12.83
   1  -2  15  322.49   10.07
  -1   2 -15  370.96   13.09
   1  -2  16  277.91    7.55
  -1   2 -16  281.17   10.47
   1  -2  16  288.02    8.67
  -1   2 -16  270.56    9.62
  -1   2 -16  296.72   10.88
   1  -2  17  139.64    5.13
  -1   2 -17  139.24    6.21
  -1   2 -17  135.46    5.55
  -1   2 -17  137.95    6.45
  -1   2 -18  151.14    5.72
   1  -1 -18   88.68    4.15
  -1   1  18   87.50    3.69
   1  -1 -18   90.37    4.26
   1  -1 -17   93.69    4.55
  -1   1  17  110.12    4.86
  -1   1  17  104.44    4.43
   1  -1 -17  104.36    5.28
   1  -1 -17   98.47    5.02
   1  -1 -16   27.24    2.73
   1  -1 -16   28.25    2.92
  -1   1  16   24.81    2.47
   1  -1 -16   25.21    2.69
  -1   1  15    6.21    1.33
   1  -1 -15   10.04    1.90
   1  -1 -15    7.48    1.58
   1  -1 -15    6.79    1.48
  -1   1  14   45.04    3.02
   1  -1 -14   47.17    3.91
  -1   1  14   42.78    3.61
   1  -1 -14   43.45    3.81
   1  -1 -14   46.22    2.93
   1  -1 -13  311.32    8.73
  -1   1  13  279.30   10.08
   1  -1 -13  280.41   10.17
  -1   1  13  295.25    9.05
   1  -1 -13  294.19    8.36
  -1   1  13  278.62    9.44
   1  -1 -13  288.74    9.45
   1  -1 -13  289.09   10.35
   1  -1 -12  422.42   12.33
   1  -1 -12  400.16   11.04
  -1   1  12  374.11   11.02
  -1   1  12  378.73   10.74
   1  -1 -12  412.55   10.54
   1  -1 -12  407.50   10.16
  -1   1  12  407.33   12.28
   1  -1 -12  388.86   11.57
   1  -1 -12  373.34   11.71
   1  -1 -11  193.26    7.31
   1  -1 -11  165.75    6.49
  -1   1  11  187.21    6.33
  -1   1  11  180.55    6.31
   1  -1 -11  166.90    6.01
  -1   1  11  178.87    7.24
   1  -1 -11  165.96    5.71
  -1   1  11  156.32    6.26
   1  -1 -11  167.98    6.80
   1  -1 -11  171.59    6.22
   1  -1 -11  170.85    6.73
  -1   1  10  328.35    9.07
   1  -1 -10  291.87    8.11
   1  -1 -10  311.11    8.53
   1  -1 -10  300.48    8.68
  -1   1  10  324.02    8.66
  -1   1  10  326.17    9.87
   1  -1 -10  317.55    8.61
   1  -1 -10  320.53    9.22
   1  -1 -10  310.50    9.09
   1  -1  -9  487.80   11.36
   1  -1  -9  528.37   11.67
  -1   1   9  517.39   11.93
   1  -1  -9  503.84   11.61
   1  -1  -9  546.48   12.10
   1  -1  -8   44.05    2.33
   1  -1  -8   36.73    2.18
   1  -1  -8   39.31    2.29
   1  -1  -8   43.07    2.35
  -1   1   8   45.82    2.73
   1  -1  -7  269.39    6.47
   1  -1  -7  238.03    6.59
   1  -1  -7  261.71    6.68
   1  -1  -7  266.85    6.65
  -1   1   7  293.97    7.70
   1  -1  -6  567.17   11.67
  -1   1   6  603.71   12.53
   1  -1  -6  582.73   11.90
   1  -1  -6  581.74   11.69
  -1   1   5    6.54    0.89
   1  -1  -5    6.72    0.84
   1  -1  -5    6.24    0.76
   1  -1  -5    6.32    0.76
  -1   1   4   86.37    3.32
   1  -1  -4   84.28    2.91
   1  -1  -4   86.12    3.06
   1  -1  -3   18.31    0.99
   1  -1  -3   17.80    1.18
   1  -1  -3   18.76    1.29
  -1   1   3   19.30    1.42
   1  -1  -2  644.22   12.03
  -1   1   2  667.72   12.93
   1  -1  -1  146.31    3.88
  -1   1   1  148.05    4.28
   1  -1   0  301.25    6.58
  -1   1   0  286.44    6.26
   1  -1   0  298.69    6.48
   1  -1   0  289.72    6.65
  -1   1  -1 1242.62   20.30
   1  -1   1 1267.03   22.14
   1  -1   1 1278.75   22.14
   1  -1   1 1248.46   22.10
  -1   1  -1 1272.87   21.86
  -1   1  -1 1318.11   21.82
   1  -1   2  243.58    5.98
  -1   1  -2  247.17    5.82
   1  -1   2  250.83    5.84
  -1   1  -2  263.52    5.86
   1  -1   2  245.96    6.01
   1  -1   3 1457.64   24.85
   1  -1   3 1393.62   24.92
  -1   1  -3 1470.75   24.94
  -1   1  -3 1435.13   24.73
  -1   1  -3 1390.93   25.12
  -1   1  -4  177.28    5.25
   1  -1   4  168.93    4.84
   1  -1   4  185.30    5.14
  -1   1  -4  174.17    5.02
  -1   1  -4  187.52    5.16
  -1   1  -5  926.14   17.90
   1  -1   5  877.24   17.06
   1  -1   5  919.68   17.44
   1  -1   5  930.89   16.52
  -1   1  -5  881.26   18.28
  -1   1  -5  914.03   17.91
  -1   1  -5  904.11   17.60
  -1   1  -6  114.42    4.43
   1  -1   6  114.96    4.18
   1  -1   6  119.26    3.94
  -1   1  -6  119.47    4.17
  -1   1  -6  116.16    4.83
   1  -1   6  120.66    3.49
  -1   1  -6  120.24    4.42
  -1   1  -6  113.76    4.81
  -1   1  -6  108.01    4.37
   1  -1   7  605.93   12.82
   1  -1   7  625.74   12.15
  -1   1  -7  605.71   13.67
  -1   1  -7  601.37   14.30
   1  -1   7  615.13   13.15
  -1   1  -7  644.22   13.93
  -1   1  -7  571.50   13.48
   1  -1   7  606.30   12.79
  -1   1  -7  619.31   15.32
   1  -1   8   10.24    1.22
  -1   1  -8   10.71    1.73
  -1   1  -8   13.26    1.71
  -1   1  -8   11.20    1.54
  -1   1  -8   11.52    1.68
  -1   1  -8    8.82    1.32
   1  -1   8    9.82    1.32
   1  -1   8   11.08    1.32
  -1   1  -8    9.87    1.53
  -1   1  -9   36.61    2.94
  -1   1  -9   40.64    3.56
   1  -1   9   37.30    2.52
  -1   1  -9   36.72    3.01
   1  -1   9   38.26    2.66
   1  -1   9   34.90    2.61
  -1   1  -9   36.63    3.24
  -1   1  -9   36.06    3.05
  -1   1 -10  573.33   15.47
   1  -1  10  628.65   14.59
   1  -1  10  604.69   14.80
  -1   1 -10  660.80   17.29
   1  -1  10  629.24   14.71
  -1   1 -10  580.90   16.59
  -1   1 -10  647.62   17.68
  -1   1 -10  613.86   16.96
  -1   1 -10  580.34   16.12
  -1   1 -10  641.13   17.29
   1  -1  11  190.13    7.09
  -1   1 -11  197.72    8.92
  -1   1 -11  192.50    8.70
  -1   1 -11  183.89    8.40
  -1   1 -11  184.13    7.82
  -1   1 -11  191.65    8.87
   1  -1  11  190.35    7.35
   1  -1  12  122.64    5.60
  -1   1 -12  122.47    7.19
   1  -1  12  133.36    5.79
  -1   1 -12  131.85    7.25
  -1   1 -12  116.46    7.00
   1  -1  12  113.94    5.77
  -1   1 -12  125.02    7.09
  -1   1 -13  176.11    8.95
   1  -1  13  190.03    7.19
  -1   1 -13  175.25    8.89
   1  -1  13  189.04    7.04
  -1   1 -13  183.88    9.02
   1  -1  13  174.64    7.37
   1  -1  13  178.67    7.25
  -1   1 -13  187.16    9.29
  -1   1 -14  174.92    8.88
   1  -1  14  175.33    6.47
   1  -1  14  170.25    6.67
  -1   1 -14  172.58    8.52
   1  -1  14  168.39    6.90
  -1   1 -14  160.08    8.53
  -1   1 -14  189.36    9.20
  -1   1 -15  238.45   10.10
   1  -1  15  207.08    7.52
  -1   1 -15  208.30    9.54
   1  -1  15  214.79    6.81
  -1   1 -15  204.23    9.40
  -1   1 -15  217.05    9.28
  -1   1 -16   10.02    1.79
  -1   1 -16    9.09    1.78
  -1   1 -16    9.98    1.81
   1  -1  16    6.32    1.10
   1  -1  17    4.26    0.82
  -1   1 -17    3.76    0.99
  -1   1 -17    2.48    0.86
  -1   1 -17    2.96    0.95
  -1   1 -18   10.97    1.31
   1  -1  18   11.16    1.23
   1   0 -18    3.94    0.98
  -1   0  18    3.16    0.76
  -1   0  17   38.49    2.90
   1   0 -17   39.97    3.26
   1   0 -17   41.89    3.28
   1   0 -16   47.16    2.81
   1   0 -16   42.42    3.35
   1   0 -16   46.55    3.74
   1   0 -16   47.41    3.78
  -1   0  16   42.35    3.38
   1   0 -15  219.42    7.09
   1   0 -15  213.14    8.85
   1   0 -15  210.14    8.75
  -1   0  15  220.39    8.54
   1   0 -14  586.45   14.05
   1   0 -14  625.88   16.74
   1   0 -14  637.07   17.02
  -1   0  14  601.48   16.23
   1   0 -14  603.54   14.07
   1   0 -14  574.09   16.16
   1   0 -13    3.84    1.12
  -1   0  13    2.86    1.01
  -1   0  13    3.35    0.91
  -1   0  13    2.26    0.63
   1   0 -13    2.77    0.74
  -1   0  13    3.30    0.94
   1   0 -13    3.47    0.99
   1   0 -13    3.81    1.19
   1   0 -13    2.17    0.73
   1   0 -12   64.59    3.81
   1   0 -12   75.39    4.51
  -1   0  12   65.41    3.69
   1   0 -12   74.61    3.86
  -1   0  12   75.87    4.64
  -1   0  12   67.96    4.01
   1   0 -12   69.00    4.23
   1   0 -12   62.12    3.36
   1   0 -11  724.01   16.78
  -1   0  11  684.63   16.63
  -1   0  11  775.12   16.12
  -1   0  11  831.73   18.50
   1   0 -11  781.33   16.00
   1   0 -11  741.19   16.91
   1   0 -11  746.81   16.28
   1   0 -11  786.30   16.68
   1   0 -10  102.09    4.38
  -1   0  10  104.56    5.09
  -1   0  10  112.26    4.36
   1   0 -10  101.33    4.25
   1   0 -10  102.16    4.11
   1   0 -10   99.92    4.28
   1   0 -10   93.49    4.16
   1   0 -10  105.71    4.49
   1   0  -9   96.83    3.87
   1   0  -9   98.22    3.92
   1   0  -9  101.81    3.94
  -1   0   9  103.71    4.20
   1   0  -9  100.90    3.94
  -1   0   8  139.14    4.95
   1   0  -8  121.75    4.08
   1   0  -8  128.28    4.25
   1   0  -8  128.52    4.33
   1   0  -8  123.90    4.27
   1   0  -7   29.75    1.64
   1   0  -7   26.16    1.73
   1   0  -7   28.04    1.75
  -1   0   7   30.19    2.02
   1   0  -7   27.84    1.70
   1   0  -6   10.05    0.86
  -1   0   6    9.97    1.16
   1   0  -6   11.45    1.06
   1   0  -6    9.30    0.90
   1   0  -6   10.75    1.00
   1   0  -5  991.24   17.91
   1   0  -5 1033.17   18.13
   1   0  -5 1029.63   18.29
  -1   0   5 1004.60   18.87
  -1   0   4  544.81   11.65
   1   0  -4  575.38   11.11
   1   0  -4  589.38   10.81
   1   0  -4  565.79   10.89
   1   0  -3 1116.06   18.30
   1   0  -3 1082.07   18.67
  -1   0   3  998.70   19.25
   1   0  -3 1044.01   18.30
   1   0  -2 3975.22   63.19
  -1   0   2 4009.14   64.16
   1   0  -2 3933.90   62.95
   1   0  -2 3916.22   63.24
   1   0  -1  395.04    8.19
   1   0  -1  415.80    8.39
  -1   0   1  399.65    8.38
   1   0   0   39.52    1.73
  -1   0   0   35.10    1.70
   1   0   0   36.53    1.71
   1   0   0   38.78    1.16
  -1   0  -1   10.24    1.01
   1   0   1   10.66    0.57
   1   0   1    8.39    0.80
   1   0   1   10.10    0.89
   1   0   1   10.91    0.89
  -1   0  -1   10.97    0.94
  -1   0  -2  134.05    4.31
   1   0   2  132.20    3.95
   1   0   2  134.83    3.90
   1   0   2  141.78    3.74
  -1   0  -2  137.44    4.06
  -1   0  -2  144.39    3.90
   1   0   3  118.57    3.62
  -1   0  -3  117.08    4.24
  -1   0  -3  126.18    3.80
   1   0   3  127.48    3.39
  -1   0  -3  118.88    4.15
   1   0   3  125.17    3.81
  -1   0  -3  116.66    3.89
  -1   0  -4  179.93    5.63
  -1   0  -4  181.03    5.47
   1   0   4  179.12    4.81
   1   0   4  176.41    5.01
  -1   0  -4  172.80    5.70
   1   0   4  184.49    4.34
  -1   0  -4  190.27    5.28
  -1   0  -5  129.59    4.86
  -1   0  -5  131.77    4.37
  -1   0  -5  131.11    4.58
   1   0   5  135.71    3.97
  -1   0  -5  124.33    5.01
   1   0   5  138.81    4.29
  -1   0  -5  131.00    4.97
   1   0   6   48.11    2.43
   1   0   6   47.03    2.16
  -1   0  -6   45.08    2.76
  -1   0  -6   48.34    2.82
  -1   0  -6   44.13    2.92
  -1   0  -6   48.20    3.24
  -1   0  -6   47.18    3.33
  -1   0  -7  206.62    7.23
  -1   0  -7  200.69    7.08
   1   0   7  203.17    5.80
  -1   0  -7  187.48    6.77
  -1   0  -7  201.67    7.57
   1   0   7  195.65    6.16
  -1   0  -7  183.71    8.03
  -1   0  -8  834.64   18.88
   1   0   8  836.81   16.19
  -1   0  -8  815.21   18.48
  -1   0  -8  809.62   19.48
   1   0   8  806.09   16.93
  -1   0  -8  775.12   18.32
  -1   0  -8  777.55   20.10
  -1   0  -9  482.29   13.58
  -1   0  -9  505.41   14.65
  -1   0  -9  448.58   12.77
  -1   0  -9  467.23   14.06
  -1   0  -9  454.62   13.24
   1   0   9  463.81   11.57
   1   0   9  481.82   12.15
  -1   0  -9  464.20   14.22
  -1   0  -9  485.73   14.88
   1   0   9  475.17   11.88
  -1   0  -9  461.07   14.33
   1   0  10  571.44   14.30
  -1   0 -10  569.42   15.99
  -1   0 -10  547.26   14.89
  -1   0 -10  582.40   17.01
  -1   0 -10  549.31   15.79
  -1   0 -10  598.87   16.94
   1   0  10  552.08   14.02
  -1   0 -10  613.77   17.20
  -1   0 -10  569.33   16.85
  -1   0 -10  588.27   16.78
   1   0  10  593.08   14.09
  -1   0 -11   27.05    3.24
  -1   0 -11   28.20    3.22
   1   0  11   28.09    2.65
  -1   0 -11   26.10    3.22
   1   0  11   25.84    2.48
   1   0  11   24.05    2.36
  -1   0 -11   23.20    3.13
   1   0  11   27.48    2.48
  -1   0 -11   25.85    3.13
  -1   0 -11   23.80    2.65
  -1   0 -11   27.68    3.26
  -1   0 -12   20.45    2.95
   1   0  12   18.63    2.17
  -1   0 -12   21.26    3.00
   1   0  12   23.59    2.42
   1   0  12   22.50    2.24
  -1   0 -12   24.51    3.14
  -1   0 -12   21.19    2.85
  -1   0 -13   86.38    5.98
   1   0  13   82.12    4.60
   1   0  13   81.57    4.28
  -1   0 -13   84.15    6.01
  -1   0 -13   81.88    5.93
   1   0  13   78.54    4.54
  -1   0 -13   76.23    5.79
  -1   0 -13   77.62    5.85
   1   0  14   18.56    2.10
   1   0  14   18.01    2.03
  -1   0 -14   17.18    2.72
   1   0  14   18.49    1.88
  -1   0 -14   21.70    3.03
  -1   0 -14   18.71    2.80
  -1   0 -14   21.73    3.01
  -1   0 -15   24.03    3.01
  -1   0 -15   22.04    2.83
   1   0  15   20.81    2.05
   1   0  15   25.15    2.32
  -1   0 -15   23.77    2.93
  -1   0 -16   74.57    4.73
   1   0  16   77.11    3.83
  -1   0 -16   77.49    5.07
  -1   0 -16   85.42    5.15
  -1   0 -17  144.06    5.78
   1   0  17  144.21    5.48
  -1   0 -17  143.93    6.13
  -1   0 -17  141.64    6.00
  -1  -1  19    8.85    0.96
   1   1 -19    7.82    1.08
  -1  -1  18   78.76    3.80
   1   1 -18   70.45    3.80
   1   1 -17  119.72    4.51
  -1  -1  17  109.19    5.14
   1   1 -17  109.59    5.51
   1   1 -17  109.54    5.56
  -1  -1  16  171.64    7.13
   1   1 -16  168.18    5.98
   1   1 -16  153.09    7.15
   1   1 -16  161.01    7.31
   1   1 -15  159.25    7.44
   1   1 -15  173.69    6.28
  -1  -1  15  151.32    6.33
  -1  -1  15  176.18    7.53
   1   1 -15  171.18    7.25
   1   1 -15  162.85    6.24
   1   1 -15  167.31    7.63
   1   1 -15  159.18    7.46
  -1  -1  14   91.75    4.85
   1   1 -14   92.45    4.46
   1   1 -14   87.83    5.35
   1   1 -14   85.04    4.28
  -1  -1  14   89.09    5.27
   1   1 -14   91.39    5.44
   1   1 -13  190.15    6.73
   1   1 -13  186.68    7.33
   1   1 -13  183.52    6.52
   1   1 -13  204.19    7.88
  -1  -1  13  200.51    8.15
  -1  -1  13  206.53    7.57
   1   1 -12   58.52    3.80
   1   1 -12   64.67    3.54
  -1  -1  12   51.87    3.11
   1   1 -12   55.11    3.48
  -1  -1  12   52.16    3.50
   1   1 -12   53.17    3.12
  -1  -1  12   54.62    3.26
  -1  -1  12   61.44    4.20
   1   1 -12   55.51    3.65
  -1  -1  11  211.13    7.61
   1   1 -11  209.18    6.80
  -1  -1  11  208.53    7.32
  -1  -1  11  220.32    6.54
   1   1 -11  215.07    7.00
   1   1 -11  216.97    6.60
  -1  -1  11  226.29    8.16
  -1  -1  11  195.69    6.63
   1   1 -11  204.43    7.07
   1   1 -10  202.75    6.64
   1   1 -10  230.64    6.90
  -1  -1  10  219.40    6.67
  -1  -1  10  227.45    6.55
   1   1 -10  208.52    6.42
  -1  -1  10  230.83    7.95
   1   1 -10  228.23    6.79
   1   1 -10  218.89    6.73
  -1  -1   9  255.68    7.16
   1   1  -9  264.37    7.21
  -1  -1   9  292.88    7.66
   1   1  -9  273.97    7.24
   1   1  -9  266.78    6.77
   1   1  -9  266.62    7.20
   1   1  -9  296.83    7.39
   1   1  -8  585.35   12.40
   1   1  -8  615.13   12.79
  -1  -1   8  623.60   13.34
   1   1  -8  595.47   12.56
   1   1  -7  117.17    3.57
  -1  -1   7  116.34    4.13
   1   1  -7  126.99    4.03
   1   1  -7  123.93    3.83
   1   1  -6  763.88   13.76
   1   1  -6  773.35   13.38
   1   1  -6  799.53   14.09
   1   1  -5  695.49   12.26
   1   1  -5  718.00   12.76
  -1  -1   5  664.04   13.64
   1   1  -5  697.10   13.07
   1   1  -5  698.42   12.91
   1   1  -4  646.27   11.53
  -1  -1   4  595.49   12.58
   1   1  -4  639.04   11.82
  -1  -1   4  617.08   12.41
   1   1  -4  661.00   11.73
   1   1  -3   91.29    2.69
   1   1  -3   93.39    2.49
  -1  -1   3   86.29    2.39
   1   1  -3   95.00    2.76
   1   1  -2   67.12    2.34
   1   1  -2   67.09    2.20
   1   1  -2   69.40    2.12
   1   1  -2   65.62    1.91
  -1  -1   2   67.55    1.89
   1   1  -1  249.74    5.65
  -1  -1   1  258.17    5.76
  -1  -1   1  246.72    4.71
   1   1  -1  257.87    5.69
   1   1  -1  258.14    5.27
  -1  -1   1  235.96    5.76
   1   1   0  273.50    6.00
   1   1   0  276.70    5.99
   1   1   0  264.87    5.46
  -1  -1   0  268.46    6.24
  -1  -1   0  252.25    5.75
  -1  -1   0  262.04    6.55
  -1  -1  -1  359.15    8.21
   1   1   1  348.83    7.41
   1   1   1  329.68    7.27
  -1  -1  -1  370.58    7.89
   1   1   1  342.69    6.87
  -1  -1  -2   81.34    3.37
   1   1   2   80.88    2.83
   1   1   2   81.19    2.74
   1   1   2   82.78    2.55
  -1  -1  -2   84.21    2.76
  -1  -1  -2   84.91    3.18
  -1  -1  -3  320.34    8.40
   1   1   3  327.68    7.26
   1   1   3  338.49    6.99
  -1  -1  -3  323.48    7.40
  -1  -1  -3  321.22    8.32
   1   1   3  330.23    7.06
  -1  -1  -3  306.60    7.79
  -1  -1  -4  359.11    9.44
   1   1   4  350.92    7.81
  -1  -1  -4  363.15    9.64
  -1  -1  -4  361.85    7.75
  -1  -1  -4  354.37    8.43
   1   1   4  346.23    7.41
  -1  -1  -4  341.68    8.82
  -1  -1  -4  350.99    9.08
   1   1   5  898.25   16.78
   1   1   5  899.29   16.13
  -1  -1  -5  822.93   17.25
  -1  -1  -5  941.75   19.69
  -1  -1  -5  912.55   18.24
  -1  -1  -5  987.85   20.07
  -1  -1  -5  916.52   18.95
  -1  -1  -5  953.10   19.44
   1   1   6  675.75   13.27
  -1  -1  -6  678.12   15.37
   1   1   6  740.67   14.37
  -1  -1  -6  705.25   16.49
  -1  -1  -6  707.94   16.69
  -1  -1  -6  703.85   16.90
  -1  -1  -6  641.95   16.18
  -1  -1  -7  255.49    8.44
  -1  -1  -7  264.37    9.36
   1   1   7  257.54    6.45
  -1  -1  -7  223.37    8.06
   1   1   7  266.09    7.45
  -1  -1  -7  276.24    9.78
  -1  -1  -7  249.72    9.06
  -1  -1  -7  234.26    9.24
  -1  -1  -8  101.04    5.71
  -1  -1  -8  101.50    6.03
  -1  -1  -8   98.06    5.26
  -1  -1  -8   97.08    4.93
   1   1   8  101.18    4.42
  -1  -1  -8   95.19    5.76
  -1  -1  -9    0.58    0.37
   1   1   9   -0.26    0.33
  -1  -1  -9    0.41    0.61
   1   1   9    0.15    0.64
   1   1   9    0.40    0.45
  -1  -1  -9    0.16    0.84
  -1  -1  -9    1.75    0.91
  -1  -1  -9   -0.21    0.73
  -1  -1  -9    0.83    0.74
  -1  -1 -10   24.98    2.57
   1   1  10   26.93    2.37
  -1  -1 -10   32.64    3.53
  -1  -1 -10   29.84    3.59
   1   1  10   28.48    2.63
  -1  -1 -10   32.41    3.53
  -1  -1 -10   28.29    3.27
   1   1  10   29.34    2.55
  -1  -1 -10   26.25    3.25
  -1  -1 -10   28.13    3.31
  -1  -1 -10   28.72    3.13
   1   1  11  380.91   10.64
  -1  -1 -11  398.02   13.88
   1   1  11  392.26   11.34
   1   1  11  394.49   11.51
  -1  -1 -11  397.01   13.81
  -1  -1 -11  361.86   13.32
  -1  -1 -11  374.08   13.66
  -1  -1 -11  376.37   13.11
  -1  -1 -11  402.72   14.62
  -1  -1 -12  205.29    9.75
  -1  -1 -12  212.05   10.54
   1   1  12  228.95    8.36
   1   1  12  216.94    7.95
  -1  -1 -12  226.50    9.99
  -1  -1 -12  232.29   10.38
  -1  -1 -12  220.40   10.07
   1   1  12  221.76    7.52
  -1  -1 -13    8.71    1.89
  -1  -1 -13   11.23    2.24
   1   1  13   10.93    1.72
   1   1  13   11.17    1.66
  -1  -1 -13    9.79    2.05
  -1  -1 -13   10.37    2.09
  -1  -1 -14  170.90    8.46
  -1  -1 -14  185.24    8.92
   1   1  14  163.38    6.59
   1   1  14  163.14    6.55
  -1  -1 -14  176.86    8.64
  -1  -1 -14  154.08    7.90
   1   1  14  171.34    5.91
  -1  -1 -14  161.87    8.34
  -1  -1 -15  200.24    8.69
  -1  -1 -15  190.52    8.61
   1   1  15  198.89    6.75
   1   1  15  190.69    5.78
  -1  -1 -15  183.07    8.20
   1   1  15  186.25    6.63
  -1  -1 -16   50.89    3.83
   1   1  16   49.37    3.27
  -1  -1 -16   46.52    3.50
   1   1  16   44.10    2.65
  -1  -1 -16   46.86    3.60
  -1  -1 -17   70.17    3.73
  -1  -1 -17   79.53    4.02
   1   1  17   76.22    3.53
  -1  -1 -17   70.06    3.61
   1   2 -19   35.83    2.36
  -1  -2  19   36.50    2.14
   1   2 -18   32.19    2.05
  -1  -2  18   32.84    2.43
   1   2 -17   41.94    2.68
   1   2 -17   39.94    3.10
  -1  -2  17   35.79    2.88
   1   2 -17   39.68    3.22
   1   2 -16    5.54    1.26
  -1  -2  16    6.71    1.17
   1   2 -16    6.66    1.13
  -1  -2  16    5.88    1.30
   1   2 -16    4.42    1.13
  -1  -2  15   38.45    3.05
   1   2 -15   37.74    2.81
   1   2 -15   38.73    3.49
   1   2 -15   37.46    3.36
  -1  -2  15   38.86    3.36
   1   2 -15   35.64    3.29
   1   2 -15   42.66    3.05
   1   2 -14   18.12    1.93
  -1  -2  14   15.97    1.98
   1   2 -14   19.50    2.02
  -1  -2  14   17.99    1.93
  -1  -2  14   19.32    2.43
   1   2 -14   17.94    2.28
   1   2 -14   17.31    2.29
   1   2 -13  251.96    7.80
   1   2 -13  234.23    8.42
   1   2 -13  227.49    7.64
  -1  -2  13  231.22    8.35
  -1  -2  13  229.04    8.91
   1   2 -13  251.42    8.57
   1   2 -13  240.80    8.85
  -1  -2  13  232.83    7.81
  -1  -2  12  489.06   13.17
   1   2 -12  488.61   12.69
  -1  -2  12  459.57   12.73
  -1  -2  12  498.13   12.38
   1   2 -12  466.61   11.70
  -1  -2  12  462.48   13.51
  -1  -2  11  372.69   10.81
  -1  -2  11  388.71   10.80
   1   2 -11  379.52   10.01
  -1  -2  11  383.76    9.22
   1   2 -11  388.31   10.26
  -1  -2  11  374.82   10.04
   1   2 -11  375.15    9.66
  -1  -2  11  382.12   11.43
  -1  -2  10  465.16   10.15
   1   2 -10  459.83   10.83
   1   2 -10  409.62   10.41
   1   2 -10  419.49   10.17
  -1  -2  10  425.51   10.61
  -1  -2  10  421.71   11.91
   1   2  -9   48.50    2.58
   1   2  -9   40.14    2.37
   1   2  -9   44.47    2.48
  -1  -2   9   48.69    2.59
  -1  -2   9   41.40    2.52
   1   2  -8  281.32    6.91
  -1  -2   8  273.38    7.19
   1   2  -8  291.63    7.21
   1   2  -8  291.70    7.10
   1   2  -7  311.64    6.97
   1   2  -7  320.97    7.24
  -1  -2   7  319.19    7.70
  -1  -2   7  304.86    7.07
   1   2  -6    0.33    0.19
   1   2  -6    0.83    0.32
  -1  -2   6    0.88    0.39
  -1  -2   6    0.66    0.22
   1   2  -6    0.55    0.29
   1   2  -5   43.00    1.52
   1   2  -5   44.72    1.92
   1   2  -5   46.97    1.78
  -1  -2   5   41.23    2.22
  -1  -2   5   47.02    2.47
   1   2  -4  140.88    4.30
  -1  -2   4  136.21    4.45
  -1  -2   4  161.11    4.75
   1   2  -4  153.60    3.51
   1   2  -4  152.99    3.83
   1   2  -4  156.44    3.77
  -1  -2   4  150.26    4.01
   1   2  -3  443.20    7.71
  -1  -2   3  442.21    9.43
   1   2  -3  421.05    8.12
  -1  -2   3  445.10    9.28
  -1  -2   3  429.81    8.45
  -1  -2   2  832.65   15.92
   1   2  -2  817.78   15.54
   1   2  -2  866.40   14.67
  -1  -2   2  848.79   16.10
   1   2  -2  886.16   14.19
  -1  -2   2  830.97   15.02
  -1  -2   1 9819.76  153.10
   1   2  -1 9999.00  153.62
  -1  -2   1 9884.49  154.18
  -1  -2   1 9889.80  154.21
   1   2  -1 9248.87  151.91
   1   2  -1 9397.87  153.82
  -1  -2   1 9803.92  154.91
   1   2   0 2739.18   43.99
  -1  -2   0 2686.68   45.23
  -1  -2   0 2676.62   44.32
   1   2   0 2671.86   43.90
  -1  -2   0 2635.14   44.51
   1   2   1   32.30    1.65
  -1  -2  -1   34.07    2.18
  -1  -2  -1   33.46    1.95
   1   2   1   31.13    1.65
   1   2   2  673.63   12.79
  -1  -2  -2  681.67   14.68
   1   2   2  670.10   12.98
  -1  -2  -2  694.13   12.81
  -1  -2  -2  676.62   14.49
  -1  -2  -2  708.84   13.98
  -1  -2  -3  122.93    5.09
   1   2   3  123.58    3.89
   1   2   3  120.32    3.60
  -1  -2  -3  126.74    4.10
  -1  -2  -3  122.78    5.10
  -1  -2  -3  113.23    4.35
  -1  -2  -3  117.91    4.63
  -1  -2  -4   99.92    5.12
  -1  -2  -4  108.34    4.29
  -1  -2  -4  104.18    3.25
   1   2   4  103.45    3.29
   1   2   4  101.65    3.63
  -1  -2  -4  107.10    5.32
  -1  -2  -4   98.43    4.28
  -1  -2  -4  102.19    4.81
  -1  -2  -5   27.17    1.85
  -1  -2  -5   26.49    2.34
   1   2   5   29.25    1.62
   1   2   5   28.86    1.98
  -1  -2  -5   28.90    2.98
  -1  -2  -5   25.93    2.31
  -1  -2  -5   27.92    2.79
  -1  -2  -5   29.44    3.07
  -1  -2  -6  134.46    6.93
   1   2   6  127.19    4.75
  -1  -2  -6  129.70    6.04
  -1  -2  -6  136.75    7.00
   1   2   6  129.39    3.80
  -1  -2  -6  139.49    5.92
  -1  -2  -6  130.50    6.47
  -1  -2  -7    2.99    1.16
  -1  -2  -7    3.32    1.07
  -1  -2  -7    1.96    0.78
  -1  -2  -7    1.54    0.90
   1   2   7    2.82    0.73
  -1  -2  -7    1.59    0.59
  -1  -2  -7    1.94    0.82
  -1  -2  -8  139.27    7.40
  -1  -2  -8  130.57    5.67
  -1  -2  -8  145.80    7.82
  -1  -2  -8  139.30    6.61
   1   2   8  142.44    5.52
  -1  -2  -8  136.57    7.19
   1   2   8  144.92    5.40
  -1  -2  -8  150.52    7.51
  -1  -2  -8  132.59    7.19
  -1  -2  -9  143.62    7.72
  -1  -2  -9  140.60    6.96
   1   2   9  137.81    5.52
   1   2   9  148.18    6.21
   1   2   9  135.28    5.68
  -1  -2  -9  136.01    7.87
  -1  -2  -9  150.34    7.68
  -1  -2  -9  127.16    6.98
  -1  -2  -9  148.64    7.78
  -1  -2 -10  162.98    8.55
   1   2  10  147.07    6.54
  -1  -2 -10  151.62    7.59
   1   2  10  162.83    6.46
   1   2  10  157.27    6.04
  -1  -2 -10  149.95    7.93
  -1  -2 -10  162.63    8.49
  -1  -2 -10  152.06    8.64
  -1  -2 -11  712.30   20.51
   1   2  11  681.65   16.42
   1   2  11  675.56   17.03
  -1  -2 -11  707.07   19.95
  -1  -2 -11  661.28   18.86
  -1  -2 -11  676.79   20.90
  -1  -2 -11  672.64   19.37
  -1  -2 -11  709.77   20.45
  -1  -2 -12   54.14    4.97
  -1  -2 -12   47.73    4.55
   1   2  12   53.41    3.63
   1   2  12   53.04    3.85
  -1  -2 -12   49.84    5.03
  -1  -2 -12   51.50    4.62
   1   2  12   51.11    3.25
  -1  -2 -12   47.48    4.46
  -1  -2 -12   56.00    4.71
   1   2  13   64.34    4.11
  -1  -2 -13   58.25    5.00
  -1  -2 -13   63.30    4.99
  -1  -2 -13   59.46    4.89
   1   2  13   60.23    3.83
   1   2  13   65.84    3.53
  -1  -2 -13   66.13    5.10
  -1  -2 -14  143.13    7.66
  -1  -2 -14  117.18    6.74
   1   2  14  126.13    5.57
   1   2  14  124.50    5.38
  -1  -2 -14  130.64    6.85
   1   2  14  127.47    4.75
  -1  -2 -14  132.40    7.24
  -1  -2 -15   14.20    2.12
  -1  -2 -15   13.76    2.01
   1   2  15   12.12    1.45
   1   2  15   12.58    1.74
  -1  -2 -15   11.35    1.91
   1   2  15   13.16    1.52
  -1  -2 -15   11.98    1.82
  -1  -2 -16    0.69    0.45
  -1  -2 -16    2.91    0.93
   1   2  16    2.72    0.78
  -1  -2 -16    1.35    0.74
  -1  -3  19   12.11    1.21
   1   3 -18   24.96    1.89
   1   3 -18   22.57    2.18
  -1  -3  18   23.79    2.07
  -1  -3  17   51.26    3.45
   1   3 -17   48.42    2.98
  -1  -3  17   51.90    3.08
   1   3 -17   49.14    3.51
  -1  -3  16  229.46    7.84
   1   3 -16  237.50    7.65
   1   3 -16  225.62    8.29
  -1  -3  16  221.10    8.29
   1   3 -16  215.41    8.36
   1   3 -15   76.46    4.16
  -1  -3  15   73.00    4.34
  -1  -3  15   73.77    4.66
   1   3 -15   68.23    4.00
   1   3 -15   70.92    4.51
   1   3 -15   71.96    4.62
  -1  -3  15   71.58    3.97
   1   3 -14   19.28    2.07
  -1  -3  14   20.18    2.29
  -1  -3  14   18.70    2.05
  -1  -3  14   17.79    2.33
   1   3 -14   17.53    1.94
   1   3 -14   17.27    2.25
   1   3 -14   21.07    2.47
   1   3 -13  790.22   17.51
   1   3 -13  782.00   20.28
   1   3 -13  777.03   17.90
   1   3 -13  800.91   18.85
   1   3 -13  806.43   17.76
  -1  -3  13  798.54   18.66
  -1  -3  13  813.53   18.03
  -1  -3  13  786.23   19.46
   1   3 -13  801.84   19.01
   1   3 -13  773.65   18.49
   1   3 -12  168.84    7.67
  -1  -3  12  177.50    7.08
   1   3 -12  180.40    7.00
   1   3 -12  195.35    6.80
   1   3 -12  165.78    6.15
  -1  -3  12  174.40    6.96
  -1  -3  12  180.29    6.71
   1   3 -12  199.82    6.03
   1   3 -12  169.58    6.74
   1   3 -11   39.20    3.29
  -1  -3  11   42.89    3.21
   1   3 -11   47.99    3.01
   1   3 -11   40.98    2.87
   1   3 -11   49.06    2.91
   1   3 -11   42.14    2.92
  -1  -3  11   40.58    2.84
   1   3 -11   53.30    2.76
  -1  -3  11   40.10    3.30
  -1  -3  11   42.07    3.09
   1   3 -10  193.38    6.40
  -1  -3  10  196.99    6.56
   1   3 -10  203.11    6.26
  -1  -3  10  206.74    7.67
   1   3 -10  189.62    6.35
   1   3  -9    5.13    1.08
   1   3  -9    5.01    0.86
  -1  -3   9    4.40    0.85
   1   3  -9    6.45    0.95
  -1  -3   9    5.94    0.90
  -1  -3   9    5.48    0.82
   1   3  -8   76.56    3.84
   1   3  -8   73.10    3.07
  -1  -3   8   80.54    3.25
   1   3  -8   85.98    3.28
  -1  -3   8   81.89    3.26
   1   3  -7  256.66    7.53
  -1  -3   7  279.75    6.82
   1   3  -7  277.27    6.63
  -1  -3   7  266.34    7.87
  -1  -3   7  284.33    6.85
   1   3  -7  268.53    6.45
   1   3  -6  663.23   12.47
   1   3  -6  660.30   12.17
  -1  -3   6  643.70   12.88
  -1  -3   6  685.03   14.31
  -1  -3   5  487.37   10.61
   1   3  -5  506.00   11.13
   1   3  -5  508.74    9.58
  -1  -3   5  536.04   10.92
   1   3  -5  511.16    9.93
  -1  -3   5  545.54   11.72
   1   3  -4  375.98    8.85
  -1  -3   4  367.83    8.76
  -1  -3   4  412.15    9.36
   1   3  -4  404.57    7.40
   1   3  -4  390.47    7.74
  -1  -3   4  399.27    9.33
  -1  -3   4  394.30    8.52
  -1  -3   3  595.33   12.57
  -1  -3   3  603.75   12.36
   1   3  -3  577.71   11.96
   1   3  -3  604.57   10.67
  -1  -3   3  586.16   12.41
   1   3  -3  596.72   10.18
   1   3  -2  562.74    9.44
  -1  -3   2  549.93   11.02
   1   3  -2  556.45   11.39
  -1  -3   2  582.86   11.58
  -1  -3   2  550.54   11.87
  -1  -3   2  585.63   12.03
   1   3  -2  610.57   10.07
  -1  -3   1  313.47    7.99
  -1  -3   1  321.58    7.66
  -1  -3   1  298.07    7.22
  -1  -3   1  313.55    6.84
   1   3  -1  306.07    7.20
  -1  -3   0    0.30    0.30
   1   3   0    0.65    0.30
  -1  -3   0    0.16    0.24
  -1  -3  -1   46.24    2.87
  -1  -3  -1   41.59    2.57
  -1  -3  -1   45.56    2.48
   1   3   1   46.03    2.32
   1   3   1   50.31    2.11
  -1  -3  -2   -0.04    0.38
  -1  -3  -2   -0.18    0.35
   1   3   2    0.31    0.21
   1   3   2    0.11    0.22
  -1  -3  -2   -0.13    0.55
  -1  -3  -2    0.98    0.40
  -1  -3  -2    0.18    0.25
  -1  -3  -3   40.32    3.25
   1   3   3   41.69    2.34
  -1  -3  -3   43.59    2.52
  -1  -3  -3   40.94    3.27
  -1  -3  -3   43.57    2.70
  -1  -3  -3   35.65    2.79
   1   3   3   45.50    1.99
  -1  -3  -4  443.34   14.60
   1   3   4  490.41   11.25
  -1  -3  -4  497.65   12.34
  -1  -3  -4  466.70   14.88
   1   3   4  523.01   11.44
  -1  -3  -4  443.99   13.81
   1   3   4  558.43   10.21
  -1  -3  -5   59.27    5.10
  -1  -3  -5   66.27    5.21
  -1  -3  -5   57.34    3.67
   1   3   5   56.34    3.06
  -1  -3  -5   74.67    5.14
   1   3   5   66.57    2.38
   1   3   5   64.51    3.26
  -1  -3  -6  252.43   10.66
  -1  -3  -6  223.67    8.33
   1   3   6  219.96    6.93
  -1  -3  -6  236.50   10.33
  -1  -3  -6  218.70    8.45
  -1  -3  -6  227.62    9.55
  -1  -3  -7  236.20   10.48
   1   3   7  228.15    7.36
  -1  -3  -7  234.38   10.51
  -1  -3  -7  221.53    8.60
  -1  -3  -7  231.79    9.32
  -1  -3  -7  237.42    9.95
  -1  -3  -8  160.67    8.54
  -1  -3  -8  154.99    7.75
  -1  -3  -8  140.08    6.87
   1   3   8  141.42    6.22
   1   3   8  151.22    5.92
  -1  -3  -8  163.48    8.72
  -1  -3  -8  154.06    7.84
  -1  -3  -8  145.45    7.74
  -1  -3  -9  749.19   21.37
  -1  -3  -9  710.57   18.89
   1   3   9  731.67   17.68
   1   3   9  745.58   16.92
  -1  -3  -9  747.55   21.74
  -1  -3  -9  686.77   19.51
  -1  -3  -9  727.38   20.57
  -1  -3 -10  294.81   12.50
  -1  -3 -10  309.16   11.31
   1   3  10  294.88   10.02
   1   3  10  291.06    9.45
  -1  -3 -10  280.60   12.64
  -1  -3 -10  300.15   11.67
  -1  -3 -10  331.64   12.95
  -1  -3 -10  323.91   12.04
   1   3  10  306.56    9.04
  -1  -3 -11    1.94    0.99
  -1  -3 -11    2.31    1.07
  -1  -3 -11    2.03    0.69
  -1  -3 -11    1.16    0.82
   1   3  11    2.11    0.73
   1   3  11    1.92    0.66
  -1  -3 -11    4.25    1.43
  -1  -3 -11    2.59    1.20
   1   3  11    1.76    0.65
  -1  -3 -12    0.54    0.90
   1   3  12    4.43    1.04
  -1  -3 -12    4.15    1.52
   1   3  12    2.65    0.90
  -1  -3 -12    3.58    1.53
  -1  -3 -12    3.13    1.25
  -1  -3 -12    2.66    1.11
   1   3  12    3.70    0.90
  -1  -3 -12    3.20    1.16
   1   3  13   11.48    1.38
  -1  -3 -13   10.11    2.00
   1   3  13   13.28    1.67
  -1  -3 -13   12.23    2.23
   1   3  13   11.29    1.68
  -1  -3 -13   12.55    2.22
   1   3  13    9.43    1.71
  -1  -3 -13    9.36    1.80
  -1  -3 -14   84.91    5.78
   1   3  14   80.31    4.64
  -1  -3 -14   83.54    5.23
  -1  -3 -14   87.04    5.07
  -1  -3 -14   77.29    5.20
   1   3  14   76.90    3.88
  -1  -3 -15   54.50    3.75
  -1  -3 -15   53.56    3.85
   1   3  15   54.21    3.39
  -1  -3 -15   52.71    3.35
  -1  -3 -15   54.52    3.89
   1   3  16  170.33    5.43
  -1  -3 -16  161.50    5.95
  -1  -3 -16  163.82    5.66
  -1  -4  19  139.74    4.47
   1   4 -18  193.87    5.98
  -1  -4  18  187.75    6.27
   1   4 -18  173.36    6.16
   1   4 -17  168.83    6.03
  -1  -4  17  161.10    5.91
  -1  -4  17  168.45    6.51
  -1  -4  16  103.34    5.29
   1   4 -16   93.82    4.60
  -1  -4  16   99.92    4.91
  -1  -4  16   98.32    4.53
   1   4 -16   93.22    5.01
   1   4 -15    8.20    1.34
  -1  -4  15    9.92    1.83
  -1  -4  15   10.22    1.66
   1   4 -15    8.65    1.48
  -1  -4  15    8.65    1.35
   1   4 -15    8.81    1.57
   1   4 -14   19.04    2.11
  -1  -4  14   18.64    2.23
   1   4 -14   21.96    2.19
  -1  -4  14   23.13    2.64
  -1  -4  14   20.76    2.21
   1   4 -14   19.76    2.35
   1   4 -13  134.91    7.07
   1   4 -13  152.02    6.72
   1   4 -13  155.79    6.23
  -1  -4  13  154.08    6.65
  -1  -4  13  139.56    6.85
   1   4 -13  156.84    6.75
  -1  -4  13  158.34    6.42
   1   4 -13  163.47    6.27
   1   4 -13  160.55    5.56
   1   4 -12   10.23    1.84
  -1  -4  12   10.45    1.67
   1   4 -12   11.29    1.61
   1   4 -12   16.27    1.83
  -1  -4  12   11.42    1.73
   1   4 -12   10.17    1.28
  -1  -4  12   11.63    1.60
  -1  -4  12   12.03    1.96
   1   4 -12   11.36    1.53
   1   4 -12   13.41    1.75
   1   4 -12   11.15    1.43
  -1  -4  11  111.28    5.44
   1   4 -11  112.58    5.82
   1   4 -11  115.46    5.12
   1   4 -11  118.50    4.96
  -1  -4  11  113.23    5.32
  -1  -4  11  112.85    5.07
  -1  -4  11  117.37    5.91
   1   4 -11  116.55    4.51
   1   4 -11  121.92    4.89
   1   4 -10  525.32   14.19
   1   4 -10  551.18   12.94
   1   4 -10  587.96   13.08
  -1  -4  10  552.54   13.25
  -1  -4  10  574.84   14.79
   1   4 -10  562.63   12.33
   1   4 -10  564.16   12.67
  -1  -4  10  558.65   12.80
   1   4  -9  443.00   12.07
   1   4  -9  471.10   10.86
  -1  -4   9  459.64   10.92
   1   4  -8  323.72    7.75
   1   4  -8  307.99    7.57
  -1  -4   8  313.40    8.03
   1   4  -7  237.52    7.37
   1   4  -7  248.38    6.15
   1   4  -7  234.11    6.06
  -1  -4   7  249.28    7.75
   1   4  -6  339.44    8.98
   1   4  -6  331.33    7.36
   1   4  -6  353.88    7.58
  -1  -4   6  343.04    7.76
  -1  -4   6  359.07    9.45
  -1  -4   6  330.76    8.48
  -1  -4   5   41.07    2.32
   1   4  -5   39.46    2.45
   1   4  -5   40.98    1.72
   1   4  -5   43.40    1.87
  -1  -4   5   45.31    2.71
   1   4  -4   71.22    2.15
   1   4  -4   64.54    3.08
   1   4  -4   68.24    2.30
  -1  -4   4   68.11    3.34
  -1  -4   4   63.47    2.85
  -1  -4   4   66.40    3.26
  -1  -4   4   62.06    2.85
  -1  -4   3  125.94    4.61
  -1  -4   3  121.01    4.53
  -1  -4   3  117.74    4.03
   1   4  -3  128.54    3.23
   1   4  -3  114.53    4.18
  -1  -4   3  125.82    4.54
  -1  -4   2   40.80    2.54
  -1  -4   2   42.92    2.51
  -1  -4   2   45.92    2.30
   1   4  -2   48.96    1.63
  -1  -4   2   44.52    2.29
  -1  -4   2   44.75    2.60
   1   4  -2   45.36    2.44
  -1  -4   1   29.65    2.31
  -1  -4   1   31.50    1.88
  -1  -4   1   31.26    2.14
   1   4  -1   33.53    2.09
  -1  -4   1   27.90    1.82
  -1  -4   0  182.50    6.24
  -1  -4   0  163.78    5.30
  -1  -4   0  171.92    5.66
   1   4   0  174.62    5.39
   1   4   1  437.34   10.26
  -1  -4  -1  468.71   11.83
  -1  -4  -1  457.12   11.32
  -1  -4  -1  418.44   10.40
  -1  -4  -2  469.99   12.88
   1   4   2  463.76   10.86
   1   4   2  466.18   10.66
  -1  -4  -2  484.10   12.89
  -1  -4  -2  457.27   11.33
  -1  -4  -2  471.57   11.60
  -1  -4  -3  846.19   21.08
  -1  -4  -3  848.61   17.79
   1   4   3  893.64   17.83
   1   4   3  935.78   17.64
  -1  -4  -3  770.79   20.55
  -1  -4  -3  902.33   18.56
  -1  -4  -3  801.51   19.49
  -1  -4  -4  579.17   17.67
   1   4   4  637.25   13.43
   1   4   4  634.68   13.67
  -1  -4  -4  508.20   17.04
  -1  -4  -4  604.08   14.44
  -1  -4  -4  476.27   15.58
  -1  -4  -5    6.71    1.75
  -1  -4  -5    6.98    1.37
  -1  -4  -5   10.36    1.65
   1   4   5    7.16    1.19
   1   4   5    8.63    1.23
  -1  -4  -5    9.63    1.81
  -1  -4  -6  231.64   10.71
  -1  -4  -6  209.62    8.14
   1   4   6  216.09    7.13
  -1  -4  -6  204.45   10.11
   1   4   6  240.96    8.13
  -1  -4  -6  223.60    8.76
   1   4   6  216.31    6.89
  -1  -4  -6  210.22    9.41
  -1  -4  -7  146.68    8.53
  -1  -4  -7  136.38    6.60
   1   4   7  136.70    5.67
  -1  -4  -7  143.69    8.38
   1   4   7  147.37    6.39
  -1  -4  -7  146.83    7.40
   1   4   7  148.08    5.59
  -1  -4  -7  136.80    7.59
  -1  -4  -8   35.04    4.20
   1   4   8   28.26    2.78
   1   4   8   30.16    2.60
  -1  -4  -8   32.99    3.51
  -1  -4  -8   32.52    3.63
   1   4   8   31.09    2.50
  -1  -4  -8   34.03    4.07
  -1  -4  -8   34.88    3.32
  -1  -4  -9  205.84   10.47
  -1  -4  -9  219.00    9.11
  -1  -4  -9  205.46   10.55
   1   4   9  200.26    8.32
   1   4   9  214.23    8.29
   1   4   9  200.76    7.46
  -1  -4  -9  218.84    9.58
  -1  -4  -9  210.94   10.13
   1   4   9  214.26    7.23
  -1  -4 -10  151.07    7.57
  -1  -4 -10  144.91    8.72
  -1  -4 -10  152.26    9.03
   1   4  10  148.07    6.80
   1   4  10  151.82    6.31
  -1  -4 -10  136.59    7.69
  -1  -4 -10  147.20    7.82
   1   4  10  153.89    7.23
   1   4  10  150.34    5.91
  -1  -4 -11   15.11    2.90
  -1  -4 -11   18.20    3.14
  -1  -4 -11   15.41    2.58
   1   4  11   15.55    2.16
  -1  -4 -11   14.30    2.31
   1   4  11   16.84    2.23
   1   4  11   15.67    1.91
  -1  -4 -11   14.26    2.35
   1   4  11   14.62    1.70
  -1  -4 -12   86.10    6.44
  -1  -4 -12   79.69    5.53
  -1  -4 -12   83.73    5.58
   1   4  12   83.08    4.75
   1   4  12   80.44    4.32
   1   4  12   83.23    5.07
  -1  -4 -12   91.41    6.80
  -1  -4 -12   88.81    5.70
   1   4  12   92.68    4.18
  -1  -4 -13  221.64    9.27
   1   4  13  234.59    8.54
  -1  -4 -13  241.45    9.29
   1   4  13  227.84    6.67
   1   4  14   93.31    4.62
  -1  -4 -14   86.48    5.09
  -1  -4 -14   90.74    4.93
  -1  -4 -14   93.53    5.78
  -1  -4 -15  118.25    5.18
  -1  -4 -15  111.11    4.57
   1   4  15  112.86    4.50
  -1  -4 -15  106.53    5.15
   1   5 -18   51.09    2.81
  -1  -5  18   48.91    2.56
  -1  -5  18   50.20    2.92
   1   5 -17    0.82    0.43
  -1  -5  17    0.59    0.48
  -1  -5  17    0.64    0.34
   1   5 -16   36.30    2.78
  -1  -5  16   37.84    2.73
  -1  -5  16   35.90    3.02
  -1  -5  16   39.01    2.96
   1   5 -15   86.70    4.53
  -1  -5  15   85.46    4.74
   1   5 -15   81.49    4.57
  -1  -5  15   82.46    4.44
  -1  -5  15   88.50    5.09
   1   5 -15   83.96    4.61
  -1  -5  14   78.80    4.95
   1   5 -14   85.86    4.60
  -1  -5  14   87.05    4.88
  -1  -5  14   84.33    4.60
   1   5 -14   92.83    4.83
   1   5 -14   88.83    4.17
   1   5 -14   80.66    4.59
   1   5 -13   59.68    4.62
   1   5 -13   55.08    3.93
   1   5 -13   59.58    3.72
  -1  -5  13   57.20    3.96
  -1  -5  13   54.69    4.16
   1   5 -13   59.98    3.72
  -1  -5  13   53.68    3.63
   1   5 -13   57.36    3.27
   1   5 -12  332.19   11.52
   1   5 -12  325.33   10.20
   1   5 -12  324.20    9.70
  -1  -5  12  319.61   10.28
  -1  -5  12  320.53   10.95
   1   5 -12  348.14    9.86
  -1  -5  12  318.23    9.94
   1   5 -12  364.79    9.39
  -1  -5  11  359.91   10.30
   1   5 -11  342.83   11.39
   1   5 -11  333.42    9.93
   1   5 -11  342.78    9.72
   1   5 -11  356.47    9.75
  -1  -5  11  369.14   11.56
   1   5 -11  388.50    9.58
  -1  -5  11  332.37    9.74
   1   5 -10   18.03    2.22
   1   5 -10   19.77    1.91
   1   5 -10   22.81    2.04
  -1  -5  10   21.77    2.15
   1   5 -10   23.77    1.93
   1   5 -10   22.29    1.94
  -1  -5  10   20.16    2.36
  -1  -5  10   20.86    1.99
   1   5  -9  523.52   14.09
   1   5  -9  561.49   12.65
   1   5  -9  599.95   12.90
   1   5  -9  583.04   12.54
  -1  -5   9  563.48   14.81
   1   5  -9  498.80   12.43
   1   5  -9  607.07   12.64
  -1  -5   9  546.73   12.91
   1   5  -8  439.87   11.96
  -1  -5   8  442.05   12.17
   1   5  -8  459.33   10.40
   1   5  -8  458.45   10.28
   1   5  -7   55.52    2.56
   1   5  -7   46.66    3.16
  -1  -5   7   48.97    3.34
   1   5  -6   10.92    1.00
   1   5  -6   11.20    1.45
   1   5  -6   12.61    1.12
  -1  -5   6   11.44    1.52
  -1  -5   6   13.46    1.48
   1   5  -5  182.80    6.21
  -1  -5   5  191.82    6.56
  -1  -5   5  183.98    6.38
   1   5  -5  193.26    4.98
  -1  -5   5  187.65    6.07
  -1  -5   4  146.27    5.49
  -1  -5   4  152.52    5.20
   1   5  -4  150.59    4.04
  -1  -5   4  146.44    5.47
  -1  -5   4  139.33    4.59
   1   5  -4  139.40    5.11
  -1  -5   4  157.45    5.60
  -1  -5   3  272.19    8.05
  -1  -5   3  282.66    8.11
   1   5  -3  284.31    6.15
   1   5  -3  280.27    7.86
  -1  -5   3  281.04    7.58
  -1  -5   2  543.44   12.80
  -1  -5   2  541.31   12.76
  -1  -5   2  549.84   11.63
  -1  -5   2  555.74   12.91
  -1  -5   2  567.97   12.22
   1   5  -2  526.68   12.38
  -1  -5   1  129.80    5.49
  -1  -5   1  147.95    5.55
  -1  -5   1  138.15    4.85
   1   5  -1  144.95    5.21
  -1  -5   1  139.34    4.66
  -1  -5   0  699.98   16.11
  -1  -5   0  696.97   14.61
   1   5   0  687.54   14.95
  -1  -5   0  665.96   15.12
  -1  -5  -1  552.11   14.03
  -1  -5  -1  552.96   14.65
   1   5   1  592.17   13.35
  -1  -5  -2   10.98    1.85
   1   5   2   12.96    1.54
  -1  -5  -2   15.29    2.06
  -1  -5  -2   11.80    1.53
  -1  -5  -2   11.12    1.51
  -1  -5  -3  126.14    6.95
   1   5   3  134.38    5.39
  -1  -5  -3  119.19    6.70
  -1  -5  -3  130.90    5.67
  -1  -5  -3  126.61    6.10
  -1  -5  -4   -0.26    0.65
  -1  -5  -4   -0.97    0.56
   1   5   4    0.31    0.27
  -1  -5  -4    1.60    1.28
  -1  -5  -4    0.74    0.81
  -1  -5  -5  131.98    8.15
   1   5   5  125.15    5.45
   1   5   5  148.14    6.38
  -1  -5  -5  142.10    8.23
  -1  -5  -5  141.01    6.60
   1   5   5  133.96    5.48
   1   5   5  148.50    5.57
   1   5   5  148.80    6.13
  -1  -5  -5  138.12    7.37
  -1  -5  -6    0.96    1.08
  -1  -5  -6    0.56    0.65
   1   5   6    0.37    0.67
   1   5   6    0.86    0.62
   1   5   6    0.38    0.69
  -1  -5  -6    0.46    0.66
   1   5   6    0.36    0.56
   1   5   6    0.53    0.52
  -1  -5  -6    0.19    0.80
  -1  -5  -7   83.38    6.65
   1   5   7   69.57    3.94
   1   5   7   91.14    5.14
   1   5   7   79.86    4.33
   1   5   7   90.80    5.30
  -1  -5  -7   83.36    5.67
  -1  -5  -7   78.76    6.42
   1   5   7   78.63    4.11
  -1  -5  -7   72.44    5.60
  -1  -5  -8   89.77    6.92
  -1  -5  -8  100.46    7.39
   1   5   8   88.82    4.73
   1   5   8  102.23    5.55
   1   5   8  103.15    5.73
  -1  -5  -8   89.40    6.23
   1   5   8   91.25    4.55
   1   5   9   57.44    3.73
  -1  -5  -9   62.65    5.80
  -1  -5  -9   59.87    5.65
   1   5   9   53.16    4.13
   1   5   9   62.07    3.67
   1   5   9   57.90    4.17
  -1  -5 -10  159.37    9.37
  -1  -5 -10  162.38    8.26
  -1  -5 -10  166.72    9.59
  -1  -5 -10  166.45    8.06
   1   5  10  167.50    7.59
   1   5  10  165.68    6.26
  -1  -5 -11  407.07   15.51
  -1  -5 -11  394.87   13.47
  -1  -5 -11  410.15   15.58
  -1  -5 -11  441.37   13.64
   1   5  11  421.56   12.71
   1   5  11  411.36   10.69
   1   5  12   72.74    4.50
  -1  -5 -12   85.68    5.14
   1   5  12   81.41    3.70
  -1  -5 -12   72.79    4.99
  -1  -5 -13   30.53    3.44
   1   5  13   32.80    2.70
  -1  -5 -13   29.64    2.97
  -1  -5 -14   24.50    2.65
   1   5  14   27.80    2.15
  -1  -5 -14   29.66    2.50
   1   6 -18   54.05    2.84
  -1  -6  18   53.78    2.61
  -1  -6  18   58.20    2.96
   1   6 -17  372.93    9.89
  -1  -6  17  369.99    9.64
  -1  -6  17  353.34    9.20
   1   6 -16   72.71    4.03
  -1  -6  16   71.90    4.01
  -1  -6  16   75.49    3.91
  -1  -6  16   76.76    4.38
   1   6 -15  128.13    5.66
  -1  -6  15  130.40    5.87
   1   6 -15  130.42    5.15
  -1  -6  15  125.49    5.54
  -1  -6  15  110.36    5.73
   1   6 -14  141.58    6.10
  -1  -6  14  138.10    6.09
   1   6 -14  152.13    6.42
  -1  -6  14  135.69    6.61
   1   6 -14  139.93    5.55
  -1  -6  14  142.62    6.36
   1   6 -13   64.07    3.94
  -1  -6  13   66.61    4.30
  -1  -6  13   67.62    4.18
   1   6 -13   67.58    3.70
   1   6 -13   71.32    4.19
  -1  -6  13   62.53    4.47
   1   6 -12  114.97    6.40
   1   6 -12  107.67    5.10
  -1  -6  12  103.71    5.43
  -1  -6  12  109.12    6.00
   1   6 -12  116.40    5.30
  -1  -6  12  107.35    5.36
   1   6 -12  113.79    4.89
   1   6 -11    3.81    1.05
   1   6 -11    5.78    1.02
  -1  -6  11    4.26    1.01
  -1  -6  11    3.78    1.08
   1   6 -11    4.75    1.03
   1   6 -11    4.86    0.98
  -1  -6  11    4.54    0.99
   1   6 -11    6.24    1.15
   1   6 -10    2.06    0.70
   1   6 -10    1.37    0.77
   1   6 -10    0.99    0.39
   1   6 -10    1.24    0.45
  -1  -6  10    1.59    0.89
  -1  -6  10    1.56    0.74
   1   6 -10    1.29    0.57
   1   6  -9    8.71    1.49
   1   6  -9    8.82    1.26
   1   6  -9   12.11    1.39
   1   6  -9    9.54    1.24
  -1  -6   9    9.31    1.45
  -1  -6   9    8.93    1.58
   1   6  -8  286.45    8.01
   1   6  -8  268.56    9.18
   1   6  -8  304.93    8.44
   1   6  -8  288.77    7.81
   1   6  -8  321.93    8.10
  -1  -6   8  291.19    9.66
  -1  -6   7  467.21   13.13
  -1  -6   7  493.15   12.59
   1   6  -7  426.58   12.42
   1   6  -7  498.54   11.05
   1   6  -7  511.71   12.62
   1   6  -7  539.71   11.37
   1   6  -7  536.38   11.92
   1   6  -6  167.96    5.01
  -1  -6   6  160.27    6.51
  -1  -6   6  166.69    6.18
   1   6  -6  150.63    6.06
   1   6  -5  242.09    7.94
  -1  -6   5  255.90    8.35
  -1  -6   5  250.81    8.12
   1   6  -5  255.78    6.43
  -1  -6   5  248.19    7.83
  -1  -6   4  257.27    8.43
   1   6  -4  273.82    8.45
   1   6  -4  282.76    6.70
  -1  -6   4  264.91    8.51
  -1  -6   4  266.17    8.43
  -1  -6   4  266.66    8.12
  -1  -6   4  284.20    8.28
  -1  -6   3  613.32   13.78
  -1  -6   3  574.97   14.23
  -1  -6   3  558.41   13.99
   1   6  -3  608.44   14.16
  -1  -6   2  104.06    4.90
  -1  -6   2   97.75    4.78
  -1  -6   2  106.65    4.98
  -1  -6   2  102.87    4.58
   1   6  -2  104.75    4.77
  -1  -6   1   70.43    4.23
  -1  -6   1   77.22    4.25
   1   6  -1   71.99    3.91
  -1  -6   1   67.61    3.63
   1   6   0   43.95    3.04
  -1  -6   0   46.68    3.55
  -1  -6   0   44.05    2.68
  -1  -6  -1   -0.24    0.46
  -1  -6  -1    0.58    0.52
   1   6   1    0.56    0.42
  -1  -6  -1    0.21    0.39
  -1  -6  -2   69.00    4.95
   1   6   2   78.92    4.26
  -1  -6  -2   77.09    4.26
  -1  -6  -2   72.38    4.78
   1   6   2   79.34    4.03
  -1  -6  -3  143.35    7.88
   1   6   3  153.45    6.32
  -1  -6  -3  164.79    6.78
   1   6   3  155.23    6.53
   1   6   3  144.59    5.78
  -1  -6  -3  155.92    7.82
  -1  -6  -4  395.98   14.88
   1   6   4  411.01   11.03
  -1  -6  -4  397.10   14.38
   1   6   4  393.81   11.47
  -1  -6  -4  415.95   12.34
   1   6   4  399.42   11.85
  -1  -6  -4  386.39   12.81
  -1  -6  -5  211.81   10.77
  -1  -6  -5  194.85    8.27
  -1  -6  -5  197.91   10.09
   1   6   5  204.93    8.04
   1   6   5  197.64    7.01
  -1  -6  -6  233.57   11.47
   1   6   6  219.75    8.66
  -1  -6  -6  210.93    9.24
  -1  -6  -6  234.93   11.80
   1   6   6  222.79    7.70
  -1  -6  -7  176.38   10.31
  -1  -6  -7  162.00    9.65
  -1  -6  -7  172.86    8.56
   1   6   7  169.34    6.58
   1   6   7  170.30    7.66
  -1  -6  -8  224.60   11.67
  -1  -6  -8  220.33   11.40
  -1  -6  -8  239.70   10.09
   1   6   8  201.54    7.39
   1   6   8  215.67    8.79
  -1  -6  -9  121.62    8.36
  -1  -6  -9  116.05    6.78
  -1  -6  -9  123.86    8.31
   1   6   9  122.56    6.32
   1   6   9  120.58    5.30
  -1  -6 -10    0.27    0.59
  -1  -6 -10    0.18    0.91
   1   6  10    0.61    0.57
   1   6  10    0.19    0.32
   1   6  11    2.28    0.82
  -1  -6 -11    2.50    1.05
  -1  -6 -11    0.48    0.69
   1   6  11    3.03    0.78
  -1  -6 -12   39.31    3.94
  -1  -6 -12   36.87    3.16
   1   6  12   37.47    2.85
  -1  -6 -13    4.00    1.28
  -1  -6 -13    5.95    1.25
   1   6  13    4.37    0.85
   1   7 -18   51.55    2.62
  -1  -7  18   50.40    2.36
  -1  -7  18   54.12    2.60
  -1  -7  17   13.02    1.41
   1   7 -17   12.36    1.42
  -1  -7  17   10.68    1.38
  -1  -7  16   80.61    4.27
   1   7 -16   76.58    3.97
  -1  -7  16   74.68    3.92
  -1  -7  16   71.50    3.75
   1   7 -16   68.56    3.37
   1   7 -15   68.05    3.95
   1   7 -15   62.33    3.43
  -1  -7  15   68.48    3.93
  -1  -7  15   70.57    4.30
  -1  -7  15   66.59    3.98
   1   7 -14   20.91    2.24
  -1  -7  14   22.76    2.38
  -1  -7  14   23.43    2.59
   1   7 -14   21.05    2.33
  -1  -7  14   20.99    2.25
   1   7 -14   21.83    2.12
   1   7 -13   13.68    1.77
  -1  -7  13   13.33    1.88
   1   7 -13   12.95    1.75
  -1  -7  13   13.94    1.90
  -1  -7  13   12.67    2.01
   1   7 -13   13.58    1.66
  -1  -7  12   90.71    5.45
   1   7 -12   85.92    4.51
   1   7 -12   85.92    4.63
  -1  -7  12   88.13    4.91
   1   7 -12   93.27    4.51
  -1  -7  12   88.99    4.72
   1   7 -11   66.07    3.84
   1   7 -11   68.58    3.75
   1   7 -11   62.65    4.56
  -1  -7  11   64.29    4.18
   1   7 -11   66.24    3.86
  -1  -7  11   65.30    4.63
  -1  -7  11   70.69    4.17
   1   7 -10  111.44    4.97
   1   7 -10  107.12    4.83
  -1  -7  10  110.52    6.10
   1   7 -10  115.31    4.90
  -1  -7  10  109.95    5.30
   1   7 -10  107.98    5.94
  -1  -7   9  260.79    9.53
   1   7  -9  228.70    8.85
   1   7  -9  239.84    7.63
   1   7  -9  271.15    7.73
   1   7  -9  250.33    7.67
  -1  -7   8  412.69   12.55
   1   7  -8  415.60   10.57
   1   7  -8  397.74   10.68
   1   7  -8  394.13   11.95
   1   7  -8  433.06   10.56
  -1  -7   8  406.43   12.51
  -1  -7   7  481.23   13.67
   1   7  -7  481.23   11.74
  -1  -7   7  444.94   12.67
   1   7  -7  446.48   10.89
   1   7  -7  460.40   12.98
   1   7  -7  462.72   12.31
  -1  -7   7  469.96   13.44
   1   7  -6   77.02    4.14
   1   7  -6   75.13    4.46
   1   7  -6   78.95    3.82
   1   7  -6   75.94    3.44
   1   7  -6   78.48    3.49
   1   7  -6   74.27    4.35
  -1  -7   6   72.48    4.50
  -1  -7   6   75.67    4.35
   1   7  -5   19.85    2.02
   1   7  -5   21.52    1.86
   1   7  -5   19.19    2.16
   1   7  -5   19.67    1.61
  -1  -7   5   18.16    2.09
   1   7  -5   18.56    2.09
  -1  -7   5   17.46    2.16
  -1  -7   5   18.05    2.07
  -1  -7   4   27.52    2.66
  -1  -7   4   28.83    2.55
   1   7  -4   30.21    2.14
   1   7  -4   27.85    2.61
  -1  -7   4   27.43    2.68
   1   7  -4   29.37    2.39
  -1  -7   4   26.65    2.53
  -1  -7   3   13.45    1.89
  -1  -7   3   14.90    1.93
   1   7  -3   17.63    1.59
   1   7  -3   14.62    1.73
   1   7  -3   14.33    1.85
  -1  -7   3   15.06    1.84
  -1  -7   2   40.34    3.27
   1   7  -2   36.01    2.98
  -1  -7   2   42.15    3.12
  -1  -7   2   38.63    3.15
  -1  -7   1   65.30    4.33
  -1  -7   1   56.36    4.03
   1   7  -1   61.83    3.84
   1   7  -1   63.06    3.80
  -1  -7   1   68.85    4.07
   1   7  -1   62.97    4.01
  -1  -7   0  300.81   10.64
  -1  -7   0  287.62   10.13
   1   7   0  292.61    9.57
   1   7   0  305.09    9.59
   1   7   0  298.81    9.31
  -1  -7   0  311.84    9.67
  -1  -7  -1  153.01    7.60
   1   7   1  157.47    6.69
   1   7   1  165.32    6.82
   1   7   1  167.89    6.60
  -1  -7  -2  605.56   17.96
   1   7   2  631.10   15.78
  -1  -7  -2  617.07   16.96
   1   7   2  601.17   15.57
   1   7   2  611.86   15.05
  -1  -7  -3  118.80    7.48
  -1  -7  -3  125.40    7.21
   1   7   3  145.98    6.51
   1   7   3  126.18    6.13
   1   7   3  125.99    5.70
  -1  -7  -4   69.15    5.66
   1   7   4   67.48    4.50
   1   7   4   76.65    4.69
  -1  -7  -4   68.34    5.91
   1   7   4   68.19    4.11
  -1  -7  -5   98.49    7.51
   1   7   5   95.12    5.46
   1   7   5   94.23    4.90
  -1  -7  -5   95.91    7.02
  -1  -7  -6    8.88    2.39
  -1  -7  -6    6.63    1.87
   1   7   6    6.07    1.43
   1   7   6    7.87    1.42
  -1  -7  -7   -0.13    1.12
  -1  -7  -7   -0.74    1.27
   1   7   7    0.54    0.57
   1   7   7   -0.23    0.37
  -1  -7  -8    2.19    1.31
  -1  -7  -8    4.54    1.70
   1   7   8    3.08    1.06
   1   7   8    2.19    0.71
  -1  -7  -9    3.84    1.48
  -1  -7  -9    2.10    0.79
  -1  -7  -9    3.70    1.50
   1   7   9    3.46    1.08
   1   7   9    4.63    0.96
   1   7  10   55.07    3.71
  -1  -7 -10   56.65    4.02
   1   7  10   52.67    2.98
  -1  -7 -11  168.99    8.51
  -1  -7 -11  169.71    6.63
   1   7  11  157.44    6.12
   1   7  12   24.85    1.97
  -1  -7 -12   29.34    3.04
   1   8 -18    0.33    0.30
  -1  -8  17    0.27    0.39
   1   8 -17    0.14    0.27
  -1  -8  17    0.24    0.37
  -1  -8  16   50.17    2.96
   1   8 -16   48.21    2.95
  -1  -8  16   47.65    2.92
  -1  -8  16   47.95    3.01
   1   8 -16   44.56    2.60
   1   8 -15  116.37    5.04
  -1  -8  15  115.80    5.17
   1   8 -15  110.27    4.72
  -1  -8  15  120.33    5.19
  -1  -8  15  120.01    5.44
   1   8 -14   94.49    4.66
  -1  -8  14   96.57    4.96
  -1  -8  14   95.62    4.87
  -1  -8  14  102.61    5.35
   1   8 -14   94.18    4.53
   1   8 -13  237.14    8.03
  -1  -8  13  221.75    8.31
  -1  -8  13  247.67    8.63
  -1  -8  13  246.00    9.15
   1   8 -13  247.75    8.10
   1   8 -12  239.44    8.08
  -1  -8  12  256.25    9.58
  -1  -8  12  259.78    9.04
   1   8 -12  256.61    8.28
  -1  -8  12  237.73    8.42
   1   8 -12  239.84    8.44
   1   8 -11   57.93    3.60
  -1  -8  11   57.47    4.02
   1   8 -11   61.22    3.84
  -1  -8  11   57.87    4.37
  -1  -8  11   58.33    3.90
   1   8 -11   63.74    3.72
   1   8 -10  115.88    6.15
   1   8 -10  106.12    4.90
  -1  -8  10  111.85    6.29
   1   8 -10  115.43    5.26
   1   8 -10  107.16    6.06
  -1  -8  10  108.04    5.48
   1   8 -10  114.23    5.10
   1   8  -9   21.39    2.70
   1   8  -9   14.14    1.72
   1   8  -9   14.48    1.71
   1   8  -9   13.95    2.16
   1   8  -9   16.09    1.77
  -1  -8   9   13.68    2.14
   1   8  -8   17.74    1.77
  -1  -8   8   18.80    2.56
   1   8  -8   16.42    1.77
   1   8  -8   15.28    2.15
  -1  -8   8   16.83    2.33
  -1  -8   7   31.69    3.21
  -1  -8   7   29.24    3.00
  -1  -8   7   30.44    2.94
   1   8  -7   31.62    2.75
   1   8  -7   30.76    3.05
   1   8  -7   31.86    2.35
   1   8  -6   14.89    2.11
   1   8  -6   14.98    1.69
   1   8  -6   14.06    2.01
  -1  -8   6   13.78    2.02
  -1  -8   6   12.16    1.83
   1   8  -6   14.81    1.57
   1   8  -6   15.17    1.85
  -1  -8   5    9.75    1.68
   1   8  -5   12.33    1.70
   1   8  -5   10.13    1.30
   1   8  -5   11.53    1.83
   1   8  -5   10.30    1.73
  -1  -8   5   10.55    1.74
  -1  -8   5   10.74    1.72
   1   8  -5   10.99    1.40
  -1  -8   4  233.44    8.89
  -1  -8   4  240.54    9.08
  -1  -8   4  215.69    8.43
   1   8  -4  246.35    7.14
   1   8  -4  236.62    8.57
   1   8  -4  230.44    8.81
   1   8  -4  244.69    8.09
  -1  -8   4  237.94    8.64
   1   8  -4  236.21    7.17
  -1  -8   3  132.62    6.60
  -1  -8   3  139.46    6.71
   1   8  -3  141.97    5.16
   1   8  -3  144.66    6.44
  -1  -8   3  147.31    6.63
  -1  -8   3  129.46    6.33
   1   8  -3  141.98    5.91
   1   8  -3  139.74    6.61
  -1  -8   2  250.34    9.47
   1   8  -2  258.50    7.28
  -1  -8   2  266.61    9.35
   1   8  -2  256.62    8.31
   1   8  -2  249.01    8.89
  -1  -8   2  233.54    9.07
   1   8  -2  239.34    9.08
  -1  -8   1  398.10   12.04
   1   8  -1  370.36   11.67
  -1  -8   1  363.89   12.10
   1   8  -1  366.20    9.19
   1   8  -1  380.16   11.49
  -1  -8   1  379.06   12.18
  -1  -8   0  153.46    7.62
  -1  -8   0  156.53    7.51
  -1  -8   0  159.78    7.18
   1   8   0  154.22    6.97
   1   8   0  146.64    6.65
  -1  -8  -1   41.32    3.99
  -1  -8  -1   43.23    3.87
   1   8   1   41.07    3.40
   1   8   1   41.67    3.33
  -1  -8  -1   45.92    3.80
   1   8   1   49.01    3.83
  -1  -8  -2    8.32    1.86
  -1  -8  -2    9.93    1.92
   1   8   2    8.37    1.57
  -1  -8  -2    8.49    1.69
   1   8   2    8.00    1.54
   1   8   2    8.36    1.59
   1   8   2    7.13    1.33
  -1  -8  -3   -0.07    0.84
   1   8   3    0.93    0.69
   1   8   3    0.39    0.49
   1   8   3    0.05    0.46
  -1  -8  -4   12.90    2.70
  -1  -8  -4   10.67    2.18
   1   8   4    8.74    1.63
   1   8   4    7.02    1.33
  -1  -8  -5   45.95    5.07
  -1  -8  -5   49.73    4.89
   1   8   5   49.00    3.86
   1   8   5   42.46    3.26
  -1  -8  -6   28.19    4.10
  -1  -8  -6   34.18    4.13
   1   8   6   28.50    2.92
   1   8   6   26.86    2.49
  -1  -8  -7  147.90    8.80
   1   8   7  156.25    6.96
   1   8   7  139.88    5.87
   1   8   8   75.27    4.49
  -1  -8  -8   81.86    6.27
   1   8   8   70.86    3.77
   1   8   9   65.72    3.90
  -1  -8 -10  196.36    8.93
   1   8  10  176.48    6.26
   1   8  11   51.65    2.74
  -1  -8 -11   60.44    4.27
   1   9 -17  121.82    3.95
   1   9 -16  107.51    4.18
  -1  -9  16  117.01    4.38
  -1  -9  16  110.43    4.27
   1   9 -15   27.08    2.12
  -1  -9  15   27.86    2.27
  -1  -9  15   27.96    2.26
  -1  -9  15   26.03    2.21
   1   9 -15   25.06    2.02
   1   9 -14    8.80    1.28
  -1  -9  14    8.95    1.46
  -1  -9  14    7.36    1.25
  -1  -9  14    9.71    1.45
   1   9 -14    7.64    1.19
   1   9 -13   43.51    2.96
   1   9 -13   44.76    3.11
  -1  -9  13   46.21    3.37
  -1  -9  13   48.11    3.39
  -1  -9  13   45.64    3.48
  -1  -9  12   28.87    2.68
   1   9 -12   24.46    2.23
  -1  -9  12   26.90    2.53
   1   9 -12   25.13    2.37
  -1  -9  12   25.86    2.72
  -1  -9  11    0.00    0.61
   1   9 -11   -0.01    0.44
  -1  -9  11    0.48    0.71
   1   9 -11    0.41    0.35
  -1  -9  11   -0.16    0.70
   1   9 -10   14.52    1.78
   1   9 -10   15.20    2.18
   1   9 -10   14.91    1.75
  -1  -9  10   18.80    2.54
  -1  -9  10   14.53    1.95
   1   9  -9   88.20    5.54
   1   9  -9   75.25    3.98
   1   9  -9   85.97    4.31
  -1  -9   9   76.18    5.05
   1   9  -8   57.77    4.55
   1   9  -8   53.82    4.31
   1   9  -8   55.50    3.37
  -1  -9   8   49.26    4.09
  -1  -9   7  115.63    6.27
  -1  -9   7  114.62    6.38
   1   9  -7  120.63    5.65
   1   9  -7  113.78    5.03
   1   9  -7  117.59    6.42
  -1  -9   7  118.53    6.22
   1   9  -6  335.53    9.42
   1   9  -6  317.25   10.75
   1   9  -6  355.43   10.45
  -1  -9   6  326.79   11.56
   1   9  -6  338.07   11.63
  -1  -9   6  353.84   11.48
   1   9  -5  604.55   13.93
   1   9  -5  595.15   15.83
  -1  -9   5  570.50   16.39
  -1  -9   5  580.07   15.73
   1   9  -5  610.52   14.93
   1   9  -5  579.13   16.35
  -1  -9   5  606.30   16.18
   1   9  -4    0.44    0.64
   1   9  -4    0.07    0.65
  -1  -9   4    0.83    0.72
   1   9  -4    1.23    0.47
  -1  -9   4    0.40    0.49
  -1  -9   4    1.38    0.82
   1   9  -3   15.04    2.21
  -1  -9   3   14.85    2.26
   1   9  -3   13.95    2.03
  -1  -9   3   15.19    2.24
   1   9  -3   15.45    1.93
  -1  -9   3   13.75    2.11
  -1  -9   3   14.01    2.08
  -1  -9   2  236.79    9.69
   1   9  -2  232.59    9.23
   1   9  -2  225.94    7.99
   1   9  -2  241.95    8.94
  -1  -9   2  220.32    9.05
  -1  -9   1    9.70    1.89
  -1  -9   1    8.09    1.65
   1   9  -1    6.47    1.47
   1   9  -1    9.00    1.62
   1   9  -1    7.65    1.36
   1   9   0    6.82    1.55
  -1  -9   0    7.76    1.74
   1   9   0    5.41    1.30
   1   9   0    6.25    1.38
  -1  -9   0    7.72    1.66
  -1  -9  -1   39.09    3.85
   1   9   1   45.92    3.68
   1   9   1   40.05    3.60
   1   9   1   41.30    3.47
  -1  -9  -2  155.13    8.57
  -1  -9  -2  167.34    8.32
   1   9   2  158.29    7.18
  -1  -9  -3  108.20    7.29
  -1  -9  -3  112.94    6.79
   1   9   3  123.57    6.19
  -1  -9  -4   88.21    6.74
  -1  -9  -4  102.73    6.41
   1   9   4  100.09    5.51
  -1  -9  -5   93.72    6.95
  -1  -9  -5   91.03    5.99
   1   9   5   95.19    5.28
   1   9   6   44.86    3.46
   1   9   7   90.25    4.69
  -1  -9  -8    9.31    1.71
   1   9   8   12.52    1.59
   1   9   9   41.20    2.60
  -1  -9  -9   47.93    3.87
  -1  -9 -10    8.05    1.47
   1   9  10    6.96    0.91
  -1 -10  16    9.46    1.01
  -1 -10  15    4.96    0.85
   1  10 -15    4.87    0.80
   1  10 -15    4.69    0.76
  -1 -10  15    4.22    0.76
   1  10 -14   30.54    2.09
  -1 -10  14   31.33    2.37
  -1 -10  14   31.03    2.37
   1  10 -14   30.46    2.26
  -1 -10  14   31.98    2.42
   1  10 -13   81.81    3.74
  -1 -10  13   90.81    4.45
  -1 -10  13   90.93    4.57
  -1 -10  13   81.81    4.25
   1  10 -13   83.94    4.14
   1  10 -12  150.62    5.44
  -1 -10  12  152.76    6.27
  -1 -10  12  162.40    6.68
   1  10 -12  144.45    5.80
   1  10 -11   88.33    5.10
   1  10 -11   89.73    4.12
   1  10 -11   95.12    4.60
  -1 -10  11   92.12    4.94
  -1 -10  11   92.61    5.15
  -1 -10  11  101.84    5.08
   1  10 -10  226.48    9.05
  -1 -10  10  234.45    9.04
  -1 -10  10  235.13    8.44
   1  10 -10  230.69    7.72
   1  10  -9  120.42    6.53
   1  10  -9  104.06    4.93
  -1 -10   9  113.14    6.11
  -1 -10   9  114.35    5.78
   1  10  -8  118.19    6.59
   1  10  -8  110.92    5.03
  -1 -10   8  114.39    6.30
  -1 -10   7  100.07    5.66
   1  10  -7   98.59    6.04
   1  10  -7   88.39    4.38
  -1 -10   7   86.42    5.49
  -1 -10   7   97.16    5.62
  -1 -10   6    1.23    0.76
   1  10  -6    2.59    1.07
  -1 -10   6    2.08    1.00
   1  10  -6    1.58    0.70
  -1 -10   6    1.04    0.69
   1  10  -6    1.92    0.79
   1  10  -5   -0.25    0.74
   1  10  -5    0.36    0.38
  -1 -10   5    0.97    0.81
   1  10  -5    0.64    0.56
   1  10  -5    0.50    0.34
  -1 -10   5    0.64    0.55
   1  10  -4   24.89    2.93
   1  10  -4   16.04    2.16
  -1 -10   4   18.84    2.56
   1  10  -4   19.48    2.10
  -1 -10   4   15.63    2.21
  -1 -10   4   20.30    2.57
   1  10  -3    0.51    0.50
   1  10  -3    0.12    0.67
  -1 -10   3    0.18    0.60
   1  10  -3    1.05    0.58
  -1 -10   3    0.68    0.60
  -1 -10   3    1.18    0.63
  -1 -10   2   28.44    3.26
   1  10  -2   30.71    3.22
   1  10  -2   26.04    2.43
   1  10  -2   25.60    2.72
  -1 -10   2   32.21    3.41
  -1 -10   2   27.31    3.04
  -1 -10   2   28.31    3.20
  -1 -10   1  106.29    6.56
   1  10  -1  122.74    6.42
  -1 -10   1  115.30    6.73
   1  10  -1  103.98    5.64
   1  10  -1  112.11    5.18
  -1 -10   1  110.17    6.43
  -1 -10   1  116.29    6.62
  -1 -10   0  133.42    7.42
   1  10   0  139.06    6.67
   1  10   0  121.40    5.38
   1  10   0  124.26    6.19
  -1 -10   0  131.94    7.12
  -1 -10  -1   73.38    5.42
   1  10   1   70.94    4.51
   1  10   1   70.87    4.52
  -1 -10  -1   72.55    5.22
   1  10   1   67.93    3.85
  -1 -10  -2  178.53    8.57
   1  10   2  191.07    7.33
   1  10   2  178.03    6.44
   1  10   2  166.35    7.22
  -1 -10  -2  188.30    8.68
  -1 -10  -3  109.89    6.46
   1  10   3  110.79    5.55
  -1 -10  -3  109.53    6.43
   1  10   4   23.63    2.43
  -1 -10  -4   26.88    2.99
   1  10   5    6.82    1.25
  -1 -10  -5   10.22    1.79
  -1 -10  -6    6.38    1.48
   1  10   6    6.41    1.16
  -1 -10  -7    2.71    0.90
   1  10   7    2.74    0.71
   1  10   8    1.75    0.54
  -1 -11  14  138.49    4.75
  -1 -11  14  141.69    4.64
  -1 -11  13    1.32    0.53
  -1 -11  13    0.39    0.39
   1  11 -13    0.38    0.34
  -1 -11  12   22.38    2.06
  -1 -11  12   22.98    2.08
  -1 -11  12   21.89    2.08
   1  11 -12   22.27    1.92
   1  11 -11   68.84    4.26
   1  11 -11   66.38    3.55
  -1 -11  11   72.64    4.02
  -1 -11  11   69.71    4.02
   1  11 -10   29.23    2.92
  -1 -11  10   29.08    2.70
   1  11 -10   25.28    2.17
   1  11  -9   13.21    2.05
  -1 -11   9   14.81    2.06
   1  11  -9   13.13    1.54
  -1 -11   9   15.75    2.03
   1  11  -8    0.95    0.72
  -1 -11   8    0.00    0.52
   1  11  -8   -0.12    0.43
   1  11  -7   33.44    3.31
   1  11  -7   27.59    2.24
  -1 -11   7   29.02    3.02
  -1 -11   6   60.87    4.27
   1  11  -6   59.54    4.48
   1  11  -6   47.45    2.95
  -1 -11   6   54.73    4.25
   1  11  -5   67.99    4.78
   1  11  -5   68.53    3.81
  -1 -11   5   68.18    4.86
   1  11  -4   72.81    4.92
   1  11  -4   69.56    4.37
  -1 -11   4   65.73    4.86
   1  11  -4   69.67    3.82
   1  11  -3  105.36    5.87
  -1 -11   3   99.78    6.03
   1  11  -3   99.60    5.30
  -1 -11   3   92.44    5.52
   1  11  -3  106.63    4.71
   1  11  -2  134.91    6.72
   1  11  -2  128.35    6.10
  -1 -11   2  145.32    7.44
   1  11  -2  144.19    5.55
  -1 -11   2  142.03    7.06
  -1 -11   1   93.92    6.04
   1  11  -1   92.41    5.28
   1  11  -1   92.12    4.24
   1  11  -1   84.10    4.80
  -1 -11   1   82.87    5.44
  -1 -11   1  101.86    6.17
   1  11   0   56.41    3.94
   1  11   0   64.61    3.38
   1  11   0   58.76    3.91
  -1 -11   0   63.00    4.80
  -1 -11   0   56.10    4.43
   1  11   1    0.88    0.61
   1  11   1    0.36    0.36
  -1 -11  -1   -0.17    0.92
   1  11   1    0.54    0.40
  -1 -11  -1    1.44    0.85
   1  11   2   58.84    3.73
  -1 -11  -2   68.20    4.73
   1  11   3    4.29    1.05
   1  11   4  182.87    6.39
   1  11   5   75.63    3.59
   1  11   6    2.31    0.65
  -1 -12  13  101.89    3.66
  -1 -12  12    0.71    0.48
  -1 -12  12    0.36    0.34
  -1 -12  11  102.76    4.32
  -1 -12  11  109.46    4.50
  -1 -12  10   11.73    1.53
   1  12 -10   11.61    1.69
  -1 -12  10   11.05    1.44
   1  12  -9   64.61    4.22
  -1 -12   9   58.55    3.63
   1  12  -8  170.31    7.29
  -1 -12   8  167.48    6.87
   1  12  -7  135.71    6.52
   1  12  -6  115.43    5.98
   1  12  -5   48.53    3.79
  -1 -12   4   85.83    5.17
   1  12  -4   84.22    5.04
   1  12  -3    4.51    1.11
   1  12  -3    5.66    1.13
   1  12  -2   54.40    3.81
   1  12  -2   49.15    3.25
   1  12  -1   11.36    1.63
   1  12  -1    9.54    1.40
   1  12   0   21.60    2.14
   1  12   0   17.92    1.86
   1  12   1   17.37    1.73
   1  12   2    2.57    0.61
   1  12   3  212.71    6.22
   1  12   4   83.66    3.22
  -1 -13  11   22.77    1.56
   1  13 -10    2.48    0.64
   1  13  -9   90.60    4.38
  -1 -13   9  102.26    4.09
   1  13  -8   76.09    4.15
  -1 -13   8   88.10    3.99
   1  13  -7    8.67    1.41
  -1 -13   7    8.72    1.32
   1  13  -6    2.17    0.65
   1  13  -5   12.43    1.68
   1  13  -4   33.66    2.72
   1  13  -3    8.23    1.31
   1  13  -2   14.01    1.62
  -1 -13   1  271.74    8.38
   1  13   1    4.71    0.70
  -2  13  -1   32.37    2.71
  -2  13  -2   72.24    4.39
  -2  13  -3   49.13    3.70
  -2  13  -4  100.02    5.48
  -2  13  -5  125.07    6.16
  -2  13  -5  116.75    3.84
  -2  13  -6   41.67    3.40
  -2  13  -6   41.92    2.09
  -2  13  -7   17.89    1.29
  -2  13  -7   17.69    2.13
  -2  12   3   30.09    2.00
  -2  12   2   81.77    3.52
  -2  12   1   54.27    3.81
  -2  12   1   63.58    3.09
  -2  12   0  173.01    7.80
  -2  12   0  214.54    6.22
  -2  12  -1   92.85    5.74
  -2  12  -1  101.14    3.98
  -2  12  -2   59.47    3.22
  -2  12  -2   58.83    4.68
  -2  12  -2   65.20    3.05
  -2  12  -3   23.77    3.07
  -2  12  -3   23.70    1.98
  -2  12  -4    2.28    1.05
  -2  12  -4    2.80    0.68
  -2  12  -5    1.03    0.46
  -2  12  -5    0.88    0.55
  -2  12  -6   15.95    2.52
  -2  12  -6   14.32    1.50
  -2  12  -7   49.41    4.26
  -2  12  -7   47.01    2.71
  -2  12  -8   38.68    3.62
   2 -12   8   35.67    2.68
  -2  12  -8   32.33    2.16
  -2  12  -9  122.45    6.03
  -2  12  -9  122.36    4.33
   2 -12   9  130.00    4.82
   2 -12  10   59.53    3.03
  -2  12 -10   60.06    2.71
   2 -12  11  126.82    4.30
  -2  12 -11  108.96    3.61
  -2  11   5   70.70    3.57
  -2  11   4   34.64    2.52
  -2  11   3  161.95    5.93
  -2  11   2   19.07    2.44
  -2  11   2   21.20    1.99
  -2  11   1   56.44    4.52
  -2  11   1   63.62    3.53
  -2  11   0   51.64    4.51
  -2  11   0   53.21    3.38
  -2  11   0   55.26    3.20
  -2  11  -1   41.50    2.98
  -2  11  -1   40.37    4.13
  -2  11  -1   44.77    2.82
  -2  11  -2   -0.19    0.91
  -2  11  -2    0.36    0.30
  -2  11  -2    0.43    0.40
  -2  11  -3   50.27    3.31
  -2  11  -3   53.12    5.08
  -2  11  -3   57.58    3.09
  -2  11  -4   29.77    3.89
   2 -11   4   22.07    2.79
  -2  11  -4   34.64    2.29
  -2  11  -4   26.32    2.36
   2 -11   5   48.21    4.15
  -2  11  -5   52.72    5.08
  -2  11  -5   53.95    3.42
   2 -11   6  254.89   10.20
  -2  11  -6  284.30   12.15
  -2  11  -6  257.13    8.19
  -2  11  -7  199.12    9.73
  -2  11  -7  192.66    6.76
   2 -11   7  173.83    7.11
  -2  11  -8   77.22    5.67
  -2  11  -8   74.46    3.91
   2 -11   8   78.66    4.59
  -2  11  -9   66.22    4.90
  -2  11  -9   61.10    3.41
   2 -11   9   64.96    4.15
   2 -11  10   11.96    1.70
  -2  11 -10    9.36    1.25
   2 -11  10   10.57    1.44
  -2  11 -11   29.22    2.09
   2 -11  11   28.62    2.54
   2 -11  11   28.56    2.22
   2 -11  12    0.56    0.34
  -2  11 -12    0.00    0.31
  -2  11 -13   65.08    2.71
   2 -11  13   72.42    3.02
  -2  10   8   56.11    2.89
  -2  10   7   43.77    2.72
  -2  10   7   45.61    2.98
  -2  10   6   42.68    2.80
  -2  10   6   53.21    3.33
  -2  10   5   69.71    3.76
  -2  10   5   73.11    4.06
  -2  10   4   19.65    1.95
  -2  10   4   19.37    2.05
  -2  10   3    6.81    1.20
  -2  10   3    6.05    1.51
  -2  10   3    8.37    1.37
  -2  10   2    5.26    1.05
  -2  10   2    4.43    1.39
  -2  10   2    5.15    1.09
  -2  10   1   11.45    2.27
  -2  10   1   10.06    1.57
  -2  10   1    8.55    1.37
  -2  10   0  100.41    5.11
  -2  10   0   94.75    6.70
  -2  10   0  110.24    4.88
   2 -10   1  344.22   12.37
  -2  10  -1  422.32   11.67
  -2  10  -1  419.65   15.51
   2 -10   1  353.44   13.39
  -2  10  -1  445.95   11.05
   2 -10   2  166.31    8.14
  -2  10  -2  207.97    7.48
   2 -10   2  173.94    8.78
  -2  10  -2  227.88   11.29
  -2  10  -3  132.56    8.92
  -2  10  -3  132.46    5.81
  -2  10  -4  201.90   11.09
  -2  10  -4  198.80    7.27
  -2  10  -5   45.26    5.06
  -2  10  -5   46.16    3.31
  -2  10  -6    4.31    1.57
  -2  10  -6    4.57    1.08
   2 -10   6    2.97    0.84
  -2  10  -7   59.13    5.50
   2 -10   7   58.46    4.86
  -2  10  -7   53.08    3.59
  -2  10  -8    0.21    0.66
   2 -10   8   -0.01    0.48
  -2  10  -8   -0.25    0.45
  -2  10  -8    0.22    0.33
  -2  10  -9    0.67    0.59
   2 -10   9    0.51    0.50
  -2  10  -9    0.80    0.60
  -2  10  -9   -1.44    0.68
   2 -10   9    1.03    0.85
  -2  10 -10   49.81    4.18
  -2  10 -10   54.31    3.59
  -2  10 -10   54.98    3.46
   2 -10  10   54.53    3.99
  -2  10 -11  177.86    6.67
   2 -10  11  195.40    7.69
   2 -10  11  190.66    6.80
  -2  10 -11  182.94    6.50
  -2  10 -12  121.76    5.13
  -2  10 -12  127.85    5.03
   2 -10  12  131.28    5.18
   2 -10  12  135.77    5.98
  -2  10 -13  137.86    4.95
   2 -10  13  147.20    5.15
  -2  10 -14   49.89    2.51
   2 -10  14   54.11    2.60
  -2   9  11  203.01    5.49
  -2   9  10   70.10    3.24
  -2   9   9   49.92    2.96
  -2   9   8    9.04    1.29
  -2   9   8    6.79    1.22
  -2   9   7    0.25    0.31
  -2   9   7    0.26    0.52
   2  -9  -7    0.73    0.71
  -2   9   6   21.52    2.11
   2  -9  -6   26.74    2.33
  -2   9   6   26.25    2.53
  -2   9   5    5.27    1.09
   2  -9  -5    7.42    1.28
  -2   9   5    5.91    1.19
  -2   9   4  188.22    6.83
  -2   9   4  187.15    7.13
  -2   9   3  408.03   11.05
  -2   9   3  412.44   11.47
  -2   9   2  236.47    7.81
  -2   9   2  220.28   10.22
  -2   9   2  241.63    8.50
  -2   9   2  249.42    8.14
  -2   9   1   20.12    3.03
  -2   9   1   30.05    2.75
   2  -9  -1   21.96    3.10
  -2   9   1   26.61    2.38
  -2   9   0  137.78    8.34
   2  -9   0  116.95    6.55
  -2   9   0  142.25    6.15
   2  -9   0  122.10    7.26
  -2   9  -1  254.11   12.08
   2  -9   1  205.63    9.18
   2  -9   1  210.43    9.78
  -2   9  -1  251.88    8.46
  -2   9  -2   10.90    2.70
  -2   9  -2   11.57    1.68
   2  -9   2   11.56    2.13
  -2   9  -3    1.01    0.63
  -2   9  -3    1.79    1.44
  -2   9  -4    4.67    1.10
  -2   9  -4    5.80    2.18
   2  -9   4    3.44    1.21
   2  -9   4    3.72    0.95
  -2   9  -5   90.42    7.35
  -2   9  -5   84.65    4.76
  -2   9  -5   94.86    4.88
   2  -9   5   81.29    4.56
  -2   9  -6   28.63    2.73
  -2   9  -6   29.36    4.02
  -2   9  -6   28.31    2.64
   2  -9   6   25.88    2.56
  -2   9  -7   30.69    3.94
  -2   9  -7   25.67    2.55
  -2   9  -7   28.50    2.69
   2  -9   7   22.94    2.41
  -2   9  -8  261.84   11.65
  -2   9  -8  245.73    8.96
   2  -9   8  288.07   11.39
  -2   9  -8  271.41    9.12
  -2   9  -9   93.73    6.41
   2  -9   9  105.47    6.40
  -2   9  -9   90.08    4.95
   2  -9   9   94.30    5.61
  -2   9  -9   92.39    5.09
  -2   9 -10  307.91   10.07
   2  -9  10  297.37   10.64
  -2   9 -10  299.38    9.69
  -2   9 -11  131.96    5.98
  -2   9 -11  142.05    6.05
   2  -9  11  138.14    6.63
   2  -9  11  136.55    5.91
  -2   9 -12   72.60    4.02
  -2   9 -12   65.67    3.93
   2  -9  12   73.21    4.49
   2  -9  12   71.41    3.97
  -2   9 -13   47.54    3.03
  -2   9 -13   43.77    2.96
   2  -9  13   51.45    3.50
   2  -9  13   49.46    3.06
  -2   9 -14   -0.04    0.29
  -2   9 -14   -0.19    0.35
   2  -9  14   -0.02    0.27
   2  -9  15   10.03    1.04
  -2   9 -15    7.08    0.92
  -2   8  12    6.71    0.88
  -2   8  11   34.43    2.28
  -2   8  10   52.92    3.12
  -2   8   9   69.27    3.74
  -2   8   9   56.12    3.66
  -2   8   8   29.40    2.46
  -2   8   8   25.07    2.52
  -2   8   7  388.87   10.65
   2  -8  -7  372.20   10.58
  -2   8   7  377.68   11.30
  -2   8   6  122.27    5.36
   2  -8  -6  130.41    5.54
  -2   8   6  117.06    5.64
  -2   8   5  257.01    8.20
   2  -8  -5  256.15    8.80
   2  -8  -5  246.60    9.31
  -2   8   5  239.44    8.39
  -2   8   4  151.16    5.91
   2  -8  -4  153.84    7.46
  -2   8   4  138.61    5.95
  -2   8   3  127.65    5.28
  -2   8   3  119.43    5.72
   2  -8  -3  128.82    6.95
   2  -8  -3  134.11    6.34
  -2   8   3  123.79    5.42
  -2   8   2  417.64   10.58
  -2   8   2  360.99   13.63
  -2   8   2  354.06   11.01
  -2   8   2  400.59   10.75
   2  -8  -2  401.69   12.38
   2  -8  -2  362.86   13.44
  -2   8   1  313.57   12.68
   2  -8  -1  277.01   10.63
   2  -8  -1  292.83   11.70
   2  -8  -1  340.51   11.43
  -2   8   1  332.16   10.04
  -2   8   0    1.71    1.21
   2  -8   0    1.04    0.78
  -2   8   0    0.23    0.39
   2  -8   0    0.13    0.45
  -2   8  -1   21.26    3.54
  -2   8  -1   17.26    1.96
   2  -8   1   15.19    2.35
  -2   8  -2  224.20    7.72
  -2   8  -2  224.31   12.53
   2  -8   3   90.95    5.85
  -2   8  -3   88.07    7.92
  -2   8  -3  117.22    5.35
   2  -8   3  105.00    5.04
  -2   8  -3  117.78    4.59
  -2   8  -4  158.17   10.13
  -2   8  -4  166.11    6.70
  -2   8  -4  166.19    5.68
  -2   8  -4  173.95    6.70
   2  -8   4  158.07    6.36
  -2   8  -5  868.41   25.31
  -2   8  -5  878.66   19.65
  -2   8  -5  881.39   17.82
  -2   8  -5  942.98   19.76
   2  -8   5  859.44   19.21
  -2   8  -6  148.87    8.92
   2  -8   6  133.32    8.46
  -2   8  -6  149.41    6.52
  -2   8  -6  150.58    5.43
  -2   8  -6  147.14    6.36
   2  -8   6  144.41    6.23
  -2   8  -7    3.93    1.25
   2  -8   7    5.62    1.49
  -2   8  -7    4.62    1.17
  -2   8  -7    3.10    0.95
  -2   8  -7    5.57    0.97
  -2   8  -8  123.76    4.86
  -2   8  -8  120.42    7.59
  -2   8  -8  117.95    5.95
   2  -8   8  142.03    7.56
  -2   8  -8  145.36    6.38
  -2   8  -9   55.13    4.93
  -2   8  -9   50.59    3.81
   2  -8   9   55.46    4.48
  -2   8  -9   56.06    3.88
   2  -8   9   56.11    4.27
   2  -8   9   51.73    4.47
  -2   8 -10   17.56    2.21
   2  -8  10   21.37    2.77
  -2   8 -10   21.14    2.37
   2  -8  10   16.91    1.86
   2  -8  10   16.73    2.32
  -2   8 -11   13.70    1.96
   2  -8  11   15.57    2.20
   2  -8  11   13.37    1.65
   2  -8  11   14.64    2.10
   2  -8  11   14.14    1.85
  -2   8 -11   13.86    1.89
  -2   8 -12   39.77    3.18
   2  -8  12   41.16    2.81
  -2   8 -12   42.97    3.23
   2  -8  12   42.52    3.50
   2  -8  12   39.83    3.09
  -2   8 -13   61.93    3.77
  -2   8 -13   62.48    3.79
   2  -8  13   70.88    4.35
   2  -8  13   65.32    3.79
   2  -8  14   74.16    3.74
  -2   8 -14   65.28    3.52
   2  -8  14   69.24    3.96
  -2   8 -14   69.81    3.77
  -2   8 -15  141.02    5.13
   2  -8  15  149.40    5.03
   2  -8  16   64.81    2.60
  -2   8 -16   63.43    2.74
  -2   7  13   60.34    2.79
  -2   7  12   27.15    2.01
  -2   7  11   72.89    3.72
  -2   7  10  106.55    4.79
   2  -7 -10  105.40    5.57
  -2   7   9   87.12    4.47
   2  -7  -9   91.48    4.67
  -2   7   8  201.59    7.30
  -2   7   8  190.31    7.61
  -2   7   7  456.79   12.08
   2  -7  -7  451.18   11.94
  -2   7   7  422.41   12.20
   2  -7  -7  443.71   11.82
  -2   7   6   90.86    4.62
  -2   7   6   85.65    4.23
   2  -7  -6   86.02    5.02
   2  -7  -6   90.71    4.72
  -2   7   6   90.08    4.77
   2  -7  -6   91.13    4.79
  -2   7   5   18.72    2.00
  -2   7   5   19.52    1.83
  -2   7   5   18.52    1.97
   2  -7  -5   19.22    2.46
   2  -7  -5   20.57    2.29
  -2   7   5   13.85    1.79
   2  -7  -5   19.45    2.26
  -2   7   4    0.21    0.42
  -2   7   4    0.40    0.33
  -2   7   4    0.17    0.39
  -2   7   4    0.22    0.27
   2  -7  -4   -0.12    0.49
  -2   7   4    0.34    0.48
   2  -7  -4   -0.57    0.56
  -2   7   3   30.24    2.41
  -2   7   3   28.93    3.41
  -2   7   3   30.11    2.67
  -2   7   3   33.46    2.56
   2  -7  -3   30.20    3.47
   2  -7  -3   33.33    3.09
  -2   7   3   29.65    2.44
  -2   7   2  281.52    8.09
  -2   7   2  253.51   10.77
   2  -7  -2  265.18    9.95
   2  -7  -2  268.34   10.94
   2  -7  -2  278.03    9.97
  -2   7   2  267.46    9.22
  -2   7   2  255.19    8.60
  -2   7   1  569.28   17.69
   2  -7  -1  551.68   15.90
   2  -7  -1  540.91   16.80
  -2   7   1  572.45   14.05
  -2   7   1  578.49   14.24
  -2   7   0  142.51    8.39
   2  -7   0  135.82    7.15
  -2   7   0  155.65    6.16
   2  -7   0  143.30    7.66
  -2   7   0  160.25    6.03
   2  -7   1  233.74    9.07
  -2   7  -1  258.07   12.20
  -2   7  -1  265.40    8.34
   2  -7   1  239.75   10.32
  -2   7  -1  272.83    7.60
   2  -7   2  154.19    7.55
  -2   7  -2  167.07   10.14
  -2   7  -2  180.09    6.68
   2  -7   3  300.26   11.63
  -2   7  -3  292.68   13.68
  -2   7  -3  349.77   10.09
  -2   7  -3  343.68    9.02
  -2   7  -3  352.55    9.93
   2  -7   3  320.05    9.42
  -2   7  -4  184.73   10.15
   2  -7   4  159.66    8.89
  -2   7  -4  219.06    7.64
  -2   7  -4  200.44    6.59
  -2   7  -4  230.08    7.62
   2  -7   4  195.93    6.96
  -2   7  -5  108.50    7.34
  -2   7  -5  113.70    5.40
   2  -7   5  101.88    4.86
  -2   7  -5  106.18    4.56
  -2   7  -5  107.81    5.10
  -2   7  -6   50.55    4.89
   2  -7   6   43.50    4.59
  -2   7  -6   56.96    3.80
  -2   7  -6   56.68    3.70
   2  -7   6   47.90    3.31
  -2   7  -6   50.75    3.10
  -2   7  -7  184.42    9.50
   2  -7   7  202.75    9.88
  -2   7  -7  191.84    7.69
  -2   7  -7  219.91    7.91
  -2   7  -8   28.46    3.52
   2  -7   8   30.50    3.57
  -2   7  -8   31.16    2.96
   2  -7   8   30.13    3.29
   2  -7   8   29.83    2.45
  -2   7  -8   31.58    2.84
   2  -7   9    0.56    0.73
   2  -7   9    1.38    0.87
   2  -7   9    1.49    0.65
  -2   7  -9    1.31    0.76
  -2   7  -9    2.03    0.78
   2  -7   9    1.03    0.62
   2  -7   9    0.84    0.61
  -2   7 -10  238.16    9.26
   2  -7  10  273.69   10.10
   2  -7  10  238.22    7.94
   2  -7  10  243.13    9.45
  -2   7 -10  243.37    8.93
   2  -7  10  243.62    8.68
  -2   7 -11  170.14    7.13
  -2   7 -11  150.34    7.00
   2  -7  11  168.28    7.55
   2  -7  11  142.53    6.98
   2  -7  11  139.71    5.85
   2  -7  11  150.74    6.57
   2  -7  12  214.29    7.80
  -2   7 -12  179.58    7.51
   2  -7  12  184.91    6.76
   2  -7  12  191.57    6.63
  -2   7 -12  195.96    7.70
   2  -7  12  207.13    8.29
  -2   7 -13  251.08    8.66
   2  -7  13  257.67    7.86
   2  -7  13  294.43    9.87
  -2   7 -13  280.45    9.21
   2  -7  13  306.08    9.34
   2  -7  14  110.20    4.88
  -2   7 -14   91.88    4.36
   2  -7  14   94.37    4.03
   2  -7  14  110.05    5.26
  -2   7 -14  105.34    4.97
  -2   7 -15  145.29    4.88
  -2   7 -15  139.07    5.46
   2  -7  15  144.39    5.01
   2  -7  15  159.08    5.48
   2  -7  16    8.19    0.96
  -2   7 -16    6.79    0.99
  -2   6  14   95.89    3.52
  -2   6  13   90.13    3.84
  -2   6  12   36.62    2.58
  -2   6  12   35.21    2.59
   2  -6 -12   40.35    2.94
  -2   6  11  175.29    6.40
   2  -6 -11  166.17    6.78
  -2   6  11  148.46    6.12
   2  -6 -11  164.23    7.16
  -2   6  10  119.73    5.38
   2  -6 -10  120.71    5.50
  -2   6  10   95.16    4.97
  -2   6  10   97.58    5.19
  -2   6   9    1.23    0.47
   2  -6  -9    1.43    0.40
  -2   6   9    1.77    0.66
  -2   6   9    0.87    0.69
   2  -6  -9    0.79    0.42
  -2   6   8    0.82    0.40
   2  -6  -8    1.88    0.72
   2  -6  -8    2.04    0.83
  -2   6   8    1.84    0.82
   2  -6  -8    0.64    0.38
   2  -6  -7   61.77    3.99
  -2   6   7   62.08    3.87
   2  -6  -7   60.13    3.73
  -2   6   7   58.64    3.46
  -2   6   7   58.23    3.75
   2  -6  -7   56.44    3.61
  -2   6   7   61.13    3.75
   2  -6  -6  571.22   14.85
  -2   6   6  533.49   13.55
  -2   6   6  535.67   12.90
  -2   6   6  546.45   13.58
   2  -6  -6  533.41   13.68
  -2   6   6  524.89   13.40
   2  -6  -6  506.38   13.74
   2  -6  -5  566.71   15.29
  -2   6   5  562.07   13.82
  -2   6   5  547.31   13.49
  -2   6   5  551.05   13.23
  -2   6   5  558.20   13.85
   2  -6  -5  577.65   14.57
  -2   6   4   68.23    3.77
  -2   6   4   68.99    3.65
  -2   6   4   61.10    3.78
   2  -6  -4   65.26    4.46
   2  -6  -4   65.45    4.80
   2  -6  -4   68.21    4.23
  -2   6   4   67.00    3.63
  -2   6   4   64.30    4.26
  -2   6   4   62.60    3.72
  -2   6   3  421.66   10.70
  -2   6   3  391.48   11.02
  -2   6   3  421.77   11.03
  -2   6   3  431.65   10.81
   2  -6  -3  442.71   12.40
   2  -6  -3  441.45   14.02
  -2   6   3  413.04   11.67
  -2   6   2  101.06    6.25
   2  -6  -2  106.84    5.79
  -2   6   2  114.01    4.60
   2  -6  -2  108.59    6.39
  -2   6   2  114.47    5.07
  -2   6   2  119.16    5.10
  -2   6   1   50.52    3.17
   2  -6  -1   46.33    3.39
  -2   6   1   49.53    4.31
   2  -6  -1   45.17    3.73
  -2   6   1   50.40    2.79
   2  -6  -1   45.82    4.06
   2  -6   0  408.79   12.03
  -2   6   0  424.15   14.45
   2  -6   0  396.15   12.67
  -2   6   0  435.25    9.88
  -2   6   0  416.77   10.86
   2  -6   0  396.54   13.34
   2  -6   1   36.42    3.21
  -2   6  -1   41.21    4.28
  -2   6  -1   45.55    2.97
   2  -6   1   40.99    3.81
   2  -6   2   59.99    4.37
  -2   6  -2   64.53    5.53
  -2   6  -2   65.28    3.58
   2  -6   2   56.00    3.11
   2  -6   3   39.05    3.70
  -2   6  -3   44.86    4.47
  -2   6  -3   48.41    3.22
  -2   6  -3   50.80    3.15
   2  -6   3   47.23    2.90
  -2   6  -4   51.84    4.78
   2  -6   4   49.63    4.47
  -2   6  -4   65.21    3.81
  -2   6  -4   64.46    3.64
   2  -6   4   53.84    3.23
  -2   6  -5   89.09    6.22
   2  -6   5   85.06    6.04
  -2   6  -5   89.80    4.65
  -2   6  -5   82.75    4.29
   2  -6   5   75.57    3.99
  -2   6  -6  628.56   19.08
   2  -6   6  676.89   19.24
  -2   6  -6  693.29   16.53
  -2   6  -6  679.79   15.98
  -2   6  -7   67.71    4.19
  -2   6  -7   63.77    5.20
   2  -6   7   66.73    5.07
  -2   6  -7   65.51    4.26
   2  -6   7   64.26    4.59
  -2   6  -7   63.91    4.08
   2  -6   7   63.56    3.59
  -2   6  -7   62.78    3.95
   2  -6   8  287.13   11.04
  -2   6  -8  289.15   10.12
   2  -6   8  277.85   10.21
  -2   6  -8  268.60    9.42
  -2   6  -8  280.22    9.46
   2  -6   8  267.94    8.34
  -2   6  -8  279.09    9.30
   2  -6   8  276.49    9.89
   2  -6   8  270.59   10.03
   2  -6   9 1022.21   24.59
  -2   6  -9 1074.56   24.30
   2  -6   9 1086.00   24.08
  -2   6  -9  968.55   22.78
   2  -6   9  964.84   21.95
   2  -6   9  997.99   21.13
   2  -6   9  978.11   23.21
   2  -6   9  996.30   23.06
  -2   6  -9 1056.51   22.85
   2  -6  10   27.05    3.13
  -2   6 -10   32.26    3.27
   2  -6  10   22.71    2.71
  -2   6 -10   25.75    2.83
  -2   6 -10   26.82    2.72
   2  -6  10   24.60    2.29
   2  -6  10   26.14    2.86
   2  -6  10   22.94    2.47
  -2   6 -11   -0.05    0.62
   2  -6  11    0.49    0.37
   2  -6  11    0.51    0.37
   2  -6  11    0.34    0.48
  -2   6 -11    1.22    0.64
  -2   6 -11    0.60    0.49
  -2   6 -12   92.11    5.24
  -2   6 -12   99.86    5.69
   2  -6  12   98.55    4.69
  -2   6 -12  103.91    5.34
   2  -6  12  100.54    5.68
   2  -6  12  101.94    5.33
  -2   6 -13    2.48    0.81
  -2   6 -13    1.64    0.75
   2  -6  13    3.46    0.80
  -2   6 -13    2.08    0.89
   2  -6  13    2.53    0.76
   2  -6  13    2.39    0.77
   2  -6  14    5.79    1.19
   2  -6  14    5.63    1.09
  -2   6 -14    6.58    1.14
   2  -6  14    7.36    1.11
  -2   6 -14    6.61    1.18
   2  -6  14    5.92    1.11
  -2   6 -14    3.94    0.93
   2  -6  15   81.23    3.77
  -2   6 -15   78.80    4.11
   2  -6  15   80.76    3.88
   2  -6  16   95.13    3.69
  -2   6 -16   92.27    3.95
  -2   5  15  101.83    3.48
   2  -5 -15  112.15    4.86
  -2   5  14   23.89    1.83
  -2   5  14   20.80    1.79
   2  -5 -14   24.88    2.19
  -2   5  13    6.87    1.09
  -2   5  13    6.94    1.18
   2  -5 -13    7.83    1.40
  -2   5  12   11.21    1.52
   2  -5 -12   12.07    1.75
  -2   5  12   10.90    1.58
   2  -5 -12   11.59    1.75
  -2   5  11  132.06    5.83
   2  -5 -11  129.50    5.88
   2  -5 -11  128.28    5.13
  -2   5  11  124.92    5.84
   2  -5 -11  133.79    6.36
  -2   5  10  129.90    5.90
   2  -5 -10  126.98    5.61
  -2   5  10  124.50    5.85
   2  -5 -10  130.50    5.44
  -2   5  10  111.79    5.61
   2  -5 -10  121.68    5.21
  -2   5   9   20.84    2.31
   2  -5  -9   21.12    2.13
  -2   5   9   20.95    2.09
  -2   5   9   25.16    2.44
  -2   5   9   19.89    2.25
   2  -5  -9   19.90    2.07
   2  -5  -9   19.29    2.08
  -2   5   9   22.20    2.37
   2  -5  -9   20.73    2.08
   2  -5  -9   28.07    2.81
   2  -5  -8   62.93    3.89
  -2   5   8   72.02    3.97
  -2   5   8   69.28    4.21
   2  -5  -8   65.34    3.71
  -2   5   8   63.35    3.96
   2  -5  -8   59.83    3.65
  -2   5   8   65.70    4.01
   2  -5  -8   56.69    3.57
  -2   5   8   65.70    3.98
  -2   5   7  179.93    6.96
   2  -5  -7  167.43    6.82
  -2   5   7  181.09    6.95
   2  -5  -7  172.47    6.51
   2  -5  -7  170.64    6.58
  -2   5   7  181.20    6.61
  -2   5   6  937.75   21.46
  -2   5   6 1041.68   21.73
  -2   5   6 1074.42   22.34
   2  -5  -6  992.76   21.86
   2  -5  -6 1011.58   22.56
   2  -5  -6 1085.29   22.10
  -2   5   6 1093.27   21.55
  -2   5   5  180.84    6.84
  -2   5   5  210.37    7.23
   2  -5  -5  184.34    7.09
   2  -5  -5  209.71    7.95
   2  -5  -5  205.28    7.43
  -2   5   5  212.77    6.83
  -2   5   5  208.77    7.88
  -2   5   5  213.31    7.48
  -2   5   4   96.47    4.56
  -2   5   4   99.74    4.61
  -2   5   4  100.50    4.81
  -2   5   4  103.48    4.74
   2  -5  -4   93.95    5.12
   2  -5  -4  104.22    5.82
   2  -5  -4  102.16    5.01
  -2   5   4  101.58    4.87
   2  -5  -3  249.04    8.62
   2  -5  -3  242.39    9.47
   2  -5  -3  239.98    8.20
   2  -5  -2    1.56    0.66
   2  -5  -2    2.57    0.97
   2  -5  -2    3.36    1.05
  -2   5   2    1.63    0.50
   2  -5  -1   49.57    3.37
   2  -5  -1   44.97    3.47
  -2   5   1   48.50    2.82
   2  -5  -1   46.06    3.80
   2  -5   0    0.48    0.47
   2  -5   0    0.36    0.43
  -2   5   0    1.86    0.56
   2  -5   0    0.81    0.74
   2  -5   1  145.04    6.44
   2  -5   1  153.07    6.83
   2  -5   1  155.75    7.23
   2  -5   2  382.20   11.68
   2  -5   2  380.14   11.93
  -2   5  -2  419.05    9.57
   2  -5   2  352.65   11.94
   2  -5   2  391.06    9.43
   2  -5   3  305.11   10.42
   2  -5   3  295.71    8.09
   2  -5   4  512.01   14.95
   2  -5   4  530.75   14.71
   2  -5   5  396.89   12.76
   2  -5   5  388.60   12.02
  -2   5  -5  371.73   10.50
   2  -5   6  274.71   10.30
  -2   5  -6  277.22    9.07
   2  -5   6  283.13    9.83
  -2   5  -6  284.73    8.98
  -2   5  -6  269.60    9.15
   2  -5   7  150.33    7.28
  -2   5  -7  148.14    6.63
   2  -5   7  142.70    6.75
  -2   5  -7  142.06    6.27
  -2   5  -7  144.09    6.38
   2  -5   7  133.52    5.32
   2  -5   7  143.03    6.50
   2  -5   7  139.70    6.56
   2  -5   8    1.26    0.62
   2  -5   8    0.36    0.56
   2  -5   8   -0.07    0.36
  -2   5  -8    1.16    0.70
   2  -5   8    0.31    0.35
  -2   5  -8    0.13    0.39
   2  -5   8    0.92    0.42
   2  -5   8   -0.05    0.47
  -2   5  -8    0.26    0.68
   2  -5   9  106.53    5.87
  -2   5  -9  125.51    6.27
   2  -5   9  121.79    6.57
  -2   5  -9  114.69    6.78
   2  -5   9  124.47    6.26
  -2   5  -9  125.96    6.29
   2  -5   9  112.54    5.09
   2  -5   9  111.93    5.51
   2  -5  10   52.48    4.27
  -2   5 -10   49.79    4.23
   2  -5  10   59.73    4.16
  -2   5 -10   48.33    3.94
   2  -5  10   47.92    3.23
  -2   5 -10   53.53    4.09
   2  -5  10   50.96    3.38
   2  -5  10   45.66    3.78
   2  -5  10   52.68    3.74
  -2   5 -11    2.31    0.94
   2  -5  11    1.85    0.66
  -2   5 -11    2.64    0.87
   2  -5  11    3.22    0.96
  -2   5 -11    4.11    1.11
   2  -5  11    2.94    1.03
  -2   5 -12   50.58    4.13
  -2   5 -12   46.59    3.59
   2  -5  12   55.49    4.15
  -2   5 -12   47.58    3.78
   2  -5  12   48.80    3.62
   2  -5  12   46.98    3.20
   2  -5  13  108.85    4.96
  -2   5 -13   99.30    5.91
   2  -5  13  115.37    5.83
  -2   5 -13   99.57    5.45
   2  -5  13  121.66    5.70
   2  -5  14  274.99    8.49
   2  -5  14  287.22    8.89
  -2   5 -14  291.65    9.25
  -2   5 -15  140.86    5.53
   2  -5  15  143.36    5.41
   2  -5  15  150.83    5.55
   2  -5  16   97.52    3.80
  -2   5 -16   98.98    4.16
   2  -4 -16    3.64    0.86
  -2   4  15   13.11    1.27
  -2   4  15   11.79    1.33
   2  -4 -15   12.33    1.56
  -2   4  14   61.30    3.24
   2  -4 -14   54.87    3.64
  -2   4  13  114.87    5.10
   2  -4 -13  111.91    4.37
  -2   4  13  100.25    5.05
   2  -4 -13  103.39    5.57
  -2   4  12  191.08    7.21
   2  -4 -12  179.43    6.23
  -2   4  12  169.25    7.04
   2  -4 -12  182.86    7.24
   2  -4 -12  187.14    7.60
  -2   4  11  230.69    8.34
   2  -4 -11  211.68    7.67
   2  -4 -11  216.10    7.27
  -2   4  11  220.78    8.21
   2  -4 -11  214.99    7.25
  -2   4  11  194.20    7.61
  -2   4  10  111.59    5.70
   2  -4 -10  114.79    5.17
  -2   4  10  114.31    5.60
   2  -4 -10  121.11    5.27
  -2   4  10  122.41    5.59
  -2   4  10  114.23    5.51
   2  -4 -10  113.48    5.06
   2  -4 -10  125.71    6.01
  -2   4  10  116.27    5.25
  -2   4   9  182.02    6.79
  -2   4   9  148.47    6.72
   2  -4  -9  171.41    6.26
  -2   4   9  170.25    6.83
   2  -4  -9  166.23    6.32
  -2   4   9  158.36    6.63
   2  -4  -9  165.72    6.50
  -2   4   9  162.73    6.67
   2  -4  -9  166.78    6.34
  -2   4   8  164.92    6.50
  -2   4   8  144.04    6.39
  -2   4   8  157.18    6.35
   2  -4  -8  168.55    6.28
   2  -4  -8  154.98    6.27
  -2   4   8  166.51    6.37
   2  -4  -8  149.98    5.97
  -2   4   7  142.01    6.18
  -2   4   7  151.32    6.39
   2  -4  -7  135.50    5.92
   2  -4  -7  148.29    5.80
  -2   4   7  144.29    5.74
   2  -4  -7  135.09    5.66
  -2   4   6   35.25    2.79
  -2   4   6   39.17    3.05
   2  -4  -6   38.11    2.72
   2  -4  -6   36.86    2.96
  -2   4   6   38.23    2.60
   2  -4  -6   34.53    2.67
   2  -4  -6   35.69    2.77
  -2   4   6   35.64    3.08
  -2   4   5   32.34    2.58
   2  -4  -5   30.50    2.59
   2  -4  -5   35.19    2.88
   2  -4  -5   34.69    2.66
  -2   4   5   37.11    2.82
   2  -4  -4   36.33    2.73
  -2   4   4   38.12    2.75
   2  -4  -4   39.26    3.00
   2  -4  -4   41.54    2.94
   2  -4  -3  171.70    5.72
   2  -4  -3  185.42    6.81
  -2   4   3  171.52    6.09
   2  -4  -3  165.00    7.24
   2  -4  -3  178.58    6.50
   2  -4  -2  263.43    7.83
   2  -4  -2  241.50    8.25
  -2   4   2  237.48    7.44
   2  -4  -2  262.58    9.28
   2  -4  -1 1031.78   21.47
   2  -4  -1 1016.97   21.94
  -2   4   1 1036.48   20.69
   2  -4  -1 1045.45   23.00
   2  -4   0  301.53    9.22
   2  -4   0  284.38    9.20
  -2   4   0  308.58    8.51
   2  -4   0  313.51   10.06
   2  -4   1   22.53    2.25
   2  -4   1   20.69    2.19
   2  -4   1   25.27    2.10
   2  -4   1   21.19    2.31
  -2   4  -1   28.52    2.17
   2  -4   2  161.95    6.53
   2  -4   2  158.76    6.52
  -2   4  -2  166.08    5.75
   2  -4   2  159.37    5.98
   2  -4   2  175.84    7.01
   2  -4   3  266.39    8.99
   2  -4   3  271.13    8.97
  -2   4  -3  277.55    7.88
   2  -4   3  281.06    8.52
   2  -4   3  260.31    8.95
  -2   4  -4   91.27    4.09
   2  -4   4   87.89    4.84
   2  -4   4   81.29    4.75
   2  -4   4  100.89    5.04
  -2   4  -4   95.27    4.37
   2  -4   4   86.12    4.53
  -2   4  -4   93.63    3.82
   2  -4   5   14.61    2.02
   2  -4   5   13.72    1.86
  -2   4  -5   12.84    1.60
   2  -4   5   12.39    1.68
  -2   4  -5   15.26    1.52
   2  -4   5   14.21    1.85
  -2   4  -6    0.48    0.39
  -2   4  -6    1.13    0.50
   2  -4   6    2.85    0.86
   2  -4   6    1.00    0.49
   2  -4   6    1.61    0.57
  -2   4  -6    0.99    0.65
   2  -4   6    0.90    0.47
   2  -4   6    1.35    0.52
   2  -4   7   11.02    1.82
   2  -4   7   12.44    1.89
  -2   4  -7   10.02    1.59
  -2   4  -7   12.09    1.81
  -2   4  -7   13.64    1.92
   2  -4   7   10.78    1.40
   2  -4   7   10.39    1.50
   2  -4   7   10.14    1.57
   2  -4   7   11.98    1.76
   2  -4   8   63.71    4.43
  -2   4  -8   52.63    4.35
   2  -4   8   72.30    4.39
  -2   4  -8   61.28    4.15
  -2   4  -8   67.21    4.50
   2  -4   8   63.35    3.62
   2  -4   8   62.21    4.17
   2  -4   8   61.97    3.79
  -2   4  -8   61.82    4.35
   2  -4   8   72.47    4.15
  -2   4  -8   59.45    4.43
   2  -4   9  302.00   10.57
   2  -4   9  338.58   10.31
  -2   4  -9  288.58   10.22
  -2   4  -9  276.68   10.20
   2  -4   9  271.51    8.66
   2  -4   9  297.61   10.17
   2  -4   9  341.28   10.01
  -2   4  -9  295.18   10.60
  -2   4  -9  279.87   10.81
   2  -4  10  436.63   12.16
   2  -4  10  416.42   13.04
   2  -4  10  404.70   11.22
  -2   4 -10  419.23   13.18
  -2   4 -10  402.97   12.99
   2  -4  10  440.08   13.00
  -2   4 -10  385.31   13.02
  -2   4 -10  416.01   14.11
  -2   4 -11  368.77   12.54
  -2   4 -11  363.46   13.36
   2  -4  11  388.17   10.94
  -2   4 -11  366.63   12.65
   2  -4  11  407.40   12.51
   2  -4  11  391.77   11.64
  -2   4 -11  367.74   12.83
  -2   4 -12   63.62    4.85
   2  -4  12   74.46    4.76
  -2   4 -12   66.52    4.97
   2  -4  12   66.63    3.96
  -2   4 -12   66.93    5.24
  -2   4 -12   67.30    4.84
   2  -4  12   73.53    4.45
  -2   4 -13  195.23    8.33
   2  -4  13  174.52    6.72
  -2   4 -13  181.29    8.50
   2  -4  13  182.08    6.99
   2  -4  13  212.38    7.97
   2  -4  13  195.71    7.45
  -2   4 -13  186.75    8.84
  -2   4 -14   67.75    4.46
   2  -4  14   70.69    3.97
   2  -4  14   71.89    4.04
   2  -4  15   13.27    1.55
  -2   4 -15   12.15    1.64
   2  -4  15   13.88    1.54
   2  -4  16   10.47    1.24
  -2   4 -16   10.75    1.28
   2  -4  16   10.22    1.14
  -2   4 -16   10.80    1.31
   2  -3 -16   23.18    2.10
  -2   3  16   20.56    1.43
  -2   3  16   22.43    1.79
   2  -3 -16   21.18    2.13
  -2   3  15  105.54    4.16
   2  -3 -15  101.86    3.67
  -2   3  15   94.11    4.44
   2  -3 -15  103.01    5.03
  -2   3  14  213.33    7.07
   2  -3 -14  206.72    6.23
   2  -3 -13  301.82    9.84
  -2   3  13  314.24    9.64
   2  -3 -13  293.72    8.41
  -2   3  13  285.90    9.59
   2  -3 -13  299.37   10.04
   2  -3 -12   22.44    2.34
  -2   3  12   26.00    2.65
   2  -3 -12   21.90    2.09
  -2   3  12   24.28    2.55
   2  -3 -12   22.24    2.14
   2  -3 -12   25.07    2.59
  -2   3  11   38.56    3.29
   2  -3 -11   40.23    2.99
   2  -3 -11   34.62    2.73
   2  -3 -11   37.86    2.81
  -2   3  11   36.34    2.94
  -2   3  11   35.89    3.09
  -2   3  10   17.30    2.21
   2  -3 -10   17.77    1.87
  -2   3  10   19.04    2.09
  -2   3  10   17.31    2.05
  -2   3  10   16.14    2.04
   2  -3 -10   13.32    1.71
  -2   3  10   17.46    1.98
   2  -3 -10   17.29    1.87
   2  -3 -10   17.81    1.90
   2  -3 -10   18.91    2.13
   2  -3  -9    3.58    0.84
  -2   3   9    4.20    1.01
  -2   3   9    5.23    1.29
  -2   3   9    5.47    1.21
   2  -3  -9    4.42    0.97
  -2   3   9    5.18    1.11
   2  -3  -9    4.80    0.97
   2  -3  -9    5.01    1.04
   2  -3  -8    9.86    1.37
  -2   3   8    8.70    1.54
  -2   3   8    8.61    1.54
  -2   3   8    9.40    1.43
   2  -3  -8    9.20    1.41
  -2   3   8   12.68    1.64
   2  -3  -8    9.65    1.38
   2  -3  -7   71.96    3.65
   2  -3  -7   73.29    4.04
  -2   3   7   77.87    4.31
  -2   3   7   72.96    4.24
   2  -3  -7   75.08    3.82
  -2   3   7   69.13    3.58
   2  -3  -7   66.19    3.71
  -2   3   7   65.52    4.17
  -2   3   6  205.10    7.35
   2  -3  -6  207.70    7.01
   2  -3  -6  221.37    7.42
   2  -3  -6  221.19    7.09
   2  -3  -6  197.49    6.82
  -2   3   5  209.09    7.34
   2  -3  -5  219.71    7.07
   2  -3  -5  214.00    7.18
   2  -3  -5  217.01    7.42
   2  -3  -4  727.36   14.27
   2  -3  -4  727.67   15.62
  -2   3   4  687.20   15.75
   2  -3  -4  690.34   16.02
   2  -3  -4  697.77   15.59
   2  -3  -3  565.56   12.42
   2  -3  -3  541.53   13.25
  -2   3   3  569.03   13.33
   2  -3  -3  572.45   14.47
   2  -3  -3  546.07   12.91
   2  -3  -2  661.36   14.44
   2  -3  -2  629.87   14.85
  -2   3   2  639.01   14.66
   2  -3  -2  670.06   16.07
   2  -3  -1  122.99    5.02
   2  -3  -1  115.44    5.00
  -2   3   1  111.46    4.82
   2  -3  -1  118.33    5.45
   2  -3   0  168.35    6.20
   2  -3   0  169.93    6.24
   2  -3   0  174.88    6.67
  -2   3   0  177.84    6.22
   2  -3   1  654.14   15.06
   2  -3   1  654.70   15.02
  -2   3  -1  643.37   14.63
   2  -3   1  643.40   14.18
   2  -3   1  648.70   15.30
   2  -3   2   40.23    2.93
   2  -3   2   44.94    3.02
   2  -3   2   41.87    2.97
   2  -3   2   45.03    2.80
  -2   3  -2   41.72    2.76
  -2   3  -2   43.85    2.56
   2  -3   3  293.18    9.00
   2  -3   3  301.01    8.91
  -2   3  -3  317.10    8.31
   2  -3   3  269.01    8.24
  -2   3  -3  292.24    7.87
   2  -3   3  289.28    8.84
   2  -3   4  285.14    8.97
   2  -3   4  278.01    8.71
  -2   3  -4  292.26    8.26
   2  -3   4  264.09    8.30
  -2   3  -4  280.92    7.84
   2  -3   4  277.18    8.59
   2  -3   5  298.07    9.50
   2  -3   5  314.79    9.31
  -2   3  -5  312.13    9.00
   2  -3   5  298.06    9.06
  -2   3  -5  291.42    8.46
   2  -3   5  299.86    8.95
   2  -3   6  333.74   10.43
   2  -3   6  349.84   10.23
  -2   3  -6  351.57   10.16
   2  -3   6  340.01    8.92
   2  -3   6  344.58   10.15
  -2   3  -6  332.45    9.62
   2  -3   6  351.50    9.83
   2  -3   7  382.51   11.53
   2  -3   7  425.67   11.44
  -2   3  -7  410.07   11.67
  -2   3  -7  378.31   11.72
   2  -3   7  391.63   11.33
   2  -3   7  364.30    9.89
   2  -3   7  379.23   10.44
  -2   3  -7  400.12   12.02
   2  -3   7  396.39   10.64
  -2   3  -7  352.05   10.62
  -2   3  -7  393.97   12.36
   2  -3   8  283.35    9.81
   2  -3   8  320.05    9.65
  -2   3  -8  252.48    9.46
   2  -3   8  290.07    9.70
  -2   3  -8  296.04   10.32
   2  -3   8  282.44    8.94
  -2   3  -8  286.59   10.35
  -2   3  -8  290.48    9.58
  -2   3  -8  305.82   11.22
  -2   3  -9  163.64    7.70
   2  -3   9  163.11    7.26
   2  -3   9  164.59    6.67
   2  -3   9  170.42    6.40
  -2   3  -9  171.08    7.74
   2  -3   9  171.65    7.29
   2  -3   9  163.32    6.68
  -2   3  -9  162.28    7.24
  -2   3  -9  175.08    8.66
  -2   3  -9  154.16    7.62
   2  -3  10   85.30    5.13
   2  -3  10   84.90    4.48
  -2   3 -10   91.22    5.76
   2  -3  10   82.18    5.03
  -2   3 -10   86.12    5.59
   2  -3  10   88.67    4.86
  -2   3 -10   82.29    5.63
  -2   3 -10   92.38    6.49
  -2   3 -11    2.13    1.10
   2  -3  11    1.43    0.56
  -2   3 -11    2.80    1.06
  -2   3 -11    1.05    0.73
   2  -3  11    2.26    0.90
   2  -3  11    1.27    0.54
  -2   3 -11    1.95    0.97
   2  -3  12    0.65    0.43
  -2   3 -12   -0.14    0.99
   2  -3  12    0.33    0.29
   2  -3  12    0.43    0.46
  -2   3 -12    0.83    0.62
  -2   3 -12    0.13    0.75
  -2   3 -13   -0.11    0.75
  -2   3 -13    0.45    0.81
   2  -3  13    0.05    0.41
   2  -3  13    0.66    0.53
  -2   3 -13    0.44    0.56
  -2   3 -13    1.52    1.15
  -2   3 -14   50.72    4.03
   2  -3  14   50.75    3.35
   2  -3  14   52.73    3.33
   2  -3  15   42.86    2.87
   2  -3  15   41.82    2.65
  -2   3 -15   38.68    3.14
  -2   3 -16  148.39    5.07
   2  -3  16  149.65    5.16
  -2   3 -16  147.99    5.53
  -2   2  17   80.08    3.30
   2  -2 -17   86.38    3.96
   2  -2 -17   82.61    3.87
  -2   2  16  141.41    4.50
   2  -2 -16  135.67    4.28
  -2   2  16  136.85    5.25
   2  -2 -16  141.18    5.81
  -2   2  15   26.37    2.13
   2  -2 -15   26.73    1.93
  -2   2  15   25.30    2.35
   2  -2 -15   26.23    2.55
  -2   2  14   87.28    4.56
   2  -2 -14   86.73    4.01
  -2   2  14   83.73    4.69
  -2   2  13    0.40    0.48
   2  -2 -13    0.39    0.66
  -2   2  13   -0.13    0.53
   2  -2 -13    0.19    0.43
   2  -2 -13    1.08    0.57
   2  -2 -13   -0.01    0.60
   2  -2 -12  111.67    5.33
  -2   2  12  101.03    5.54
   2  -2 -12  114.14    5.09
  -2   2  12  117.73    5.28
  -2   2  12  111.10    5.67
   2  -2 -12  106.79    4.88
   2  -2 -12  112.73    5.46
   2  -2 -11   18.39    1.95
   2  -2 -11   17.04    1.90
  -2   2  11   18.60    2.13
   2  -2 -11   21.60    2.13
  -2   2  11   18.58    2.19
   2  -2 -11   16.53    1.85
   2  -2 -11   21.10    2.24
  -2   2  11   20.65    2.23
   2  -2 -10  254.97    7.83
  -2   2  10  274.84    8.97
  -2   2  10  266.98    9.03
  -2   2  10  260.28    8.88
   2  -2 -10  270.15    8.18
   2  -2 -10  265.79    8.32
  -2   2  10  235.42    7.98
   2  -2 -10  255.17    8.08
   2  -2  -9  242.40    7.22
  -2   2   9  257.84    8.85
  -2   2   9  225.18    7.97
   2  -2  -9  252.00    7.66
   2  -2  -9  233.72    7.76
  -2   2   9  245.44    8.62
  -2   2   9  241.50    7.67
   2  -2  -9  239.46    7.66
  -2   2   8  693.46   16.45
  -2   2   8  675.98   16.29
  -2   2   8  711.43   16.77
   2  -2  -8  709.41   15.27
   2  -2  -8  680.16   15.48
   2  -2  -8  674.74   15.18
   2  -2  -7  387.26   10.08
  -2   2   7  385.29   11.04
   2  -2  -7  391.09   10.53
   2  -2  -7  417.63   10.23
   2  -2  -7  404.87   10.32
  -2   2   6   51.32    3.39
   2  -2  -6   54.30    3.18
   2  -2  -6   57.03    3.33
   2  -2  -6   58.48    3.18
   2  -2  -6   56.76    3.17
   2  -2  -5  110.50    4.29
  -2   2   5  115.89    5.18
   2  -2  -5  121.31    4.96
   2  -2  -5  114.63    4.89
   2  -2  -5  124.21    4.76
   2  -2  -5  129.01    4.03
   2  -2  -4  158.27    4.98
   2  -2  -4  164.95    5.59
  -2   2   4  163.92    6.19
   2  -2  -4  162.40    5.84
   2  -2  -4  163.41    5.59
   2  -2  -3   80.72    3.53
   2  -2  -3   82.35    3.88
  -2   2   3   82.47    4.17
   2  -2  -3   84.16    3.89
   2  -2  -3   86.43    3.78
   2  -2  -2    1.01    0.43
   2  -2  -2    1.23    0.61
  -2   2   2    1.77    0.71
   2  -2  -1  314.37    8.59
   2  -2  -1  298.12    8.57
  -2   2   1  323.40    9.14
   2  -2  -1  304.84    9.07
  -2   2   0  153.07    5.79
   2  -2   0  150.87    5.57
   2  -2   0  157.15    5.65
   2  -2   0  148.59    5.78
   2  -2   1  647.85   14.40
   2  -2   1  622.89   14.07
   2  -2   1  608.42   13.58
  -2   2  -1  643.14   13.62
   2  -2   1  596.71   14.19
   2  -2   2  466.53   11.94
   2  -2   2  478.21   11.80
   2  -2   2  475.87   11.45
  -2   2  -2  477.98   11.31
   2  -2   2  473.93   11.84
   2  -2   3  185.72    6.61
   2  -2   3  179.00    6.35
  -2   2  -3  188.44    6.04
   2  -2   3  188.21    6.31
  -2   2  -3  192.57    6.23
   2  -2   3  196.04    6.48
   2  -2   4  672.77   15.79
   2  -2   4  711.47   15.62
  -2   2  -4  719.70   15.40
   2  -2   4  713.85   15.62
  -2   2  -4  658.14   15.20
   2  -2   4  700.61   15.39
   2  -2   5   70.57    4.00
   2  -2   5   81.92    4.06
  -2   2  -5   68.71    3.80
   2  -2   5   64.01    3.72
   2  -2   5   70.85    3.63
  -2   2  -5   76.31    4.02
   2  -2   6  166.69    6.64
   2  -2   6  178.00    6.48
  -2   2  -6  159.46    6.50
   2  -2   6  165.18    6.42
   2  -2   6  173.20    5.93
  -2   2  -6  168.17    6.66
  -2   2  -7   21.95    2.49
   2  -2   7   20.98    2.24
   2  -2   7   19.05    2.03
  -2   2  -7   17.76    2.21
   2  -2   7   17.80    2.03
   2  -2   7   19.64    1.95
  -2   2  -7   22.40    2.58
  -2   2  -7   19.40    2.28
  -2   2  -7   21.55    2.75
  -2   2  -8    2.24    0.94
  -2   2  -8    2.21    0.92
   2  -2   8    2.57    0.87
   2  -2   8    2.87    0.81
  -2   2  -8    2.69    1.07
  -2   2  -8    1.82    0.70
   2  -2   8    2.21    0.81
   2  -2   8    2.78    0.83
  -2   2  -8    2.31    1.05
  -2   2  -8    4.27    1.17
  -2   2  -9    1.13    0.98
  -2   2  -9    1.60    0.82
   2  -2   9    2.49    0.78
   2  -2   9    2.15    0.75
  -2   2  -9    1.59    0.71
   2  -2   9    1.54    0.88
   2  -2   9    1.95    0.78
  -2   2  -9    0.81    0.84
  -2   2  -9    1.76    1.29
  -2   2  -9    3.43    1.26
   2  -2  10  129.88    5.72
  -2   2 -10  129.23    7.23
  -2   2 -10  121.36    6.95
   2  -2  10  125.60    5.71
   2  -2  10  136.78    6.34
   2  -2  10  129.46    5.94
  -2   2 -10  126.15    7.46
  -2   2 -10  138.95    7.75
  -2   2 -10  136.82    8.61
  -2   2 -10  111.35    6.61
  -2   2 -11   80.54    5.79
  -2   2 -11   69.96    5.35
   2  -2  11   67.72    4.25
   2  -2  11   65.20    4.09
  -2   2 -11   70.13    5.60
  -2   2 -11   75.92    6.23
  -2   2 -12   61.02    4.97
  -2   2 -12   57.75    4.95
   2  -2  12   59.91    3.92
   2  -2  12   56.70    3.81
  -2   2 -12   65.24    5.32
  -2   2 -12   52.11    5.01
  -2   2 -13  408.82   14.24
  -2   2 -13  425.23   14.10
   2  -2  13  433.44   11.91
   2  -2  13  424.49   11.69
  -2   2 -13  410.21   14.23
  -2   2 -13  402.49   14.51
  -2   2 -14  161.50    7.60
   2  -2  14  148.32    6.03
   2  -2  14  147.58    5.73
  -2   2 -14  145.95    7.42
  -2   2 -14  136.26    7.31
  -2   2 -15   97.04    5.18
   2  -2  15   94.77    4.36
   2  -2  15   95.10    4.02
  -2   2 -16  207.95    6.92
   2  -2  16  207.92    5.62
   2  -1 -17    0.36    0.27
  -2   1  17    1.24    0.48
   2  -1 -17    1.11    0.54
   2  -1 -17    1.30    0.54
  -2   1  16   26.68    1.92
   2  -1 -16   22.17    1.72
  -2   1  16   23.81    2.17
   2  -1 -16   25.58    2.42
  -2   1  15   28.36    2.33
   2  -1 -15   28.42    2.16
  -2   1  15   27.94    2.59
  -2   1  14  144.58    6.33
   2  -1 -14  150.92    5.69
  -2   1  14  149.61    6.58
   2  -1 -13  233.63    8.39
   2  -1 -13  254.24    8.05
  -2   1  13  240.72    8.89
   2  -1 -13  258.87    8.00
  -2   1  13  258.53    8.00
   2  -1 -13  234.80    8.43
   2  -1 -12  172.52    6.70
   2  -1 -12  173.21    6.52
  -2   1  12  180.69    6.83
  -2   1  12  164.38    7.13
   2  -1 -12  172.47    6.44
   2  -1 -12  181.54    6.88
   2  -1 -11  192.48    6.77
   2  -1 -11  188.66    6.90
   2  -1 -11  198.12    6.93
   2  -1 -11  196.35    6.85
  -2   1  11  181.59    7.45
  -2   1  11  191.91    7.44
  -2   1  11  202.40    7.52
   2  -1 -10  127.87    4.95
   2  -1 -10  121.98    5.02
  -2   1  10  112.46    5.62
  -2   1  10  115.06    5.52
   2  -1 -10  120.87    5.20
   2  -1 -10  122.98    5.16
  -2   1  10  127.14    5.86
  -2   1   9  172.45    7.02
   2  -1  -9  170.35    5.51
  -2   1   9  155.42    6.63
   2  -1  -9  169.71    5.84
  -2   1   9  159.66    6.40
   2  -1  -9  161.96    6.04
   2  -1  -9  163.34    5.91
   2  -1  -9  155.15    5.73
  -2   1   9  152.81    6.47
  -2   1   8   48.34    3.40
  -2   1   8   47.36    3.40
  -2   1   8   42.72    3.23
   2  -1  -8   50.63    2.87
   2  -1  -8   47.17    2.97
   2  -1  -8   48.83    2.93
  -2   1   7    3.61    0.95
   2  -1  -7    4.94    1.02
   2  -1  -7    4.16    0.86
   2  -1  -6  318.01    8.77
  -2   1   6  325.50    9.68
   2  -1  -6  330.21    8.83
   2  -1  -6  336.51    8.48
   2  -1  -6  324.78    8.57
   2  -1  -5  199.60    6.44
   2  -1  -5  207.57    6.10
   2  -1  -5  188.31    5.99
  -2   1   5  191.06    6.92
   2  -1  -5  198.74    6.28
   2  -1  -5  205.28    5.56
   2  -1  -4  345.11    8.31
   2  -1  -4  310.64    8.36
  -2   1   4  335.32    9.71
   2  -1  -4  346.65    9.08
   2  -1  -4  334.59    8.72
   2  -1  -4  365.24    8.65
   2  -1  -3  202.13    5.93
   2  -1  -3  190.51    4.81
   2  -1  -3  181.96    5.97
  -2   1   3  201.16    7.06
   2  -1  -3  209.37    6.16
   2  -1  -3  194.13    5.82
   2  -1  -2  609.40   13.02
   2  -1  -2  569.15   13.05
   2  -1  -2  597.72   10.79
  -2   1   2  603.22   14.24
   2  -1  -2  578.92   12.58
   2  -1  -1  323.79    8.47
   2  -1  -1  312.35    8.44
   2  -1   0  403.72   10.14
   2  -1   0  387.85   10.04
  -2   1   0  422.56   10.17
   2  -1   1  674.80   14.79
   2  -1   1  649.75   14.61
  -2   1  -1  690.69   13.81
   2  -1   1  687.60   14.55
  -2   1  -1  668.25   14.60
   2  -1   2   34.68    2.49
   2  -1   2   32.09    2.36
  -2   1  -2   33.09    2.15
   2  -1   2   35.85    2.42
  -2   1  -2   35.14    2.45
   2  -1   3  174.44    6.22
   2  -1   3  166.58    5.94
  -2   1  -3  176.80    5.77
   2  -1   3  182.81    6.12
  -2   1  -3  165.91    6.10
   2  -1   4  111.90    4.86
   2  -1   4  104.13    4.56
  -2   1  -4  104.92    4.57
   2  -1   4  113.65    4.82
  -2   1  -4  104.72    4.89
   2  -1   5  116.39    5.09
   2  -1   5  112.67    4.83
  -2   1  -5  123.52    5.31
   2  -1   5  120.17    4.50
   2  -1   5  110.74    4.95
  -2   1  -5  119.82    5.56
   2  -1   6  146.52    5.94
   2  -1   6  161.42    5.88
  -2   1  -6  146.74    6.36
   2  -1   6  143.31    5.30
   2  -1   6  163.44    6.21
  -2   1  -6  146.34    6.69
  -2   1  -7  294.09   10.45
   2  -1   7  295.34    9.17
   2  -1   7  322.62    8.87
  -2   1  -7  305.02   10.51
  -2   1  -7  320.15   11.33
   2  -1   7  287.26    8.49
   2  -1   7  292.33    9.28
   2  -1   7  298.95    8.88
  -2   1  -7  294.21   10.83
  -2   1  -7  318.50   11.91
  -2   1  -7  263.02   10.23
   2  -1   8  110.54    5.27
  -2   1  -8  121.60    6.65
   2  -1   8  120.94    5.18
   2  -1   8  125.04    5.70
   2  -1   8  115.08    5.25
  -2   1  -8  123.30    7.37
  -2   1  -8  115.21    7.70
  -2   1  -8  122.95    7.34
  -2   1  -8  120.25    6.65
  -2   1  -8  108.92    6.45
   2  -1   9  182.54    6.92
   2  -1   9  149.59    6.36
  -2   1  -9  157.91    8.11
   2  -1   9  165.54    6.47
  -2   1  -9  131.95    8.32
  -2   1  -9  192.31   10.01
  -2   1  -9  202.14    9.22
  -2   1  -9  103.35    8.55
  -2   1  -9  178.88    8.50
   2  -1  10  147.63    6.31
  -2   1 -10  154.49    8.16
  -2   1 -10  149.61    8.26
   2  -1  10  146.29    6.35
  -2   1 -10  164.72    9.14
  -2   1 -10  177.20    9.68
  -2   1 -10  161.23    9.88
  -2   1 -10  153.14    8.13
  -2   1 -11  403.96   14.39
   2  -1  11  373.22   11.11
   2  -1  11  367.96   11.06
  -2   1 -11  413.42   15.06
  -2   1 -11  387.07   15.37
  -2   1 -11  379.55   13.79
  -2   1 -11  359.10   13.43
  -2   1 -12  171.97    9.01
  -2   1 -12  178.52    8.93
   2  -1  12  173.40    7.01
   2  -1  12  180.31    6.95
  -2   1 -12  174.54    9.16
  -2   1 -12  175.15    9.42
  -2   1 -12  186.45    8.86
  -2   1 -13    6.44    1.80
  -2   1 -13    4.91    1.49
   2  -1  13    6.45    1.23
   2  -1  13    6.88    1.24
  -2   1 -13    5.36    1.53
  -2   1 -13    4.95    1.48
  -2   1 -14    2.79    1.12
   2  -1  14    3.78    0.84
  -2   1 -14    4.30    1.24
  -2   1 -14    4.21    1.40
   2  -1  14    3.75    0.91
  -2   1 -15    6.67    1.35
   2  -1  15    5.81    1.04
  -2   1 -16   13.07    1.53
   2  -1  16   11.78    1.05
  -2   0  18   44.59    2.30
   2   0 -18   42.57    2.52
   2   0 -17  196.00    5.56
  -2   0  17  198.66    6.42
   2   0 -17  181.14    6.39
   2   0 -17  198.91    6.80
  -2   0  16   84.25    3.75
   2   0 -16   84.26    3.71
  -2   0  16   85.05    4.41
   2   0 -16   83.62    4.56
  -2   0  15   13.97    1.71
   2   0 -15   11.16    1.40
  -2   0  15   13.31    1.88
   2   0 -14   91.82    4.39
   2   0 -14   85.56    4.24
  -2   0  14   93.73    5.18
   2   0 -13  267.11    8.34
  -2   0  13  281.35    8.37
   2   0 -13  253.27    8.17
  -2   0  13  250.33    9.20
   2   0 -12  106.53    4.95
   2   0 -12  106.07    4.94
  -2   0  12  108.84    5.16
   2   0 -12  103.42    4.90
  -2   0  12  106.00    5.57
   2   0 -12  101.09    4.73
  -2   0  12  111.38    5.22
  -2   0  11   27.85    2.87
   2   0 -11   26.68    2.23
   2   0 -11   26.36    2.28
   2   0 -11   26.98    2.33
  -2   0  11   26.62    2.60
  -2   0  11   26.56    2.57
  -2   0  11   24.34    2.57
   2   0 -11   26.42    2.25
   2   0 -11   31.47    2.32
  -2   0  10   24.50    2.64
   2   0 -10   24.64    1.97
   2   0 -10   23.12    2.16
   2   0 -10   25.38    2.10
  -2   0  10   25.22    2.48
   2   0 -10   25.89    2.11
   2   0 -10   24.76    2.20
  -2   0  10   26.20    2.65
  -2   0  10   28.55    2.73
  -2   0   9   23.81    2.55
   2   0  -9   21.58    1.70
  -2   0   9   24.12    2.44
   2   0  -9   24.16    2.09
  -2   0   9   23.83    2.31
   2   0  -9   23.03    1.90
   2   0  -9   23.72    2.03
   2   0  -9   23.64    2.00
  -2   0   9   23.72    2.41
  -2   0   8   14.84    1.85
   2   0  -8   14.52    1.45
   2   0  -8   13.17    1.24
  -2   0   8   14.43    1.83
   2   0  -8   14.51    1.54
   2   0  -8   14.19    1.50
  -2   0   7  372.47   10.77
   2   0  -7  392.27    9.77
   2   0  -7  372.91    9.39
   2   0  -6 1158.85   21.79
  -2   0   6 1091.93   23.16
   2   0  -6 1102.21   21.41
   2   0  -6 1122.31   20.90
   2   0  -6 1133.21   21.12
   2   0  -5  528.86   11.83
   2   0  -5  574.02   12.33
  -2   0   5  569.29   13.97
   2   0  -5  546.31   12.60
   2   0  -5  614.24   12.11
   2   0  -5  557.96   12.00
   2   0  -5  583.88   11.88
   2   0  -4   69.81    2.86
  -2   0   4   73.74    4.08
   2   0  -4   79.42    3.58
   2   0  -4   74.73    3.23
   2   0  -4   73.35    3.05
   2   0  -4   71.87    3.07
   2   0  -4   71.70    3.18
   2   0  -3  367.00    8.90
  -2   0   3  351.20   10.23
   2   0  -3  368.13    7.98
   2   0  -3  343.40    8.82
   2   0  -3  373.47    9.22
   2   0  -3  361.47    8.59
   2   0  -3  383.11    8.50
   2   0  -2  114.37    4.30
   2   0  -2  108.06    4.29
   2   0  -2  118.77    3.35
   2   0  -2  110.84    3.89
  -2   0   2  108.61    4.99
   2   0  -2  109.96    4.27
  -2   0   1  211.01    6.68
   2   0  -1  206.05    6.27
   2   0  -1  204.52    6.32
   2   0  -1  210.73    4.66
   2   0  -1  199.73    5.56
  -2   0   0    3.19    0.78
   2   0   0    2.70    0.69
   2   0   0    4.71    0.87
  -2   0   0    4.13    0.68
   2   0   1   37.08    2.50
   2   0   1   38.70    2.50
  -2   0  -1   46.15    2.33
  -2   0  -1   37.56    2.61
  -2   0  -1   41.24    2.19
   2   0   2  143.50    5.43
   2   0   2  150.00    5.36
  -2   0  -2  165.06    5.15
  -2   0  -2  151.30    5.81
  -2   0  -2  151.21    4.64
   2   0   3   66.11    3.50
   2   0   3   62.05    3.26
  -2   0  -3   60.65    3.18
  -2   0  -3   62.49    3.70
  -2   0  -3   58.53    2.73
   2   0   4   34.27    2.55
   2   0   4   36.01    2.48
  -2   0  -4   36.51    2.63
   2   0   4   36.40    2.31
  -2   0  -4   34.09    2.83
   2   0   5  747.93   16.84
  -2   0  -5  792.47   17.79
   2   0   5  792.38   16.51
   2   0   5  765.67   16.12
  -2   0  -5  800.36   18.88
  -2   0  -6  746.86   18.15
   2   0   6  728.58   16.50
   2   0   6  758.52   15.97
   2   0   6  738.09   16.01
  -2   0  -6  728.56   19.18
   2   0   7  100.50    4.78
   2   0   7  111.95    4.42
   2   0   7   96.09    4.52
  -2   0  -7  109.10    6.34
  -2   0  -7  105.32    6.08
   2   0   7  102.22    4.74
  -2   0  -7  106.06    6.69
  -2   0  -7  104.40    6.76
  -2   0  -7  104.40    6.77
  -2   0  -7   88.22    5.88
  -2   0  -8  266.91   11.20
   2   0   8  248.08    8.13
  -2   0  -8  283.30   11.30
  -2   0  -8  266.59   12.30
   2   0   8  244.45    8.00
   2   0   8  241.31    8.05
  -2   0  -8  237.80   12.25
  -2   0  -8  232.88   11.77
  -2   0  -8  243.87   10.50
  -2   0  -9   77.13    5.96
  -2   0  -9   67.85    5.51
   2   0   9   64.92    3.94
   2   0   9   65.62    3.92
  -2   0  -9   71.25    6.34
  -2   0  -9   74.91    6.88
  -2   0  -9   68.99    6.38
  -2   0  -9   60.39    5.17
  -2   0 -10    1.83    1.03
  -2   0 -10    5.30    2.23
   2   0  10    1.80    0.75
  -2   0 -10    2.18    1.21
   2   0  10    1.47    0.66
  -2   0 -10    2.01    1.28
  -2   0 -10    1.40    0.96
  -2   0 -10    3.16    1.39
  -2   0 -11   18.85    2.93
  -2   0 -11   15.67    2.62
  -2   0 -11   21.32    3.01
   2   0  11   16.15    2.02
   2   0  11   17.81    2.03
  -2   0 -11   19.99    3.27
  -2   0 -11   18.80    3.20
   2   0  12   27.97    2.48
   2   0  12   28.92    2.66
  -2   0 -12   28.71    3.64
  -2   0 -12   24.14    3.24
  -2   0 -12   25.83    3.39
  -2   0 -12   30.41    3.61
  -2   0 -12   28.43    3.53
  -2   0 -13    1.43    0.89
  -2   0 -13    1.91    0.87
  -2   0 -13    2.26    1.16
   2   0  13    1.61    0.75
  -2   0 -13    0.19    0.61
  -2   0 -13    0.78    0.57
   2   0  14   78.92    4.09
  -2   0 -14   79.85    5.19
  -2   0 -14   73.55    4.87
   2   0  14   77.17    3.65
  -2   0 -15  190.01    7.41
   2   0  15  195.53    6.23
   2   0  15  193.27    6.29
   2   0  15  186.92    5.52
  -2   0 -16  105.00    4.43
   2   1 -18  114.63    3.63
  -2  -1  18  111.46    4.10
   2   1 -18  103.79    4.20
   2   1 -17   56.07    2.82
  -2  -1  17   58.66    3.33
   2   1 -17   58.11    3.46
  -2  -1  16   32.40    2.33
   2   1 -16   33.25    2.34
  -2  -1  16   35.19    2.80
   2   1 -16   29.55    2.59
   2   1 -16   33.32    2.81
  -2  -1  15  172.08    6.75
   2   1 -15  193.28    6.53
  -2  -1  15  190.97    7.54
   2   1 -14   27.59    2.35
  -2  -1  14   25.55    2.68
   2   1 -14   25.94    2.27
   2   1 -13  187.76    6.79
   2   1 -13  193.38    6.77
  -2  -1  13  180.01    7.64
   2   1 -12   72.62    5.05
  -2  -1  12   80.46    5.05
   2   1 -12   84.64    4.34
  -2  -1  12   84.10    4.41
   2   1 -12   83.36    4.30
  -2  -1  12   85.44    4.99
   2   1 -12   85.07    4.23
   2   1 -11  139.83    6.89
  -2  -1  11  162.16    7.29
   2   1 -11  156.39    5.75
   2   1 -11  159.91    6.12
   2   1 -11  164.55    6.00
  -2  -1  11  163.31    7.04
   2   1 -11  189.72    6.27
   2   1 -11  155.23    5.96
  -2  -1  11  168.21    6.76
  -2  -1  11  184.95    7.12
  -2  -1  10  415.63   12.00
  -2  -1  10  438.06   12.84
   2   1 -10  437.30   10.38
   2   1 -10  429.30   11.16
  -2  -1  10  448.27   12.19
   2   1 -10  434.04   10.71
  -2  -1  10  443.47   12.38
   2   1 -10  439.25   10.94
   2   1 -10  437.91   11.09
  -2  -1   9   99.93    5.26
   2   1  -9   99.56    3.77
   2   1  -9   95.63    4.35
  -2  -1   9   92.47    4.81
  -2  -1   9  101.21    5.03
   2   1  -9  100.04    4.06
   2   1  -9  100.08    4.29
  -2  -1   9   96.10    4.90
   2   1  -9   99.46    4.35
   2   1  -8  121.78    5.28
  -2  -1   8  126.43    5.84
   2   1  -8  136.82    4.21
   2   1  -8  131.86    4.58
  -2  -1   8  137.64    5.86
   2   1  -8  141.86    5.08
   2   1  -8  139.41    4.89
   2   1  -7  451.78    9.13
  -2  -1   7  425.69   11.83
   2   1  -7  438.31    9.75
   2   1  -7  442.05   10.32
   2   1  -7  445.09   10.10
   2   1  -6  142.18    5.14
  -2  -1   6  156.68    6.22
   2   1  -6  153.43    4.63
   2   1  -6  149.90    4.95
   2   1  -6  153.30    4.79
   2   1  -5   37.67    2.30
   2   1  -5   40.77    2.46
  -2  -1   5   40.96    3.03
   2   1  -5   38.17    2.21
   2   1  -5   44.19    2.12
   2   1  -5   39.82    2.12
   2   1  -4   47.48    2.64
   2   1  -4   46.67    2.43
  -2  -1   4   43.37    3.11
   2   1  -4   48.43    2.37
   2   1  -4   50.01    2.21
  -2  -1   4   44.78    2.51
   2   1  -4   47.49    2.24
   2   1  -4   48.54    2.56
   2   1  -3   85.31    3.58
   2   1  -3   88.02    3.24
  -2  -1   3   82.80    4.38
   2   1  -3   85.88    3.16
   2   1  -3   90.57    3.69
  -2  -1   3   81.59    3.37
   2   1  -3   84.43    2.96
   2   1  -3   85.19    3.05
   2   1  -2   56.22    2.88
   2   1  -2   53.89    2.31
   2   1  -2   54.38    2.78
   2   1  -2   57.11    2.39
  -2  -1   2   55.36    2.58
   2   1  -2   55.49    2.24
   2   1  -2   57.71    2.32
   2   1  -1   32.45    2.21
   2   1  -1   34.35    2.22
   2   1  -1   36.16    1.79
   2   1  -1   32.43    2.11
  -2  -1   1   31.34    2.40
  -2  -1   1   31.41    1.83
  -2  -1   1   34.36    2.21
   2   1  -1   35.78    1.76
   2   1   0  502.68   11.49
   2   1   0  489.54   11.27
   2   1   0  509.19    9.74
  -2  -1   0  497.78   12.14
  -2  -1   0  495.76   11.10
   2   1   0  479.72    9.77
   2   1   1  129.57    4.88
  -2  -1  -1  138.78    4.59
   2   1   1  144.77    4.98
   2   1   1  135.14    3.72
  -2  -1  -1  143.42    5.61
  -2  -1  -1  146.36    4.79
   2   1   2  514.07   12.13
  -2  -1  -2  521.33   11.43
   2   1   2  550.39   12.11
  -2  -1  -2  527.73   11.52
   2   1   2  524.58   10.37
  -2  -1  -2  511.10   11.62
  -2  -1  -2  543.87   13.45
   2   1   3  299.99    8.43
  -2  -1  -3  288.37    7.68
   2   1   3  298.01    8.08
  -2  -1  -3  325.64    8.48
   2   1   3  318.87    8.15
  -2  -1  -3  303.76    9.62
  -2  -1  -3  285.43    7.98
   2   1   3  314.94    7.14
   2   1   4  589.43   13.44
  -2  -1  -4  585.13   12.77
   2   1   4  599.59   12.98
   2   1   4  615.93   13.16
  -2  -1  -4  615.15   15.50
   2   1   5  438.87   11.07
   2   1   5  436.78   10.86
  -2  -1  -5  440.44   12.23
  -2  -1  -5  442.37   13.48
  -2  -1  -5  441.50   13.71
  -2  -1  -6   58.56    4.81
   2   1   6   58.08    3.32
  -2  -1  -6   57.38    4.63
  -2  -1  -6   59.98    4.38
   2   1   6   61.10    3.47
   2   1   6   54.24    3.27
  -2  -1  -6   63.61    5.03
  -2  -1  -6   62.74    4.95
  -2  -1  -6   58.01    4.74
  -2  -1  -7    8.23    2.00
  -2  -1  -7    5.21    1.56
  -2  -1  -7    7.01    2.01
   2   1   7    7.20    1.16
  -2  -1  -7    6.15    1.74
  -2  -1  -7    4.78    1.61
   2   1   7    6.58    1.20
   2   1   7    5.87    1.15
  -2  -1  -7    5.62    1.66
  -2  -1  -7    7.32    1.86
  -2  -1  -8    9.52    2.49
  -2  -1  -8   10.00    2.19
  -2  -1  -8    9.53    2.44
  -2  -1  -8   11.87    2.66
  -2  -1  -8   11.37    2.50
   2   1   8    9.28    1.41
   2   1   8   12.29    1.64
  -2  -1  -8   12.75    3.08
  -2  -1  -8   11.64    2.50
  -2  -1  -9  245.93   11.41
  -2  -1  -9  231.91   11.20
   2   1   9  221.80    7.93
  -2  -1  -9  207.47   11.38
   2   1   9  226.31    7.84
  -2  -1  -9  239.24   12.45
  -2  -1  -9  210.75   10.80
  -2  -1  -9  224.44   11.03
  -2  -1 -10  176.40    9.43
  -2  -1 -10  174.22    9.40
   2   1  10  166.31    6.79
   2   1  10  151.11    6.32
  -2  -1 -10  173.85    9.83
  -2  -1 -10  154.11    9.02
  -2  -1 -10  169.18    9.48
  -2  -1 -11   54.38    4.91
   2   1  11   58.00    3.83
  -2  -1 -11   57.26    5.24
  -2  -1 -11   56.65    5.11
  -2  -1 -11   57.70    5.13
  -2  -1 -11   56.09    5.17
  -2  -1 -12   94.13    6.37
  -2  -1 -12   84.69    5.98
   2   1  12  106.94    5.20
  -2  -1 -12   94.53    6.31
  -2  -1 -12   95.39    6.27
  -2  -1 -12  100.03    6.74
  -2  -1 -13   95.73    5.99
   2   1  13   98.18    4.73
  -2  -1 -13   93.38    5.81
   2   1  13  102.62    5.08
   2   1  13  102.02    4.47
  -2  -1 -13   98.56    6.19
  -2  -1 -14  208.81    8.31
   2   1  14  212.27    6.87
  -2  -1 -14  195.17    7.89
   2   1  14  210.48    7.05
   2   1  14  211.66    6.31
  -2  -1 -14  218.93    8.37
  -2  -1 -15   55.78    3.52
   2   1  15   54.52    2.81
   2   1  15   55.06    2.47
   2   2 -18    0.31    0.22
  -2  -2  18    0.26    0.28
   2   2 -18    0.44    0.44
   2   2 -17    5.77    0.91
  -2  -2  17    5.25    1.02
   2   2 -17    4.00    0.91
  -2  -2  16   42.68    2.75
   2   2 -16   40.84    2.65
  -2  -2  16   40.27    3.11
   2   2 -16   39.34    3.00
   2   2 -15  464.11   11.74
  -2  -2  15  477.89   13.24
   2   2 -15  465.16   12.82
   2   2 -14   35.17    2.69
  -2  -2  14   32.18    3.06
   2   2 -14   32.33    2.56
  -2  -2  13    6.29    1.50
   2   2 -13    7.57    1.29
  -2  -2  13    6.24    1.40
   2   2 -13    8.75    1.31
   2   2 -13    7.78    1.10
  -2  -2  12  493.66   14.00
  -2  -2  12  489.15   14.21
   2   2 -12  455.49   14.23
   2   2 -12  494.18   12.45
   2   2 -12  495.59   12.45
   2   2 -12  498.77   12.24
   2   2 -12  480.71   11.21
  -2  -2  11  147.11    6.89
   2   2 -11  126.93    6.46
   2   2 -11  142.57    5.65
   2   2 -11  140.19    5.43
  -2  -2  11  141.30    5.97
   2   2 -11  143.62    5.50
  -2  -2  11  139.57    6.50
  -2  -2  10  183.12    7.67
   2   2 -10  163.83    7.11
   2   2 -10  178.38    6.30
  -2  -2  10  183.35    6.96
   2   2 -10  185.94    6.05
  -2  -2  10  185.13    7.39
   2   2 -10  182.20    6.26
   2   2 -10  187.27    6.31
   2   2  -9    0.71    0.60
   2   2  -9    2.32    0.65
  -2  -2   9    1.34    0.83
  -2  -2   9    0.50    0.55
   2   2  -9    2.09    0.67
  -2  -2   9    0.82    0.43
   2   2  -9    1.61    0.56
   2   2  -9    1.17    0.45
  -2  -2   8    8.70    1.50
   2   2  -8    6.74    1.24
   2   2  -8   10.30    1.27
  -2  -2   8   10.06    1.53
   2   2  -8    9.03    1.04
   2   2  -8   10.18    1.30
   2   2  -8    8.77    1.17
   2   2  -7  130.29    5.30
  -2  -2   7  132.07    5.83
   2   2  -7  146.88    4.40
   2   2  -7  141.85    4.78
   2   2  -6  120.75    4.21
  -2  -2   6  126.00    5.56
   2   2  -6  129.81    3.87
   2   2  -6  131.57    4.15
   2   2  -5   83.07    3.77
  -2  -2   5   87.46    4.58
   2   2  -5   93.70    3.00
   2   2  -5   92.38    3.41
  -2  -2   5   87.27    4.03
   2   2  -5   92.49    3.25
   2   2  -4  108.47    4.14
  -2  -2   4   95.12    4.88
   2   2  -4  106.04    3.55
   2   2  -4  120.36    3.33
  -2  -2   4  109.71    4.41
   2   2  -4  108.89    3.43
   2   2  -3 2288.06   39.08
   2   2  -3 2274.68   38.01
   2   2  -3 2311.49   39.25
   2   2  -3 2316.92   37.34
  -2  -2   3 2254.47   39.60
   2   2  -3 2282.34   37.62
   2   2  -3 2273.44   39.55
   2   2  -2  705.81   14.47
   2   2  -2  740.72   13.41
   2   2  -2  710.76   14.60
   2   2  -2  760.88   12.95
  -2  -2   2  704.98   14.84
  -2  -2   2  703.10   15.54
  -2  -2   2  735.48   13.43
   2   2  -2  770.82   15.49
   2   2  -1  198.03    6.13
   2   2  -1  207.45    4.60
   2   2  -1  199.87    5.65
  -2  -2   1  181.27    6.60
   2   2  -1  192.57    5.56
  -2  -2   1  196.04    5.78
  -2  -2   1  205.46    6.46
   2   2   0  171.23    5.61
  -2  -2   0  159.98    5.55
   2   2   0  167.39    4.95
  -2  -2   0  156.89    6.14
  -2  -2   0  168.18    5.21
  -2  -2   0  168.06    5.74
   2   2   0  163.22    4.90
  -2  -2  -1    3.02    0.94
  -2  -2  -1    2.51    0.70
   2   2   1    3.93    0.80
   2   2   1    3.12    0.60
  -2  -2  -1    4.53    0.88
   2   2   2  113.81    4.60
  -2  -2  -2  119.82    4.73
   2   2   2  120.93    4.06
   2   2   2  124.09    4.62
  -2  -2  -2  119.72    5.62
  -2  -2  -2  120.86    4.94
  -2  -2  -3    1.34    1.03
  -2  -2  -3    3.53    0.95
  -2  -2  -3    2.20    0.61
   2   2   3    2.36    0.63
   2   2   3    3.36    0.82
  -2  -2  -3    3.51    0.73
   2   2   3    2.64    0.55
   2   2   4   62.65    3.34
  -2  -2  -4   66.85    3.76
  -2  -2  -4   73.86    3.91
   2   2   4   66.58    3.51
  -2  -2  -4   67.01    4.51
  -2  -2  -4   65.09    4.96
  -2  -2  -5    1.61    1.35
  -2  -2  -5    4.36    1.45
  -2  -2  -5    2.40    0.99
  -2  -2  -5    2.92    0.91
   2   2   5    3.58    0.79
  -2  -2  -5    3.99    1.06
   2   2   5    3.60    0.87
   2   2   5    3.80    0.85
  -2  -2  -6   30.29    3.98
  -2  -2  -6   34.12    4.22
   2   2   6   32.16    2.34
  -2  -2  -6   32.85    3.18
   2   2   6   30.96    2.54
  -2  -2  -6   33.11    3.91
   2   2   6   29.91    2.44
  -2  -2  -6   31.64    3.49
  -2  -2  -6   32.86    3.63
  -2  -2  -6   26.74    3.12
  -2  -2  -6   30.87    3.24
  -2  -2  -7  317.97   13.72
  -2  -2  -7  306.16   13.92
  -2  -2  -7  228.41   11.15
  -2  -2  -7  280.25   13.45
   2   2   7  291.28    9.01
   2   2   7  306.31    8.97
  -2  -2  -7  252.73   11.71
  -2  -2  -7  295.51   12.80
  -2  -2  -7  299.85   11.36
  -2  -2  -8  240.40   12.27
  -2  -2  -8  253.32   12.31
  -2  -2  -8  221.18   11.31
  -2  -2  -8  255.21   12.47
  -2  -2  -8  239.25   10.57
   2   2   8  228.22    8.02
  -2  -2  -8  241.23   11.89
  -2  -2  -9  496.01   18.01
   2   2   9  464.74   12.77
  -2  -2  -9  482.68   16.70
  -2  -2  -9  491.79   17.42
  -2  -2  -9  459.33   16.85
  -2  -2  -9  462.39   17.83
  -2  -2  -9  444.08   15.58
  -2  -2  -9  467.47   17.14
  -2  -2 -10  144.97    8.28
  -2  -2 -10  135.34    8.27
   2   2  10  135.80    6.14
  -2  -2 -10  144.13    8.49
  -2  -2 -10  135.94    7.91
  -2  -2 -10  138.06    8.80
  -2  -2 -11    3.87    1.61
  -2  -2 -11    3.78    1.48
  -2  -2 -11    4.34    1.41
   2   2  11    4.27    1.03
  -2  -2 -11    4.50    1.43
   2   2  11    4.61    1.12
  -2  -2 -11    2.50    1.15
   2   2  11    5.15    1.08
  -2  -2 -12   37.95    3.83
   2   2  12   40.43    3.00
  -2  -2 -12   38.59    3.72
   2   2  12   43.28    3.30
   2   2  12   41.42    2.83
  -2  -2 -12   41.53    4.30
  -2  -2 -13   74.54    4.89
   2   2  13   73.36    3.87
  -2  -2 -13   67.14    4.47
   2   2  13   78.93    4.15
   2   2  13   80.01    3.70
  -2  -2 -13   69.97    5.14
  -2  -2 -14    1.70    0.74
  -2  -2 -14    2.46    0.94
   2   2  14    2.75    0.70
   2   2  14    2.26    0.69
   2   2  14    2.66    0.56
  -2  -2 -15    8.48    1.23
   2   3 -18   48.76    2.46
  -2  -3  18   51.52    2.72
   2   3 -17  102.12    4.08
  -2  -3  17  100.04    4.52
   2   3 -17   88.48    4.10
   2   3 -16   97.67    4.30
  -2  -3  16   96.29    4.86
   2   3 -16   96.00    4.62
   2   3 -15   95.34    4.45
  -2  -3  15   92.21    5.07
   2   3 -15   95.54    4.82
   2   3 -14  185.27    6.69
  -2  -3  14  195.56    7.99
   2   3 -14  195.93    6.89
   2   3 -14  200.44    6.08
  -2  -3  13  195.35    8.06
   2   3 -13  178.21    6.58
  -2  -3  13  192.62    8.01
   2   3 -13  197.45    6.82
   2   3 -13  179.66    5.92
   2   3 -12    0.56    0.56
   2   3 -12    1.58    0.81
  -2  -3  12    0.84    0.45
  -2  -3  12    0.45    0.48
   2   3 -12    0.84    0.50
   2   3 -12    0.19    0.36
   2   3 -12    0.06    0.42
  -2  -3  11   31.07    3.07
   2   3 -11   31.11    3.14
   2   3 -11   32.54    2.53
   2   3 -11   32.70    2.46
  -2  -3  11   33.07    3.12
   2   3 -11   35.34    2.55
  -2  -3  10   67.15    4.49
   2   3 -10   65.40    3.53
   2   3 -10   67.36    3.35
  -2  -3  10   67.69    4.37
   2   3 -10   70.57    3.56
  -2  -3   9  237.10    8.95
   2   3  -9  225.84    8.33
   2   3  -9  250.04    7.40
   2   3  -9  245.07    6.86
  -2  -3   9  262.65    8.34
  -2  -3   9  243.70    8.71
   2   3  -9  276.58    7.89
   2   3  -9  246.92    7.19
  -2  -3   8   93.85    5.20
   2   3  -8   88.64    4.66
   2   3  -8   96.58    4.04
   2   3  -8   99.82    3.64
  -2  -3   8   92.02    4.62
  -2  -3   8   89.24    4.81
   2   3  -8  104.84    4.35
   2   3  -8   90.97    3.78
   2   3  -7  268.23    8.42
   2   3  -7  283.75    6.61
   2   3  -7  257.70    6.98
  -2  -3   7  261.63    8.63
   2   3  -6  407.17   10.91
   2   3  -6  434.32    9.58
  -2  -3   6  447.88   12.14
  -2  -3   6  422.07   11.37
   2   3  -6  443.79    8.87
   2   3  -5  634.77   14.74
   2   3  -5  714.40   12.49
  -2  -3   5  694.47   16.40
   2   3  -5  667.59   13.20
  -2  -3   5  664.41   15.32
   2   3  -4    2.87    0.71
  -2  -3   4    2.45    0.85
   2   3  -4    3.31    0.56
  -2  -3   4    3.70    0.88
  -2  -3   4    3.69    0.62
   2   3  -3   11.16    0.89
   2   3  -3   11.44    1.30
  -2  -3   3   12.35    1.47
  -2  -3   3    9.72    1.42
  -2  -3   3   12.01    1.12
  -2  -3   2  365.82    9.44
   2   3  -2  359.14    9.05
  -2  -3   2  350.52    9.86
  -2  -3   1    9.94    1.40
  -2  -3   1   10.98    0.99
  -2  -3   1   11.77    1.60
  -2  -3   1    9.12    1.25
   2   3  -1    9.67    1.19
  -2  -3   1    9.92    1.41
   2   3  -1   10.40    1.25
  -2  -3   0  124.78    5.21
  -2  -3   0  122.91    5.24
  -2  -3   0  131.87    4.01
  -2  -3   0  114.57    5.39
   2   3   0  123.57    4.63
   2   3   0  139.40    4.99
  -2  -3  -1    9.87    1.42
  -2  -3  -1    9.48    1.52
  -2  -3  -1    8.67    0.95
   2   3   1    7.96    1.10
  -2  -3  -1    9.22    1.39
   2   3   1   13.91    1.47
  -2  -3  -2  106.24    4.89
   2   3   2  100.74    4.14
   2   3   2  104.61    4.49
  -2  -3  -2  105.97    5.52
   2   3   2  109.46    4.43
  -2  -3  -2  103.96    6.05
  -2  -3  -3   59.97    4.93
  -2  -3  -3   68.63    4.04
   2   3   3   67.50    3.29
  -2  -3  -3   63.97    4.40
   2   3   3   70.95    3.45
  -2  -3  -4  289.58   12.55
  -2  -3  -4  301.10   12.91
  -2  -3  -4  306.58   10.18
   2   3   4  300.94    8.92
  -2  -3  -4  286.21   10.62
   2   3   4  302.03    8.38
   2   3   4  321.83    8.92
   2   3   4  334.01    8.64
  -2  -3  -5  408.61   17.14
  -2  -3  -5  410.41   17.40
  -2  -3  -5  453.84   13.99
   2   3   5  443.32   11.73
  -2  -3  -5  420.65   14.16
   2   3   5  450.04   11.60
  -2  -3  -6  214.87   12.96
  -2  -3  -6  212.07   12.57
  -2  -3  -6  207.04    9.73
  -2  -3  -6  173.80   10.00
   2   3   6  202.63    7.31
  -2  -3  -6  214.24   10.08
   2   3   6  218.19    7.32
  -2  -3  -7  250.80   13.53
  -2  -3  -7  261.81   13.41
   2   3   7  222.19    7.78
  -2  -3  -7  223.55   10.13
  -2  -3  -7  182.57   10.68
  -2  -3  -7  205.54    9.71
  -2  -3  -7  239.16   11.30
   2   3   7  228.37    7.67
  -2  -3  -8   42.71    5.16
  -2  -3  -8   48.60    5.68
  -2  -3  -8   37.07    4.48
   2   3   8   37.30    3.05
  -2  -3  -8   36.27    4.05
   2   3   8   35.33    3.06
  -2  -3  -8   44.14    4.88
   2   3   8   37.48    2.90
  -2  -3  -9   97.32    7.81
  -2  -3  -9   92.62    6.88
   2   3   9   88.79    4.85
  -2  -3  -9  105.29    6.93
   2   3   9  103.31    5.45
   2   3   9  100.77    4.87
  -2  -3  -9   99.15    7.65
  -2  -3 -10   25.81    3.43
   2   3  10   30.24    2.71
  -2  -3 -10   28.81    3.42
   2   3  10   30.04    2.86
   2   3  10   31.56    2.60
  -2  -3 -10   34.07    4.19
  -2  -3 -10   34.24    4.37
  -2  -3 -11  164.78    8.23
   2   3  11  160.40    6.41
  -2  -3 -11  155.68    7.70
   2   3  11  154.83    6.61
   2   3  11  163.63    6.11
  -2  -3 -11  153.70    8.87
  -2  -3 -12    3.72    1.46
   2   3  12    5.13    1.33
  -2  -3 -12    2.38    0.65
  -2  -3 -12    3.05    1.09
   2   3  12    3.14    0.85
   2   3  12    2.09    0.61
  -2  -3 -13   26.26    2.60
   2   3  13   33.59    2.42
   2   3  13   33.55    2.20
  -2  -3 -13   32.30    3.32
  -2  -3 -14  132.51    5.32
   2   3  14  143.44    4.54
   2   3  14  138.83    4.19
  -2  -3 -14  137.79    5.90
   2   4 -18   70.22    2.99
  -2  -4  18   67.86    3.14
   2   4 -17    9.60    1.22
  -2  -4  17    9.05    1.29
   2   4 -16   13.27    1.51
  -2  -4  16   11.23    1.59
   2   4 -15   49.39    3.10
  -2  -4  15   43.58    3.38
   2   4 -15   53.14    2.78
   2   4 -15   48.06    3.15
  -2  -4  14    3.44    1.09
   2   4 -14    4.38    0.85
   2   4 -14    4.81    1.02
   2   4 -14    3.91    0.89
   2   4 -14    4.28    0.95
  -2  -4  14    5.03    1.28
  -2  -4  13  186.00    7.93
   2   4 -13  198.42    6.91
  -2  -4  13  180.95    7.93
   2   4 -13  211.09    7.12
   2   4 -13  196.76    6.33
  -2  -4  12  256.04    9.68
   2   4 -12  267.64    8.22
  -2  -4  12  274.05    9.91
   2   4 -12  257.61    8.06
   2   4 -12  266.49    7.68
  -2  -4  11  280.56   10.03
   2   4 -11  258.30    9.83
   2   4 -11  263.09    8.01
  -2  -4  11  254.89    9.58
   2   4 -11  266.34    7.92
   2   4 -11  260.41    7.59
  -2  -4  10   70.38    4.71
   2   4 -10   70.73    4.63
   2   4 -10   70.16    3.60
   2   4 -10   68.77    3.47
  -2  -4  10   74.44    4.71
   2   4 -10   67.79    3.47
   2   4 -10   68.49    3.39
  -2  -4   9  127.29    6.36
   2   4  -9  110.88    5.71
   2   4  -9  129.08    4.88
   2   4  -9  140.28    4.95
  -2  -4   9  120.40    6.03
   2   4  -9  118.97    4.56
  -2  -4   8  262.25    9.50
   2   4  -8  261.95    7.30
   2   4  -8  283.89    7.41
  -2  -4   8  258.95    9.12
   2   4  -8  254.43    6.99
  -2  -4   7   44.79    3.55
   2   4  -7   33.00    2.77
   2   4  -7   49.34    2.59
  -2  -4   7   35.97    2.83
   2   4  -7   45.14    2.75
   2   4  -7   34.10    2.05
   2   4  -7   41.36    3.02
  -2  -4   7   39.25    3.16
  -2  -4   6   44.19    3.53
   2   4  -6   36.26    2.79
  -2  -4   6   32.18    2.81
   2   4  -6   40.18    2.09
  -2  -4   6   39.57    3.09
   2   4  -5   17.61    1.26
  -2  -4   5   16.71    2.04
  -2  -4   5   17.57    1.99
   2   4  -5   15.46    1.72
   2   4  -4   76.43    3.89
   2   4  -4   81.01    2.72
  -2  -4   4   73.56    4.33
  -2  -4   4   77.53    4.17
  -2  -4   4   78.53    4.39
  -2  -4   4   84.07    3.54
  -2  -4   3 1032.91   21.61
  -2  -4   3 1086.75   22.51
  -2  -4   3 1082.44   20.13
   2   4  -2 1602.89   30.41
  -2  -4   2 1642.04   31.10
  -2  -4   2 1689.75   32.01
  -2  -4   1 1734.45   34.83
  -2  -4   1 1817.13   35.00
  -2  -4   1 1807.30   35.08
   2   4  -1 1817.86   33.65
  -2  -4   0   27.32    2.56
  -2  -4   0   26.98    1.94
  -2  -4   0   26.90    2.60
  -2  -4   0   28.63    2.64
   2   4   0   25.81    2.16
  -2  -4  -1  335.26   10.29
   2   4   1  331.45    9.24
  -2  -4  -1  301.70   10.34
  -2  -4  -1  355.81    8.71
  -2  -4  -1  342.29   10.48
  -2  -4  -1  320.95   11.63
  -2  -4  -2  237.37    8.47
   2   4   2  230.10    7.38
  -2  -4  -2  219.85    8.76
   2   4   2  240.24    7.40
  -2  -4  -2  219.54    9.99
  -2  -4  -3  101.79    6.95
  -2  -4  -3   98.98    7.09
  -2  -4  -3  102.74    5.63
   2   4   3  104.22    4.71
  -2  -4  -3  101.59    5.89
   2   4   3  112.18    4.84
  -2  -4  -4  100.98    7.88
  -2  -4  -4   95.54    7.94
  -2  -4  -4  110.20    6.19
  -2  -4  -4  110.65    6.40
   2   4   4  111.36    4.95
   2   4   4  109.48    4.93
  -2  -4  -5    1.05    1.32
  -2  -4  -5    1.16    1.17
  -2  -4  -5    1.16    0.64
  -2  -4  -5    0.06    0.85
   2   4   5    1.04    0.50
   2   4   5    0.27    0.52
  -2  -4  -6    2.65    2.08
  -2  -4  -6    3.03    1.67
  -2  -4  -6    1.87    1.01
  -2  -4  -6    3.21    1.39
  -2  -4  -6    1.00    1.28
   2   4   6    3.54    1.07
   2   4   6    2.43    0.89
   2   4   6    2.29    0.63
  -2  -4  -7   35.08    5.06
  -2  -4  -7   37.04    5.17
  -2  -4  -7   33.43    3.80
  -2  -4  -7   32.20    4.03
   2   4   7   30.46    2.75
   2   4   7   30.36    2.86
  -2  -4  -7   33.83    4.11
   2   4   7   33.18    2.75
  -2  -4  -8   40.13    5.14
  -2  -4  -8   42.17    5.23
  -2  -4  -8   37.41    4.25
   2   4   8   35.75    2.99
   2   4   8   37.74    3.17
   2   4   8   39.18    3.00
  -2  -4  -9   10.65    2.71
  -2  -4  -9    8.13    2.19
  -2  -4  -9   10.52    2.25
   2   4   9   10.28    1.60
   2   4   9   10.25    1.69
   2   4   9   12.68    1.66
  -2  -4 -10  338.84   12.45
   2   4  10  353.88   10.69
   2   4  10  349.63    9.92
  -2  -4 -10  348.97   14.28
  -2  -4 -11   73.79    4.91
   2   4  11   66.21    3.91
   2   4  11   66.81    3.57
  -2  -4 -11   61.17    5.25
  -2  -4 -12   29.83    2.83
   2   4  12   30.85    2.36
   2   4  12   30.96    2.17
  -2  -4 -12   32.95    3.49
  -2  -4 -13  100.70    4.53
   2   4  13  100.52    3.84
   2   4  13  100.90    3.63
  -2  -4 -13  103.83    5.51
   2   5 -18    6.46    0.84
  -2  -5  18    6.97    0.93
   2   5 -17   90.50    3.77
  -2  -5  17   88.45    4.06
   2   5 -16   76.42    3.67
  -2  -5  16   74.93    4.09
   2   5 -16   70.28    3.10
   2   5 -15    1.11    0.45
  -2  -5  15    1.20    0.46
   2   5 -15    2.16    0.56
  -2  -5  14  318.85   10.18
   2   5 -14  306.71    8.99
   2   5 -14  318.47    9.31
  -2  -5  14  308.81   10.38
   2   5 -14  316.22    8.49
  -2  -5  13  240.86    9.00
   2   5 -13  237.75    7.65
   2   5 -13  242.48    7.82
  -2  -5  13  237.34    9.09
   2   5 -13  232.53    7.16
  -2  -5  12   33.94    3.26
   2   5 -12   32.22    2.52
   2   5 -12   33.28    2.55
  -2  -5  12   33.43    3.24
   2   5 -12   35.20    2.48
  -2  -5  11  181.53    7.98
   2   5 -11  184.48    6.43
   2   5 -11  186.93    8.26
  -2  -5  11  192.34    6.81
  -2  -5  11  183.91    8.01
   2   5 -11  189.60    6.48
   2   5 -11  173.00    6.13
   2   5 -11  194.75    6.35
  -2  -5  10   93.44    5.61
   2   5 -10   98.37    4.35
   2   5 -10   96.79    5.60
   2   5 -10   98.79    4.42
  -2  -5  10  100.54    5.64
   2   5 -10  101.69    4.35
   2   5 -10  103.97    4.34
  -2  -5   9    0.24    0.53
   2   5  -9    0.56    0.49
  -2  -5   9   -0.51    0.60
   2   5  -9    0.11    0.36
   2   5  -9    0.11    0.26
   2   5  -9    0.76    0.34
   2   5  -9    0.47    0.37
  -2  -5   8    5.62    1.53
   2   5  -8    5.02    1.20
   2   5  -8    5.05    0.92
   2   5  -8    6.10    0.98
   2   5  -8    6.14    0.92
   2   5  -8    5.43    0.90
  -2  -5   8    3.79    1.13
   2   5  -8    5.42    1.19
  -2  -5   7  139.76    6.90
   2   5  -7  132.04    6.04
   2   5  -7  141.03    4.63
   2   5  -7  165.25    5.35
  -2  -5   7  138.98    6.56
   2   5  -7  156.77    6.35
  -2  -5   6  194.44    8.14
   2   5  -6  178.26    6.88
   2   5  -6  183.93    5.23
  -2  -5   6  178.48    7.40
   2   5  -6  182.49    6.97
  -2  -5   6  177.56    6.23
   2   5  -5  193.35    5.68
  -2  -5   5  154.58    6.66
   2   5  -5  151.34    6.32
  -2  -5   5  171.78    7.03
   2   5  -5  178.10    6.68
  -2  -5   5  174.82    6.02
   2   5  -4  313.40    7.66
   2   5  -4  245.24    8.48
  -2  -5   4  262.39    9.21
  -2  -5   4  282.91    9.37
  -2  -5   4  274.85    9.54
   2   5  -4  297.98    9.02
  -2  -5   4  286.05    8.21
   2   5  -3  261.07    8.64
  -2  -5   3  279.33    9.21
  -2  -5   3  259.17    9.33
  -2  -5   3  265.34    7.98
  -2  -5   2  368.35   11.59
  -2  -5   2  383.32   11.30
  -2  -5   2  364.25   11.46
   2   5  -2  359.14   10.44
  -2  -5   1   78.72    4.81
  -2  -5   1   77.37    4.51
  -2  -5   1   81.66    4.85
   2   5  -1   78.61    3.28
   2   5  -1   67.64    3.96
  -2  -5   1   83.59    3.90
   2   5   0   32.51    2.68
  -2  -5   0   35.35    3.16
   2   5   0   37.27    2.14
  -2  -5   0   40.05    2.72
  -2  -5   0   37.44    3.22
  -2  -5   0   40.75    3.41
   2   5   0   38.75    2.80
  -2  -5  -1   24.88    2.69
   2   5   1   23.03    2.25
   2   5   1   24.35    1.70
  -2  -5  -1   22.18    2.52
  -2  -5  -1   25.19    2.75
   2   5   1   22.27    2.17
  -2  -5  -1   20.66    2.86
  -2  -5  -1   23.10    2.91
  -2  -5  -2    3.40    1.48
  -2  -5  -2    5.83    1.93
  -2  -5  -2    4.12    1.23
  -2  -5  -2    4.50    1.29
   2   5   2    4.63    1.03
   2   5   2    3.75    0.69
   2   5   2    5.04    1.05
  -2  -5  -3  100.94    7.30
  -2  -5  -3  119.81    8.16
  -2  -5  -3  108.94    6.23
   2   5   3  111.71    5.27
  -2  -5  -3  109.85    6.35
   2   5   3  112.73    5.13
  -2  -5  -4   29.53    4.30
  -2  -5  -4   29.98    4.47
  -2  -5  -4   29.77    3.34
   2   5   4   28.57    2.68
  -2  -5  -4   23.49    3.02
   2   5   4   30.21    2.73
   2   5   4   30.40    2.60
  -2  -5  -5   52.44    6.07
  -2  -5  -5   46.29    6.04
  -2  -5  -5   55.56    4.81
   2   5   5   47.65    3.56
  -2  -5  -5   53.16    4.68
   2   5   5   53.04    3.53
  -2  -5  -6   73.83    7.33
  -2  -5  -6   85.03    8.07
  -2  -5  -6   79.11    5.93
   2   5   6   70.14    4.40
  -2  -5  -6   67.47    5.61
   2   5   6   70.02    4.14
  -2  -5  -7   20.14    3.72
  -2  -5  -7   21.72    4.06
  -2  -5  -7   20.70    2.98
   2   5   7   19.49    2.30
   2   5   7   18.76    2.07
  -2  -5  -8  313.98   14.86
  -2  -5  -8  352.25   12.67
  -2  -5  -8  330.22   12.35
   2   5   8  348.30   10.76
   2   5   8  361.86   10.38
  -2  -5  -8  335.65   15.36
  -2  -5  -9  389.42   12.87
   2   5   9  373.06   10.96
   2   5   9  365.39   10.38
  -2  -5  -9  371.68   15.21
  -2  -5  -9  362.76   14.95
  -2  -5 -10   16.32    2.84
  -2  -5 -10   13.83    2.01
   2   5  10   16.92    1.91
   2   5  10   14.77    1.66
  -2  -5 -11   21.09    2.26
   2   5  11   21.18    1.94
   2   5  11   21.28    1.82
  -2  -5 -11   22.57    2.98
  -2  -5 -12    6.44    1.46
  -2  -5 -12    8.90    1.29
   2   5  12    9.23    1.09
   2   5  12    8.68    1.02
  -2  -5 -13   12.93    1.65
  -2  -6  18  111.47    3.73
   2   6 -17  113.76    4.16
  -2  -6  17  122.49    4.60
   2   6 -16    1.39    0.55
  -2  -6  16    0.81    0.37
   2   6 -16    2.28    0.58
   2   6 -15    3.22    0.75
  -2  -6  15    3.21    0.92
   2   6 -15    4.37    0.84
  -2  -6  14  150.52    6.37
   2   6 -14  145.09    5.58
  -2  -6  14  148.14    6.65
   2   6 -14  159.09    5.48
  -2  -6  13   28.67    2.83
   2   6 -13   28.04    2.32
  -2  -6  13   21.18    2.10
   2   6 -13   27.58    2.37
  -2  -6  13   29.56    3.03
   2   6 -13   31.22    2.33
   2   6 -12    0.93    0.40
  -2  -6  12    0.17    0.53
  -2  -6  12   -0.58    0.42
  -2  -6  12    0.64    0.49
  -2  -6  12    1.34    0.57
   2   6 -12    0.92    0.55
   2   6 -12    0.54    0.36
  -2  -6  11  118.41    6.33
   2   6 -11  117.31    4.93
  -2  -6  11  112.15    5.23
   2   6 -11  121.31    5.00
  -2  -6  11  123.49    5.43
  -2  -6  11  114.40    6.19
   2   6 -11  123.51    4.96
  -2  -6  10  149.00    7.32
   2   6 -10  156.79    5.67
   2   6 -10  152.42    5.76
   2   6 -10  154.79    7.32
   2   6 -10  168.05    5.82
  -2  -6  10  153.12    7.32
   2   6 -10  169.79    5.84
  -2  -6   9  179.87    8.12
   2   6  -9  180.78    5.98
   2   6  -9  187.20    6.42
   2   6  -9  178.54    7.75
   2   6  -9  180.49    5.93
  -2  -6   9  183.07    7.99
   2   6  -9  177.82    6.01
  -2  -6   8  154.84    7.61
   2   6  -8  182.62    6.18
   2   6  -8  148.36    6.86
   2   6  -8  168.17    5.49
  -2  -6   8  165.25    7.59
   2   6  -8  185.71    7.35
   2   6  -8  184.65    5.88
  -2  -6   7  196.66    8.72
   2   6  -7  233.11    6.97
   2   6  -7  182.46    7.68
   2   6  -7  206.05    5.98
   2   6  -7  206.04    6.26
  -2  -6   7  192.91    8.27
   2   6  -7  228.84    8.22
  -2  -6   6   83.79    5.48
   2   6  -6   82.21    4.84
   2   6  -6   82.45    3.55
  -2  -6   6   85.16    5.15
   2   6  -6   85.79    4.73
  -2  -6   6   88.17    4.47
   2   6  -6   93.04    4.04
   2   6  -5   63.48    3.17
  -2  -6   5   53.27    4.35
   2   6  -5   50.18    3.69
   2   6  -5   57.14    2.81
  -2  -6   5   52.48    3.99
   2   6  -5   60.72    3.86
  -2  -6   5   59.25    3.60
  -2  -6   4   69.30    5.06
   2   6  -4   79.92    3.47
   2   6  -4   66.63    2.99
   2   6  -4   65.58    4.20
  -2  -6   4   64.88    4.44
  -2  -6   4   66.11    4.57
   2   6  -4   70.56    4.17
  -2  -6   4   67.31    3.91
  -2  -6   3   50.79    4.46
  -2  -6   3   52.05    3.96
   2   6  -3   50.76    3.65
  -2  -6   3   57.36    4.30
  -2  -6   3   58.01    3.60
  -2  -6   2   31.43    3.23
   2   6  -2   32.03    2.07
  -2  -6   2   35.04    2.74
  -2  -6   2   33.31    3.09
  -2  -6   2   29.79    3.11
   2   6  -2   26.43    2.61
   2   6  -2   30.18    2.64
  -2  -6   1    0.26    0.53
   2   6  -1    1.12    0.63
   2   6  -1    0.23    0.26
  -2  -6   1   -0.21    0.69
   2   6  -1   -0.10    0.52
  -2  -6   0   33.52    3.34
   2   6   0   29.58    2.74
   2   6   0   34.92    2.08
  -2  -6   0   31.13    3.00
  -2  -6   0   27.36    2.99
   2   6   0   28.81    2.62
  -2  -6  -1  112.76    6.34
   2   6   1  126.50    5.95
   2   6   1  131.25    4.30
  -2  -6  -1  112.28    6.14
  -2  -6  -1  124.63    6.65
   2   6   1  133.99    5.81
  -2  -6  -1  106.25    6.95
  -2  -6  -1  112.32    6.73
  -2  -6  -2  256.05   10.11
   2   6   2  255.87    9.01
  -2  -6  -2  266.77   10.18
  -2  -6  -2  268.22   10.35
   2   6   2  266.24    8.78
  -2  -6  -2  231.39   11.24
  -2  -6  -2  257.40   11.16
  -2  -6  -3  385.57   14.80
  -2  -6  -3  375.60   13.09
   2   6   3  379.57   11.50
  -2  -6  -3  379.23   12.94
   2   6   3  385.18   11.43
   2   6   3  384.74   11.19
  -2  -6  -3  353.39   15.26
  -2  -6  -4   44.85    5.45
  -2  -6  -4   42.41    4.94
  -2  -6  -4   43.71    4.24
  -2  -6  -4   44.82    4.20
   2   6   4   45.59    3.46
   2   6   4   43.86    3.32
   2   6   4   49.83    3.71
  -2  -6  -5   82.47    7.65
  -2  -6  -5   86.57    7.45
  -2  -6  -5   98.15    6.58
   2   6   5   86.59    4.89
   2   6   5   90.44    4.82
  -2  -6  -6  188.74   11.60
  -2  -6  -6  170.16   10.77
  -2  -6  -6  190.29    9.34
   2   6   6  159.68    6.89
   2   6   6  166.73    6.78
  -2  -6  -7  139.90    7.71
   2   6   7  126.09    5.92
   2   6   7  133.87    5.86
  -2  -6  -7  136.48    9.64
  -2  -6  -7  133.45    9.20
   2   6   8   33.88    2.81
   2   6   8   28.97    2.54
  -2  -6  -8   28.90    4.07
  -2  -6  -8   31.22    4.24
   2   6   9   75.46    4.03
   2   6   9   83.45    4.09
  -2  -6  -9   76.60    6.06
  -2  -6 -10    9.84    2.03
   2   6  10    8.99    1.23
   2   6  10    9.45    1.21
  -2  -6 -11    5.32    1.22
  -2  -6 -11    4.90    1.28
   2   6  11    3.90    0.70
   2   6  11    4.39    0.76
  -2  -6 -12   83.28    4.35
   2   7 -17    0.12    0.31
  -2  -7  17   -0.11    0.36
   2   7 -16   19.46    1.63
  -2  -7  16   20.84    1.93
   2   7 -16   19.58    1.53
   2   7 -15   20.53    1.79
  -2  -7  15   21.19    2.14
   2   7 -15   19.21    1.67
  -2  -7  14   11.09    1.52
   2   7 -14    9.44    1.25
  -2  -7  14   11.30    1.37
  -2  -7  14    9.69    1.56
   2   7 -14    9.51    1.26
  -2  -7  13   88.27    4.83
   2   7 -13   89.53    4.17
  -2  -7  13   93.09    4.40
  -2  -7  13   87.92    5.12
   2   7 -13   92.49    4.13
  -2  -7  13   87.47    4.26
  -2  -7  12  201.68    7.97
   2   7 -12  192.82    6.43
  -2  -7  12  183.67    6.76
   2   7 -12  169.74    6.41
  -2  -7  12  193.75    6.92
  -2  -7  12  173.09    7.68
   2   7 -12  185.63    6.32
  -2  -7  11   19.67    2.49
   2   7 -11   21.79    1.99
   2   7 -11   23.79    2.13
  -2  -7  11   23.43    2.76
  -2  -7  11   24.63    2.36
   2   7 -11   24.66    2.10
  -2  -7  10  153.69    7.42
   2   7 -10  161.30    5.74
   2   7 -10  151.48    5.74
  -2  -7  10  160.43    7.52
   2   7 -10  155.05    5.89
   2   7 -10  169.61    5.89
  -2  -7   9  391.80   13.11
   2   7  -9  408.59   10.82
  -2  -7   9  403.76   13.16
   2   7  -9  424.60   10.43
  -2  -7   9  410.97   13.19
  -2  -7   8    8.06    1.76
   2   7  -8    8.87    1.70
   2   7  -8    8.21    1.25
   2   7  -8   10.84    1.35
  -2  -7   8    9.96    1.88
   2   7  -8   10.53    1.69
  -2  -7   7   35.07    3.59
   2   7  -7   33.78    2.53
   2   7  -7   33.86    3.30
   2   7  -7   34.78    2.32
  -2  -7   7   32.79    3.33
   2   7  -7   35.44    3.10
  -2  -7   6    1.21    0.78
   2   7  -6    2.40    0.84
   2   7  -6    3.12    0.76
  -2  -7   6    1.96    0.78
   2   7  -6    1.37    0.69
  -2  -7   6    4.08    1.01
   2   7  -5   18.88    1.77
   2   7  -5   16.11    1.50
   2   7  -5   16.19    2.22
  -2  -7   5   21.49    2.65
   2   7  -5   15.06    1.98
  -2  -7   5   14.79    1.93
  -2  -7   4   38.50    3.86
   2   7  -4   41.77    2.41
   2   7  -4   46.77    2.76
  -2  -7   4   38.22    3.59
  -2  -7   4   39.95    3.70
   2   7  -4   40.39    3.24
   2   7  -4   37.86    3.39
  -2  -7   4   39.77    3.19
   2   7  -3  161.04    5.36
  -2  -7   3  168.42    8.44
  -2  -7   3  159.55    7.58
  -2  -7   3  150.34    7.53
   2   7  -3  144.22    6.47
  -2  -7   3  143.78    6.43
   2   7  -3  142.02    6.77
  -2  -7   2   56.67    4.53
   2   7  -2   61.31    3.05
  -2  -7   2   52.31    4.18
  -2  -7   2   53.29    4.37
   2   7  -2   49.39    3.85
  -2  -7   1  241.75   10.01
   2   7  -1  226.22    8.77
   2   7  -1  248.01    6.76
  -2  -7   1  239.37    9.50
  -2  -7   1  240.80    9.92
   2   7  -1  214.65    8.11
  -2  -7   0  409.62   13.73
   2   7   0  374.37   12.05
   2   7   0  430.93    9.71
  -2  -7   0  408.30   13.61
   2   7   0  395.65   11.75
  -2  -7  -1   37.28    3.76
   2   7   1   45.57    2.42
   2   7   1   46.67    3.48
  -2  -7  -1   41.59    3.94
   2   7   1   38.13    3.22
   2   7   1   43.09    3.55
  -2  -7  -2  112.28    6.74
   2   7   2   98.83    5.53
   2   7   2  113.71    5.63
  -2  -7  -2  114.73    6.75
   2   7   2  110.73    5.57
  -2  -7  -2  105.84    6.78
  -2  -7  -3   51.88    4.59
   2   7   3   52.42    3.69
  -2  -7  -3   50.01    4.45
   2   7   3   49.21    3.62
  -2  -7  -3   45.98    5.04
  -2  -7  -3   54.17    5.03
  -2  -7  -4   27.88    3.33
   2   7   4   28.21    2.68
  -2  -7  -4   28.24    3.39
   2   7   4   29.27    2.76
  -2  -7  -4   29.50    4.27
  -2  -7  -4   27.35    3.78
  -2  -7  -5    1.52    1.26
  -2  -7  -5    1.25    1.28
  -2  -7  -5    0.43    1.05
   2   7   5    0.95    0.54
  -2  -7  -5    1.40    0.47
   2   7   5    1.45    0.73
  -2  -7  -6    9.80    2.27
  -2  -7  -6   15.46    3.12
  -2  -7  -6   13.57    2.48
   2   7   6   10.95    1.59
  -2  -7  -6    8.99    1.85
   2   7   6   11.91    1.67
  -2  -7  -7   18.50    3.07
   2   7   7   15.30    1.79
  -2  -7  -7   17.95    2.60
   2   7   7   18.00    1.97
  -2  -7  -8    9.96    2.18
   2   7   8    9.66    1.34
   2   7   8    9.50    1.33
   2   7   9   31.79    2.20
   2   7   9   33.31    2.29
  -2  -7  -9   35.29    3.68
   2   7  10  144.02    4.45
  -2  -7 -10  139.14    6.69
   2   8 -16   45.57    2.22
  -2  -8  16   47.67    2.66
   2   8 -16   46.68    2.30
   2   8 -15   81.97    3.38
  -2  -8  15   86.13    4.13
   2   8 -15   81.04    3.49
   2   8 -14   49.06    2.73
  -2  -8  14   49.90    3.36
   2   8 -14   52.00    2.86
  -2  -8  13   78.21    4.16
   2   8 -13   72.74    3.52
  -2  -8  13   76.75    3.85
  -2  -8  13   76.92    3.89
  -2  -8  13   83.62    4.71
   2   8 -13   74.78    3.65
  -2  -8  12   24.95    2.52
   2   8 -12   28.33    2.16
  -2  -8  12   28.08    2.36
  -2  -8  12   28.68    2.45
  -2  -8  12   28.31    2.84
   2   8 -12   29.06    2.28
  -2  -8  11    2.88    0.93
  -2  -8  11    6.53    1.26
  -2  -8  11    7.39    1.62
   2   8 -11    6.41    1.06
  -2  -8  10   49.26    3.99
  -2  -8  10   50.77    4.06
   2   8 -10   48.75    2.99
  -2  -8   9   13.17    2.18
   2   8  -9   11.10    1.51
  -2  -8   9   13.67    2.23
   2   8  -9   12.08    1.43
  -2  -8   9   14.28    2.23
  -2  -8   8  130.90    7.09
   2   8  -8  119.56    5.18
   2   8  -8  130.82    4.92
  -2  -8   8  133.81    7.05
   2   8  -8  127.21    6.16
  -2  -8   7   59.40    4.79
   2   8  -7   55.84    3.35
   2   8  -7   58.38    3.12
  -2  -8   7   62.06    4.75
   2   8  -7   54.96    3.94
  -2  -8   6   91.24    6.11
   2   8  -6   89.96    4.28
   2   8  -6   82.50    3.76
  -2  -8   6   84.75    5.62
   2   8  -6   86.77    4.95
  -2  -8   6   88.03    5.08
   2   8  -5   82.49    3.98
   2   8  -5   75.97    3.48
  -2  -8   5   78.43    5.41
   2   8  -5   82.76    4.82
  -2  -8   5   79.18    4.83
   2   8  -5   68.36    4.83
  -2  -8   4  272.67   11.14
   2   8  -4  303.56    8.37
  -2  -8   4  306.16   11.33
  -2  -8   4  278.71   10.94
   2   8  -4  287.11    9.72
  -2  -8   4  298.52   10.12
   2   8  -4  258.06   10.12
   2   8  -3  121.31    6.46
  -2  -8   3  122.51    7.31
   2   8  -3  129.66    4.87
  -2  -8   3  117.83    6.74
  -2  -8   3  115.47    6.81
   2   8  -3  119.87    5.91
  -2  -8   3  127.37    6.29
   2   8  -2   92.12    5.54
   2   8  -2   97.16    4.09
  -2  -8   2   91.93    6.43
  -2  -8   2   97.51    6.08
  -2  -8   2   94.57    6.12
   2   8  -2   97.64    5.24
  -2  -8   2   96.84    5.48
  -2  -8   1   -0.03    0.60
   2   8  -1    0.06    0.29
   2   8  -1   -0.10    0.41
  -2  -8   1    0.31    0.59
  -2  -8   1    1.49    0.96
   2   8   0    0.33    0.31
   2   8   0    0.97    0.81
  -2  -8   0    1.43    0.85
  -2  -8   0    0.03    0.52
  -2  -8  -1   63.96    5.13
   2   8   1   72.58    4.38
  -2  -8  -1   76.16    5.47
   2   8   1   65.14    4.25
  -2  -8  -2    0.77    0.52
   2   8   2   -0.55    0.82
  -2  -8  -2    0.88    0.82
   2   8   2    0.02    0.39
  -2  -8  -3  106.53    6.64
   2   8   3   92.18    4.88
  -2  -8  -3   99.89    6.26
   2   8   3   91.73    5.04
  -2  -8  -3   96.77    6.37
  -2  -8  -4   56.35    4.79
   2   8   4   48.18    3.38
  -2  -8  -4   56.74    4.67
   2   8   4   43.25    3.32
  -2  -8  -4   48.82    4.59
   2   8   5   75.87    4.13
  -2  -8  -5   82.65    5.60
   2   8   5   70.85    4.14
  -2  -8  -5   77.47    5.81
   2   8   6   70.95    3.77
  -2  -8  -6   81.10    5.30
   2   8   6   70.53    3.92
  -2  -8  -6   74.74    5.59
   2   8   7   94.67    4.10
   2   8   7   91.96    4.18
  -2  -8  -7   88.97    5.80
   2   8   8  128.73    4.45
  -2  -8  -8  132.37    6.63
  -2  -8  -9   16.07    2.02
  -2  -8  -9   13.50    1.88
  -2  -9  15    0.98    0.37
   2   9 -15    0.54    0.35
  -2  -9  14    1.28    0.59
   2   9 -14    1.17    0.47
  -2  -9  13    6.14    0.98
  -2  -9  13    5.97    0.99
  -2  -9  13    7.03    1.33
   2   9 -13    8.36    1.10
  -2  -9  12   14.96    1.76
  -2  -9  12   17.62    1.78
  -2  -9  12   16.56    1.78
  -2  -9  12   14.04    1.90
   2   9 -12   15.89    1.60
  -2  -9  11   17.35    2.07
   2   9 -11   20.10    2.23
  -2  -9  11   17.76    1.95
  -2  -9  11   16.81    2.15
   2   9 -11   17.10    1.69
  -2  -9  10   41.76    3.45
   2   9 -10   45.07    3.56
  -2  -9  10   38.93    3.46
   2   9 -10   40.28    2.66
  -2  -9   9  139.61    6.88
  -2  -9   9  135.39    6.93
   2   9  -9  143.16    5.28
  -2  -9   8  234.98    9.63
   2   9  -8  236.96    7.15
  -2  -9   8  241.51    9.78
  -2  -9   7  121.77    6.88
   2   9  -7  110.12    4.47
  -2  -9   7  123.44    6.77
   2   9  -7  122.53    5.86
   2   9  -7  100.55    4.61
  -2  -9   6   22.74    3.01
   2   9  -6   21.95    2.02
   2   9  -6   23.88    1.96
  -2  -9   6   21.47    2.77
   2   9  -6   24.29    2.55
   2   9  -5   37.41    2.59
   2   9  -5   39.38    2.51
  -2  -9   5   43.22    3.98
   2   9  -5   40.67    3.29
   2   9  -4   11.53    1.41
  -2  -9   4   13.90    2.25
   2   9  -4   12.45    1.82
  -2  -9   4   13.68    2.07
   2   9  -3    0.59    0.43
  -2  -9   3    1.39    0.77
   2   9  -3    0.10    0.53
  -2  -9   3    0.34    0.61
   2   9  -3    0.63    0.50
  -2  -9   3   -0.13    0.75
  -2  -9   2    0.38    0.65
   2   9  -2   -0.03    0.23
   2   9  -2    0.48    0.63
  -2  -9   2    0.13    0.48
   2   9  -2    0.07    0.35
  -2  -9   2    0.49    0.63
  -2  -9   1   53.99    4.86
   2   9  -1   50.22    2.73
   2   9  -1   49.48    3.54
  -2  -9   1   59.44    4.65
  -2  -9   1   52.19    4.45
   2   9  -1   54.68    3.76
  -2  -9   0   40.77    4.08
   2   9   0   36.38    3.00
  -2  -9   0   42.12    3.89
  -2  -9   0   42.01    3.97
   2   9   0   39.72    3.15
  -2  -9  -1  205.26    9.36
   2   9   1  188.87    7.15
  -2  -9  -1  196.25    8.68
  -2  -9  -1  194.64    8.94
  -2  -9  -2   93.47    6.12
   2   9   2   90.83    4.62
  -2  -9  -2   93.92    5.74
  -2  -9  -2   94.94    6.00
   2   9   3   49.65    3.23
  -2  -9  -3   54.45    4.22
  -2  -9  -3   55.89    4.46
   2   9   4   59.53    3.40
  -2  -9  -4   70.15    4.84
   2   9   5   25.26    2.02
  -2  -9  -6    4.44    1.11
   2   9   6    4.79    0.86
  -2  -9  -7    1.64    0.86
  -2  -9  -8    3.99    1.03
  -2 -10  14   67.08    3.12
   2  10 -14   63.13    2.75
  -2 -10  13  132.20    5.06
   2  10 -13  122.24    4.36
  -2 -10  12   49.24    2.73
  -2 -10  12   52.46    2.94
  -2 -10  12   52.09    3.31
   2  10 -12   51.36    2.76
   2  10 -11   61.50    3.61
  -2 -10  11   66.04    3.56
  -2 -10  11   62.99    3.89
   2  10 -11   64.91    3.19
  -2 -10  10   29.62    2.57
   2  10 -10   30.41    2.73
  -2 -10  10   35.93    3.05
   2  10 -10   31.79    2.22
  -2 -10   9   34.07    2.97
   2  10  -9   38.02    3.23
  -2 -10   9   35.35    3.16
   2  10  -9   36.59    2.41
  -2 -10   8    1.92    0.97
   2  10  -8    2.58    0.95
   2  10  -8    2.09    0.56
  -2 -10   8    2.61    1.08
  -2 -10   7    0.28    0.52
   2  10  -7   -0.29    0.49
   2  10  -7    0.09    0.25
  -2 -10   7   -0.51    0.72
  -2 -10   6    1.65    0.72
   2  10  -6    1.03    0.41
  -2 -10   6    0.83    0.68
   2  10  -6    1.31    0.70
  -2 -10   5   41.73    3.96
  -2 -10   5   39.17    3.70
   2  10  -5   40.71    3.08
  -2 -10   4   34.19    3.46
   2  10  -4   32.87    2.76
   2  10  -3   46.08    3.22
  -2 -10   3   54.02    4.36
   2  10  -3   47.34    3.32
   2  10  -2  191.58    7.77
  -2 -10   2  159.52    7.77
   2  10  -2  151.57    6.18
  -2 -10   2  179.63    8.17
  -2 -10   2  169.63    8.03
   2  10  -2  165.71    6.51
   2  10  -1  109.27    5.51
  -2 -10   1   88.53    5.75
   2  10  -1   91.93    4.55
  -2 -10   1  103.97    6.03
  -2 -10   1   97.68    5.92
   2  10  -1   95.17    4.72
  -2 -10   0   47.71    4.14
   2  10   0   49.92    3.47
   2  10   0   41.73    2.92
  -2 -10   0   46.34    3.86
  -2 -10   0   47.31    4.01
   2  10   0   47.63    3.17
   2  10   1   31.79    2.57
   2  10   1   25.55    2.16
  -2 -10  -1   28.02    2.92
  -2 -10  -1   29.89    3.12
   2  10   1   26.49    2.28
  -2 -10  -1   26.10    3.06
  -2 -10  -2    2.70    1.06
   2  10   2    2.24    0.65
   2  10   2    1.51    0.55
   2  10   3   20.49    1.73
   2  10   3   21.89    1.87
  -2 -10  -4    1.36    0.93
   2  10   4    1.44    0.45
   2  10   4    1.04    0.37
  -2 -10  -5    0.55    0.48
   2  10   5    1.47    0.44
  -2 -10  -6   27.19    2.39
  -2 -11  13   30.99    1.89
   2  11 -13   26.05    1.52
  -2 -11  12   10.43    1.24
   2  11 -12    7.44    0.88
   2  11 -11    1.93    0.67
  -2 -11  11    2.33    0.57
  -2 -11  11    1.18    0.50
   2  11 -11    1.36    0.44
   2  11 -10   13.20    1.60
  -2 -11  10   16.38    1.64
  -2 -11  10   15.48    1.77
   2  11 -10   12.62    1.23
  -2 -11   9    4.19    0.91
   2  11  -9    3.81    0.97
  -2 -11   9    1.80    0.76
   2  11  -9    2.96    0.63
  -2 -11   8    8.74    1.41
   2  11  -8   11.26    1.64
  -2 -11   8    9.39    1.54
   2  11  -8    8.82    1.01
  -2 -11   7   75.59    4.48
   2  11  -7   73.07    4.34
  -2 -11   6  285.29    9.88
   2  11  -6  276.17    9.29
  -2 -11   5   25.59    2.80
   2  11  -5   23.42    2.43
   2  11  -5   19.98    1.89
  -2 -11   4    2.93    1.08
   2  11  -4    1.97    0.64
   2  11  -4    3.14    0.82
  -2 -11   3  112.15    6.22
   2  11  -3  115.90    5.41
   2  11  -3   97.08    4.36
   2  11  -2   54.87    3.54
   2  11  -2   54.43    3.10
   2  11  -1    0.77    0.45
   2  11  -1    1.14    0.47
   2  11  -1    1.14    0.43
   2  11   0    0.44    0.39
  -2 -11   0   -0.50    0.64
   2  11   0   -0.06    0.34
   2  11   0   -0.10    0.36
  -2 -11  -1   20.26    2.19
   2  11   1   25.01    1.80
  -2 -11  -2   42.31    3.08
   2  11   2   46.83    2.32
  -2 -11  -3   27.38    2.30
  -2 -12  10   62.28    2.98
   2  12  -9   50.48    2.93
  -2 -12   9   54.83    2.95
   2  12  -8   90.26    4.21
  -2 -12   8   94.75    4.21
  -2 -12   7    6.63    1.08
   2  12  -7    6.55    1.17
  -2 -12   7    5.99    1.05
  -2 -12   6    5.43    1.05
   2  12  -6    3.36    0.76
  -2 -12   5    0.63    0.44
   2  12  -5    1.81    0.57
  -2 -12   4   -0.15    0.64
   2  12  -4    0.53    0.40
  -2 -12   3    0.04    0.53
   2  12  -3    0.76    0.49
  -2 -12   2   14.43    1.80
   2  12  -2   12.32    1.39
  -2 -12   1   40.92    2.97
  -2 -12   0   12.70    1.59
  -3  12   2   96.71    3.31
  -3  12   1   17.24    1.31
  -3  12   0   87.93    3.26
  -3  12  -1   71.68    2.89
  -3  12  -2    0.02    0.26
  -3  12  -3    3.73    0.70
  -3  12  -3    4.34    0.65
  -3  12  -4   76.03    3.25
  -3  12  -4   79.98    2.88
  -3  12  -5   42.45    2.30
  -3  12  -6   58.95    2.68
  -3  12  -7   33.75    1.90
  -3  12  -8   58.88    2.42
  -3  11   5   15.47    1.32
  -3  11   4   73.25    3.23
  -3  11   3   67.18    3.17
  -3  11   2    1.73    0.55
  -3  11   1   16.28    1.57
  -3  11   0    5.94    0.96
  -3  11  -1   56.73    3.20
  -3  11  -1   65.31    3.21
  -3  11  -2   40.17    2.68
  -3  11  -2   45.81    2.60
  -3  11  -3   80.40    3.92
  -3  11  -3   89.58    3.70
  -3  11  -4  166.39    5.93
  -3  11  -4  181.41    5.52
  -3  11  -5   94.78    4.17
  -3  11  -6   55.06    3.03
  -3  11  -7   33.73    2.26
  -3  11  -8   29.32    2.00
  -3  11  -9    8.19    0.99
  -3  11 -10    0.66    0.27
  -3  10   7   92.06    3.64
  -3  10   6    4.94    0.89
  -3  10   5   35.06    2.43
  -3  10   4   10.30    1.35
  -3  10   3   58.90    3.33
  -3  10   2   40.22    2.74
  -3  10   1  214.20    6.97
  -3  10   0  164.38    6.33
  -3  10   0  184.75    6.31
  -3  10  -1  105.51    4.92
  -3  10  -1  112.69    4.75
  -3  10  -2   80.18    4.21
  -3  10  -3   19.16    1.97
  -3  10  -4   18.28    1.93
  -3  10  -5    3.50    0.81
  -3  10  -6   16.60    1.79
  -3  10  -7    8.11    1.23
   3 -10   7    6.32    1.18
  -3  10  -8   81.93    3.87
   3 -10   8   76.01    4.10
  -3  10  -9   69.03    3.39
   3 -10   9   61.25    2.78
  -3  10 -10   68.41    3.18
   3 -10  10   61.92    2.68
  -3  10 -11  361.55    8.43
  -3   9   9    1.13    0.36
  -3   9   8    1.15    0.45
  -3   9   8    0.88    0.46
  -3   9   7  129.67    4.48
  -3   9   7  130.11    5.06
  -3   9   6  124.01    4.51
  -3   9   6  125.96    5.15
  -3   9   5   45.62    2.62
  -3   9   5   40.51    2.85
  -3   9   4  220.51    7.46
  -3   9   3   50.85    3.29
   3  -9  -3   56.02    3.98
  -3   9   2   57.78    3.53
  -3   9   1  174.98    6.93
   3  -9  -1  183.27    8.32
  -3   9   1  195.92    6.88
  -3   9   0    0.81    0.46
   3  -9   1    1.77    0.99
  -3   9  -1    1.21    0.63
   3  -9   2    9.32    1.87
  -3   9  -2    8.81    1.46
   3  -9   3    8.05    1.94
  -3   9  -3   12.68    1.74
   3  -9   4    6.82    1.99
  -3   9  -4    4.69    1.08
   3  -9   5  147.52    8.59
  -3   9  -5  156.13    6.21
   3  -9   6  243.26   10.67
  -3   9  -6  263.45    7.07
  -3   9  -6  219.19    7.73
   3  -9   6  202.69    8.80
   3  -9   7   97.35    5.64
  -3   9  -7  113.06    4.17
  -3   9  -7  100.98    4.84
  -3   9  -8  132.10    4.42
  -3   9  -8  138.20    5.55
   3  -9   8  117.39    5.97
   3  -9   8  122.85    4.97
  -3   9  -9   41.49    2.17
  -3   9  -9   39.32    2.74
   3  -9   9   38.44    3.12
   3  -9   9   37.32    2.48
  -3   9 -10   66.30    3.45
   3  -9  10   59.93    3.06
  -3   9 -11   25.80    1.97
   3  -9  11   31.23    2.00
  -3   9 -12   22.55    1.67
   3  -9  12   23.71    1.56
  -3   8  10   96.05    3.54
   3  -8  -9   83.31    3.36
  -3   8   9   84.23    3.87
  -3   8   8   55.05    2.90
  -3   8   8   47.61    3.04
  -3   8   7   69.87    3.45
  -3   8   7   65.45    3.76
  -3   8   6  104.05    4.40
  -3   8   6   96.08    4.70
   3  -8  -6  104.69    5.08
  -3   8   5   30.81    2.30
  -3   8   5   24.92    2.37
   3  -8  -5   25.48    2.60
  -3   8   4   84.07    3.92
   3  -8  -4   81.10    5.28
  -3   8   4   81.52    4.36
   3  -8  -4   75.98    4.80
   3  -8  -3   10.82    1.82
   3  -8  -3   12.61    2.15
  -3   8   3   11.35    1.61
  -3   8   2    2.89    0.86
   3  -8  -2    2.66    1.09
  -3   8   1    1.69    0.80
   3  -8  -1    1.94    1.16
  -3   8   1    4.57    1.15
   3  -8  -1    1.69    0.80
   3  -8   0  202.07    9.55
  -3   8   0  257.13    8.70
   3  -8   0  219.35   10.66
  -3   8   0  275.20    8.89
   3  -8   1  199.89    9.76
  -3   8  -1  230.21    8.17
   3  -8   1  198.47   10.35
   3  -8   2  101.62    7.18
   3  -8   2  102.90    7.53
  -3   8  -3  256.75    8.71
   3  -8   3  245.27   12.49
   3  -8   4  115.93    8.96
  -3   8  -4  172.18    5.97
   3  -8   4  111.72    6.59
  -3   8  -4  161.25    6.51
   3  -8   4  140.63    9.88
   3  -8   5    1.22    1.03
  -3   8  -5    0.01    0.29
  -3   8  -5    0.49    0.30
   3  -8   5    0.65    0.79
   3  -8   6   83.21    6.16
  -3   8  -6   81.73    3.97
  -3   8  -6   70.63    4.20
  -3   8  -7   24.37    2.07
   3  -8   7   26.98    3.24
  -3   8  -7   23.42    2.31
   3  -8   7   26.94    3.17
   3  -8   7   22.04    2.27
  -3   8  -8   10.89    1.56
   3  -8   8   12.75    2.05
  -3   8  -8   11.29    1.41
   3  -8   8   11.91    1.99
   3  -8   8   11.36    1.53
  -3   8  -9    0.66    0.44
  -3   8  -9    1.10    0.42
   3  -8   9    1.42    0.50
   3  -8   9    1.99    0.62
  -3   8 -10   90.43    3.73
  -3   8 -10   94.86    4.49
   3  -8  10   95.86    5.04
   3  -8  10   93.49    4.18
  -3   8 -11   91.32    3.42
  -3   8 -11   86.19    4.08
   3  -8  11   91.21    3.92
  -3   8 -12  101.54    4.12
   3  -8  12  107.52    3.99
   3  -8  13   89.95    3.27
  -3   8 -13   81.45    3.25
   3  -8  13   86.52    3.17
  -3   7  12  172.61    4.74
  -3   7  11  129.94    4.39
  -3   7  10  115.73    4.39
   3  -7 -10  106.19    4.08
  -3   7   9   58.22    3.15
  -3   7   9   52.25    3.25
  -3   7   8   23.78    2.05
  -3   7   8   21.79    2.17
  -3   7   7    4.26    0.87
  -3   7   7    3.46    0.94
   3  -7  -7    4.48    1.01
  -3   7   6   19.84    1.96
  -3   7   6   18.96    1.97
   3  -7  -6   21.20    2.52
  -3   7   6   18.66    2.05
   3  -7  -6   19.65    2.29
  -3   7   5   28.35    2.35
  -3   7   5   26.55    2.37
   3  -7  -5   25.19    2.94
  -3   7   5   28.11    2.54
   3  -7  -5   28.55    2.90
  -3   7   4  382.86    9.94
  -3   7   4  359.82   10.07
   3  -7  -4  366.76   11.86
   3  -7  -4  370.84   12.64
  -3   7   4  354.45   10.31
  -3   7   3  302.56    8.91
  -3   7   3  284.37    9.46
   3  -7  -3  305.85   11.46
  -3   7   3  281.27   10.07
  -3   7   2   56.52    3.36
  -3   7   2   52.34    3.67
   3  -7  -2   52.04    4.39
  -3   7   2   49.19    3.67
   3  -7  -1  112.76    6.90
  -3   7   1  118.07    5.68
   3  -7  -1  141.32    7.28
  -3   7   1  135.71    5.99
   3  -7   0  277.61   11.71
  -3   7   0  285.20    9.48
   3  -7   0  290.71   12.74
   3  -7   1  113.16    7.36
  -3   7  -1  114.44    5.03
  -3   7  -1  111.77    5.45
   3  -7   1  111.46    7.72
  -3   7  -1  134.50    5.60
   3  -7   2   10.63    2.03
   3  -7   2   10.25    2.24
  -3   7  -2    8.98    1.31
  -3   7  -2   10.01    1.53
   3  -7   2    6.39    1.82
  -3   7  -2   12.20    1.61
   3  -7   3   45.15    4.55
   3  -7   3   41.37    4.74
  -3   7  -3   49.14    3.44
   3  -7   3   36.33    3.58
   3  -7   3   39.81    4.88
  -3   7  -3   46.66    3.10
  -3   7  -3   54.00    3.26
   3  -7   4    5.68    1.80
  -3   7  -4    8.50    1.34
  -3   7  -4    7.37    1.36
   3  -7   4    7.02    1.84
   3  -7   4   11.37    2.63
   3  -7   5   34.33    4.06
  -3   7  -5   30.12    2.52
  -3   7  -5   30.73    2.74
   3  -7   5   22.28    3.22
   3  -7   5   30.29    4.01
   3  -7   6    2.27    1.42
  -3   7  -6    0.34    0.42
  -3   7  -6    0.46    0.34
   3  -7   6    1.58    0.83
   3  -7   6   -0.18    0.52
   3  -7   6   -0.17    0.85
  -3   7  -7  105.17    4.93
   3  -7   7  119.51    6.85
  -3   7  -7  105.36    5.25
   3  -7   7  107.77    6.50
   3  -7   7  106.19    5.18
   3  -7   8   54.61    4.35
   3  -7   8   60.09    4.50
   3  -7   8   55.27    3.54
  -3   7  -8   52.07    3.31
  -3   7  -8   57.56    3.76
   3  -7   9  206.05    8.51
  -3   7  -9  194.22    6.74
  -3   7  -9  198.48    7.36
   3  -7   9  214.79    8.50
   3  -7   9  190.73    6.89
  -3   7 -10  187.00    6.31
  -3   7 -10  196.32    7.12
   3  -7  10  194.51    7.66
   3  -7  10  171.43    6.30
   3  -7  11  121.97    5.55
  -3   7 -11  112.43    4.43
  -3   7 -11  109.78    4.91
   3  -7  11  111.05    4.64
  -3   7 -12   96.23    3.70
  -3   7 -12   90.91    4.11
   3  -7  12   94.65    3.93
  -3   7 -13   30.28    2.01
   3  -7  13   31.57    1.97
   3  -7  14    1.50    0.37
  -3   6  13   23.09    1.50
  -3   6  12  119.43    4.21
   3  -6 -12  110.18    3.66
  -3   6  11   -0.31    0.46
   3  -6 -11   -0.25    0.36
  -3   6  10   37.23    2.63
  -3   6  10   33.80    2.53
  -3   6   9    0.39    0.42
  -3   6   9   -0.10    0.37
  -3   6   9   -0.32    0.46
  -3   6   8  219.14    7.63
   3  -6  -8  241.72    7.91
  -3   6   8  225.42    7.68
   3  -6  -8  227.01    8.36
  -3   6   8  206.07    7.48
   3  -6  -8  221.09    7.87
  -3   6   7  160.23    6.33
  -3   6   7  165.20    6.57
   3  -6  -7  167.05    7.31
  -3   6   7  155.40    6.33
   3  -6  -7  157.82    6.74
  -3   6   6  223.70    7.68
  -3   6   6  225.53    8.10
   3  -6  -6  225.54    9.02
  -3   6   6  228.54    7.83
   3  -6  -6  227.32    8.68
  -3   6   5  331.32    9.74
  -3   6   5  308.29    9.95
   3  -6  -5  337.54   11.04
   3  -6  -5  322.17   11.52
  -3   6   5  314.47    9.53
   3  -6  -5  331.91   11.10
  -3   6   5  309.03   11.03
  -3   6   4  113.33    4.97
  -3   6   4  104.62    5.25
   3  -6  -4  108.26    6.14
   3  -6  -4  110.95    6.45
   3  -6  -4  114.51    6.22
  -3   6   4  103.97    4.95
  -3   6   4  105.60    5.77
  -3   6   3  136.11    6.12
  -3   6   3  145.03    6.23
  -3   6   3  136.59    6.11
   3  -6  -3  145.51    7.58
   3  -6  -3  155.13    7.39
  -3   6   3  153.13    6.67
   3  -6  -2  466.99   15.47
  -3   6   2  535.33   13.57
  -3   6   2  486.27   13.41
   3  -6  -2  542.16   16.02
   3  -6  -2  565.51   16.00
  -3   6   2  550.24   13.98
   3  -6  -1   35.21    3.78
  -3   6   1   38.12    3.04
  -3   6   1   42.28    3.14
   3  -6   0   16.26    2.42
   3  -6   0   13.34    2.39
  -3   6   0   15.74    1.74
  -3   6   0   14.04    1.78
   3  -6   0   16.56    2.85
  -3   6   0   16.05    1.98
   3  -6   1   33.47    3.55
   3  -6   1   31.09    3.71
  -3   6  -1   36.57    2.72
  -3   6  -1   39.89    3.02
   3  -6   1   35.10    4.16
  -3   6  -1   39.64    3.05
   3  -6   2   45.67    4.34
   3  -6   2   49.33    4.72
  -3   6  -2   53.31    3.32
  -3   6  -2   50.70    3.43
   3  -6   2   50.39    3.99
   3  -6   2   44.49    4.72
  -3   6  -2   52.78    3.53
   3  -6   3   20.17    3.07
   3  -6   3   17.96    2.87
  -3   6  -3   17.60    1.96
  -3   6  -3   17.93    2.02
   3  -6   3   18.00    2.51
   3  -6   3   18.57    3.12
  -3   6  -3   20.79    2.12
   3  -6   4  592.31   19.55
   3  -6   4  649.62   19.67
  -3   6  -4  648.75   15.68
   3  -6   4  601.91   18.06
   3  -6   4  674.58   20.45
  -3   6  -4  671.20   15.58
  -3   6  -4  623.82   15.23
   3  -6   5  303.06   13.23
   3  -6   5  338.34   12.70
  -3   6  -5  309.20    9.71
   3  -6   5  293.15   11.80
   3  -6   5  330.95   12.80
  -3   6  -5  283.99    9.20
  -3   6  -5  310.86    9.31
   3  -6   6   23.96    3.09
  -3   6  -6   22.58    2.36
   3  -6   6   24.89    3.06
   3  -6   6   22.32    2.35
   3  -6   6   22.31    2.91
   3  -6   7  138.83    7.33
  -3   6  -7  141.67    6.31
   3  -6   7  153.38    7.69
   3  -6   7  148.81    6.25
   3  -6   7  142.88    7.30
   3  -6   8   88.72    5.53
  -3   6  -8   85.02    4.76
   3  -6   8   88.84    5.51
   3  -6   8   91.00    4.66
   3  -6   9   68.89    4.66
  -3   6  -9   75.05    4.46
   3  -6   9   71.59    4.71
   3  -6   9   72.23    4.05
  -3   6 -10    3.18    0.90
   3  -6  10    3.04    0.96
   3  -6  10    2.70    0.77
  -3   6 -11    4.49    1.01
   3  -6  11    3.67    0.90
  -3   6 -12   18.53    1.87
   3  -6  12   20.82    1.83
  -3   6 -13   25.58    1.80
  -3   6 -13   24.82    1.90
   3  -6  13   28.05    1.95
  -3   6 -14   77.27    2.78
   3  -6  14   84.70    3.11
  -3   5  14   13.26    1.10
  -3   5  13   26.30    1.83
   3  -5 -13   25.84    1.63
  -3   5  12   30.26    2.23
   3  -5 -12   31.14    2.12
  -3   5  11   54.05    3.28
   3  -5 -11   52.66    3.10
  -3   5  10   63.68    3.85
  -3   5  10   62.34    3.71
  -3   5  10   55.39    3.42
   3  -5 -10   63.57    3.69
  -3   5   9   76.58    4.39
   3  -5  -9   90.57    4.45
  -3   5   9   84.56    4.63
   3  -5  -9   87.68    4.79
  -3   5   9   75.75    4.16
   3  -5  -9   86.45    4.55
  -3   5   8  397.72   11.77
  -3   5   8  420.27   12.15
   3  -5  -8  409.19   11.69
   3  -5  -8  458.53   12.76
  -3   5   8  408.80   11.29
   3  -5  -8  438.24   12.08
  -3   5   7  280.02    9.35
  -3   5   7  284.21    9.74
   3  -5  -7  284.43    9.16
   3  -5  -7  306.63   10.38
  -3   5   7  292.04    8.99
   3  -5  -7  277.17    9.53
  -3   5   6    3.00    1.06
  -3   5   6    3.84    1.22
  -3   5   6    4.59    1.12
   3  -5  -6    2.88    1.01
   3  -5  -6    4.34    1.30
  -3   5   6    4.30    0.97
   3  -5  -6    4.06    1.13
  -3   5   5    5.53    1.36
  -3   5   5    3.70    0.99
  -3   5   5    5.52    1.29
  -3   5   5    5.12    1.19
   3  -5  -5    5.57    1.45
   3  -5  -5    5.19    1.35
  -3   5   5    6.15    1.12
   3  -5  -5    5.12    1.28
   3  -5  -5    6.10    1.28
  -3   5   4  127.74    5.60
   3  -5  -4  145.58    7.25
   3  -5  -4  150.76    7.49
   3  -5  -4  139.67    6.78
  -3   5   4  134.65    6.30
  -3   5   4  143.62    6.37
  -3   5   4  130.88    6.30
   3  -5  -3   13.86    2.23
  -3   5   3   13.45    1.95
  -3   5   3   13.48    1.89
  -3   5   3   15.69    1.92
   3  -5  -3   16.14    2.37
   3  -5  -3   18.36    2.41
  -3   5   3   16.03    1.99
  -3   5   2  271.67    9.12
   3  -5  -2  274.80   10.77
  -3   5   2  271.48    9.29
  -3   5   2  284.16    9.07
   3  -5  -2  305.97   11.07
   3  -5  -2  302.14   10.62
  -3   5   2  269.56    9.05
   3  -5  -1  104.37    5.86
   3  -5  -1   85.98    5.79
  -3   5   1  101.41    5.02
  -3   5   1   99.19    5.20
  -3   5   1  101.20    4.85
  -3   5   1   97.60    4.96
   3  -5   0  218.10    9.25
   3  -5   0  206.60    9.35
  -3   5   0  241.20    7.61
  -3   5   0  232.49    8.36
  -3   5   0  227.76    7.73
   3  -5   0  209.73   10.00
  -3   5   0  211.08    7.84
  -3   5  -1  155.60    5.92
   3  -5   1  127.27    7.02
   3  -5   1  124.06    7.15
  -3   5  -1  136.50    5.74
   3  -5   1  134.41    6.32
   3  -5   1  140.68    7.95
  -3   5  -1  129.23    5.90
   3  -5   2  279.66   11.04
   3  -5   2  290.23   11.40
  -3   5  -2  266.11    8.52
  -3   5  -2  295.66    9.03
   3  -5   2  269.50    9.80
   3  -5   2  274.80   11.47
  -3   5  -2  307.77    9.63
   3  -5   3  255.98   10.75
   3  -5   3  266.19   10.87
  -3   5  -3  255.65    8.35
   3  -5   3  244.71    9.53
  -3   5  -3  245.72    8.10
   3  -5   3  259.06   10.95
  -3   5  -3  247.20    8.78
   3  -5   4  281.55   11.70
   3  -5   4  297.70   11.50
  -3   5  -4  289.19    9.10
   3  -5   4  279.17   10.58
   3  -5   4  279.22   11.24
  -3   5  -4  294.42    9.70
   3  -5   5   17.27    2.81
   3  -5   5   15.32    2.41
  -3   5  -5   16.81    1.98
   3  -5   5   15.04    2.37
   3  -5   5   15.30    2.40
  -3   5  -5   13.60    1.92
   3  -5   6  182.73    9.09
   3  -5   6  154.07    7.81
  -3   5  -6  175.18    6.97
   3  -5   6  161.15    7.81
   3  -5   6  166.17    6.75
   3  -5   6  174.37    8.06
  -3   5  -6  178.28    7.22
   3  -5   7    3.02    1.14
  -3   5  -7    2.14    0.68
   3  -5   7    2.62    1.00
   3  -5   7    1.38    0.63
   3  -5   8   90.45    5.54
  -3   5  -8   94.56    5.15
   3  -5   8   90.49    5.48
   3  -5   8   85.03    4.59
   3  -5   9   76.99    4.84
  -3   5  -9   71.64    4.76
  -3   5  -9   81.36    4.83
   3  -5   9   79.33    4.99
   3  -5   9   71.79    4.16
  -3   5 -10   69.33    4.55
  -3   5 -10   69.12    4.39
   3  -5  10   64.17    3.78
  -3   5 -11   72.82    4.27
   3  -5  11   72.27    3.87
   3  -5  12  240.78    7.11
   3  -5  12  226.52    7.03
  -3   5 -13   80.76    3.57
   3  -5  13   92.00    3.78
   3  -5  14  194.92    5.43
  -3   4  14   80.68    3.31
   3  -4 -14   77.76    2.93
  -3   4  13   24.85    2.01
   3  -4 -13   23.38    1.78
  -3   4  12  143.80    5.75
   3  -4 -12  137.44    5.21
  -3   4  11  163.40    6.61
   3  -4 -11  150.66    5.96
  -3   4  10   32.00    2.91
   3  -4 -10   34.80    2.68
  -3   4  10   33.39    2.88
   3  -4 -10   30.86    2.73
  -3   4  10   29.32    2.46
   3  -4 -10   32.23    2.66
  -3   4   9   11.65    1.84
   3  -4  -9   13.21    1.65
  -3   4   9   14.16    1.96
   3  -4  -9   10.62    1.52
   3  -4  -9   12.07    1.78
  -3   4   9   12.13    1.62
   3  -4  -9   10.61    1.61
  -3   4   8  177.79    7.52
  -3   4   8  197.47    8.15
   3  -4  -8  195.94    7.62
   3  -4  -8  215.69    8.16
  -3   4   8  212.43    7.23
   3  -4  -8  198.58    7.54
  -3   4   7   70.83    4.75
  -3   4   7   66.23    4.58
   3  -4  -7   67.94    4.18
   3  -4  -7   69.95    4.57
   3  -4  -7   72.23    4.30
  -3   4   7   66.35    3.75
   3  -4  -7   75.15    4.46
  -3   4   7   68.78    4.74
  -3   4   6  382.90   12.22
  -3   4   6  382.51   12.30
   3  -4  -6  403.06   12.19
   3  -4  -6  425.13   12.83
   3  -4  -6  433.10   12.27
  -3   4   6  410.46   10.78
   3  -4  -6  405.22   12.09
  -3   4   6  401.69   12.20
  -3   4   5   66.37    4.44
   3  -4  -5   73.08    4.81
   3  -4  -5   76.17    4.97
   3  -4  -5   78.45    4.72
  -3   4   5   71.11    3.80
   3  -4  -5   70.06    4.52
  -3   4   5   77.10    4.86
  -3   4   5   79.98    4.57
   3  -4  -4  209.78    8.45
  -3   4   4  191.38    7.83
  -3   4   4  191.57    8.02
   3  -4  -4  210.03    8.80
   3  -4  -4  225.25    9.06
   3  -4  -4  218.76    8.38
  -3   4   4  231.05    8.17
   3  -4  -3  226.52    9.21
  -3   4   3  228.03    8.83
  -3   4   3  239.67    7.88
   3  -4  -3  243.11    9.47
   3  -4  -3  235.18    8.88
  -3   4   3  227.10    8.07
  -3   4   3  204.72    7.99
   3  -4  -2   41.71    3.46
   3  -4  -2   40.33    3.73
  -3   4   2   43.93    2.85
  -3   4   2   40.41    3.19
   3  -4  -2   40.22    3.45
  -3   4   2   42.76    3.56
  -3   4   2   40.61    2.91
   3  -4  -2   46.79    3.89
   3  -4  -2   44.46    3.61
  -3   4   2   42.46    3.24
   3  -4  -1  245.07    9.50
   3  -4  -1  214.95    9.22
  -3   4   1  248.29    7.61
  -3   4   1  249.45    9.15
  -3   4   1  236.81    7.79
  -3   4   1  236.51    8.35
   3  -4   0   91.44    5.65
   3  -4   0   85.33    5.53
  -3   4   0   98.34    4.53
  -3   4   0  107.10    5.65
  -3   4   0   98.33    4.61
  -3   4   0   96.91    5.12
  -3   4  -1   65.83    3.67
   3  -4   1   62.21    4.65
   3  -4   1   57.61    4.51
  -3   4  -1   70.02    4.52
  -3   4  -1   68.75    3.78
  -3   4  -1   69.22    4.34
   3  -4   2  139.91    7.20
   3  -4   2  137.55    7.15
  -3   4  -2  130.56    5.53
  -3   4  -2  150.30    6.94
  -3   4  -2  159.36    5.98
   3  -4   2  137.12    6.45
  -3   4  -2  144.46    6.59
  -3   4  -3    2.67    0.96
   3  -4   3    1.31    0.67
   3  -4   3    2.66    1.03
  -3   4  -3    1.72    0.72
   3  -4   3    1.12    0.64
  -3   4  -3    2.04    0.81
  -3   4  -4    1.86    0.95
   3  -4   4    0.28    0.84
   3  -4   4    0.95    0.78
  -3   4  -4   -0.01    0.57
   3  -4   4    0.13    0.40
   3  -4   5  287.37   11.10
   3  -4   5  282.12   10.56
  -3   4  -5  294.15    9.13
   3  -4   5  280.25   10.24
   3  -4   5  266.35    8.68
  -3   4  -5  283.05   10.08
   3  -4   6   28.31    3.21
   3  -4   6   23.47    2.78
  -3   4  -6   27.24    2.91
  -3   4  -6   27.10    2.57
   3  -4   6   26.97    2.95
   3  -4   6   28.69    2.53
  -3   4  -6   25.51    2.81
   3  -4   7   86.28    5.62
  -3   4  -7   83.11    5.16
   3  -4   7   80.60    5.17
  -3   4  -7   86.58    4.84
   3  -4   7   90.23    5.46
   3  -4   7   73.92    4.29
  -3   4  -7   78.01    5.01
   3  -4   8  876.37   20.61
  -3   4  -8  843.55   20.66
  -3   4  -8  816.32   20.30
   3  -4   8  829.84   20.46
  -3   4  -8  828.86   19.93
   3  -4   8  789.23   18.49
  -3   4  -8  804.90   20.06
   3  -4   9  181.84    7.55
  -3   4  -9  179.92    8.08
  -3   4  -9  163.70    7.61
  -3   4  -9  178.07    7.83
   3  -4   9  164.55    6.63
  -3   4 -10    2.65    1.03
  -3   4 -10    3.32    1.00
   3  -4  10    3.23    0.83
  -3   4 -10    2.90    1.04
  -3   4 -11  109.79    5.81
   3  -4  11  124.89    5.24
  -3   4 -11  105.96    5.30
   3  -4  11  111.85    4.99
  -3   4 -12   41.80    3.30
   3  -4  12   40.06    2.71
  -3   4 -13    8.36    1.37
   3  -4  13    7.22    1.04
  -3   3  15   76.09    2.98
   3  -3 -15   67.62    2.61
   3  -3 -15   73.18    3.46
  -3   3  14   19.37    1.74
   3  -3 -14   18.83    1.52
  -3   3  13   69.78    3.80
   3  -3 -13   66.04    3.34
  -3   3  12    8.76    1.53
   3  -3 -12    9.50    1.34
  -3   3  12   10.45    1.50
  -3   3  11   75.06    4.57
   3  -3 -11   75.09    4.00
   3  -3 -11   73.68    4.06
  -3   3  11   75.95    4.36
   3  -3 -11   73.58    4.19
   3  -3 -10    5.15    1.01
  -3   3  10    6.23    1.43
   3  -3 -10    6.88    1.16
   3  -3 -10    5.78    1.22
   3  -3 -10    7.10    1.24
   3  -3  -9   15.92    1.75
  -3   3   9   15.64    2.22
   3  -3  -9   14.79    1.80
   3  -3  -9   16.18    2.06
   3  -3  -9   16.49    1.91
  -3   3   8   21.95    2.60
  -3   3   8   21.02    2.58
   3  -3  -8   27.79    2.56
   3  -3  -8   22.90    2.47
   3  -3  -8   24.93    2.43
   3  -3  -8   20.52    2.31
  -3   3   8   20.66    2.53
  -3   3   7  568.41   15.86
  -3   3   7  605.07   16.38
   3  -3  -7  548.40   14.67
   3  -3  -7  554.41   15.13
   3  -3  -7  617.65   14.85
   3  -3  -7  568.46   14.64
  -3   3   7  597.70   15.44
  -3   3   6  289.89   10.49
  -3   3   6  319.62   11.03
   3  -3  -6  309.59   10.46
   3  -3  -6  327.39   10.71
   3  -3  -6  351.12   10.41
  -3   3   6  370.07    9.48
   3  -3  -6  323.96   10.24
  -3   3   6  328.12   10.27
  -3   3   5  108.74    5.77
  -3   3   5  113.13    6.15
   3  -3  -5  119.96    6.13
   3  -3  -5  120.90    6.08
   3  -3  -5  122.34    5.77
   3  -3  -5  118.99    5.72
  -3   3   5  132.02    5.91
   3  -3  -4  261.50    9.40
  -3   3   4  279.82   10.19
   3  -3  -4  265.29    9.90
   3  -3  -4  290.05    9.96
   3  -3  -4  294.47    9.49
  -3   3   4  255.61    8.82
   3  -3  -3   73.46    4.42
   3  -3  -3   80.59    4.99
  -3   3   3   86.86    4.01
  -3   3   3   74.86    4.90
   3  -3  -3   88.04    5.13
   3  -3  -3   87.49    4.88
  -3   3   3   82.39    4.58
  -3   3   2    5.08    1.18
   3  -3  -2    3.32    1.04
   3  -3  -2    4.43    1.15
   3  -3  -2    3.51    1.12
  -3   3   2    4.19    1.25
   3  -3  -2    5.16    1.27
  -3   3   2    4.43    0.95
   3  -3  -2    5.14    1.15
   3  -3  -1   67.83    4.56
   3  -3  -1   59.11    4.32
  -3   3   1   64.32    3.49
  -3   3   1   62.12    4.41
   3  -3  -1   66.35    4.27
  -3   3   1   56.52    3.94
  -3   3   0    5.96    1.18
   3  -3   0    8.24    1.60
   3  -3   0    9.31    1.67
  -3   3   0    7.24    1.53
  -3   3   0    6.29    1.07
   3  -3   1  108.36    6.05
   3  -3   1  115.52    6.12
  -3   3  -1  107.73    4.82
  -3   3  -1  120.06    6.35
  -3   3  -1  113.21    5.81
   3  -3   2  125.34    6.55
   3  -3   2  129.52    6.51
  -3   3  -2  123.46    6.56
  -3   3  -2  125.82    6.27
   3  -3   3  274.62   10.29
   3  -3   3  277.68   10.14
  -3   3  -3  298.12   10.71
  -3   3  -3  281.91   10.16
   3  -3   4  293.78   10.68
   3  -3   4  296.95   10.47
  -3   3  -4  307.87   10.18
   3  -3   4  283.32    9.93
  -3   3  -4  293.14   10.92
  -3   3  -4  283.45   10.54
   3  -3   5  298.25   10.91
   3  -3   5  320.13   10.94
  -3   3  -5  313.54   10.58
   3  -3   5  303.07   10.48
   3  -3   5  301.85    9.16
  -3   3  -5  327.89   10.62
  -3   3  -5  285.92   10.84
   3  -3   6  246.18    9.66
   3  -3   6  247.05    9.29
  -3   3  -6  230.23    8.89
  -3   3  -6  223.26    8.94
   3  -3   6  232.19    7.95
  -3   3  -6  230.88    8.98
  -3   3  -6  217.81    9.31
   3  -3   7   51.32    4.22
   3  -3   7   57.24    4.16
  -3   3  -7   59.61    4.39
  -3   3  -7   53.92    4.20
   3  -3   7   56.45    3.65
  -3   3  -7   51.93    4.24
   3  -3   8   43.97    3.52
  -3   3  -8   39.55    3.73
   3  -3   8   38.84    3.04
  -3   3  -8   41.32    3.72
  -3   3  -8   38.47    3.64
  -3   3  -9   25.42    3.08
  -3   3  -9   25.03    2.94
   3  -3   9   24.13    2.34
  -3   3  -9   24.01    2.87
  -3   3 -10    1.56    0.86
  -3   3 -10    6.47    1.51
  -3   3 -10    5.59    1.49
   3  -3  10    6.65    1.24
   3  -3  10    7.11    1.21
   3  -3  10    5.29    1.11
   3  -3  11    1.40    0.50
   3  -3  11    2.77    0.77
   3  -3  11    1.88    0.65
  -3   3 -11    3.02    1.03
  -3   3 -12   14.67    2.00
   3  -3  12   13.26    1.45
   3  -3  12   13.72    1.55
  -3   3 -13  116.14    5.28
   3  -3  13  104.21    4.17
  -3   3 -14  109.95    4.56
   3  -2 -16    1.86    0.55
  -3   2  15    3.90    0.73
   3  -2 -15    2.96    0.56
  -3   2  14   36.53    2.63
   3  -2 -14   32.14    2.17
  -3   2  13   70.27    4.18
   3  -2 -13   71.80    3.66
  -3   2  13   75.26    3.72
   3  -2 -12  154.67    5.98
  -3   2  12  163.23    6.35
   3  -2 -11   81.64    4.13
   3  -2 -11   83.75    4.44
  -3   2  11   84.32    4.87
   3  -2 -11   91.99    4.17
   3  -2 -11   92.16    4.67
   3  -2 -10  141.28    5.44
  -3   2  10  152.17    7.00
   3  -2 -10  137.97    5.61
   3  -2 -10  147.61    6.24
   3  -2 -10  136.91    5.82
   3  -2  -9  138.51    5.24
  -3   2   9  133.02    6.74
   3  -2  -9  129.27    5.70
   3  -2  -9  136.22    6.08
   3  -2  -9  131.80    5.71
  -3   2   9  120.50    6.41
  -3   2   8  157.05    6.97
  -3   2   8  168.65    7.74
  -3   2   8  162.77    7.44
   3  -2  -8  136.79    6.27
   3  -2  -8  178.48    6.59
   3  -2  -8  155.44    6.62
   3  -2  -8  155.43    6.31
  -3   2   8  156.42    6.92
  -3   2   7  139.92    6.34
  -3   2   7  136.08    6.70
  -3   2   7  141.13    6.95
   3  -2  -7  134.54    6.05
   3  -2  -7  142.40    6.28
   3  -2  -7  136.21    5.76
   3  -2  -7  141.67    5.94
  -3   2   7  157.92    6.50
  -3   2   6    2.71    0.85
  -3   2   6    5.73    1.29
  -3   2   6    5.50    1.45
   3  -2  -6    3.16    0.98
   3  -2  -6    3.99    1.04
   3  -2  -6    5.08    1.09
   3  -2  -6    3.42    0.90
  -3   2   5    2.75    0.98
  -3   2   5    2.88    0.86
  -3   2   5    2.97    1.11
   3  -2  -5    2.72    0.89
   3  -2  -5    3.47    1.08
   3  -2  -5    2.35    0.79
   3  -2  -5    2.32    0.66
   3  -2  -4   25.73    2.35
   3  -2  -4   22.51    2.40
  -3   2   4   28.81    3.12
   3  -2  -4   28.38    2.85
   3  -2  -4   27.90    2.62
   3  -2  -4   27.48    2.49
  -3   2   4   25.84    2.54
   3  -2  -3   35.99    3.01
   3  -2  -3   33.71    3.05
  -3   2   3   36.31    2.44
   3  -2  -3   38.38    3.12
  -3   2   3   35.37    3.39
   3  -2  -3   35.35    3.18
   3  -2  -3   37.84    3.05
   3  -2  -3   37.44    2.97
  -3   2   3   34.04    2.95
   3  -2  -2  494.78   13.54
   3  -2  -2  449.21   13.37
  -3   2   2  470.23   11.45
   3  -2  -2  491.29   13.48
  -3   2   2  477.21   14.41
   3  -2  -2  514.88   13.26
   3  -2  -2  503.60   13.12
  -3   2   2  475.21   13.25
   3  -2  -1  423.32   12.53
   3  -2  -1  426.47   12.27
   3  -2  -1  429.29   12.58
  -3   2   1  378.34   10.21
  -3   2   1  435.33   13.32
   3  -2  -1  418.78   11.56
  -3   2   1  388.60   11.93
   3  -2   0   46.69    3.70
   3  -2   0   43.66    3.50
  -3   2   0   44.40    2.89
  -3   2   0   41.81    3.77
   3  -2   0   45.53    3.15
  -3   2   0   39.61    3.36
   3  -2   1   92.32    5.31
   3  -2   1   87.37    5.09
  -3   2  -1   89.57    5.58
  -3   2  -1   93.45    5.36
   3  -2   2  286.29   10.06
   3  -2   2  272.90    9.64
  -3   2  -2  283.22   10.61
  -3   2  -2  274.31   10.11
   3  -2   3   83.58    5.12
   3  -2   3   83.97    4.94
  -3   2  -3   84.97    4.87
  -3   2  -3   80.17    4.89
  -3   2  -3   77.02    5.19
   3  -2   4   56.67    4.24
   3  -2   4   58.11    4.11
  -3   2  -4   58.58    4.24
  -3   2  -4   60.28    4.18
  -3   2  -4   61.22    4.64
  -3   2  -5   12.49    2.12
  -3   2  -5    7.59    1.63
   3  -2   5   10.64    1.77
   3  -2   5    9.75    1.81
  -3   2  -5    9.04    1.71
  -3   2  -5    9.73    1.62
   3  -2   5    8.69    1.37
  -3   2  -6    3.93    1.34
  -3   2  -6    2.76    1.17
   3  -2   6    5.12    1.24
   3  -2   6    3.95    0.99
  -3   2  -6    3.13    0.91
  -3   2  -6    3.15    1.00
   3  -2   6    3.88    0.92
  -3   2  -7    0.59    0.53
  -3   2  -7   -0.20    0.84
   3  -2   7    0.11    0.41
   3  -2   7    1.12    0.62
  -3   2  -7    1.28    0.76
  -3   2  -7    0.26    0.65
   3  -2   7    0.79    0.61
  -3   2  -8   73.93    5.35
   3  -2   8   76.44    4.39
  -3   2  -8   82.58    5.73
   3  -2   8   72.09    4.35
   3  -2   8   75.66    4.25
   3  -2   8   73.94    4.21
  -3   2  -8   71.24    5.30
  -3   2  -9  159.79    8.58
  -3   2  -9  162.99    8.24
   3  -2   9  149.52    6.13
   3  -2   9  149.76    6.27
   3  -2   9  155.04    6.30
  -3   2  -9  149.37    7.80
  -3   2 -10  242.93   10.59
  -3   2 -10  229.40    9.79
   3  -2  10  257.35    7.83
   3  -2  10  219.41    7.55
   3  -2  10  227.67    7.82
  -3   2 -10  237.71    9.72
   3  -2  11   73.08    3.83
   3  -2  11   78.91    4.06
  -3   2 -11   81.45    5.32
  -3   2 -11   81.43    5.01
  -3   2 -12  132.23    6.33
   3  -2  12  121.45    4.77
   3  -2  12  139.25    5.20
  -3   2 -13  102.66    5.00
  -3   2 -14   64.13    3.34
   3  -2  14   63.90    2.73
  -3   1  16   43.90    2.13
   3  -1 -16   39.12    1.98
   3  -1 -16   39.85    2.43
  -3   1  15  106.34    4.34
   3  -1 -15   95.42    3.71
  -3   1  14  257.66    8.36
   3  -1 -14  260.05    7.41
   3  -1 -13   73.09    3.76
  -3   1  13   72.26    3.79
   3  -1 -12   42.80    2.99
  -3   1  12   42.88    3.22
   3  -1 -12   45.21    2.80
   3  -1 -12   41.87    3.01
   3  -1 -11   48.60    3.08
   3  -1 -11   52.31    3.40
  -3   1  11   54.34    3.97
   3  -1 -11   49.76    3.38
  -3   1  10   10.86    1.89
  -3   1  10    9.24    1.75
   3  -1 -10    8.83    1.36
   3  -1 -10    8.95    1.44
   3  -1 -10    9.78    1.48
  -3   1   9    1.29    0.87
  -3   1   9    0.82    0.70
   3  -1  -9    1.62    0.51
  -3   1   9    0.11    0.60
   3  -1  -9    0.51    0.50
  -3   1   9    1.45    0.67
   3  -1  -9    1.20    0.54
   3  -1  -9    0.91    0.49
   3  -1  -9    1.89    0.76
  -3   1   8    0.48    0.52
  -3   1   8    1.32    0.93
  -3   1   8    0.73    0.72
   3  -1  -8    0.33    0.36
  -3   1   8    0.26    0.73
   3  -1  -8   -0.21    0.47
   3  -1  -8    0.04    0.47
   3  -1  -8   -0.07    0.34
  -3   1   7   60.77    4.13
  -3   1   7   64.03    4.63
   3  -1  -7   61.20    3.97
   3  -1  -7   67.92    3.98
   3  -1  -7   64.63    3.96
   3  -1  -7   62.57    3.53
   3  -1  -7   60.33    3.57
  -3   1   7   47.60    3.42
  -3   1   6   59.73    3.99
  -3   1   6   59.42    4.52
   3  -1  -6   53.37    3.71
   3  -1  -6   61.72    3.72
   3  -1  -6   56.34    3.32
   3  -1  -6   56.61    3.41
  -3   1   6   54.88    3.61
  -3   1   5  254.05    8.64
  -3   1   5  249.16    9.89
   3  -1  -5  252.58    8.76
   3  -1  -5  254.40    8.22
   3  -1  -5  247.02    7.81
   3  -1  -5  246.71    7.85
  -3   1   5  229.47    8.14
   3  -1  -5  255.06    7.96
  -3   1   4  287.91    9.41
   3  -1  -4  285.37    9.07
  -3   1   4  315.38   11.41
   3  -1  -4  321.84   10.19
   3  -1  -4  319.02    9.41
   3  -1  -4  339.36    9.32
   3  -1  -4  309.86    9.03
  -3   1   4  309.29    9.82
   3  -1  -4  330.35    9.66
   3  -1  -3  425.41   12.04
   3  -1  -3  427.14   12.14
   3  -1  -3  414.10   11.73
  -3   1   3  461.24   14.12
   3  -1  -3  432.86   12.40
   3  -1  -3  475.91   11.81
   3  -1  -3  464.99   11.55
  -3   1   3  407.24   12.16
   3  -1  -2  259.08    9.02
   3  -1  -2  265.56    9.15
   3  -1  -2  265.26    8.90
  -3   1   2  263.54   10.21
   3  -1  -2  271.63    9.14
   3  -1  -2  271.99    8.28
   3  -1  -2  284.61    8.60
  -3   1   2  262.17    9.28
   3  -1  -1   24.14    2.52
   3  -1  -1   20.55    2.34
  -3   1   1   22.42    2.67
  -3   1   1   19.96    1.89
  -3   1   1   22.67    2.82
   3  -1  -1   20.51    2.26
   3  -1  -1   20.87    1.99
   3  -1  -1   23.76    2.47
  -3   1   1   18.88    2.30
   3  -1   0  248.16    8.89
   3  -1   0  239.04    8.68
  -3   1   0  250.52    9.61
   3  -1   0  247.22    8.64
  -3   1   0  226.51    9.50
   3  -1   0  253.75    7.56
  -3   1   0  227.48    8.92
   3  -1   1  186.72    7.60
   3  -1   1  189.94    7.53
  -3   1  -1  194.46    8.35
   3  -1   1  187.91    7.36
   3  -1   1  187.50    6.17
  -3   1  -1  176.56    7.84
  -3   1  -2    3.64    1.24
  -3   1  -2    3.48    1.02
   3  -1   2    4.13    1.07
   3  -1   2    4.33    1.05
  -3   1  -2    5.74    1.32
  -3   1  -2    4.24    1.33
   3  -1   2    5.21    1.13
   3  -1   3   60.10    4.14
   3  -1   3   53.12    3.78
  -3   1  -3   56.44    3.99
  -3   1  -3   59.77    4.44
   3  -1   3   59.40    3.93
  -3   1  -3   61.28    4.43
  -3   1  -3   51.10    4.28
   3  -1   4   94.16    5.31
   3  -1   4   85.37    4.88
  -3   1  -4   95.11    5.33
   3  -1   4   88.28    4.85
   3  -1   4   87.20    4.27
  -3   1  -4   97.24    5.80
  -3   1  -4   83.53    5.64
   3  -1   5  140.36    6.70
   3  -1   5  152.60    6.57
  -3   1  -5  154.55    6.79
  -3   1  -5  147.72    7.10
   3  -1   5  145.03    6.39
   3  -1   5  144.56    5.82
  -3   1  -5  149.59    7.59
  -3   1  -5  136.13    7.55
   3  -1   6  185.78    7.87
   3  -1   6  209.74    7.66
  -3   1  -6  212.81    8.68
  -3   1  -6  197.44    8.80
   3  -1   6  197.50    7.55
   3  -1   6  190.71    6.95
  -3   1  -6  200.81    9.37
  -3   1  -6  177.46    8.95
   3  -1   7  202.99    8.10
  -3   1  -7  189.43    8.91
  -3   1  -7  204.31    9.36
   3  -1   7  200.46    7.54
   3  -1   7  188.26    7.05
   3  -1   7  196.29    7.16
  -3   1  -7  213.45   10.13
  -3   1  -7  190.96    9.38
  -3   1  -8  130.52    7.94
   3  -1   8  150.79    6.14
   3  -1   8  138.88    5.91
   3  -1   8  137.03    5.85
  -3   1  -8  142.26    8.05
  -3   1  -8  130.19    7.68
  -3   1  -9  160.55    9.33
  -3   1  -9  185.18    9.26
   3  -1   9  189.85    6.57
   3  -1   9  173.22    6.65
   3  -1   9  166.94    6.59
  -3   1  -9  183.93    9.10
  -3   1 -10   27.42    3.36
  -3   1 -10   28.52    3.56
   3  -1  10   25.37    2.29
   3  -1  10   28.62    2.44
  -3   1 -10   20.16    2.71
  -3   1 -11    1.38    0.98
  -3   1 -11    0.58    0.56
   3  -1  11    0.42    0.35
  -3   1 -12   16.10    2.16
   3  -1  12   18.10    1.69
  -3   1 -12   17.99    2.12
  -3   1 -13    5.73    1.14
   3  -1  13    7.28    0.96
  -3   1 -14    4.58    0.88
   3  -1  14    3.57    0.60
  -3   0  16   31.94    1.96
   3   0 -16   29.43    1.80
   3   0 -16   27.46    2.04
  -3   0  15  115.60    4.86
   3   0 -15  112.60    4.22
   3   0 -14   57.12    3.12
  -3   0  14   63.80    3.04
  -3   0  14   56.42    3.14
   3   0 -13   12.47    1.55
  -3   0  13   15.07    1.69
  -3   0  13   13.38    1.59
   3   0 -13   12.81    1.25
   3   0 -12   -0.39    0.48
  -3   0  12    0.78    0.56
  -3   0  12    1.16    0.75
   3   0 -12    0.44    0.43
   3   0 -12    0.10    0.47
  -3   0  11   48.37    3.94
   3   0 -11   44.78    3.15
  -3   0  11   45.35    3.61
   3   0 -11   40.58    2.85
   3   0 -11   49.18    3.29
  -3   0  10   54.91    4.15
   3   0 -10   53.96    3.46
  -3   0  10   54.76    4.10
   3   0 -10   52.12    3.34
   3   0 -10   51.82    3.41
  -3   0   9  327.22   11.00
  -3   0   9  331.63   11.19
  -3   0   9  289.98   10.59
   3   0  -9  325.91    9.04
   3   0  -9  308.61    9.49
   3   0  -9  341.38    9.80
   3   0  -9  313.33    9.19
  -3   0   8  345.39   11.36
  -3   0   8  349.38   11.89
   3   0  -8  352.28   10.39
   3   0  -8  366.16    9.63
   3   0  -8  351.48   10.19
   3   0  -8  359.60    9.88
  -3   0   7   84.67    5.02
  -3   0   7   92.98    5.69
   3   0  -7   89.73    4.69
   3   0  -7   92.33    4.08
   3   0  -7   89.12    4.41
   3   0  -7   89.62    4.21
  -3   0   7   95.06    4.66
  -3   0   6   87.05    4.94
   3   0  -6   81.74    3.78
  -3   0   6   83.63    5.42
   3   0  -6   85.21    4.55
   3   0  -6   87.55    4.26
   3   0  -6   84.34    4.51
   3   0  -6   87.11    3.92
   3   0  -6   86.08    4.01
  -3   0   6   81.48    4.35
  -3   0   5  137.11    6.26
   3   0  -5  138.60    5.43
  -3   0   5  147.05    7.44
   3   0  -5  158.37    5.78
   3   0  -5  150.59    6.28
   3   0  -5  163.93    5.49
   3   0  -5  156.53    5.49
  -3   0   5  143.13    6.09
  -3   0   4  110.08    5.38
   3   0  -4  103.77    4.84
  -3   0   4  120.69    6.70
   3   0  -4  119.02    4.82
   3   0  -4  116.79    5.40
   3   0  -4  123.64    4.67
   3   0  -4  117.57    4.61
  -3   0   4  112.18    5.46
   3   0  -4  119.54    5.44
   3   0  -3   88.98    4.68
   3   0  -3   85.44    4.41
  -3   0   3   80.49    5.51
   3   0  -3   89.58    4.68
   3   0  -3   90.23    4.03
   3   0  -3   96.81    4.05
   3   0  -3   90.38    3.91
  -3   0   3   80.27    4.74
   3   0  -2   31.49    2.79
  -3   0   2   24.97    2.91
   3   0  -2   34.23    2.78
  -3   0   2   34.21    3.50
   3   0  -2   34.73    2.78
   3   0  -2   30.39    2.21
   3   0  -2   34.30    2.35
   3   0  -2   32.98    2.22
  -3   0   2   32.70    3.01
   3   0  -1   18.45    2.15
  -3   0   1   21.20    2.75
   3   0  -1   21.49    2.28
  -3   0   1   24.61    2.95
   3   0  -1   20.97    2.14
   3   0  -1   20.25    1.74
   3   0  -1   19.47    1.81
  -3   0   1   18.66    2.40
   3   0   0  117.57    5.76
   3   0   0  122.33    5.68
  -3   0   0  119.14    6.57
   3   0   0  129.04    5.75
   3   0   0  129.31    5.52
  -3   0   0  113.14    6.20
   3   0   1  248.24    8.84
   3   0   1  251.73    8.58
  -3   0  -1  238.42    9.72
   3   0   1  250.27    8.52
  -3   0  -1  266.70    9.82
   3   0   1  262.61    8.18
   3   0   2   76.82    4.60
   3   0   2   78.95    4.46
  -3   0  -2   76.92    4.51
  -3   0  -2   78.47    5.29
   3   0   2   74.80    4.38
   3   0   2   76.47    4.02
  -3   0  -2   81.43    5.25
  -3   0  -2   77.77    5.37
   3   0   3  376.02   11.50
   3   0   3  383.29   11.13
  -3   0  -3  401.08   11.85
  -3   0  -3  395.79   12.99
   3   0   3  392.35   11.29
   3   0   3  346.96    9.88
   3   0   3  408.91   10.40
  -3   0  -3  392.71   12.92
  -3   0  -3  352.94   12.81
   3   0   4  140.92    6.51
  -3   0  -4  153.05    6.36
  -3   0  -4  153.74    7.11
  -3   0  -4  147.17    7.41
   3   0   4  152.37    6.40
   3   0   4  151.59    5.80
  -3   0  -4  149.39    7.73
  -3   0  -4  131.55    7.60
  -3   0  -5  128.31    6.78
   3   0   5  129.25    6.13
  -3   0  -5  120.98    5.96
  -3   0  -5  125.76    6.88
   3   0   5  121.49    5.60
   3   0   5  111.99    5.05
   3   0   5  125.60    5.32
  -3   0  -5  124.64    7.37
  -3   0  -5  117.25    7.31
   3   0   6   65.58    4.23
  -3   0  -6   66.49    4.69
   3   0   6   64.98    3.95
   3   0   6   64.77    3.81
   3   0   6   61.95    3.72
  -3   0  -6   70.93    5.84
  -3   0  -6   67.32    5.13
  -3   0  -6   61.96    5.36
  -3   0  -7   18.40    2.70
  -3   0  -7   18.82    2.87
   3   0   7   20.28    2.06
   3   0   7   18.75    2.04
   3   0   7   18.74    2.01
  -3   0  -7   20.85    3.25
  -3   0  -8   23.97    3.57
  -3   0  -8   19.27    3.01
   3   0   8   21.39    2.02
   3   0   8   21.35    2.18
   3   0   8   20.61    2.11
  -3   0  -8   20.39    3.15
  -3   0  -9    6.82    1.83
  -3   0  -9    8.65    2.04
  -3   0  -9    7.22    2.23
   3   0   9    7.86    1.32
  -3   0 -10   15.70    2.68
  -3   0 -10   17.00    2.64
   3   0  10   16.45    1.81
  -3   0 -11    0.63    0.66
  -3   0 -11    0.85    0.77
   3   0  11    0.96    0.48
   3   0  11    0.60    0.39
  -3   0 -12  148.26    6.52
   3   0  12  147.64    5.23
   3   0  12  158.90    5.34
  -3   0 -12  165.42    7.00
  -3   0 -13  101.39    4.60
   3   0  13  115.19    3.99
  -3   0 -14   36.89    2.13
   3   0  14   38.11    1.83
  -3  -1  16    3.48    0.71
   3   1 -16    2.23    0.52
   3   1 -16    3.05    0.65
  -3  -1  15   31.01    2.45
   3   1 -15   33.53    2.18
  -3  -1  15   31.17    2.16
   3   1 -14  124.43    4.76
  -3  -1  14  108.59    4.70
   3   1 -14  116.19    3.93
   3   1 -13  100.97    4.51
  -3  -1  13  103.92    4.77
   3   1 -13   97.45    3.86
  -3  -1  13  105.46    4.74
  -3  -1  12  128.45    6.43
   3   1 -12  117.74    5.06
  -3  -1  12  120.27    5.68
  -3  -1  12  109.61    5.12
   3   1 -12  117.49    5.09
  -3  -1  11  103.36    5.89
   3   1 -11  109.37    4.92
  -3  -1  11  101.94    5.58
  -3  -1  11  101.92    4.98
   3   1 -11  106.68    4.81
   3   1 -11  106.25    4.88
  -3  -1  10  104.47    5.93
   3   1 -10  113.70    4.98
  -3  -1  10  104.54    5.77
   3   1 -10  106.16    4.92
   3   1 -10  107.47    4.91
  -3  -1   9   85.41    5.25
   3   1  -9   83.01    4.18
  -3  -1   9   78.31    5.07
   3   1  -9   75.47    3.71
   3   1  -9   81.09    4.23
   3   1  -9   85.50    4.26
  -3  -1   8    1.63    0.94
   3   1  -8    1.81    0.67
   3   1  -8    0.77    0.53
  -3  -1   8    0.91    0.59
   3   1  -8    1.20    0.49
   3   1  -8    1.44    0.58
   3   1  -8    1.12    0.50
  -3  -1   7  205.90    8.32
   3   1  -7  221.93    6.48
  -3  -1   7  224.70    9.24
   3   1  -7  222.59    7.61
   3   1  -7  228.94    6.55
   3   1  -7  211.28    7.03
   3   1  -7  226.66    6.85
  -3  -1   6    1.66    0.75
  -3  -1   6    0.44    0.57
   3   1  -6    1.99    0.65
   3   1  -6    0.67    0.38
  -3  -1   6    1.32    0.86
   3   1  -6    0.55    0.39
   3   1  -6    1.03    0.45
   3   1  -6    1.24    0.46
  -3  -1   5   84.27    4.92
   3   1  -5   91.66    4.18
  -3  -1   5   97.81    6.01
   3   1  -5   92.04    4.54
   3   1  -5   95.51    4.14
   3   1  -5   93.50    4.64
   3   1  -5   97.11    3.90
  -3  -1   5   86.36    4.61
  -3  -1   4   33.02    2.97
  -3  -1   4   34.24    3.55
   3   1  -4   36.14    2.64
   3   1  -4   37.44    2.76
  -3  -1   4   36.99    3.68
   3   1  -4   36.36    2.36
   3   1  -4   40.06    2.91
   3   1  -4   33.86    2.14
  -3  -1   4   32.22    2.93
   3   1  -4   35.65    2.76
  -3  -1   3  138.31    6.23
  -3  -1   3  141.20    7.29
   3   1  -3  137.85    5.61
   3   1  -3  132.70    5.51
  -3  -1   3  133.47    7.28
   3   1  -3  149.44    4.90
   3   1  -3  146.43    5.84
  -3  -1   3  138.93    6.48
   3   1  -3  154.73    6.31
  -3  -1   2  184.23    8.41
   3   1  -2  172.33    6.50
   3   1  -2  177.11    6.33
  -3  -1   2  172.15    8.42
   3   1  -2  182.66    6.56
  -3  -1   2  160.68    7.34
   3   1  -2  191.59    7.14
   3   1  -1  137.12    6.03
  -3  -1   1  137.66    7.27
   3   1  -1  146.56    5.93
   3   1  -1  137.21    5.55
  -3  -1   1  133.69    6.77
   3   1   0  421.19   12.01
  -3  -1   0  423.68   13.87
   3   1   0  440.48   11.75
   3   1   0  441.98   11.15
   3   1   1   93.34    4.97
  -3  -1  -1   92.74    5.98
   3   1   1   92.39    4.70
   3   1   1   96.89    4.33
  -3  -1  -1   96.09    5.82
  -3  -1  -1   77.05    5.44
   3   1   2  111.23    5.52
  -3  -1  -2  102.73    6.37
   3   1   2  110.69    5.20
   3   1   2  119.53    4.76
  -3  -1  -2  120.32    6.72
  -3  -1  -2   97.09    6.31
   3   1   3  187.05    7.49
  -3  -1  -3  193.00    7.71
  -3  -1  -3  187.62    8.92
   3   1   3  201.58    7.25
  -3  -1  -3  205.94    9.20
  -3  -1  -3  188.84    9.29
  -3  -1  -4    0.38    1.09
  -3  -1  -4    0.29    0.54
   3   1   4    1.45    0.63
  -3  -1  -4   -2.10    0.94
  -3  -1  -4    0.63    0.88
   3   1   4    0.08    0.48
   3   1   5   21.50    2.30
  -3  -1  -5   17.59    2.96
  -3  -1  -5   19.40    2.90
  -3  -1  -5   19.74    2.69
  -3  -1  -5   16.85    2.64
   3   1   5   19.19    2.02
   3   1   5   14.97    1.84
   3   1   6   70.31    4.27
  -3  -1  -6   75.22    5.70
  -3  -1  -6   76.69    5.60
   3   1   6   77.01    4.01
   3   1   6   70.34    4.07
  -3  -1  -6   79.81    6.67
  -3  -1  -6   67.26    6.25
  -3  -1  -7   40.46    4.59
   3   1   7   42.38    2.78
   3   1   7   41.74    3.13
  -3  -1  -7   41.84    5.05
  -3  -1  -8   50.34    5.51
   3   1   8   59.88    3.74
  -3  -1  -9   44.67    4.59
   3   1   9   40.62    2.98
   3   1   9   47.15    3.13
  -3  -1  -9   43.62    4.76
  -3  -1 -10  176.57    8.48
   3   1  10  174.33    6.40
   3   1  10  186.97    6.44
  -3  -1 -10  180.86    9.22
  -3  -1 -11  166.71    7.40
   3   1  11  189.64    6.14
  -3  -1 -11  182.75    8.39
  -3  -1 -12   28.51    2.46
   3   1  12   34.32    2.17
  -3  -1 -12   30.72    2.86
  -3  -1 -13   13.83    1.42
   3   1  13   13.87    1.19
   3   2 -17  102.03    3.31
  -3  -2  16    2.31    0.60
   3   2 -16    2.18    0.55
   3   2 -15   16.51    1.52
  -3  -2  15   16.68    1.62
   3   2 -15   17.66    1.27
   3   2 -15   18.33    1.73
   3   2 -14  179.00    5.89
  -3  -2  14  168.71    6.14
   3   2 -14  176.85    5.27
  -3  -2  13   99.88    5.44
   3   2 -13   88.00    4.08
  -3  -2  13   84.66    4.35
   3   2 -13   86.11    3.66
  -3  -2  12   84.03    5.22
   3   2 -12   79.36    3.98
  -3  -2  12   85.39    4.64
  -3  -2  12   82.61    4.43
   3   2 -12   87.93    4.22
  -3  -2  11    1.58    0.80
   3   2 -11    2.64    0.73
  -3  -2  11    2.85    0.95
  -3  -2  11    1.09    0.77
   3   2 -11    2.62    0.75
  -3  -2  10    1.24    0.81
   3   2 -10    1.87    0.66
  -3  -2  10    1.39    0.68
  -3  -2  10    2.20    0.75
   3   2 -10    2.59    0.76
   3   2 -10    2.00    0.65
  -3  -2   9   18.60    2.44
   3   2  -9   18.15    1.85
  -3  -2   9   18.43    2.49
   3   2  -9   18.26    1.99
   3   2  -9   21.74    2.02
  -3  -2   8   31.30    3.16
   3   2  -8   26.56    2.16
   3   2  -8   32.39    2.15
  -3  -2   8   28.74    3.11
   3   2  -8   28.01    2.42
   3   2  -8   30.21    2.31
  -3  -2   7  333.52   11.40
   3   2  -7  347.31    9.33
  -3  -2   7  352.55   12.24
   3   2  -7  348.77   10.00
   3   2  -7  356.46    9.40
  -3  -2   6  313.42   10.79
   3   2  -6  322.99    8.59
   3   2  -6  337.40    8.78
  -3  -2   6  322.59   11.74
   3   2  -6  345.87    9.58
   3   2  -6  327.81    8.66
  -3  -2   5  116.08    6.04
  -3  -2   5  123.61    7.01
   3   2  -5  128.20    5.00
   3   2  -5  127.40    5.21
  -3  -2   5  131.50    7.18
   3   2  -5  129.38    4.58
  -3  -2   4  215.28    8.50
  -3  -2   4  228.54    9.76
   3   2  -4  234.61    7.28
   3   2  -4  216.46    7.18
  -3  -2   4  231.42    9.90
   3   2  -4  253.48    6.54
  -3  -2   4  204.77    7.92
  -3  -2   3  100.89    5.42
  -3  -2   3   93.10    6.10
   3   2  -3   95.67    4.43
   3   2  -3  102.67    4.48
  -3  -2   3   98.48    6.32
  -3  -2   3   90.37    5.25
  -3  -2   2  157.20    6.98
  -3  -2   2  157.37    8.10
   3   2  -2  163.95    6.15
   3   2  -2  173.72    5.90
  -3  -2   2  164.01    8.38
   3   2  -2  178.50    6.15
  -3  -2   2  162.68    7.51
   3   2  -2  168.97    6.62
  -3  -2   1   31.50    2.96
  -3  -2   1   27.65    3.33
   3   2  -1   26.71    2.37
   3   2  -1   26.42    2.10
   3   2  -1   31.47    2.33
  -3  -2   1   29.18    3.14
   3   2  -1   33.31    2.86
  -3  -2   0    1.37    0.86
   3   2   0    2.21    0.82
  -3  -2   0    2.29    1.09
   3   2   0    0.94    0.43
   3   2   0    1.76    0.61
  -3  -2  -1   17.28    2.74
   3   2   1   20.40    2.04
  -3  -2  -1   19.25    2.69
  -3  -2  -1   14.04    1.88
  -3  -2  -1   19.08    2.78
   3   2   1   20.19    2.18
  -3  -2  -2   19.18    2.97
   3   2   2   19.62    2.07
  -3  -2  -2   21.53    2.86
  -3  -2  -2   19.01    2.23
   3   2   2   21.35    2.04
  -3  -2  -2   17.87    2.85
   3   2   2   21.35    2.30
  -3  -2  -3    0.44    0.72
  -3  -2  -3    1.64    1.04
   3   2   3    1.81    0.80
  -3  -2  -3    4.12    1.64
   3   2   3    1.81    0.80
   3   2   3    2.01    0.76
  -3  -2  -4  125.40    7.86
   3   2   4  111.41    4.91
  -3  -2  -4  114.05    7.24
   3   2   4  118.32    5.18
  -3  -2  -4  113.76    7.96
   3   2   4  119.78    5.55
  -3  -2  -5  397.35   13.29
  -3  -2  -5  459.49   16.46
   3   2   5  401.92   10.65
  -3  -2  -5  418.35   15.63
   3   2   5  394.92   11.11
  -3  -2  -5  418.49   17.15
   3   2   5  454.29   12.05
  -3  -2  -6   83.45    5.88
  -3  -2  -6   91.42    6.74
   3   2   6   86.53    3.92
   3   2   6   80.62    4.33
  -3  -2  -6   89.18    8.02
  -3  -2  -7  145.58    8.23
   3   2   7  142.56    5.83
  -3  -2  -7  151.46   10.30
  -3  -2  -8  108.06    7.12
  -3  -2  -8  128.42    7.08
   3   2   8  113.38    5.11
  -3  -2  -8  115.52    8.49
  -3  -2  -9    0.08    0.89
  -3  -2  -9    0.76    0.76
   3   2   9    0.52    0.44
  -3  -2 -10   22.39    2.61
   3   2  10   26.32    2.14
  -3  -2 -10   22.74    3.12
  -3  -2 -11   -0.04    0.56
  -3  -2 -11   -0.08    0.44
   3   2  11    0.30    0.22
  -3  -2 -12    9.44    1.57
  -3  -2 -12    8.14    1.16
   3   2  12    9.17    1.04
  -3  -3  16  211.26    6.08
   3   3 -16  212.26    5.79
  -3  -3  16  203.22    5.80
   3   3 -15   14.03    1.37
  -3  -3  15   14.30    1.51
   3   3 -15   14.69    1.21
   3   3 -14   31.39    2.21
  -3  -3  14   29.26    2.36
   3   3 -14   32.96    2.03
  -3  -3  13   10.86    1.77
   3   3 -13   10.68    1.34
  -3  -3  13    9.91    1.50
   3   3 -13   11.74    1.28
  -3  -3  12   33.52    3.22
   3   3 -12   31.69    2.34
  -3  -3  12   31.30    2.71
   3   3 -12   29.71    2.34
   3   3 -12   29.58    2.18
  -3  -3  11  181.15    8.12
   3   3 -11  175.11    6.13
  -3  -3  11  181.10    7.27
  -3  -3  11  190.42    7.23
   3   3 -11  192.60    6.42
  -3  -3  10   80.72    5.29
   3   3 -10   79.17    3.84
  -3  -3  10   80.73    4.55
   3   3 -10   76.44    3.79
  -3  -3   9   57.10    4.43
   3   3  -9   53.12    3.08
   3   3  -9   60.85    3.09
  -3  -3   9   56.18    3.78
   3   3  -9   61.12    3.64
   3   3  -9   55.70    3.14
  -3  -3   8  178.77    8.19
   3   3  -8  192.77    6.16
  -3  -3   8  181.26    8.16
  -3  -3   8  183.63    7.16
   3   3  -8  191.01    6.81
   3   3  -8  189.89    6.18
  -3  -3   7  189.45    8.45
   3   3  -7  229.79    6.63
  -3  -3   7  187.48    8.56
   3   3  -7  219.81    7.26
   3   3  -7  212.08    6.38
  -3  -3   6   38.79    3.51
   3   3  -6   39.23    2.53
  -3  -3   6   40.54    3.92
   3   3  -6   35.48    2.61
   3   3  -6   39.97    2.33
   3   3  -6   42.98    3.17
  -3  -3   5   40.84    3.66
  -3  -3   5   31.06    3.63
   3   3  -5   31.05    2.31
   3   3  -5   44.12    2.84
  -3  -3   5   42.12    3.98
   3   3  -5   47.63    3.33
  -3  -3   4    6.30    1.38
  -3  -3   4    7.45    1.82
   3   3  -4    6.64    1.08
   3   3  -4    6.86    1.17
  -3  -3   4    7.85    1.71
  -3  -3   4    6.72    1.24
   3   3  -4   12.13    2.08
  -3  -3   3   14.74    2.23
  -3  -3   3   13.77    2.15
  -3  -3   3   13.87    2.45
   3   3  -3   11.64    1.47
   3   3  -3   13.70    1.51
  -3  -3   3   13.84    2.39
  -3  -3   3   12.88    1.66
   3   3  -3   14.97    1.93
  -3  -3   2    1.38    0.91
  -3  -3   2    0.60    0.61
  -3  -3   2   -0.06    0.98
   3   3  -2    0.28    0.37
   3   3  -2    0.09    0.39
  -3  -3   2   -0.42    0.79
   3   3  -2    0.03    0.66
  -3  -3   1   92.20    5.54
  -3  -3   1   85.13    6.16
   3   3  -1   93.68    4.38
  -3  -3   1   98.75    6.04
  -3  -3   0   53.57    4.95
   3   3   0   53.32    3.23
  -3  -3   0   50.85    3.85
  -3  -3   0   47.09    4.30
  -3  -3  -1   93.01    6.76
   3   3   1   97.09    4.50
  -3  -3  -1  101.71    6.44
  -3  -3  -1  103.95    5.67
   3   3   1  106.45    4.90
   3   3   1  109.43    5.12
  -3  -3  -1   92.30    6.32
  -3  -3  -2  128.55    8.18
   3   3   2  129.42    5.23
  -3  -3  -2  134.07    7.58
  -3  -3  -2  131.07    6.61
   3   3   2  138.64    5.68
   3   3   2  143.23    5.91
  -3  -3  -2  112.77    7.42
  -3  -3  -3  293.94   13.34
   3   3   3  285.34    8.36
  -3  -3  -3  285.71   11.81
  -3  -3  -3  314.55   11.13
   3   3   3  293.65    9.05
   3   3   3  315.91    9.36
  -3  -3  -3  269.15   12.57
  -3  -3  -4  346.71   15.35
   3   3   4  330.80    8.93
  -3  -3  -4  359.61   13.65
  -3  -3  -4  360.75   12.66
   3   3   4  324.09    9.84
  -3  -3  -4  330.23   14.91
  -3  -3  -5   12.44    3.13
  -3  -3  -5   18.64    3.79
   3   3   5   14.77    1.49
   3   3   5   14.72    1.79
  -3  -3  -6    0.98    1.70
  -3  -3  -6    2.27    1.44
   3   3   6    0.41    0.44
  -3  -3  -7   37.21    3.64
  -3  -3  -7   48.56    4.92
   3   3   7   50.29    3.29
  -3  -3  -7   39.25    5.37
  -3  -3  -8   15.46    3.14
  -3  -3  -8   13.06    2.08
  -3  -3  -8   15.46    2.50
   3   3   8   15.57    1.75
  -3  -3  -9   81.86    4.90
  -3  -3  -9   88.57    5.20
   3   3   9   85.17    4.06
  -3  -3  -9   83.33    6.41
  -3  -3 -10   16.88    1.96
   3   3  10   20.47    1.77
  -3  -3 -10   17.38    2.56
  -3  -3 -11   23.48    1.93
   3   3  11   25.72    1.84
  -3  -3 -11   23.03    2.54
   3   3  12   28.32    1.67
  -3  -3 -12   27.05    2.19
   3   4 -16  175.13    4.92
  -3  -4  16  157.20    4.90
   3   4 -15   56.52    2.77
  -3  -4  15   57.01    3.06
   3   4 -15   59.87    2.57
  -3  -4  14    1.68    0.71
   3   4 -14    0.99    0.41
  -3  -4  14    0.94    0.37
   3   4 -14    1.60    0.47
  -3  -4  13  188.53    7.60
   3   4 -13  179.34    5.87
  -3  -4  13  181.93    6.78
   3   4 -13  191.75    5.86
  -3  -4  12   84.99    5.11
   3   4 -12   85.64    3.85
  -3  -4  12   84.43    4.58
   3   4 -12   86.63    3.80
  -3  -4  11  118.29    6.39
   3   4 -11  112.13    4.49
  -3  -4  11  104.61    5.30
   3   4 -11  110.86    4.60
   3   4 -11  103.30    4.34
  -3  -4  10   23.94    2.82
   3   4 -10   21.82    1.89
   3   4 -10   24.80    2.01
  -3  -4  10   22.48    2.38
   3   4 -10   24.57    2.02
  -3  -4   9    6.42    1.48
   3   4  -9    6.31    1.00
   3   4  -9    6.85    1.05
  -3  -4   9    6.98    1.34
   3   4  -9    6.03    0.97
  -3  -4   8   93.74    5.94
   3   4  -8  113.76    4.45
  -3  -4   8   98.20    5.15
   3   4  -8  104.56    4.13
  -3  -4   7    1.14    0.73
   3   4  -7    0.50    0.24
   3   4  -7    0.00    0.31
   3   4  -7   -0.08    0.51
  -3  -4   6    0.76    0.53
  -3  -4   6    1.06    0.64
   3   4  -6    1.25    0.48
   3   4  -6    1.06    0.53
  -3  -4   6    1.58    0.90
   3   4  -6    0.59    0.34
  -3  -4   5   12.05    2.15
  -3  -4   5   11.91    2.23
   3   4  -5   13.63    1.45
   3   4  -5   14.55    1.67
  -3  -4   5   12.71    2.25
  -3  -4   5   13.91    1.89
   3   4  -5   13.52    1.90
  -3  -4   4  538.01   16.19
  -3  -4   4  545.79   17.47
   3   4  -4  561.01   12.78
   3   4  -4  580.83   13.07
  -3  -4   4  535.79   17.04
  -3  -4   4  581.62   14.84
   3   4  -4  573.49   14.81
  -3  -4   3  465.85   14.71
  -3  -4   3  462.58   16.01
   3   4  -3  467.63   11.44
  -3  -4   3  447.03   15.56
  -3  -4   3  476.26   13.08
   3   4  -3  495.64   13.45
  -3  -4   2  136.79    7.27
  -3  -4   2  138.00    8.12
   3   4  -2  142.53    5.31
  -3  -4   2  144.70    6.31
   3   4  -2  149.07    6.55
  -3  -4   1  175.79    9.33
   3   4  -1  175.58    5.96
  -3  -4   1  160.19    7.58
  -3  -4   1  151.86    7.77
  -3  -4   0    8.61    1.89
  -3  -4   0   10.81    2.31
   3   4   0   11.84    1.42
  -3  -4   0    9.83    1.81
   3   4   0   11.29    1.62
  -3  -4  -1   89.54    6.94
   3   4   1   94.35    4.20
  -3  -4  -1  102.63    6.60
  -3  -4  -1   97.09    5.95
   3   4   1   97.32    4.83
  -3  -4  -1   81.10    5.96
  -3  -4  -2   24.16    3.74
   3   4   2   23.53    1.91
  -3  -4  -2   24.48    3.17
  -3  -4  -2   23.98    3.01
   3   4   2   25.12    2.40
  -3  -4  -2   19.60    3.08
  -3  -4  -3    5.67    1.94
  -3  -4  -3    4.94    2.02
   3   4   3    6.15    0.98
  -3  -4  -3    8.67    1.99
   3   4   3    6.08    1.20
  -3  -4  -4    0.65    0.96
  -3  -4  -4    0.04    1.81
   3   4   4    0.26    0.22
  -3  -4  -4    0.87    1.14
   3   4   4    0.00    0.38
  -3  -4  -5   -1.40    1.32
  -3  -4  -5    0.14    1.37
   3   4   5    0.42    0.35
  -3  -4  -6   64.91    6.37
   3   4   6   55.93    3.54
  -3  -4  -7   57.56    5.24
   3   4   7   51.59    3.29
  -3  -4  -7   48.00    5.48
  -3  -4  -8  214.05    9.22
   3   4   8  194.55    6.65
  -3  -4  -8  201.25   10.49
  -3  -4  -9  148.98    6.57
   3   4   9  147.32    5.28
  -3  -4  -9  140.17    7.76
  -3  -4 -10    1.49    0.96
   3   4  10    1.03    0.41
  -3  -4 -11    6.45    1.18
   3   4  11    7.27    0.84
   3   5 -16   37.43    1.89
   3   5 -15   85.35    3.28
  -3  -5  15   84.09    3.67
   3   5 -15   86.26    3.16
  -3  -5  14  143.37    5.81
   3   5 -14  138.33    4.62
  -3  -5  14  134.82    5.29
   3   5 -14  139.33    4.52
  -3  -5  13   40.07    3.24
   3   5 -13   38.22    2.33
  -3  -5  13   41.90    2.99
   3   5 -13   44.05    2.49
  -3  -5  12   -0.18    0.78
   3   5 -12    1.02    0.41
  -3  -5  12    2.24    0.91
   3   5 -12    1.05    0.48
  -3  -5  11    0.03    0.50
   3   5 -11    1.82    0.52
   3   5 -11    1.77    0.52
  -3  -5  11    1.65    0.75
   3   5 -11    2.30    0.67
  -3  -5  10   47.01    4.02
   3   5 -10   43.84    2.78
  -3  -5  10   46.82    3.57
   3   5 -10   46.68    2.80
  -3  -5   9   20.82    2.69
   3   5  -9   22.36    1.96
  -3  -5   9   20.28    2.34
   3   5  -9   19.64    1.78
  -3  -5   8   53.16    4.44
   3   5  -8   59.50    3.20
  -3  -5   8   54.72    3.93
   3   5  -8   50.43    2.89
  -3  -5   7  121.00    7.00
   3   5  -7  131.28    4.95
  -3  -5   7  123.67    6.05
   3   5  -7  132.82    6.23
  -3  -5   6  441.37   14.58
  -3  -5   6  398.49   14.24
   3   5  -6  471.80   10.91
  -3  -5   6  422.23   12.67
  -3  -5   6  409.51   12.88
   3   5  -6  469.76   13.00
  -3  -5   5   44.77    4.13
  -3  -5   5   43.39    4.30
   3   5  -5   49.41    2.83
  -3  -5   5   41.30    3.53
   3   5  -5   47.94    3.67
  -3  -5   4    5.43    1.47
  -3  -5   4    4.21    1.51
   3   5  -4    4.98    0.93
  -3  -5   4    5.53    1.31
   3   5  -4    5.08    1.26
  -3  -5   3  243.21   10.29
  -3  -5   3  226.35   10.80
   3   5  -3  239.20    7.05
  -3  -5   3  227.86   10.54
  -3  -5   3  231.47    8.83
   3   5  -3  240.24    8.91
  -3  -5   2   26.48    3.24
  -3  -5   2   24.00    3.50
   3   5  -2   27.27    2.07
  -3  -5   2   24.35    3.40
  -3  -5   2   29.06    2.89
   3   5  -2   29.12    2.88
  -3  -5   1   30.26    3.86
   3   5  -1   29.98    2.18
  -3  -5   1   31.81    3.09
  -3  -5   1   29.65    3.27
   3   5  -1   28.22    2.61
  -3  -5   0    1.55    1.16
  -3  -5   0   -0.66    0.79
   3   5   0    0.13    0.30
  -3  -5   0    0.65    0.71
   3   5   0    0.33    0.45
  -3  -5  -1   12.48    2.43
  -3  -5  -1   11.97    2.63
   3   5   1   14.96    1.47
  -3  -5  -1   12.20    2.24
   3   5   1   15.00    1.97
  -3  -5  -2    6.49    1.94
  -3  -5  -2    9.01    2.55
   3   5   2   10.92    1.18
  -3  -5  -2   10.78    2.21
   3   5   2    8.95    1.48
  -3  -5  -3   32.68    4.78
   3   5   3   40.93    2.24
  -3  -5  -3   40.97    4.34
   3   5   3   35.59    2.90
  -3  -5  -3   36.32    4.27
  -3  -5  -4  141.98   10.65
  -3  -5  -4  156.62    8.87
   3   5   4  145.43    6.13
  -3  -5  -4  139.24    9.11
  -3  -5  -5   76.30    7.17
  -3  -5  -5   81.45    6.06
   3   5   5   74.02    4.11
  -3  -5  -5   59.59    6.08
  -3  -5  -6  151.13    9.16
   3   5   6  143.88    5.78
  -3  -5  -6  140.51    9.13
  -3  -5  -7   60.77    5.10
   3   5   7   55.31    3.26
  -3  -5  -7   55.37    5.30
  -3  -5  -8   98.17    5.65
   3   5   8  105.55    4.34
  -3  -5  -8   93.91    6.33
  -3  -5  -9    8.87    1.65
  -3  -5  -9    7.06    1.18
   3   5   9   10.24    1.19
   3   5  10   49.81    2.33
  -3  -5 -10   44.70    3.17
  -3  -6  15   31.81    2.05
   3   6 -15   30.64    1.75
  -3  -6  14   14.86    1.65
  -3  -6  14   15.10    1.58
   3   6 -14   16.62    1.37
  -3  -6  13  111.92    5.25
  -3  -6  13  109.46    4.87
   3   6 -13  107.76    4.00
  -3  -6  12  112.72    5.66
  -3  -6  12  111.95    5.20
   3   6 -12  107.43    4.15
  -3  -6  11   40.99    3.56
   3   6 -11   37.13    2.43
  -3  -6  11   43.08    3.29
   3   6 -11   47.00    2.66
  -3  -6  10   54.06    4.22
   3   6 -10   48.66    2.89
  -3  -6  10   49.58    3.65
   3   6 -10   53.11    2.90
  -3  -6   9  102.51    6.12
   3   6  -9   99.50    4.36
  -3  -6   9   95.53    5.25
   3   6  -9  102.42    4.18
  -3  -6   8   57.14    4.66
   3   6  -8   57.90    3.26
  -3  -6   8   57.57    4.06
   3   6  -8   54.42    2.96
  -3  -6   7   29.46    3.45
   3   6  -7   28.15    2.19
  -3  -6   7   26.72    2.84
   3   6  -7   31.88    2.19
   3   6  -7   31.20    2.96
  -3  -6   6    3.45    1.34
  -3  -6   6    1.34    1.02
   3   6  -6    1.71    0.57
   3   6  -6    3.32    0.69
  -3  -6   6    1.26    0.62
   3   6  -6    2.55    0.98
  -3  -6   5    6.14    1.69
  -3  -6   5    6.76    1.83
   3   6  -5    6.28    1.03
   3   6  -5    6.22    0.94
  -3  -6   5    7.27    1.58
   3   6  -5    5.85    1.29
  -3  -6   4  616.16   18.54
  -3  -6   4  579.18   18.66
   3   6  -4  648.05   13.84
   3   6  -4  630.26   12.96
  -3  -6   4  620.53   16.83
   3   6  -4  611.92   16.32
  -3  -6   3   48.95    4.53
  -3  -6   3   46.08    4.69
   3   6  -3   52.32    2.90
  -3  -6   3   46.33    3.89
   3   6  -3   47.20    3.76
  -3  -6   2  601.16   18.33
  -3  -6   2  570.78   18.87
   3   6  -2  617.73   13.23
  -3  -6   2  591.83   16.38
   3   6  -2  596.66   16.01
  -3  -6   1   41.14    4.54
   3   6  -1   46.29    2.61
  -3  -6   1   50.08    4.02
  -3  -6   1   44.99    4.12
   3   6  -1   43.29    3.56
  -3  -6   0   68.22    6.04
   3   6   0   86.14    3.54
  -3  -6   0   77.34    5.10
  -3  -6   0   75.82    5.45
   3   6   0   69.83    4.27
  -3  -6  -1  150.49    9.32
   3   6   1  159.66    4.95
  -3  -6  -1  137.93    7.63
   3   6   1  141.75    6.25
  -3  -6  -1  129.09    7.25
  -3  -6  -2   62.69    6.10
   3   6   2   75.04    3.04
  -3  -6  -2   70.84    5.48
   3   6   2   63.58    3.96
  -3  -6  -2   58.17    4.94
  -3  -6  -3   78.78    7.06
  -3  -6  -3   80.37    5.92
   3   6   3   70.97    4.15
  -3  -6  -3   69.78    5.62
  -3  -6  -4   20.30    3.57
  -3  -6  -4   21.43    3.06
   3   6   4   19.60    2.08
  -3  -6  -4   20.60    3.18
  -3  -6  -5   13.00    2.61
  -3  -6  -5   20.30    3.51
   3   6   5   15.22    1.76
  -3  -6  -6    3.62    1.18
  -3  -6  -6    4.43    1.58
   3   6   6    3.25    0.78
  -3  -6  -7    6.69    1.66
  -3  -6  -7    7.31    1.60
   3   6   7    6.05    0.94
  -3  -6  -8    7.65    1.52
  -3  -6  -8    6.02    1.25
   3   6   8    3.97    0.70
   3   6   9   93.31    3.31
  -3  -6  -9  106.45    4.79
   3   7 -15   51.79    2.20
  -3  -7  14  142.50    4.94
  -3  -7  14  136.06    4.77
   3   7 -14  132.00    4.20
  -3  -7  13   15.61    1.77
  -3  -7  13   18.26    1.78
   3   7 -13   16.62    1.39
  -3  -7  12   70.08    4.13
  -3  -7  12   69.87    3.83
   3   7 -12   65.32    2.98
  -3  -7  11  113.74    5.77
  -3  -7  11  124.17    5.57
   3   7 -11  117.61    4.32
  -3  -7  10    9.12    1.76
   3   7 -10    8.08    1.15
  -3  -7  10    9.10    1.51
   3   7 -10   10.41    1.21
  -3  -7   9   10.64    1.96
   3   7  -9    9.72    1.26
  -3  -7   9   11.24    1.68
   3   7  -9   10.25    1.19
  -3  -7   8    5.26    1.43
   3   7  -8    4.37    0.89
  -3  -7   8    3.82    1.17
   3   7  -8    3.57    0.67
  -3  -7   7   31.09    3.54
   3   7  -7   30.13    2.30
  -3  -7   7   30.24    2.98
   3   7  -7   30.44    2.06
   3   7  -7   31.92    2.99
  -3  -7   6   28.32    3.33
  -3  -7   6   24.80    2.99
   3   7  -6   30.40    2.27
   3   7  -6   30.19    1.99
  -3  -7   6   30.29    3.13
   3   7  -6   27.22    2.74
  -3  -7   5   72.94    5.55
  -3  -7   5   75.38    5.54
   3   7  -5   71.42    3.55
   3   7  -5   72.40    3.14
  -3  -7   5   75.99    5.02
   3   7  -5   76.85    4.72
  -3  -7   4   71.44    5.54
  -3  -7   4   62.94    5.23
   3   7  -4   68.28    3.37
  -3  -7   4   62.80    4.56
   3   7  -4   71.82    4.59
  -3  -7   3  199.88    9.56
  -3  -7   3  181.27    9.39
   3   7  -3  196.46    6.09
  -3  -7   3  185.84    8.21
   3   7  -3  197.32    7.98
  -3  -7   2   92.68    6.46
  -3  -7   2   83.94    6.30
   3   7  -2  103.09    4.05
  -3  -7   2   91.06    5.54
   3   7  -2   97.67    5.39
  -3  -7   1   28.39    3.65
   3   7  -1   33.16    2.12
  -3  -7   1   34.13    3.36
   3   7  -1   33.39    3.03
  -3  -7   0   24.00    3.45
   3   7   0   27.85    1.86
  -3  -7   0   25.96    2.98
  -3  -7   0   27.42    3.12
   3   7   0   28.08    2.73
  -3  -7  -1   24.11    3.49
   3   7   1   31.10    1.89
  -3  -7  -1   29.09    3.28
  -3  -7  -2   10.07    2.23
  -3  -7  -2   13.22    2.22
   3   7   2    9.62    1.44
  -3  -7  -3    3.92    1.26
  -3  -7  -3    5.08    1.82
  -3  -7  -3    5.84    1.49
   3   7   3    4.25    0.94
  -3  -7  -4    9.67    1.77
  -3  -7  -4   10.25    2.30
   3   7   4   10.32    1.41
  -3  -7  -5   10.57    1.85
  -3  -7  -5    9.38    2.04
   3   7   5    8.41    1.19
  -3  -7  -6    1.86    0.88
  -3  -7  -6    1.66    0.95
   3   7   6    2.22    0.61
  -3  -7  -7   63.65    3.98
  -3  -7  -7   62.70    3.76
   3   8 -14   47.61    2.11
  -3  -8  13   19.84    1.73
  -3  -8  13   18.22    1.62
   3   8 -13   18.13    1.37
  -3  -8  12    5.16    0.99
  -3  -8  12    6.14    1.03
   3   8 -12    6.60    0.87
  -3  -8  11   24.43    2.37
  -3  -8  11   23.85    2.17
   3   8 -11   19.94    1.55
  -3  -8  10   44.56    3.43
  -3  -8  10   47.18    3.26
   3   8 -10   47.32    2.50
  -3  -8   9   59.06    4.23
   3   8  -9   50.37    2.83
  -3  -8   9   62.48    3.85
   3   8  -9   62.76    2.89
  -3  -8   8   86.35    5.39
   3   8  -8   69.55    3.43
  -3  -8   8   79.71    4.59
   3   8  -8   81.16    3.33
  -3  -8   7   40.90    3.80
   3   8  -7   39.20    2.54
  -3  -8   7   41.60    3.33
   3   8  -7   43.03    2.31
   3   8  -7   43.03    3.26
  -3  -8   6   40.50    3.89
   3   8  -6   38.27    2.50
   3   8  -6   41.49    2.23
  -3  -8   6   43.42    3.65
   3   8  -6   39.38    3.17
  -3  -8   5   28.75    3.38
  -3  -8   5   32.05    3.28
   3   8  -5   29.27    2.15
  -3  -8   5   28.65    2.99
   3   8  -5   24.69    2.55
  -3  -8   4   37.10    3.80
  -3  -8   4   28.44    3.26
   3   8  -4   35.44    2.34
  -3  -8   4   39.31    3.47
   3   8  -4   33.64    2.98
  -3  -8   3   21.25    2.91
  -3  -8   3   18.97    2.68
   3   8  -3   21.25    1.77
  -3  -8   3   20.72    2.56
   3   8  -3   22.87    2.42
  -3  -8   2    8.24    1.87
   3   8  -2    6.59    0.94
  -3  -8   2    5.70    1.37
   3   8  -2    7.44    1.41
  -3  -8   2    3.79    1.37
  -3  -8   1    4.08    1.27
  -3  -8   1    3.33    1.18
   3   8  -1    4.88    0.78
  -3  -8   1    4.66    1.43
   3   8  -1    3.52    0.87
  -3  -8   0    6.47    1.77
   3   8   0    8.53    0.95
   3   8   0    6.73    1.30
  -3  -8  -1   34.37    3.77
  -3  -8  -1   35.92    3.48
   3   8   1   37.49    2.82
  -3  -8  -2  119.01    7.13
   3   8   2  122.44    5.16
  -3  -8  -3   30.06    3.41
   3   8   3   30.23    2.31
  -3  -8  -4   24.10    2.52
  -3  -8  -4   18.73    2.53
   3   8   4   17.75    1.66
  -3  -8  -5   80.88    4.85
   3   8   5   75.30    3.24
  -3  -8  -6  160.51    6.16
   3   8   6  149.72    4.39
  -3  -9  12   10.86    1.19
  -3  -9  12    8.96    1.09
   3   9 -12    9.56    0.94
  -3  -9  11   24.13    2.03
  -3  -9  11   22.78    1.88
   3   9 -11   20.42    1.44
  -3  -9  10  186.72    6.76
   3   9 -10  193.86    6.41
  -3  -9  10  188.38    6.32
   3   9 -10  178.67    5.11
  -3  -9   9   31.07    2.75
  -3  -9   9   32.66    2.51
   3   9  -9   32.23    1.89
  -3  -9   8   24.94    2.57
  -3  -9   8   23.84    2.25
   3   9  -8   24.41    1.61
  -3  -9   7    5.36    1.25
   3   9  -7    3.83    0.72
  -3  -9   7    5.23    1.11
  -3  -9   6    1.23    0.49
   3   9  -6    1.41    0.51
  -3  -9   6    0.86    0.44
   3   9  -6    1.03    0.51
  -3  -9   5    0.54    0.59
   3   9  -5    0.85    0.39
   3   9  -5    1.04    0.53
   3   9  -4   13.71    1.30
  -3  -9   4   13.84    1.91
   3   9  -4   17.26    1.89
  -3  -9   3    4.98    1.28
  -3  -9   3    4.20    1.10
   3   9  -3    2.90    0.57
   3   9  -3    5.09    1.02
  -3  -9   2   38.29    3.59
  -3  -9   2   37.50    3.42
   3   9  -2   35.59    1.98
   3   9  -2   39.35    2.81
  -3  -9   1  144.96    7.08
   3   9  -1  161.75    5.97
  -3  -9   0   28.36    3.00
  -3  -9   0   20.66    2.50
   3   9   0   26.28    2.13
  -3  -9  -1   60.40    4.30
  -3  -9  -1   49.88    3.92
   3   9   1   53.10    2.98
  -3  -9  -2   68.85    4.47
   3   9   2   66.97    3.21
  -3  -9  -3   -0.20    0.44
  -3  -9  -3    1.54    0.85
   3   9   3    0.74    0.31
  -3  -9  -4    0.69    0.40
   3   9   4    2.24    0.46
  -3 -10  10    6.84    0.99
  -3 -10  10    4.21    0.74
  -3 -10   9   17.07    1.69
   3  10  -9   16.62    1.55
  -3 -10   9   17.93    1.59
  -3 -10   8    9.31    1.32
   3  10  -8    9.21    1.30
  -3 -10   8    7.09    1.01
  -3 -10   7   19.40    2.04
   3  10  -7   20.40    1.96
  -3 -10   7   15.85    1.62
  -3 -10   6    9.75    1.51
   3  10  -6    8.13    1.33
  -3 -10   6    7.62    1.13
  -3 -10   5   78.88    4.50
  -3 -10   5   71.10    3.62
   3  10  -5   70.39    3.45
  -3 -10   4   71.74    4.31
   3  10  -4   76.11    3.93
   3  10  -4   62.31    3.22
  -3 -10   3   64.94    4.09
   3  10  -3   66.71    3.54
   3  10  -3   57.56    3.02
  -3 -10   2    8.33    1.44
   3  10  -2    7.34    1.14
  -3 -10   2    6.94    1.18
   3  10  -2    6.68    0.96
  -3 -10   1    0.70    0.56
   3  10  -1   -0.23    0.37
  -3 -10   1    0.89    0.53
   3  10  -1   -0.06    0.24
  -3 -10   0   27.69    2.46
  -3 -10   0   24.33    2.10
   3  10   0   26.59    1.77
  -3 -10  -1   20.14    1.93
   3  10   1   18.83    1.37
   3  11  -6   15.43    1.39
  -3 -11   5   18.77    1.66
   3  11  -5   19.87    1.56
  -3 -11   4    2.64    0.65
  -4  10   3  112.83    3.55
  -4  10   2   24.52    1.55
  -4  10   1   69.70    2.86
  -4  10   0  136.96    4.34
  -4  10  -1   13.61    1.21
  -4  10  -2   11.08    1.09
  -4  10  -3   19.55    1.43
  -4  10  -4   25.89    1.62
  -4  10  -4   27.64    1.66
  -4  10  -5   30.16    1.69
  -4   9   5   48.27    2.25
   4  -9  -4   87.07    3.30
  -4   9   4  100.98    3.60
  -4   9   3   22.06    1.66
  -4   9   2    1.17    0.24
  -4   9   1    1.58    0.50
  -4   9   0   14.37    1.40
   4  -9   1   15.65    1.70
  -4   9  -1   20.71    1.68
  -4   9  -2   25.72    1.91
   4  -9   2   18.87    1.89
   4  -9   3   81.42    3.49
  -4   9  -3  117.94    4.24
   4  -9   4   68.25    3.27
  -4   9  -4  104.13    3.90
   4  -9   5   50.14    2.80
  -4   9  -5   69.17    3.05
   4  -9   6   39.78    2.45
  -4   9  -6   49.56    2.45
   4  -9   7   60.67    2.89
   4  -9   8    0.11    0.19
  -4   8   6    0.69    0.25
   4  -8  -5    1.01    0.52
  -4   8   5    0.57    0.35
  -4   8   4   17.04    1.56
  -4   8   3    4.85    0.89
   4  -8  -2   84.93    4.31
  -4   8   2   96.30    4.00
   4  -8  -1  123.91    5.56
  -4   8   1  145.11    5.12
   4  -8   0   80.59    4.51
  -4   8   0   95.93    4.55
  -4   8  -1  114.38    4.63
  -4   8  -1  120.00    4.91
  -4   8  -2   47.26    2.86
  -4   8  -2   51.82    2.98
   4  -8   3   15.38    1.79
  -4   8  -3   23.45    1.99
   4  -8   4   25.21    2.39
  -4   8  -4   40.70    2.60
   4  -8   5   -0.37    0.54
  -4   8  -5    0.22    0.25
   4  -8   6    0.51    0.53
  -4   8  -6   -0.39    0.46
   4  -8   7   12.96    1.60
  -4   8  -7   13.32    1.37
   4  -8   8   45.25    2.64
   4  -8   9   14.53    1.27
   4  -7  -9    7.20    0.77
   4  -7  -7   74.28    3.00
  -4   7   7   73.77    3.14
   4  -7  -6   29.03    2.12
  -4   7   6   34.15    2.19
  -4   7   5  149.47    5.24
  -4   7   4   81.13    3.34
   4  -7  -4   68.91    3.84
  -4   7   4   74.89    3.61
   4  -7  -3   22.53    2.33
  -4   7   3   25.51    2.05
  -4   7   3   20.98    2.30
   4  -7  -2  190.76    7.64
  -4   7   2  206.26    7.53
   4  -7  -1   19.24    2.30
  -4   7   1   23.12    2.24
  -4   7   0    6.59    1.15
   4  -7   0    5.29    0.97
  -4   7   0    6.43    1.10
   4  -7   0    7.08    1.48
  -4   7  -1   -0.01    0.34
   4  -7   1    0.78    0.61
  -4   7  -1    0.31    0.36
  -4   7  -2    0.03    0.36
   4  -7   2    0.51    0.53
  -4   7  -2    0.27    0.31
  -4   7  -3    2.71    0.73
  -4   7  -3    3.08    0.76
   4  -7   3    2.01    0.75
  -4   7  -3    2.86    0.72
  -4   7  -4   26.09    2.05
  -4   7  -4   26.72    2.22
  -4   7  -4   31.78    2.21
  -4   7  -5  155.20    5.22
  -4   7  -5  153.12    5.65
  -4   7  -6   75.39    3.38
   4  -7   6   69.61    4.59
  -4   7  -6   73.08    3.76
  -4   7  -7  119.00    4.24
   4  -7   7  116.02    5.37
  -4   7  -8   52.09    2.53
   4  -7   8   51.98    3.11
  -4   7  -9   61.82    2.58
   4  -7   9   63.59    3.04
  -4   7 -10   96.79    3.00
   4  -7  10   92.53    3.21
   4  -6 -10   69.03    2.64
   4  -6  -9   41.68    2.28
  -4   6   8   49.70    2.55
   4  -6  -8   43.05    2.30
  -4   6   7   87.05    3.72
   4  -6  -7   81.08    3.75
  -4   6   7   86.96    3.64
  -4   6   6    8.35    1.15
   4  -6  -6    6.80    1.16
  -4   6   6    7.79    1.07
  -4   6   5   83.58    3.96
   4  -6  -5   85.74    4.43
  -4   6   5   85.45    3.88
  -4   6   5   74.19    4.59
  -4   6   4   52.50    3.14
   4  -6  -4   48.20    3.54
  -4   6   4   56.20    3.13
   4  -6  -4   50.29    3.48
  -4   6   4   48.71    3.52
  -4   6   3   20.45    1.92
   4  -6  -3   16.30    2.16
  -4   6   3   18.61    1.81
   4  -6  -3   17.29    2.09
  -4   6   3   15.94    1.98
   4  -6  -2   36.58    3.37
  -4   6   2   38.56    3.00
   4  -6  -1   45.45    3.92
   4  -6  -1   41.61    3.03
   4  -6  -1   46.60    3.94
  -4   6   1   52.81    3.46
   4  -6   0  104.30    6.46
   4  -6   0  110.08    5.46
  -4   6   0  121.15    5.10
   4  -6   0  106.16    6.22
  -4   6   0  129.26    5.53
   4  -6   1   48.41    4.45
   4  -6   1   44.30    3.60
  -4   6  -1   56.81    3.37
  -4   6  -1   64.15    3.75
   4  -6   2  176.32    9.10
  -4   6  -2  188.55    6.37
   4  -6   2  154.04    7.46
  -4   6  -2  208.88    7.05
   4  -6   3  233.32   10.74
  -4   6  -3  243.18    7.46
  -4   6  -3  254.90    7.95
  -4   6  -4    2.81    0.73
  -4   6  -4    2.59    0.73
   4  -6   4    2.99    1.09
  -4   6  -5   49.97    2.99
   4  -6   5   48.45    4.14
  -4   6  -5   56.17    3.13
  -4   6  -6   46.34    2.82
   4  -6   6   49.82    3.84
  -4   6  -6   57.47    2.95
  -4   6  -7   29.51    2.14
   4  -6   7   32.77    2.78
  -4   6  -8   16.74    1.52
   4  -6   8   18.37    1.81
  -4   6  -9   10.70    1.13
   4  -6   9   10.71    1.22
  -4   6 -10   36.64    1.94
   4  -6  10   37.84    2.00
   4  -5 -11   93.95    3.19
  -4   5  10   78.78    3.03
   4  -5 -10   72.58    3.16
  -4   5   9   73.54    3.17
  -4   5   9   67.48    3.20
   4  -5  -9   67.28    2.91
  -4   5   8    0.39    0.41
   4  -5  -8    0.09    0.37
  -4   5   7   58.64    3.06
  -4   5   7   54.95    3.32
   4  -5  -7   48.56    3.20
  -4   5   6   26.01    2.36
   4  -5  -6   23.90    2.42
   4  -5  -6   23.88    2.32
   4  -5  -6   21.89    2.18
  -4   5   6   22.96    2.51
  -4   5   5  108.80    5.22
   4  -5  -5  116.66    5.72
  -4   5   5  110.68    4.56
   4  -5  -5  126.86    5.67
  -4   5   5  105.33    5.44
  -4   5   4  189.02    7.19
   4  -5  -4  182.12    7.82
  -4   5   4  195.98    6.38
   4  -5  -4  192.79    7.48
  -4   5   4  172.65    7.02
  -4   5   3   28.43    2.61
   4  -5  -3   28.31    3.04
   4  -5  -3   34.56    3.22
   4  -5  -3   27.61    2.73
  -4   5   3   27.50    2.58
   4  -5  -2   60.61    4.51
  -4   5   2   69.39    4.09
   4  -5  -2   56.79    3.63
   4  -5  -2   65.93    4.81
   4  -5  -2   69.50    4.65
  -4   5   2   72.90    4.22
   4  -5  -1  167.72    8.14
  -4   5   1  195.27    7.11
   4  -5  -1  181.46    7.42
   4  -5  -1  181.33    8.39
   4  -5  -1  197.34    8.21
  -4   5   1  182.54    7.08
   4  -5   0  160.17    8.18
  -4   5   0  181.39    6.36
   4  -5   0  163.78    7.31
   4  -5   0  184.75    8.46
   4  -5   0  185.75    7.95
  -4   5   0  179.60    7.02
   4  -5   1   30.04    3.43
  -4   5  -1   29.94    2.39
   4  -5   1   25.75    2.87
   4  -5   1   27.55    3.20
   4  -5   1   29.58    3.09
  -4   5  -1   27.62    2.60
   4  -5   2   48.87    4.48
  -4   5  -2   56.31    3.35
   4  -5   2   55.50    4.33
  -4   5  -2   57.25    3.78
   4  -5   3   13.28    2.23
  -4   5  -3   12.47    1.58
   4  -5   3   12.04    2.04
  -4   5  -3   12.69    1.75
   4  -5   4   19.29    2.59
  -4   5  -4   18.77    1.87
  -4   5  -4   21.55    2.21
  -4   5  -5    6.95    1.27
  -4   5  -5    6.61    1.12
   4  -5   5    6.72    1.54
  -4   5  -6    7.84    1.27
  -4   5  -6    6.70    1.10
   4  -5   6    6.51    1.36
  -4   5  -7   10.30    1.36
   4  -5   7   11.19    1.62
  -4   5  -7   12.04    1.43
  -4   5  -8   59.64    3.23
   4  -5   8   62.63    3.47
  -4   5  -9  111.46    4.33
   4  -5   9  120.46    4.43
  -4   5 -10   93.83    3.60
   4  -5  10   99.16    3.43
  -4   5 -11   76.71    2.81
  -4   4  12   33.51    1.72
   4  -4 -12   33.09    1.72
  -4   4  11    4.27    0.74
   4  -4 -11    5.48    0.79
  -4   4  11    5.14    0.78
  -4   4  10   16.75    1.55
   4  -4 -10   15.78    1.53
  -4   4  10   14.84    1.48
   4  -4 -10   15.71    1.33
  -4   4   9   33.76    2.37
  -4   4   9   34.56    2.53
   4  -4  -9   32.66    2.24
  -4   4   8   95.02    4.34
  -4   4   8   88.61    4.50
   4  -4  -8   89.66    4.32
  -4   4   7  122.94    5.10
  -4   4   7  118.62    5.52
   4  -4  -7  117.54    5.45
   4  -4  -7  126.78    5.41
  -4   4   7  109.32    5.64
  -4   4   6  351.44    9.60
  -4   4   6  316.46   10.28
   4  -4  -6  331.49   10.58
   4  -4  -6  325.27   10.30
   4  -4  -6  339.00   10.05
  -4   4   6  317.90   10.29
  -4   4   5   32.34    2.94
   4  -4  -5   31.68    3.05
   4  -4  -5   33.95    3.05
   4  -4  -5   31.26    2.78
  -4   4   5   28.57    2.70
  -4   4   4   10.01    1.72
   4  -4  -4   12.08    2.02
   4  -4  -4   10.50    1.64
   4  -4  -4   10.57    1.65
  -4   4   4   10.30    1.61
  -4   4   3  315.05   10.36
   4  -4  -3  316.70   11.31
   4  -4  -3  321.93   10.65
   4  -4  -3  334.53   10.52
  -4   4   3  324.88   10.17
   4  -4  -2   86.46    4.80
  -4   4   2   90.03    5.00
   4  -4  -2   88.05    5.61
   4  -4  -2   89.32    5.15
   4  -4  -2   84.72    4.87
  -4   4   2   86.05    4.76
   4  -4  -1   47.46    4.11
   4  -4  -1   51.99    3.89
  -4   4   1   57.23    3.86
   4  -4  -1   57.74    4.52
   4  -4  -1   57.10    3.99
  -4   4   1   50.80    3.66
  -4   4   0    3.51    1.01
   4  -4   0    4.28    1.34
  -4   4   0    4.35    0.96
  -4   4   0    4.26    1.12
   4  -4   0    3.21    1.11
   4  -4   0    2.44    0.97
   4  -4   0    4.13    1.23
  -4   4  -1    5.83    1.28
   4  -4   1    6.80    1.65
  -4   4  -1    6.53    1.18
   4  -4   1    6.06    1.44
   4  -4   1    5.54    1.39
  -4   4  -2    9.86    1.70
   4  -4   2    8.85    1.78
  -4   4  -2    9.11    1.35
   4  -4   2    7.98    1.59
   4  -4   2    9.20    1.76
   4  -4   3  214.83    9.08
  -4   4  -3  204.11    7.15
   4  -4   3  201.48    8.57
   4  -4   3  203.33    8.44
  -4   4  -3  202.70    8.05
   4  -4   4  242.13    9.41
  -4   4  -4  230.29    7.81
   4  -4   4  242.02    9.44
   4  -4   4  252.56    9.06
  -4   4  -4  241.99    8.77
   4  -4   5   32.83    3.10
  -4   4  -5   30.66    2.53
   4  -4   5   33.47    3.08
   4  -4   5   33.01    2.81
  -4   4  -5   32.86    2.92
  -4   4  -6   90.87    4.55
   4  -4   6  101.80    5.25
   4  -4   6  102.96    4.71
  -4   4  -6   96.24    4.94
  -4   4  -7   66.81    3.77
   4  -4   7   72.35    4.03
  -4   4  -7   76.17    4.08
   4  -4   8   95.89    4.32
  -4   4  -8  102.94    4.46
  -4   4  -9   24.16    2.01
   4  -4   9   24.68    1.82
  -4   4 -10    4.23    0.79
   4  -4  10    3.64    0.57
  -4   4 -11    0.33    0.27
  -4   3  12   11.07    1.15
   4  -3 -12   10.43    1.07
  -4   3  12   12.90    1.16
  -4   3  11   24.85    1.95
   4  -3 -11   27.82    1.97
  -4   3  11   27.32    1.98
   4  -3 -11   28.50    1.75
  -4   3  10   10.21    1.39
   4  -3 -10    9.26    1.23
  -4   3  10    7.34    1.16
   4  -3 -10    7.85    1.06
  -4   3   9  166.94    6.31
  -4   3   9  165.03    6.50
   4  -3  -9  170.60    5.95
  -4   3   8  274.13    8.79
  -4   3   8  287.77    9.41
   4  -3  -8  301.31    9.02
   4  -3  -8  315.08    8.99
  -4   3   8  249.88    9.17
  -4   3   7   29.94    2.58
  -4   3   7   31.52    2.96
   4  -3  -7   32.20    2.80
   4  -3  -7   32.96    2.67
  -4   3   7   31.24    2.83
  -4   3   6    5.96    1.26
  -4   3   6    4.10    1.21
   4  -3  -6    4.94    1.23
   4  -3  -6    7.09    1.41
   4  -3  -6    5.22    1.25
   4  -3  -6    6.02    1.26
  -4   3   5  131.87    6.44
   4  -3  -5  132.63    6.14
   4  -3  -5  135.95    6.59
   4  -3  -5  139.08    5.96
  -4   3   5  139.47    6.11
  -4   3   4   26.97    2.80
   4  -3  -4   29.22    3.04
   4  -3  -4   32.43    2.93
   4  -3  -4   26.23    2.47
  -4   3   4   27.86    2.64
   4  -3  -3   41.26    3.18
  -4   3   3   38.30    3.37
   4  -3  -3   46.18    3.88
   4  -3  -3   44.21    3.40
   4  -3  -3   43.18    3.24
  -4   3   3   43.56    3.34
   4  -3  -2   12.48    1.83
   4  -3  -2   16.56    2.36
   4  -3  -2   15.76    2.01
   4  -3  -2   16.08    1.92
  -4   3   2   13.40    1.92
  -4   3   1   92.29    4.31
   4  -3  -1   81.05    4.91
   4  -3  -1   82.25    5.26
   4  -3  -1   87.62    4.71
  -4   3   1   80.67    4.84
   4  -3   0   49.88    4.10
  -4   3   0   58.81    3.43
   4  -3   0   54.73    4.05
   4  -3   0   55.38    4.23
  -4   3   0   56.59    4.07
   4  -3   1  122.21    6.50
  -4   3  -1  125.17    5.32
   4  -3   1  121.46    6.27
   4  -3   1  123.40    6.32
  -4   3  -1  122.85    6.24
   4  -3   2  142.21    7.05
  -4   3  -2  147.17    5.90
   4  -3   2  138.51    6.78
   4  -3   2  141.33    6.65
  -4   3  -2  144.93    6.91
   4  -3   3  298.45   10.43
  -4   3  -3  293.78    9.03
   4  -3   3  279.51   10.02
   4  -3   3  282.25    9.61
  -4   3  -3  287.48   10.19
   4  -3   4  126.42    6.27
  -4   3  -4  123.81    5.54
   4  -3   4  134.50    6.41
   4  -3   4  132.91    5.87
  -4   3  -4  127.44    6.47
  -4   3  -5   46.64    3.29
   4  -3   5   58.18    3.92
   4  -3   5   59.45    3.55
  -4   3  -5   52.33    3.95
  -4   3  -6   11.09    1.77
  -4   3  -6   11.96    1.63
   4  -3   6   13.39    1.76
  -4   3  -7  119.67    5.46
   4  -3   7  126.02    5.28
  -4   3  -7  124.82    5.83
  -4   3  -8    1.72    0.76
  -4   3  -8    2.33    0.74
   4  -3   8    1.06    0.46
  -4   3  -9   16.50    1.76
   4  -3   9   20.19    1.58
   4  -3   9   15.95    1.36
  -4   3  -9   17.85    1.75
  -4   3 -10    2.91    0.71
   4  -3  10    3.79    0.58
  -4   3 -11   81.41    3.11
  -4   2  13   57.81    2.59
   4  -2 -13   51.91    2.30
  -4   2  12  123.57    4.57
   4  -2 -12  126.59    4.29
  -4   2  12  123.04    4.28
  -4   2  11   38.28    2.68
   4  -2 -11   42.20    2.54
  -4   2  11   39.99    2.64
   4  -2 -11   43.72    2.40
  -4   2  10    9.42    1.40
   4  -2 -10   11.53    1.39
  -4   2  10   11.92    1.61
   4  -2 -10   12.84    1.42
   4  -2  -9  234.02    7.41
  -4   2   9  218.14    8.07
   4  -2  -9  227.45    7.35
  -4   2   8   13.37    2.02
   4  -2  -8   15.32    1.86
   4  -2  -8   15.20    1.70
  -4   2   8   11.84    1.72
  -4   2   7   99.09    5.53
   4  -2  -7  101.87    5.20
   4  -2  -7  106.92    4.86
  -4   2   7  109.24    5.30
  -4   2   6   37.09    3.37
   4  -2  -6   39.60    3.28
   4  -2  -6   44.91    3.28
   4  -2  -6   40.81    2.92
  -4   2   6   43.16    3.20
  -4   2   5   38.27    3.36
   4  -2  -5   43.61    3.49
   4  -2  -5   46.00    3.28
   4  -2  -5   42.40    3.51
   4  -2  -5   41.09    2.93
  -4   2   5   40.38    3.17
   4  -2  -4  149.52    5.97
   4  -2  -4  151.17    6.18
   4  -2  -4  157.66    7.15
   4  -2  -4  150.85    5.93
  -4   2   4  144.23    6.38
   4  -2  -3   48.90    3.48
   4  -2  -3   50.71    3.37
   4  -2  -3   51.36    3.97
   4  -2  -3   50.97    3.25
  -4   2   3   46.13    3.57
   4  -2  -2   70.84    4.41
   4  -2  -2   79.62    4.94
   4  -2  -2   79.52    4.07
  -4   2   2   68.76    4.45
  -4   2   1   79.18    3.90
   4  -2  -1   70.65    4.49
   4  -2  -1   73.38    4.66
  -4   2   1   69.78    4.60
  -4   2   0   42.85    2.89
   4  -2   0   47.30    3.66
   4  -2   0   43.10    3.50
  -4   2   0   40.17    3.57
  -4   2  -1   99.90    4.63
   4  -2   1   96.20    5.39
   4  -2   1   95.23    5.17
  -4   2  -1   94.87    5.70
  -4   2  -2   34.24    2.68
   4  -2   2   34.19    3.12
   4  -2   2   34.79    2.95
  -4   2  -2   32.76    3.27
  -4   2  -3   20.66    2.11
   4  -2   3   22.20    2.42
   4  -2   3   28.19    2.54
  -4   2  -3   22.03    2.74
  -4   2  -4   52.63    3.54
   4  -2   4   55.16    3.80
   4  -2   4   59.30    3.49
  -4   2  -4   52.99    4.24
  -4   2  -5    0.85    0.55
  -4   2  -5    1.01    0.61
   4  -2   5    0.26    0.40
  -4   2  -6    0.27    0.58
   4  -2   6    0.59    0.64
   4  -2   7  335.65    9.20
  -4   2  -7  336.93   11.06
   4  -2   8  186.75    5.76
   4  -2   8  173.91    5.51
  -4   2  -8  185.81    7.28
  -4   2  -9    5.51    1.09
   4  -2   9    5.99    0.78
   4  -2   9    4.27    0.72
  -4   2 -10   51.46    2.80
   4  -2  10   59.60    2.42
  -4   2 -11   50.87    2.30
  -4   1  13   12.87    1.33
   4  -1 -13   12.48    1.12
  -4   1  13   11.60    1.04
  -4   1  12   18.23    1.78
   4  -1 -12   20.29    1.61
  -4   1  12   18.66    1.62
   4  -1 -11    0.98    0.39
  -4   1  11    0.32    0.33
   4  -1 -11    0.96    0.45
   4  -1 -10    0.06    0.46
  -4   1  10    0.19    0.57
   4  -1 -10    0.19    0.40
   4  -1  -9    2.68    0.70
  -4   1   9    2.77    0.95
   4  -1  -9    2.49    0.69
   4  -1  -8  145.69    5.55
  -4   1   8  130.20    6.38
   4  -1  -8  149.28    5.96
  -4   1   8  135.72    5.89
  -4   1   7  197.81    7.35
  -4   1   7  183.26    7.84
   4  -1  -7  193.68    7.32
   4  -1  -7  197.26    7.01
   4  -1  -7  191.12    6.56
  -4   1   7  208.03    7.37
  -4   1   6   75.28    4.26
   4  -1  -6   66.70    4.17
   4  -1  -6   73.39    4.02
   4  -1  -6   76.23    3.83
  -4   1   6   73.69    4.19
   4  -1  -5  155.83    5.73
   4  -1  -5  154.71    6.54
   4  -1  -5  148.10    5.89
   4  -1  -5  160.67    5.76
  -4   1   5  150.30    6.42
   4  -1  -4  105.03    4.90
   4  -1  -4   93.39    4.98
   4  -1  -4  100.56    4.60
   4  -1  -4   98.97    5.38
  -4   1   4   97.63    5.22
  -4   1   3    0.66    0.45
   4  -1  -3    0.55    0.53
   4  -1  -3    0.95    0.71
   4  -1  -3    0.65    0.51
   4  -1  -2   73.16    4.39
   4  -1  -2   78.61    4.37
   4  -1  -2   76.11    4.60
  -4   1   2   67.98    4.54
  -4   1   1   18.60    1.79
   4  -1  -1   17.91    2.18
   4  -1  -1   16.19    1.84
   4  -1  -1   17.83    2.13
  -4   1   1   16.88    2.31
  -4   1   0    3.72    1.13
  -4   1   0    6.93    1.12
   4  -1   0    5.57    1.19
   4  -1   0    5.72    1.09
   4  -1   0    7.77    1.34
  -4   1  -1    9.69    1.92
  -4   1  -1   13.26    1.59
   4  -1   1   10.49    1.70
   4  -1   1   12.48    1.55
   4  -1   1   12.57    1.68
  -4   1  -2   73.00    3.95
   4  -1   2   68.55    4.25
   4  -1   2   72.22    4.00
  -4   1  -2   75.40    5.27
  -4   1  -3   91.99    4.59
   4  -1   3   94.48    4.94
  -4   1  -3   90.32    5.86
  -4   1  -4  158.33    6.44
   4  -1   4  172.84    6.70
  -4   1  -4  172.63    8.35
   4  -1   5  191.29    6.87
  -4   1  -5  187.14    8.75
   4  -1   6   97.49    4.41
  -4   1  -6   96.97    6.04
  -4   1  -7    1.47    0.78
   4  -1   7    0.85    0.43
   4  -1   7    0.93    0.47
  -4   1  -8    7.80    1.50
   4  -1   8    8.51    0.98
   4  -1   8    6.65    0.93
   4  -1   9    9.47    1.01
  -4   1  -9   11.01    1.59
  -4   1 -10    2.93    0.67
  -4   1 -10    1.71    0.51
   4  -1  10    3.08    0.52
  -4   0  14   10.24    1.07
  -4   0  13   54.63    2.98
   4   0 -13   59.42    2.56
  -4   0  13   52.22    2.35
   4   0 -13   54.61    2.16
   4   0 -12   33.37    2.06
  -4   0  12   32.92    2.25
   4   0 -11   62.08    3.04
  -4   0  11   60.54    3.58
   4   0 -10   68.79    3.36
  -4   0  10   69.74    4.20
   4   0 -10   70.36    3.62
  -4   0   9   67.91    4.12
   4   0  -9   74.94    3.57
  -4   0   9   68.01    4.40
   4   0  -9   76.61    3.93
  -4   0   8  133.91    6.00
   4   0  -8  137.06    5.06
  -4   0   8  123.84    6.20
   4   0  -8  127.67    5.42
  -4   0   8  129.90    5.55
  -4   0   7   27.17    2.64
   4   0  -7   25.94    2.07
   4   0  -7   27.05    2.44
  -4   0   7   25.62    2.32
  -4   0   6   26.54    2.59
   4   0  -6   23.03    1.92
   4   0  -6   26.72    2.06
   4   0  -6   27.64    2.49
  -4   0   6   27.36    2.47
  -4   0   5    3.08    0.96
  -4   0   5    2.77    0.81
   4   0  -5    2.59    0.73
   4   0  -5    2.91    0.79
  -4   0   4    2.12    0.88
   4   0  -4    2.93    0.78
   4   0  -4    3.19    0.90
   4   0  -3   81.97    4.35
   4   0  -3   74.85    4.12
   4   0  -3   81.07    4.53
  -4   0   3   78.82    4.81
   4   0  -2  212.24    7.69
   4   0  -2  219.18    7.34
   4   0  -2  225.22    7.91
  -4   0   2  208.52    8.61
   4   0  -1   44.76    3.29
   4   0  -1   45.82    2.97
   4   0  -1   45.37    3.21
  -4   0   1   36.42    3.52
   4   0   0   21.12    2.24
   4   0   0   22.13    1.96
   4   0   0   21.19    2.09
  -4   0   0   19.37    2.59
   4   0   1  165.01    6.69
   4   0   1  178.67    6.30
  -4   0  -1  162.78    8.08
   4   0   2   62.24    3.84
  -4   0  -2   62.08    4.97
  -4   0  -3   38.01    2.76
   4   0   3   42.07    3.05
  -4   0  -3   41.80    4.14
  -4   0  -4   20.29    2.05
   4   0   4   22.29    2.11
  -4   0  -4   23.35    3.17
  -4   0  -5   10.56    2.07
   4   0   5   11.74    1.44
   4   0   6   18.26    1.65
   4   0   6   18.76    1.72
  -4   0  -6   21.61    3.06
  -4   0  -7    1.48    0.60
   4   0   7    2.48    0.58
   4   0   7    1.59    0.46
   4   0   8   19.95    1.59
  -4   0  -8   20.16    2.46
   4   0   9   64.64    2.68
  -4   0  -9   65.71    3.91
  -4   0 -10   35.08    2.29
  -4  -1  14   68.48    3.03
   4   1 -13   25.88    1.61
  -4  -1  13   26.90    1.62
   4   1 -13   28.03    1.56
   4   1 -12   34.28    2.01
  -4  -1  12   36.07    2.37
   4   1 -12   36.53    2.02
   4   1 -11   22.23    1.68
  -4  -1  11   22.43    2.13
  -4  -1  10    7.55    1.43
   4   1 -10    5.03    0.86
  -4  -1  10    5.74    1.25
   4   1 -10    5.74    1.09
  -4  -1   9   17.42    2.08
   4   1  -9   15.93    1.50
  -4  -1   9   13.51    1.96
   4   1  -9   17.17    1.78
  -4  -1   8    0.27    0.52
   4   1  -8    1.40    0.44
   4   1  -8    1.16    0.53
  -4  -1   7    6.76    1.36
   4   1  -7    7.23    0.98
   4   1  -7    9.57    1.39
  -4  -1   6   32.41    2.96
   4   1  -6   37.18    2.42
   4   1  -6   33.22    2.59
  -4  -1   6   33.31    2.63
  -4  -1   5   90.30    4.96
   4   1  -5   88.78    4.09
   4   1  -5   90.18    4.38
  -4  -1   5   88.79    4.63
  -4  -1   4  167.23    6.86
   4   1  -4  166.15    6.13
   4   1  -4  163.01    6.04
  -4  -1   4  156.81    6.75
   4   1  -3  200.49    7.02
   4   1  -3  194.84    6.63
  -4  -1   3  190.40    7.84
  -4  -1   2    0.50    0.52
   4   1  -2    0.60    0.50
   4   1  -2    1.46    0.59
   4   1  -1   59.60    3.66
   4   1  -1   61.95    3.17
  -4  -1   1   55.79    4.41
  -4  -1   0  134.43    7.54
   4   1   0  127.01    5.55
  -4  -1   0  133.32    7.17
  -4  -1  -1   24.08    3.18
   4   1   1   26.90    2.37
  -4  -1  -1   23.02    3.02
  -4  -1  -2    0.82    0.61
  -4  -1  -2    0.54    0.78
   4   1   2    0.66    0.44
  -4  -1  -3    6.05    1.66
  -4  -1  -3    6.95    1.61
   4   1   3    8.24    1.21
  -4  -1  -4   27.03    3.14
   4   1   4   27.77    2.15
  -4  -1  -4   30.35    3.73
  -4  -1  -5   57.00    4.25
   4   1   5   49.41    2.76
  -4  -1  -5   54.05    5.36
   4   1   6   73.63    3.04
   4   1   6   63.70    3.22
  -4  -1  -6   71.41    5.99
   4   1   7   43.08    2.46
  -4  -1  -7   50.49    4.45
   4   1   8  120.20    4.12
  -4  -1  -8  136.08    6.60
   4   1   9   52.15    2.28
  -4  -1  -9   54.92    3.46
  -4  -2  14    1.31    0.48
   4   2 -13    2.78    0.50
   4   2 -13    3.31    0.57
   4   2 -12    0.62    0.29
  -4  -2  12    1.64    0.63
   4   2 -12    0.89    0.36
  -4  -2  11    0.38    0.36
   4   2 -11    0.67    0.37
  -4  -2  11    0.48    0.48
   4   2 -11    0.24    0.26
  -4  -2  10   64.16    3.99
   4   2 -10   63.54    2.79
  -4  -2  10   65.95    3.97
  -4  -2   9  171.26    7.12
  -4  -2   9  170.90    7.12
  -4  -2   8   56.90    3.95
   4   2  -8   60.27    2.86
   4   2  -8   55.98    3.27
  -4  -2   7   35.07    3.11
   4   2  -7   41.76    2.44
   4   2  -7   41.88    2.80
  -4  -2   6   63.29    4.26
   4   2  -6   69.81    3.73
  -4  -2   5   58.16    4.08
   4   2  -5   66.24    3.38
   4   2  -5   63.58    3.48
  -4  -2   5   57.95    3.60
  -4  -2   4  106.46    5.54
   4   2  -4  110.60    4.63
   4   2  -4  106.26    4.49
  -4  -2   4   97.09    5.05
  -4  -2   3    3.40    1.07
  -4  -2   3    5.00    1.22
   4   2  -3    4.76    0.95
   4   2  -3    4.59    0.82
  -4  -2   2    0.27    0.52
   4   2  -2    0.29    0.37
   4   2  -2    0.39    0.38
  -4  -2   1    1.51    0.94
  -4  -2   1    1.57    0.90
   4   2  -1    2.58    0.76
  -4  -2   0   61.61    5.29
   4   2   0   65.36    3.57
  -4  -2   0   60.02    4.70
  -4  -2  -1    9.27    1.92
  -4  -2  -1    9.53    2.12
   4   2   1    9.78    1.32
  -4  -2  -2  103.29    7.02
   4   2   2  102.60    4.35
  -4  -2  -2   90.13    6.24
   4   2   3  100.40    4.07
  -4  -2  -3   92.18    6.55
  -4  -2  -4   67.41    5.31
   4   2   4   61.49    2.93
  -4  -2  -5   54.56    4.25
   4   2   5   51.42    2.40
   4   2   5   45.59    2.70
  -4  -2  -5   43.32    5.24
   4   2   6   26.92    1.96
  -4  -2  -6   25.05    3.47
   4   2   7   19.46    1.55
  -4  -2  -7   22.37    2.88
  -4  -2  -8    0.70    0.43
   4   2   8    0.90    0.41
  -4  -2  -9    0.54    0.37
   4   3 -13   37.90    1.85
  -4  -3  12   59.45    3.41
   4   3 -12   58.73    2.58
  -4  -3  11   55.82    3.52
  -4  -3  11   54.79    3.12
   4   3 -11   51.71    2.55
  -4  -3  10   48.16    3.44
  -4  -3  10   49.55    3.30
   4   3 -10   48.00    2.52
  -4  -3   9    4.24    1.07
   4   3  -9    3.97    0.72
  -4  -3   8   96.94    5.33
   4   3  -8  106.13    4.01
  -4  -3   7   35.22    3.17
   4   3  -7   42.29    2.45
  -4  -3   6    7.57    1.50
   4   3  -6    6.03    0.96
   4   3  -6    6.42    1.08
  -4  -3   5    2.03    0.89
   4   3  -5    2.38    0.58
   4   3  -5    2.20    0.57
  -4  -3   4   11.81    1.85
   4   3  -4    9.06    1.22
   4   3  -4   10.20    1.24
  -4  -3   3   45.19    3.65
   4   3  -3   46.07    2.77
   4   3  -3   50.54    2.72
  -4  -3   3   38.51    3.11
  -4  -3   2   29.45    2.95
  -4  -3   2   25.91    3.40
   4   3  -2   32.08    2.31
  -4  -3   2   27.39    2.79
  -4  -3   1  114.75    7.33
   4   3  -1  121.43    4.68
  -4  -3   1  115.25    6.14
  -4  -3   0   66.49    5.64
   4   3   0   74.35    3.56
  -4  -3   0   66.35    4.75
  -4  -3  -1   45.98    4.84
   4   3   1   43.00    2.57
  -4  -3  -1   36.65    3.64
  -4  -3  -2  126.41    8.33
   4   3   2  125.18    4.38
  -4  -3  -2  110.33    6.81
  -4  -3  -3   37.54    4.53
   4   3   3   30.49    1.90
  -4  -3  -3   29.94    3.65
  -4  -3  -4    0.09    0.84
   4   3   4    0.99    0.32
  -4  -3  -5    5.43    1.56
  -4  -3  -5    9.05    1.75
   4   3   5    9.02    1.15
  -4  -3  -6    4.09    1.43
   4   3   6    4.09    0.75
   4   3   7   12.04    1.10
  -4  -3  -7   12.50    1.90
  -4  -3  -8    4.03    0.92
   4   4 -13   59.60    2.32
  -4  -4  12   20.69    1.92
   4   4 -12   20.18    1.40
  -4  -4  11    0.07    0.54
  -4  -4  11    0.59    0.46
   4   4 -11    0.23    0.21
  -4  -4  10   34.31    2.83
   4   4 -10   31.13    1.85
  -4  -4  10   34.46    2.53
   4   4 -10   36.72    2.09
  -4  -4   9    9.35    1.55
   4   4  -9    9.98    1.14
   4   4  -9    8.38    1.02
  -4  -4   8   40.20    3.31
   4   4  -8   41.73    2.38
   4   4  -8   37.68    2.19
  -4  -4   7   89.54    5.17
   4   4  -7   96.57    3.81
   4   4  -7   84.42    3.42
  -4  -4   6   52.38    3.92
   4   4  -6   57.77    2.89
   4   4  -6   51.77    2.54
  -4  -4   5  101.15    5.66
   4   4  -5  111.48    4.21
   4   4  -5   99.76    3.62
  -4  -4   4   52.19    4.03
   4   4  -4   52.03    2.80
   4   4  -4   47.00    2.27
  -4  -4   3   82.47    5.19
   4   4  -3   80.24    3.53
  -4  -4   2   40.53    3.69
  -4  -4   2   34.29    3.86
   4   4  -2   36.63    2.31
  -4  -4   1   20.16    2.66
  -4  -4   1   15.79    2.76
   4   4  -1   18.21    1.58
  -4  -4   1   16.42    2.04
  -4  -4   0   -0.62    0.54
  -4  -4   0   -0.28    0.89
   4   4   0   -0.09    0.25
  -4  -4  -1    4.64    1.29
  -4  -4  -1    3.74    1.57
   4   4   1    4.44    0.72
   4   4   1    2.91    0.79
  -4  -4  -2   10.04    1.82
  -4  -4  -2    7.28    1.94
   4   4   2   12.32    1.12
   4   4   2    9.77    1.38
  -4  -4  -3    0.91    0.77
  -4  -4  -3    0.83    0.93
   4   4   3    0.89    0.25
   4   4   3   -0.10    0.57
   4   4   4  110.43    4.49
  -4  -4  -4  107.20    6.35
  -4  -4  -5   44.84    3.55
   4   4   5   34.93    2.06
  -4  -4  -5   38.66    3.60
   4   4   6   32.46    1.81
  -4  -4  -6   38.34    3.18
  -4  -4  -7   86.54    4.11
  -4  -5  12   44.48    2.67
   4   5 -12   42.00    1.93
  -4  -5  11   33.88    2.53
   4   5 -11   31.04    1.74
  -4  -5  10   13.78    1.75
   4   5 -10   10.49    1.04
   4   5 -10   12.58    1.12
  -4  -5   9   45.12    3.29
   4   5  -9   39.20    2.21
   4   5  -9   41.32    2.12
  -4  -5   8  130.58    6.05
   4   5  -8  128.74    4.42
   4   5  -8  128.93    4.10
  -4  -5   7   31.40    2.92
   4   5  -7   32.63    2.08
   4   5  -7   31.52    1.84
   4   5  -6   13.16    1.31
   4   5  -6   12.74    1.12
  -4  -5   5   37.19    3.36
   4   5  -5   39.32    2.28
   4   5  -5   36.22    1.86
  -4  -5   4    0.29    0.49
   4   5  -4   -0.25    0.26
   4   5  -4    0.19    0.34
  -4  -5   3    2.88    1.12
   4   5  -3    3.23    0.66
   4   5  -3    2.62    0.78
  -4  -5   2    5.75    1.47
  -4  -5   2    6.14    1.73
   4   5  -2    6.45    0.86
   4   5  -2    5.31    1.05
  -4  -5   1   11.06    2.14
  -4  -5   1   10.41    2.25
   4   5  -1   10.92    1.10
   4   5  -1   10.60    1.41
  -4  -5   0    9.89    2.23
   4   5   0    7.70    0.90
   4   5   0    6.47    1.11
  -4  -5  -1    9.97    2.23
   4   5   1   13.26    1.09
   4   5   1   12.67    1.50
  -4  -5  -1   12.49    1.73
  -4  -5  -2   73.65    6.11
   4   5   2   87.89    2.83
   4   5   2   73.14    3.62
  -4  -5  -2   74.94    4.31
  -4  -5  -3  152.55    8.07
   4   5   3  135.82    4.88
  -4  -5  -3  137.00    6.05
  -4  -5  -4   40.47    3.56
   4   5   4   37.22    2.16
  -4  -5  -4   38.11    2.98
  -4  -5  -5    2.40    0.89
  -4  -5  -5   -0.40    0.67
  -4  -6  12   43.70    2.35
  -4  -6  11   19.90    1.76
   4   6 -11   18.40    1.19
  -4  -6  10    3.30    0.82
   4   6 -10    2.80    0.48
   4   6  -9   27.53    1.72
   4   6  -9   31.79    1.66
  -4  -6   8    8.27    1.40
   4   6  -8    6.43    0.90
   4   6  -8    7.33    0.78
  -4  -6   7    3.96    1.08
   4   6  -7    3.66    0.67
   4   6  -7    4.04    0.57
  -4  -6   6   67.01    4.22
   4   6  -6   69.14    3.03
  -4  -6   5   47.19    3.63
   4   6  -5   47.85    2.45
  -4  -6   4  169.87    7.29
   4   6  -4  162.91    4.89
   4   6  -4  155.71    5.62
  -4  -6   3   55.07    4.09
   4   6  -3   54.70    2.52
   4   6  -3   47.87    2.92
  -4  -6   2   85.31    5.29
  -4  -6   2   80.89    5.23
   4   6  -2   81.99    3.09
   4   6  -2   70.69    3.59
  -4  -6   1    8.11    1.72
   4   6  -1   10.38    0.98
   4   6  -1    8.41    1.20
  -4  -6   0   42.23    3.93
   4   6   0   40.71    1.88
   4   6   0   35.14    2.36
  -4  -6  -1   28.64    3.25
   4   6   1   32.36    1.54
   4   6   1   27.29    1.99
  -4  -6  -2    0.22    0.55
   4   6   2    1.14    0.45
  -4  -6  -3    1.97    0.78
   4   6   3    2.06    0.55
  -4  -6  -4    3.07    0.77
  -4  -7  10    1.39    0.55
  -4  -7   9    2.63    0.76
  -4  -7   8    9.21    1.27
   4   7  -8    7.89    0.87
  -4  -7   7  161.77    6.05
   4   7  -7  147.57    4.45
  -4  -7   6   37.95    2.85
   4   7  -6   36.11    1.97
  -4  -7   5   -0.46    0.66
   4   7  -5    0.29    0.22
  -4  -7   4   92.86    4.78
   4   7  -4   88.07    3.18
   4   7  -3   51.22    2.26
   4   7  -3   48.03    2.66
  -4  -7   2    3.83    1.06
   4   7  -2    4.45    0.61
   4   7  -2    2.81    0.61
  -4  -7   1    0.00    0.48
   4   7  -1    0.84    0.24
   4   7  -1    0.74    0.38
  -4  -7   0    0.53    0.79
   4   7   0   -0.23    0.35
  -4  -7  -1    0.51    0.53
   4   7   1   -0.18    0.22
  -4  -7  -2    0.54    0.48
  -4  -8   7    0.74    0.41
  -4  -8   6    2.88    0.68
   4   8  -6    0.64    0.23
  -4  -8   5  242.24    6.83
   4   8  -5  185.38    4.73
  -4  -8   4   28.56    2.14
   4   8  -4   22.37    1.26
   4   8  -3   78.76    2.44
   5  -6  -3    8.86    0.87
   5  -6  -2   53.54    2.43
   5  -6  -1   41.66    2.27
  -5   6   1   45.61    2.36
   5  -6   0   61.19    2.94
  -5   6   0   69.14    2.88
   5  -5  -5   49.84    2.12
   5  -5  -4    4.76    0.69
   5  -5  -3   95.28    3.60
  -5   5   3   97.20    3.88
   5  -5  -2   52.53    2.69
  -5   5   2   56.26    2.84
   5  -5  -1   11.67    1.28
  -5   5   1   12.55    1.27
  -5   5   0    0.42    0.28
   5  -5   0    0.74    0.41
  -5   5  -1    0.88    0.29
   5  -5   1    1.56    0.41
   5  -5   2    7.42    0.92
  -5   5  -2   12.41    1.13
   5  -5   3    0.41    0.37
   5  -5   4   31.68    1.84
   5  -4  -6   27.97    1.59
   5  -4  -5   46.87    2.29
   5  -4  -4   14.07    1.29
  -5   4   4   15.74    1.54
   5  -4  -3   63.99    2.98
  -5   4   3   63.01    3.12
  -5   4   2    0.53    0.38
   5  -4  -2    0.25    0.29
   5  -4  -1   22.38    1.40
   5  -4  -1   27.05    1.89
  -5   4   1   29.33    2.01
  -5   4   0    4.83    0.80
   5  -4   0    4.81    0.73
   5  -4   1   37.57    2.20
  -5   4  -1   56.59    2.74
   5  -4   2  127.70    4.66
  -5   4  -2  185.88    5.22
   5  -4   3    8.37    1.05
  -5   4  -3   10.46    1.10
   5  -4   4   17.14    1.33
  -5   4  -4   20.20    1.39
  -5   3   7   89.26    3.12
   5  -3  -7   93.77    3.11
  -5   3   6    5.94    0.84
   5  -3  -6    5.13    0.75
  -5   3   5   63.79    2.88
   5  -3  -5   62.06    2.78
  -5   3   5   59.52    3.06
  -5   3   4    3.41    0.75
  -5   3   4    2.61    0.58
   5  -3  -4    2.81    0.59
  -5   3   3   14.12    1.34
   5  -3  -3   14.32    1.33
  -5   3   3   13.90    1.41
   5  -3  -2   60.56    2.82
  -5   3   2   61.78    3.08
   5  -3  -1  108.99    3.77
  -5   3   1  119.47    4.43
   5  -3   0   26.16    1.80
  -5   3   0   32.92    2.22
   5  -3   1   28.44    1.91
  -5   3  -1   32.60    2.22
   5  -3   2   39.09    2.31
  -5   3  -2   44.07    2.54
  -5   3  -3    5.21    0.84
   5  -3   3    5.75    0.83
  -5   3  -4    1.79    0.48
   5  -3   4    2.06    0.45
   5  -3   5    3.64    0.51
  -5   2   8   38.48    1.94
  -5   2   7  190.10    5.53
   5  -2  -7  197.69    5.21
  -5   2   6    0.62    0.45
  -5   2   6    1.70    0.59
   5  -2  -6    1.48    0.40
  -5   2   5    2.90    0.66
  -5   2   5    3.26    0.76
   5  -2  -5    3.94    0.70
  -5   2   4   93.27    4.00
   5  -2  -4   88.05    3.45
   5  -2  -3   50.00    2.15
  -5   2   3   56.31    3.04
   5  -2  -3   54.90    2.58
  -5   2   3   58.38    3.00
   5  -2  -2   36.45    1.99
  -5   2   2   42.64    2.58
   5  -2  -2   40.78    2.12
  -5   2   2   40.16    2.51
   5  -2  -1   18.25    1.46
  -5   2   1   20.95    1.81
  -5   2   0    0.08    0.33
   5  -2   0    0.35    0.28
   5  -2   1   33.34    2.07
  -5   2  -1   35.54    2.45
   5  -2   2   13.61    1.27
  -5   2  -2   15.75    1.61
   5  -2   3   83.30    3.13
  -5   2  -3   86.17    3.84
   5  -2   4   14.57    1.08
  -5   2  -4   15.66    1.47
  -5   1   8   37.74    2.10
  -5   1   7    1.38    0.47
   5  -1  -7    1.66    0.39
  -5   1   6   48.73    2.83
   5  -1  -6   50.96    2.39
  -5   1   6   46.67    2.51
  -5   1   5   58.07    3.20
   5  -1  -5   54.41    2.51
  -5   1   5   55.85    2.79
  -5   1   4   -0.07    0.38
   5  -1  -4    0.13    0.22
  -5   1   4   -0.48    0.54
   5  -1  -4    0.57    0.29
  -5   1   3    0.91    0.39
   5  -1  -3    0.46    0.24
  -5   1   3    0.59    0.51
   5  -1  -3    0.12    0.30
   5  -1  -2    8.36    0.92
  -5   1   2    9.94    1.31
  -5   1   2   10.26    1.26
   5  -1  -1   10.40    1.06
  -5   1   1   10.77    1.38
  -5   1   1   11.77    1.40
   5  -1   0   23.64    1.63
  -5   1   0   25.33    2.06
   5  -1   1   29.39    1.82
  -5   1  -1   30.74    2.35
   5  -1   2  146.88    4.39
  -5   1  -2  148.42    5.59
   5  -1   3  169.89    4.50
  -5   1  -3  178.76    6.23
  -5   1  -4    3.08    0.75
   5  -1   4    3.54    0.48
  -5   0   8    5.63    0.88
  -5   0   7   12.55    1.38
  -5   0   6    1.50    0.60
   5   0  -5   35.90    1.63
  -5   0   5   36.41    2.56
   5   0  -5   39.77    1.99
  -5   0   5   36.76    2.11
   5   0  -4   38.17    1.82
  -5   0   4   39.59    2.72
   5   0  -4   41.83    2.01
  -5   0   4   40.01    2.26
   5   0  -3   16.23    1.21
  -5   0   3   15.90    1.77
  -5   0   3   16.31    1.49
   5   0  -2   22.87    1.50
  -5   0   2   27.55    2.01
   5   0  -1   19.27    1.39
  -5   0   1   20.82    1.81
   5   0   0   36.86    1.92
  -5   0   0   34.06    2.40
   5   0   1   29.59    1.65
  -5   0  -1   29.02    2.30
   5   0   2   35.73    1.72
  -5   0  -2   32.83    2.56
  -5   0  -3    4.48    1.01
   5   0   3    5.96    0.62
  -5   0  -4    0.90    0.40
  -5  -1   8   63.00    2.83
   5   1  -8   59.08    2.06
  -5  -1   7   24.03    1.87
   5   1  -7   21.00    1.18
  -5  -1   6   56.40    3.12
   5   1  -5   56.30    2.14
  -5  -1   5   53.05    3.14
   5   1  -4    0.19    0.16
  -5  -1   4    0.52    0.41
   5   1  -3   33.83    1.74
  -5  -1   3   35.49    2.03
   5   1  -2   29.36    1.62
  -5  -1   2   27.51    1.87
  -5  -1   1    2.46    0.64
   5   1  -1    1.49    0.38
  -5  -1   0    2.80    0.67
   5   1   0    1.39    0.32
  -5  -1  -1    6.03    1.02
   5   1   1    5.95    0.64
  -5  -1  -2    8.04    1.18
   5   1   2    9.95    0.76
  -5  -1  -3   30.95    2.29
  -5  -2   7   20.66    1.66
  -5  -2   6   13.72    1.48
   5   2  -5   18.42    1.15
  -5  -2   5   20.63    1.86
   5   2  -4    0.59    0.24
   5   2  -3   54.33    2.12
   5   2  -2   22.33    1.29
   5   2  -1    0.59    0.20
   5   2   0   52.54    1.94
   5   2   1   40.43    1.57
  -5  -3   6    8.01    1.05
   5   3  -5   33.67    1.51
  -5  -3   5   35.57    2.31
   5   3  -4   80.08    2.53
   5   3  -3    2.22    0.39
   5   3  -2    9.08    0.75
   5   3  -1   49.31    1.77
   0   0   0    0.00    0.00
TITL mb_c_abs in P-1
REM P-1 (#2 in standard setting)
CELL 1.54184   4.298478  11.635348  15.588835 103.7881  95.5145  96.1948
ZERR    2.00   0.000116   0.000324   0.000358   0.0022   0.0020   0.0023
LATT  1
SFAC C H N O Br
UNIT 36.00 26.00 4.00 4.00 2.00
TREF
HKLF 4
END
_computing_structure_solution     'SHELXT 2014/5 (Sheldrick, 2014)'
;
_shelx_hkl_checksum              1694
_shelx_res_file
;
    mb_c_abs.res created by SHELXL-2014/7
TITL mb_c_abs_a.res in P-1
REM Old TITL mb_c_abs in P-1 #2
REM SHELXT solution in P-1
REM R1 0.093, Rweak 0.010, Alpha 0.065, Orientation as input
REM Formula found by SHELXT: C18 N2 O2 Br
CELL 1.54184 4.298478 11.635348 15.588835 103.7881 95.5145 96.1948
ZERR 2 0.000116 0.000324 0.000358 0.0022 0.002 0.0023
LATT 1
SFAC C H N O Br
UNIT 36 26 4 4 2
L.S. 4 0 0
PLAN  20
BOND $H
LIST 4
MORE -1
CONF
fmap 2 53
acta
REM <olex2.extras>
REM <HklSrc "%.\\mb_c_abs.hkl">
REM </olex2.extras>
WGHT    0.039000    0.370200
EXTI    0.001842
FVAR       0.50418
BR1   5    0.615885    0.184386    0.046828    11.00000    0.03126    0.02289 =
         0.01153    0.00496    0.00226    0.00980
O1    4    0.579303    0.361281    0.395980    11.00000    0.03201    0.02285 =
         0.01233    0.00332    0.00278    0.01021
O2    4    1.351732   -0.048500    0.362405    11.00000    0.04138    0.02677 =
         0.02142    0.00623    0.00125    0.01897
N2    3    0.568880    0.299174    0.243999    11.00000    0.01971    0.01587 =
         0.01157    0.00416    0.00309    0.00686
AFIX  43
H2    2    0.494901    0.314934    0.195467    11.00000   -1.20000
AFIX   0
N1    3    0.202125    0.458767    0.220550    11.00000    0.01812    0.01410 =
         0.01489    0.00340    0.00487    0.00265
C11   1    0.745730    0.204172    0.234333    11.00000    0.01585    0.01328 =
         0.01450    0.00386    0.00361    0.00186
C1    1    0.498796    0.370116    0.320824    11.00000    0.01720    0.01554 =
         0.01552    0.00317    0.00385    0.00158
C6    1    0.025971    0.543679    0.203896    11.00000    0.01625    0.01376 =
         0.01892    0.00464    0.00629    0.00311
C15   1    1.058834    0.073762    0.294887    11.00000    0.01711    0.01645 =
         0.01550    0.00531    0.00273    0.00190
C12   1    0.787236    0.139766    0.148955    11.00000    0.01935    0.01806 =
         0.01128    0.00491    0.00184    0.00223
C2    1    0.304543    0.464751    0.304265    11.00000    0.01785    0.01382 =
         0.01562    0.00294    0.00555    0.00260
C16   1    0.888171    0.169833    0.306945    11.00000    0.01853    0.01661 =
         0.01258    0.00357    0.00380    0.00281
AFIX  43
H16   2    0.868303    0.212094    0.364391    11.00000   -1.20000
AFIX   0
C13   1    0.953698    0.042076    0.136409    11.00000    0.02376    0.01730 =
         0.01379    0.00068    0.00505    0.00471
AFIX  43
H13   2    0.974209   -0.000581    0.079124    11.00000   -1.20000
AFIX   0
C3    1    0.245104    0.553390    0.377987    11.00000    0.02500    0.02112 =
         0.01384    0.00169    0.00408    0.00437
AFIX  43
H3    2    0.320151    0.552819    0.435841    11.00000   -1.20000
AFIX   0
C14   1    1.088047    0.008737    0.209121    11.00000    0.02115    0.01477 =
         0.01960    0.00329    0.00444    0.00544
AFIX  43
H14   2    1.197802   -0.056894    0.201020    11.00000   -1.20000
AFIX   0
C18   1    1.212124    0.118788    0.464694    11.00000    0.02998    0.02232 =
         0.01561    0.00704    0.00259    0.00902
AFIX 137
H18A  2    0.998284    0.117418    0.477824    11.00000   -1.50000
H18B  2    1.298514    0.199076    0.466552    11.00000   -1.50000
H18C  2    1.335280    0.090295    0.507993    11.00000   -1.50000
AFIX   0
C17   1    1.218855    0.039752    0.373341    11.00000    0.02111    0.01958 =
         0.01767    0.00739    0.00399    0.00525
C7    1   -0.091862    0.537253    0.114813    11.00000    0.02339    0.01697 =
         0.01763    0.00376    0.00545    0.00590
AFIX  43
H7    2   -0.050932    0.475183    0.069196    11.00000   -1.20000
AFIX   0
C8    1   -0.265390    0.621447    0.095136    11.00000    0.02605    0.02324 =
         0.02287    0.00980    0.00284    0.00688
AFIX  43
H8    2   -0.339800    0.616910    0.036238    11.00000   -1.20000
AFIX   0
C9    1   -0.332223    0.715492    0.164068    11.00000    0.02378    0.01812 =
         0.03358    0.00957    0.00507    0.00860
AFIX  43
H9    2   -0.450904    0.772334    0.150129    11.00000   -1.20000
AFIX   0
C4    1    0.074363    0.639729    0.361640    11.00000    0.02703    0.01802 =
         0.01905   -0.00228    0.00676    0.00625
AFIX  43
H4    2    0.034435    0.700005    0.408725    11.00000   -1.20000
AFIX   0
C10   1   -0.224234    0.723607    0.250811    11.00000    0.02346    0.01345 =
         0.02905    0.00148    0.00846    0.00601
AFIX  43
H10   2   -0.270326    0.785774    0.295492    11.00000   -1.20000
AFIX   0
C5    1   -0.042165    0.637909    0.273337    11.00000    0.01830    0.01395 =
         0.02149    0.00260    0.00712    0.00271
HKLF 4
REM  mb_c_abs_a.res in P-1
REM R1 =  0.0238 for    2870 Fo > 4sig(Fo)  and  0.0245 for all    2966 data
REM    210 parameters refined using      0 restraints
END
WGHT      0.0390      0.3702
REM Highest difference peak  0.478,  deepest hole -0.653,  1-sigma level  0.065
Q1    1   0.5011  0.1800 -0.0051  11.00000  0.05    0.48
Q2    1   0.7246  0.1849  0.1033  11.00000  0.05    0.46
Q3    1   1.1486  0.0627  0.3356  11.00000  0.05    0.33
Q4    1   0.3591  0.1347  0.0123  11.00000  0.05    0.31
Q5    1   0.8652  0.0854  0.1446  11.00000  0.05    0.31
Q6    1   0.8377  0.1967  0.2762  11.00000  0.05    0.30
Q7    1   0.6768  0.2565  0.2422  11.00000  0.05    0.29
Q8    1  -0.0345  0.5808  0.2368  11.00000  0.05    0.29
Q9    1   0.4643  0.2239  0.0679  11.00000  0.05    0.29
Q10   1  -0.0008  0.6388  0.3184  11.00000  0.05    0.28
Q11   1   0.4117  0.4176  0.3071  11.00000  0.05    0.28
Q12   1   0.7575  0.1810  0.1957  11.00000  0.05    0.27
Q13   1   0.0082  0.5552  0.1663  11.00000  0.05    0.27
Q14   1  -0.1855  0.5808  0.1036  11.00000  0.05    0.26
Q15   1   0.2385  0.4621  0.2647  11.00000  0.05    0.26
Q16   1  -0.2704  0.6645  0.1360  11.00000  0.05    0.25
Q17   1   0.8027  0.2404  0.0605  11.00000  0.05    0.25
Q18   1   1.0407  0.0439  0.2532  11.00000  0.05    0.24
Q19   1   0.9137  0.2192  0.0865  11.00000  0.05    0.24
Q20   1   0.2601  0.5077  0.3351  11.00000  0.05    0.24
;
_shelx_res_checksum              13404
loop_
_space_group_symop_operation_xyz
'x, y, z'
'-x, -y, -z'
loop_
_atom_site_type_symbol
_atom_site_label
_atom_site_fract_x
_atom_site_fract_y
_atom_site_fract_z
_atom_site_U_iso_or_equiv
_atom_site_adp_type
_atom_site_calc_flag
_atom_site_occupancy
Br Br1 0.61589(4) 0.18439(2) 0.04683(2) 0.02135(9) Uani d 1
O O1 0.5793(3) 0.36128(11) 0.39598(8) 0.0221(3) Uani d 1
O O2 1.3517(3) -0.04850(12) 0.36241(9) 0.0289(3) Uani d 1
N N2 0.5689(3) 0.29917(12) 0.24400(9) 0.0152(3) Uani d 1
H H2 0.4949 0.3149 0.1955 0.018 Uiso calc 1
N N1 0.2021(3) 0.45877(12) 0.22055(9) 0.0155(3) Uani d 1
C C11 0.7457(4) 0.20417(15) 0.23433(11) 0.0144(3) Uani d 1
C C1 0.4988(4) 0.37012(15) 0.32082(11) 0.0161(3) Uani d 1
C C6 0.0260(4) 0.54368(15) 0.20390(11) 0.0159(3) Uani d 1
C C15 1.0588(4) 0.07376(15) 0.29489(11) 0.0161(3) Uani d 1
C C12 0.7872(4) 0.13977(15) 0.14896(11) 0.0161(3) Uani d 1
C C2 0.3045(4) 0.46475(15) 0.30427(11) 0.0156(3) Uani d 1
C C16 0.8882(4) 0.16983(15) 0.30694(11) 0.0158(3) Uani d 1
H H16 0.8683 0.2121 0.3644 0.019 Uiso calc 1
C C13 0.9537(4) 0.04208(16) 0.13641(11) 0.0185(3) Uani d 1
H H13 0.9742 -0.0006 0.0791 0.022 Uiso calc 1
C C3 0.2451(4) 0.55339(16) 0.37799(11) 0.0202(4) Uani d 1
H H3 0.3202 0.5528 0.4358 0.024 Uiso calc 1
C C14 1.0880(4) 0.00874(16) 0.20912(11) 0.0183(3) Uani d 1
H H14 1.1978 -0.0569 0.2010 0.022 Uiso calc 1
C C18 1.2121(4) 0.11879(17) 0.46469(11) 0.0219(4) Uani d 1
H H18A 0.9983 0.1174 0.4778 0.033 Uiso calc 1
H H18B 1.2985 0.1991 0.4666 0.033 Uiso calc 1
H H18C 1.3353 0.0903 0.5080 0.033 Uiso calc 1
C C17 1.2189(4) 0.03975(16) 0.37334(11) 0.0187(3) Uani d 1
C C7 -0.0919(4) 0.53725(16) 0.11481(11) 0.0190(3) Uani d 1
H H7 -0.0509 0.4752 0.0692 0.023 Uiso calc 1
C C8 -0.2654(4) 0.62145(17) 0.09514(12) 0.0231(4) Uani d 1
H H8 -0.3398 0.6169 0.0362 0.028 Uiso calc 1
C C9 -0.3322(4) 0.71549(17) 0.16407(13) 0.0241(4) Uani d 1
H H9 -0.4509 0.7723 0.1501 0.029 Uiso calc 1
C C4 0.0744(4) 0.63973(16) 0.36164(12) 0.0221(4) Uani d 1
H H4 0.0344 0.7000 0.4087 0.026 Uiso calc 1
C C10 -0.2242(4) 0.72361(16) 0.25081(13) 0.0220(4) Uani d 1
H H10 -0.2703 0.7858 0.2955 0.026 Uiso calc 1
C C5 -0.0422(4) 0.63791(15) 0.27334(12) 0.0179(3) Uani d 1
loop_
_atom_site_aniso_label
_atom_site_aniso_U_11
_atom_site_aniso_U_22
_atom_site_aniso_U_33
_atom_site_aniso_U_12
_atom_site_aniso_U_13
_atom_site_aniso_U_23
Br1 0.03126(13) 0.02289(13) 0.01153(11) 0.00980(8) 0.00226(7) 0.00496(8)
O1 0.0320(7) 0.0228(7) 0.0123(6) 0.0102(5) 0.0028(5) 0.0033(5)
O2 0.0414(8) 0.0268(7) 0.0214(6) 0.0190(6) 0.0013(6) 0.0062(5)
N2 0.0197(7) 0.0159(7) 0.0116(6) 0.0069(5) 0.0031(5) 0.0042(5)
N1 0.0181(6) 0.0141(7) 0.0149(6) 0.0026(5) 0.0049(5) 0.0034(5)
C11 0.0159(7) 0.0133(8) 0.0145(7) 0.0019(6) 0.0036(6) 0.0039(6)
C1 0.0172(7) 0.0155(8) 0.0155(8) 0.0016(6) 0.0039(6) 0.0032(6)
C6 0.0162(7) 0.0138(8) 0.0189(8) 0.0031(6) 0.0063(6) 0.0046(6)
C15 0.0171(7) 0.0164(8) 0.0155(8) 0.0019(6) 0.0027(6) 0.0053(6)
C12 0.0194(8) 0.0181(8) 0.0113(7) 0.0022(6) 0.0018(6) 0.0049(6)
C2 0.0179(7) 0.0138(8) 0.0156(8) 0.0026(6) 0.0056(6) 0.0029(6)
C16 0.0185(7) 0.0166(8) 0.0126(7) 0.0028(6) 0.0038(6) 0.0036(6)
C13 0.0238(8) 0.0173(9) 0.0138(8) 0.0047(7) 0.0050(6) 0.0007(6)
C3 0.0250(8) 0.0211(9) 0.0138(8) 0.0044(7) 0.0041(6) 0.0017(7)
C14 0.0212(8) 0.0148(8) 0.0196(8) 0.0054(6) 0.0044(7) 0.0033(7)
C18 0.0300(9) 0.0223(9) 0.0156(8) 0.0090(7) 0.0026(7) 0.0070(7)
C17 0.0211(8) 0.0196(9) 0.0177(8) 0.0052(7) 0.0040(6) 0.0074(7)
C7 0.0234(8) 0.0170(9) 0.0176(8) 0.0059(7) 0.0055(7) 0.0038(7)
C8 0.0261(9) 0.0232(10) 0.0229(9) 0.0069(7) 0.0028(7) 0.0098(7)
C9 0.0238(9) 0.0181(9) 0.0336(10) 0.0086(7) 0.0051(7) 0.0096(8)
C4 0.0270(9) 0.0180(9) 0.0191(8) 0.0062(7) 0.0068(7) -0.0023(7)
C10 0.0235(8) 0.0135(8) 0.0291(9) 0.0060(7) 0.0085(7) 0.0015(7)
C5 0.0183(8) 0.0139(8) 0.0215(8) 0.0027(6) 0.0071(6) 0.0026(7)
loop_
_atom_type_symbol
_atom_type_description
_atom_type_scat_dispersion_real
_atom_type_scat_dispersion_imag
_atom_type_scat_source
C C 0.0181 0.0091 'International Tables Vol C Tables 4.2.6.8 and 6.1.1.4'
H H 0.0000 0.0000 'International Tables Vol C Tables 4.2.6.8 and 6.1.1.4'
N N 0.0311 0.0180 'International Tables Vol C Tables 4.2.6.8 and 6.1.1.4'
O O 0.0492 0.0322 'International Tables Vol C Tables 4.2.6.8 and 6.1.1.4'
Br Br -0.6763 1.2805 'International Tables Vol C Tables 4.2.6.8 and 6.1.1.4'
loop_
_exptl_crystal_face_index_h
_exptl_crystal_face_index_k
_exptl_crystal_face_index_l
_exptl_crystal_face_perp_dist
0 0 10 0.0306
-2 -4 1 0.2183
2 4 -1 0.2148
0 -7 0 0.0482
0 7 0 0.0368
0 0 -10 0.0306
loop_
_geom_angle_atom_site_label_1
_geom_angle_atom_site_label_2
_geom_angle_atom_site_label_3
_geom_angle
C11 N2 H2 116.0
C1 N2 H2 116.0
C1 N2 C11 128.05(14)
C2 N1 C6 117.86(14)
N2 C11 C12 119.73(14)
N2 C11 C16 122.69(14)
C16 C11 C12 117.58(15)
O1 C1 N2 125.78(16)
O1 C1 C2 121.70(15)
N2 C1 C2 112.53(14)
N1 C6 C7 118.71(15)
N1 C6 C5 122.01(15)
C7 C6 C5 119.28(16)
C16 C15 C14 120.08(15)
C16 C15 C17 120.76(15)
C14 C15 C17 119.14(15)
C11 C12 Br1 120.33(13)
C13 C12 Br1 118.19(12)
C13 C12 C11 121.48(15)
N1 C2 C1 116.81(14)
N1 C2 C3 124.47(16)
C3 C2 C1 118.73(15)
C11 C16 H16 119.4
C15 C16 C11 121.17(15)
C15 C16 H16 119.4
C12 C13 H13 120.1
C14 C13 C12 119.84(15)
C14 C13 H13 120.1
C2 C3 H3 121.0
C4 C3 C2 117.93(16)
C4 C3 H3 121.0
C15 C14 H14 120.1
C13 C14 C15 119.79(16)
C13 C14 H14 120.1
H18A C18 H18B 109.5
H18A C18 H18C 109.5
H18B C18 H18C 109.5
C17 C18 H18A 109.5
C17 C18 H18B 109.5
C17 C18 H18C 109.5
O2 C17 C15 120.30(16)
O2 C17 C18 121.59(16)
C15 C17 C18 118.10(15)
C6 C7 H7 119.7
C8 C7 C6 120.57(16)
C8 C7 H7 119.7
C7 C8 H8 119.9
C7 C8 C9 120.21(17)
C9 C8 H8 119.9
C8 C9 H9 119.7
C10 C9 C8 120.64(17)
C10 C9 H9 119.7
C3 C4 H4 119.9
C3 C4 C5 120.19(16)
C5 C4 H4 119.9
C9 C10 H10 119.8
C9 C10 C5 120.48(16)
C5 C10 H10 119.8
C4 C5 C6 117.53(16)
C4 C5 C10 123.66(16)
C10 C5 C6 118.80(16)
loop_
_geom_bond_atom_site_label_1
_geom_bond_atom_site_label_2
_geom_bond_distance
Br1 C12 1.8968(16)
O1 C1 1.221(2)
O2 C17 1.213(2)
N2 H2 0.8600
N2 C11 1.395(2)
N2 C1 1.363(2)
N1 C6 1.365(2)
N1 C2 1.320(2)
C11 C12 1.401(2)
C11 C16 1.397(2)
C1 C2 1.506(2)
C6 C7 1.413(2)
C6 C5 1.423(2)
C15 C16 1.388(2)
C15 C14 1.395(2)
C15 C17 1.501(2)
C12 C13 1.392(2)
C2 C3 1.414(2)
C16 H16 0.9300
C13 H13 0.9300
C13 C14 1.379(2)
C3 H3 0.9300
C3 C4 1.363(3)
C14 H14 0.9300
C18 H18A 0.9600
C18 H18B 0.9600
C18 H18C 0.9600
C18 C17 1.505(2)
C7 H7 0.9300
C7 C8 1.366(3)
C8 H8 0.9300
C8 C9 1.415(3)
C9 H9 0.9300
C9 C10 1.365(3)
C4 H4 0.9300
C4 C5 1.413(3)
C10 H10 0.9300
C10 C5 1.419(3)
loop_
_geom_hbond_atom_site_label_D
_geom_hbond_atom_site_label_H
_geom_hbond_atom_site_label_A
_geom_hbond_site_symmetry_A
_geom_hbond_distance_DH
_geom_hbond_distance_HA
_geom_hbond_distance_DA
_geom_hbond_angle_DHA
N2 H2 N1 1_555 0.86 2.19 2.629(2) 112
C3 H3 O1 2_666 0.93 2.55 3.410(2) 154
C18 H18 O2 2_856 0.96 2.49 3.444(2) 171
N2 H2 Br1 1_555 0.86 2.58 3.0810(10) 118
loop_
_geom_torsion_atom_site_label_1
_geom_torsion_atom_site_label_2
_geom_torsion_atom_site_label_3
_geom_torsion_atom_site_label_4
_geom_torsion
Br1 C12 C13 C14 178.46(13)
O1 C1 C2 N1 -173.05(15)
O1 C1 C2 C3 7.2(2)
N2 C11 C12 Br1 2.1(2)
N2 C11 C12 C13 -177.97(15)
N2 C11 C16 C15 179.08(15)
N2 C1 C2 N1 7.0(2)
N2 C1 C2 C3 -172.76(15)
N1 C6 C7 C8 -179.06(16)
N1 C6 C5 C4 -1.3(2)
N1 C6 C5 C10 179.38(15)
N1 C2 C3 C4 -1.0(3)
C11 N2 C1 O1 -0.7(3)
C11 N2 C1 C2 179.29(14)
C11 C12 C13 C14 -1.5(3)
C1 N2 C11 C12 178.73(15)
C1 N2 C11 C16 -1.7(3)
C1 C2 C3 C4 178.68(15)
C6 N1 C2 C1 -179.91(14)
C6 N1 C2 C3 -0.2(2)
C6 C7 C8 C9 -0.7(3)
C12 C11 C16 C15 -1.4(2)
C12 C13 C14 C15 -0.6(3)
C2 N1 C6 C7 -178.60(15)
C2 N1 C6 C5 1.4(2)
C2 C3 C4 C5 1.1(3)
C16 C11 C12 Br1 -177.52(12)
C16 C11 C12 C13 2.5(2)
C16 C15 C14 C13 1.7(2)
C16 C15 C17 O2 175.63(17)
C16 C15 C17 C18 -5.1(2)
C3 C4 C5 C6 0.0(3)
C3 C4 C5 C10 179.32(17)
C14 C15 C16 C11 -0.7(2)
C14 C15 C17 O2 -5.5(2)
C14 C15 C17 C18 173.78(16)
C17 C15 C16 C11 178.22(14)
C17 C15 C14 C13 -177.24(15)
C7 C6 C5 C4 178.70(15)
C7 C6 C5 C10 -0.7(2)
C7 C8 C9 C10 0.1(3)
C8 C9 C10 C5 0.2(3)
C9 C10 C5 C6 0.1(3)
C9 C10 C5 C4 -179.22(17)
C5 C6 C7 C8 1.0(3)

_cod_database_fobs_code 2242237
