#------------------------------------------------------------------------------
#$Date: 2019-06-22 07:08:50 +0300 (Sat, 22 Jun 2019) $
#$Revision: 216492 $
#$URL: file:///home/coder/svn-repositories/cod/cif/2/24/29/2242985.cif $
#------------------------------------------------------------------------------
#
# This file is available in the Crystallography Open Database (COD),
# http://www.crystallography.net/. The original data for this entry
# were provided by IUCr Journals, http://journals.iucr.org/.
#
# The file may be used within the scientific community so long as
# proper attribution is given to the journal article from which the
# data were obtained.
#
data_2242985
loop_
_publ_author_name
'Akhter, Sidra'
'Choudhary, Muhammad Iqbal'
'Siddiqui, Hina'
'Yousuf, Sammer'
_publ_section_title
;
 Crystal structure and Hirshfeld surface analysis of
 <i>N</i>-(2-chlorophenylcarbamothioyl)-4-fluorobenzamide and
 <i>N</i>-(4-bromophenylcarbamothioyl)-4-fluorobenzamide
;
_journal_coeditor_code           HB7804
_journal_issue                   7
_journal_name_full               'Acta Crystallographica Section E'
_journal_page_first              1026
_journal_page_last               1029
_journal_paper_doi               10.1107/S2056989019008569
_journal_volume                  75
_journal_year                    2019
_chemical_formula_iupac          'C14 H10 Br F N2 O S'
_chemical_formula_moiety         'C14 H10 Br F N2 O S'
_chemical_formula_sum            'C14 H10 Br F N2 O S'
_chemical_formula_weight         353.19
_chemical_name_systematic
;
<i>N</i>-(4-Bromophenylcarbamothioyl)-4-fluorobenzamide
;
_space_group_crystal_system      triclinic
_space_group_IT_number           2
_space_group_name_Hall           '-P 1'
_space_group_name_H-M_alt        'P -1'
_symmetry_space_group_name_Hall  '-P 1'
_symmetry_space_group_name_H-M   'P -1'
_atom_sites_solution_hydrogens   geom
_atom_sites_solution_primary     dual
_audit_creation_method           SHELXL-2016/6
_cell_angle_alpha                98.8170(10)
_cell_angle_beta                 94.7140(10)
_cell_angle_gamma                94.7270(10)
_cell_formula_units_Z            2
_cell_length_a                   3.8733(2)
_cell_length_b                   13.0776(5)
_cell_length_c                   13.2628(6)
_cell_measurement_reflns_used    9945
_cell_measurement_temperature    100(2)
_cell_measurement_theta_max      68.20
_cell_measurement_theta_min      3.39
_cell_volume                     658.54(5)
_computing_cell_refinement
;
SAINT (Bruker, 2000)
;
_computing_data_collection
;
APEX2 (Bruker, 2000)
;
_computing_data_reduction
;
SAINT (Bruker, 2000)
;
_computing_molecular_graphics
;
SHELXTL (Sheldrick, 2008)
;
_computing_publication_material
;
SHELXTL (Sheldrick, 2008)
;
_computing_structure_refinement
;
SHELXL2016 (Sheldrick, 2015b)
;
_computing_structure_solution
;
SHELXT2014 (Sheldrick, 2015a)
;
_diffrn_ambient_temperature      100(2)
_diffrn_measured_fraction_theta_full 0.986
_diffrn_measured_fraction_theta_max 0.986
_diffrn_measurement_device_type  'Bruker APEXII CCD'
_diffrn_measurement_method       '\f and \w scans'
_diffrn_radiation_type           CuK\a
_diffrn_radiation_wavelength     1.54178
_diffrn_reflns_av_R_equivalents  0.0246
_diffrn_reflns_av_unetI/netI     0.0133
_diffrn_reflns_limit_h_max       4
_diffrn_reflns_limit_h_min       -4
_diffrn_reflns_limit_k_max       15
_diffrn_reflns_limit_k_min       -15
_diffrn_reflns_limit_l_max       15
_diffrn_reflns_limit_l_min       -15
_diffrn_reflns_number            20701
_diffrn_reflns_theta_full        67.679
_diffrn_reflns_theta_max         68.196
_diffrn_reflns_theta_min         3.388
_exptl_absorpt_coefficient_mu    5.826
_exptl_absorpt_correction_T_max  0.946
_exptl_absorpt_correction_T_min  0.612
_exptl_absorpt_correction_type   multi-scan
_exptl_absorpt_process_details
;
(SADABS; Bruker, 2000)
;
_exptl_crystal_colour            colourless
_exptl_crystal_density_diffrn    1.771
_exptl_crystal_density_method    none
_exptl_crystal_description       Plate
_exptl_crystal_F_000             348
_exptl_crystal_size_max          0.350
_exptl_crystal_size_mid          0.050
_exptl_crystal_size_min          0.040
_refine_diff_density_max         0.454
_refine_diff_density_min         -1.459
_refine_ls_extinction_method     none
_refine_ls_goodness_of_fit_ref   1.098
_refine_ls_hydrogen_treatment    constr
_refine_ls_matrix_type           full
_refine_ls_number_parameters     181
_refine_ls_number_reflns         2384
_refine_ls_number_restraints     0
_refine_ls_restrained_S_all      1.098
_refine_ls_R_factor_all          0.0252
_refine_ls_R_factor_gt           0.0252
_refine_ls_shift/su_max          0.001
_refine_ls_shift/su_mean         0.000
_refine_ls_structure_factor_coef Fsqd
_refine_ls_weighting_details
'w=1/[\s^2^(Fo^2^)+(0.1000P)^2^] where P=(Fo^2^+2Fc^2^)/3'
_refine_ls_weighting_scheme      calc
_refine_ls_wR_factor_gt          0.1095
_refine_ls_wR_factor_ref         0.1096
_reflns_number_gt                2381
_reflns_number_total             2384
_reflns_threshold_expression     'I > 2\s(I)'
_cod_data_source_file            hb7804sup1.cif
_cod_data_source_block           2
_cod_database_code               2242985
_shelx_space_group_comment
;
The symmetry employed for this shelxl refinement is uniquely defined
by the following loop, which should always be used as a source of
symmetry information in preference to the above space-group names.
They are only intended as comments.
;
_shelx_estimated_absorpt_t_min   0.235
_shelx_estimated_absorpt_t_max   0.800
_shelx_hkl_file
;
 -1  0  0 792.62  25.30
  1  0  0 795.22  25.60
  1  0  0 782.82  25.70
  1  0  0 854.81  26.70
  1  0  0 801.82  26.00
  1  0  0 835.52  25.90
  1  0  0 800.42  26.00
 -2  0  0 305.27  10.80
 -2  0  0 315.17  10.50
 -2  0  0 335.67  12.00
 -2  0  0 302.07  10.50
  2  0  0 335.67  13.40
  2  0  0 328.27  12.00
  2  0  0 318.37  11.60
  2  0  0 323.07  12.20
  2  0  0 313.97  11.30
  2  0  0 324.07  11.80
 -3  0  0  31.40  3.30
 -3  0  0  32.50  2.90
  3  0  0  23.10  3.70
  3  0  0  27.50  4.30
  3  0  0  24.20  7.40
  3  0  0  25.20  3.20
  3  0  0  29.40  9.70
  3  0  0  23.60  7.30
  3  0  0  29.60  3.10
  3  0  0  30.20  4.00
  3  0  0  27.70  8.50
  3  0  0  27.20  12.40
  3  0  0  31.50  5.40
  4  0  0 516.85  23.90
  4  0  0 524.35  17.30
  4  0  0 500.15  21.60
  4  0  0 503.75  23.80
  4  0  0 518.25  20.10
  4  0  0 534.45  30.90
  4  0  0 507.05  24.30
  4 -1  0 379.66  13.70
  4 -1  0 394.76  19.60
  4 -1  0 380.46  20.30
  4 -1  0 383.56  19.80
  4 -1  0 388.56  13.30
  4 -1  0 368.86  17.50
  3 -1  0 183.78  8.20
  3 -1  0 184.18  12.40
  3 -1  0 189.08  20.10
  3 -1  0 187.48  9.50
  3 -1  0 194.48  15.20
  3 -1  0 182.88  7.60
  3 -1  0 181.78  13.90
  3 -1  0 179.68  10.00
  3 -1  0 183.18  15.20
  3 -1  0 202.88  12.10
  3 -1  0 196.18  14.20
  3 -1  0 181.38  15.20
  3 -1  0 188.48  9.10
  3 -1  0 179.58  8.00
  3 -1  0 185.08  14.70
 -3  1  0 194.68  7.40
 -3  1  0 174.68  7.00
  2 -1  0 6664.63 207.68
  1 -1  0 2679.43  84.59
  0 -1  0 100.09  3.20
  0 -1  0  99.89  3.20
  0 -1  0 100.79  3.30
  0 -1  0 106.69  3.20
  0 -1  0  98.09  3.30
  0  1  0  98.69  3.20
  0  1  0 101.59  3.30
  0  1  0 100.69  3.30
  0  1  0  99.19  3.20
 -1 -1  0 158.58  5.10
 -1 -1  0 164.38  5.30
  1  1  0 154.08  5.70
  1  1  0 149.09  5.60
  1  1  0 160.08  6.30
  1  1  0 164.18  5.90
  1  1  0 155.58  5.90
  1  1  0 156.98  5.90
 -2 -1  0 842.52  27.90
 -2 -1  0 875.41  30.20
 -2 -1  0 834.42  28.00
 -2 -1  0 882.81  28.00
  2  1  0 920.11  29.20
  2  1  0 907.21  29.70
  2  1  0 923.41  30.90
  2  1  0 891.91  29.80
  2  1  0 890.11  29.10
  2  1  0 912.61  29.70
 -3 -1  0 2973.60  91.19
  3  1  0 2979.90  93.09
  3  1  0 2827.02  93.69
  3  1  0 3006.50 100.69
  3  1  0 2810.42  99.89
  3  1  0 2685.93  96.29
  3  1  0 2908.91  93.09
  3  1  0 2865.61  91.79
  3  1  0 3052.39 100.59
  3  1  0 2888.91  91.59
  3  1  0 3009.80 110.39
  3  1  0 2940.61  94.59
  3  1  0 2934.81 102.39
  3  1  0 2950.30  96.19
  3  1  0 3014.00 102.59
  3  1  0 2885.11 100.09
  3  1  0 2922.01  91.59
  3  1  0 2817.52  91.99
  3  1  0 2946.61  94.39
  4  1  0 544.15  25.30
  4  1  0 611.34  22.80
  4  1  0 607.14  32.30
  4  1  0 543.45  23.00
  4  1  0 554.94  25.70
  4  1  0 595.64  20.50
  4  1  0 560.24  25.60
  4  1  0 561.14  23.60
  4  1  0 577.74  19.00
  4 -2  0  32.40  3.00
  4 -2  0  35.30  2.80
  4 -2  0  41.10  6.00
  4 -2  0  39.90  6.90
  4 -2  0  36.60  6.80
  4 -2  0  32.80  4.20
  4 -2  0  39.00  7.30
  4 -2  0  44.80  4.80
  3 -2  0 357.16  19.40
  3 -2  0 336.17  16.20
  3 -2  0 334.17  19.80
  3 -2  0 345.77  12.70
  3 -2  0 350.56  15.00
  3 -2  0 341.97  21.00
  3 -2  0 349.96  14.10
  3 -2  0 352.36  20.10
  3 -2  0 334.57  25.50
  3 -2  0 371.06  13.10
  3 -2  0 343.17  20.80
  3 -2  0 340.27  14.50
  3 -2  0 362.56  21.00
  3 -2  0 347.17  13.00
  3 -2  0 342.87  15.30
  3 -2  0 346.37  18.10
 -3  2  0 343.07  12.10
 -3  2  0 326.57  11.70
 -3  2  0 345.07  12.20
  2 -2  0 266.27  9.20
  2 -2  0 259.57  10.00
  2 -2  0 279.27  10.80
  2 -2  0 273.67  10.40
 -2  2  0 259.47  8.90
 -2  2  0 257.67  9.00
 -2  2  0 260.77  9.10
  1 -2  0  25.50  1.40
  1 -2  0  25.40  1.90
  1 -2  0  26.10  2.30
  1 -2  0  26.10  1.80
  1 -2  0  28.40  1.70
 -1  2  0  26.40  1.30
 -1  2  0  27.00  1.40
 -1  2  0  26.80  1.30
  0 -2  0  10.60  0.70
  0 -2  0  10.00  0.60
  0 -2  0  10.20  0.60
  0  2  0  12.10  0.70
  0  2  0  13.50  0.60
  0  2  0  12.20  0.80
 -2 -2  0 455.35  14.20
 -2 -2  0 459.45  14.20
 -2 -2  0 419.26  14.20
  2  2  0 433.46  15.70
  2  2  0 439.46  15.30
  2  2  0 438.06  16.70
  2  2  0 432.76  15.90
  2  2  0 441.36  15.50
  2  2  0 446.66  16.10
  3  2  0 648.54  22.70
  3  2  0 618.34  28.80
  3  2  0 628.34  30.20
  3  2  0 605.74  28.60
  3  2  0 651.23  23.20
  3  2  0 606.54  25.90
  3  2  0 640.04  29.10
  3  2  0 627.54  21.70
  3  2  0 656.33  30.00
  3  2  0 666.43  31.40
  3  2  0 655.43  37.70
  3  2  0 642.74  26.30
  3  2  0 619.84  21.50
  3  2  0 635.04  21.30
  3  2  0 643.34  23.40
  3  2  0 647.04  21.30
  3  2  0 628.34  24.20
  4  2  0 590.44  23.10
  4  2  0 633.34  24.20
  4  2  0 671.43  29.60
  4  2  0 604.74  20.50
  4  2  0 588.54  31.20
  4  2  0 647.64  34.50
  4  2  0 601.14  20.30
  4 -3  0 560.24  25.90
  4 -3  0 528.05  26.00
  4 -3  0 530.15  22.90
  4 -3  0 557.54  18.40
  4 -3  0 567.54  18.40
  4 -3  0 526.95  18.60
  4 -3  0 530.25  25.10
  3 -3  0 3121.09  94.89
  3 -3  0 2964.50 104.49
  3 -3  0 3182.78 103.49
  3 -3  0 2911.81  94.39
  3 -3  0 2996.30 105.29
  3 -3  0 3097.29  95.19
  3 -3  0 3054.29  94.99
  3 -3  0 3071.29  98.09
  3 -3  0 3008.20 105.39
  3 -3  0 3012.70 104.49
  3 -3  0 3026.60 101.29
  3 -3  0 2936.01  96.39
  3 -3  0 2941.61 101.89
 -3  3  0 2941.41  94.59
 -3  3  0 2906.91  93.69
 -3  3  0 2987.70  94.39
  0 -3  0 114.99  3.90
  0 -3  0 111.89  4.50
  0 -3  0 111.49  4.00
  0 -3  0 111.39  3.90
  0  3  0 114.49  4.00
  0  3  0 112.09  3.80
  0  3  0 116.99  4.00
 -1 -3  0 1012.30  32.10
 -1 -3  0 1050.19  32.20
 -1 -3  0 1041.80  32.50
 -1 -3  0 1013.60  32.30
  1  3  0 1091.09  33.10
  1  3  0 1008.50  33.00
  1  3  0 1044.50  33.40
  1  3  0 972.40  32.90
 -2 -3  0 3031.10  97.39
 -2 -3  0 2983.00  93.59
 -2 -3  0 2987.60  93.89
 -2 -3  0 3005.70  93.59
  2  3  0 3000.00  95.19
  2  3  0 3120.99  96.09
  2  3  0 2966.90  95.29
  2  3  0 2983.60  94.79
 -3 -3  0 797.12  26.90
 -3 -3  0 798.62  27.50
  3  3  0 823.72  26.90
  3  3  0 841.72  35.10
  3  3  0 830.52  27.60
  3  3  0 815.32  34.60
  3  3  0 819.22  27.40
  3  3  0 828.52  30.00
  3  3  0 841.82  44.70
  3  3  0 786.42  31.40
  3  3  0 788.32  34.40
  3  3  0 821.62  48.60
  3  3  0 833.42  29.30
  3  3  0 827.12  29.30
  3  3  0 838.42  27.20
  3  3  0 863.21  40.90
  4  3  0 283.57  15.40
  4  3  0 305.17  13.60
  4  3  0 306.27  10.70
  4  3  0 292.87  12.60
  4  3  0 291.07  10.50
  4  3  0 284.07  21.50
  4  3  0 318.97  14.40
  4 -4  0 1925.81  60.59
  4 -4  0 1965.10  60.79
  4 -4  0 2117.09  66.09
  4 -4  0 1879.81  70.99
 -4  4  0 1735.53  60.89
 -4  4  0 1817.32  59.89
  3 -4  0 244.88  17.30
  3 -4  0 250.57  9.90
  3 -4  0 272.97  17.60
  3 -4  0 243.28  12.50
  3 -4  0 257.77  10.40
  3 -4  0 250.87  10.60
  3 -4  0 263.77  10.00
  3 -4  0 256.27  12.40
  3 -4  0 252.27  15.40
  3 -4  0 258.27  11.90
  3 -4  0 255.07  17.60
  3 -4  0 241.88  18.00
 -3  4  0 253.27  9.70
 -3  4  0 247.18  8.90
  2 -4  0 935.61  30.30
  2 -4  0 898.01  30.80
  2 -4  0 902.31  30.10
 -2  4  0 886.41  28.70
 -2  4  0 925.11  29.00
 -2  4  0 826.72  28.50
 -2  4  0 890.21  29.00
  1 -4  0 433.76  14.60
  1 -4  0 418.16  15.40
  1 -4  0 464.55  15.00
  1 -4  0 459.85  15.80
 -1  4  0 459.05  14.60
 -1  4  0 447.86  14.80
 -1  4  0 466.65  14.40
 -1  4  0 453.55  14.90
 -1 -4  0 5089.59 157.78
 -2 -4  0 110.69  4.70
 -2 -4  0 115.89  4.90
 -2 -4  0 113.39  8.40
 -2 -4  0 120.99  4.60
  2  4  0 120.79  5.90
  2  4  0 117.39  5.90
  2  4  0 112.99  6.50
  3  4  0  5.40  5.30
  3  4  0  4.00  4.00
  3  4  0  4.80  5.70
  3  4  0  7.50  3.40
  3  4  0  5.80  4.80
  3  4  0  7.30  6.90
  3  4  0  11.10  4.90
  3  4  0  2.50  5.20
  4  4  0 203.08  9.40
  4  4  0 201.18  7.70
  4  4  0 193.88  17.30
  4  4  0 203.78  7.50
  4  4  0 203.58  10.20
  4  4  0 218.38  11.40
  4  4  0 196.58  11.50
  4 -5  0  76.79  9.50
  4 -5  0  81.59  4.30
  4 -5  0  86.39  9.10
  4 -5  0  89.09  4.30
  4 -5  0  85.49  7.80
 -4  5  0  75.29  4.60
 -4  5  0  82.59  4.30
  3 -5  0  40.10  6.10
  3 -5  0  43.50  3.70
  3 -5  0  47.80  5.70
  3 -5  0  42.80  13.10
  3 -5  0  45.90  9.40
  3 -5  0  43.40  6.30
  3 -5  0  43.40  8.10
  3 -5  0  42.60  7.70
 -3  5  0  41.70  4.50
 -3  5  0  44.10  3.30
 -3  5  0  34.70  3.40
 -3  5  0  36.50  2.60
  2 -5  0 1981.30  63.39
  2 -5  0 2091.29  63.69
  2 -5  0 2011.40  64.39
 -2  5  0 1876.11  61.39
 -2  5  0 1973.20  62.19
 -2  5  0 1885.91  61.19
 -2  5  0 1880.11  61.69
 -2  5  0 1965.80  62.19
  1 -5  0 2669.93  86.59
  1 -5  0 2735.23  88.09
 -1  5  0 2833.32  86.89
 -1  5  0 2819.32  86.59
 -1  5  0 2823.32  86.29
  0 -5  0 724.13  23.00
  0 -5  0 696.43  21.90
  0 -5  0 667.73  22.20
  0 -5  0 700.33  22.20
  0 -5  0 688.63  21.90
  0  5  0 692.83  22.80
  0  5  0 665.93  21.80
  0  5  0 657.63  22.30
  0  5  0 683.33  22.20
  0  5  0 699.93  22.20
 -1 -5  0 1004.20  32.30
 -1 -5  0 995.90  32.60
 -1 -5  0 984.90  32.60
 -1 -5  0 1069.39  33.30
  1  5  0 1041.60  33.40
  1  5  0 1058.29  34.10
 -2 -5  0 154.88  5.90
 -2 -5  0 147.69  6.40
 -2 -5  0 145.89  5.90
  2  5  0 152.08  11.60
  2  5  0 144.69  9.00
  2  5  0 152.38  6.50
  2  5  0 148.89  6.30
  2  5  0 150.88  8.20
  2  5  0 145.79  18.40
  2  5  0 146.79  12.20
  2  5  0 151.98  7.20
  2  5  0 142.59  9.90
 -3 -5  0 2479.15  78.69
 -3 -5  0 2338.87  78.59
 -3 -5  0 2500.55  77.69
  3  5  0 2455.95  98.89
  3  5  0 2486.55  85.59
  3  5  0 2466.75  77.89
  3  5  0 2374.66  81.89
  3  5  0 2451.05  80.69
  3  5  0 2704.43  87.59
  3  5  0 2486.15  84.29
  3  5  0 2500.05  77.79
  3  5  0 2362.56  80.69
  4  5  0 896.21  28.10
  4  5  0 798.42  40.50
  4  5  0 875.21  30.10
  4  5  0 872.61  32.40
  4  5  0 969.50  31.80
  4  5  0 863.01  28.20
  4 -6  0  41.40  7.00
  4 -6  0  44.30  6.00
  4 -6  0  40.30  7.30
  4 -6  0  41.20  3.00
 -4  6  0  37.70  3.30
 -4  6  0  36.40  3.20
  3 -6  0 593.64  20.30
  3 -6  0 596.84  26.30
  3 -6  0 572.14  31.40
  3 -6  0 583.54  23.50
  3 -6  0 566.24  20.40
  3 -6  0 582.34  29.20
  3 -6  0 570.54  24.70
 -3  6  0 604.44  20.70
 -3  6  0 583.94  20.70
 -3  6  0 627.64  19.50
 -3  6  0 603.34  19.70
  2 -6  0 279.17  12.20
  2 -6  0 295.37  12.90
  2 -6  0 301.37  12.40
 -2  6  0 278.07  10.00
 -2  6  0 276.87  11.20
 -2  6  0 292.57  10.80
 -2  6  0 292.17  10.40
 -2  6  0 281.27  9.80
  1 -6  0 2323.87  72.79
  1 -6  0 2270.87  72.29
  1 -6  0 2332.37  72.49
  1 -6  0 2248.77  73.99
 -1  6  0 2286.07  71.79
 -1  6  0 2339.57  72.59
 -1  6  0 2273.47  71.89
 -1  6  0 2325.47  72.69
 -1  6  0 2321.57  72.19
  0 -6  0 859.01  27.20
  0 -6  0 834.52  27.10
  0 -6  0 873.41  28.40
  0 -6  0 847.72  27.40
  0  6  0 831.02  27.00
  0  6  0 823.32  27.60
  0  6  0 855.61  27.50
  0  6  0 868.41  27.40
 -1 -6  0 1420.96  45.30
 -1 -6  0 1285.57  44.60
 -1 -6  0 1419.36  44.40
 -1 -6  0 1423.66  44.60
 -1 -6  0 1430.56  44.10
  1  6  0 1417.26  45.30
  1  6  0 1394.06  46.10
 -2 -6  0 912.41  29.10
 -2 -6  0 859.41  29.70
 -2 -6  0 871.71  29.10
 -2 -6  0 947.01  30.30
 -2 -6  0 931.81  29.50
  2  6  0 902.41  46.50
  2  6  0 895.51  30.90
  2  6  0 872.81  29.20
  2  6  0 913.11  32.70
  2  6  0 883.21  32.90
  2  6  0 856.11  35.60
  2  6  0 852.91  34.80
  2  6  0 870.21  31.80
  2  6  0 971.30  40.80
  2  6  0 902.61  29.40
 -3 -6  0 2505.65  81.29
 -3 -6  0 2536.85  80.09
  3  6  0 2506.55 100.89
  3  6  0 2542.25  87.09
  3  6  0 2384.66  86.49
  3  6  0 2519.85  84.19
  3  6  0 2532.75  82.89
  3  6  0 2549.44  79.99
  3  6  0 2774.62  89.19
  3  6  0 2554.54  80.09
  4  6  0 1719.23  52.79
  4  6  0 1489.05  63.79
  4  6  0 1858.81  56.59
  4  6  0 1670.33  52.89
  4  6  0 1679.63  54.29
  4 -7  0 627.94  26.40
  4 -7  0 682.33  24.50
  4 -7  0 581.64  28.60
  4 -7  0 634.64  20.90
 -4  7  0 641.44  20.60
 -4  7  0 620.44  20.70
  3 -7  0 796.32  40.50
  3 -7  0 856.21  27.70
  3 -7  0 757.22  32.80
  3 -7  0 853.51  33.70
  3 -7  0 798.02  36.60
  3 -7  0 786.82  31.40
 -3  7  0 826.82  26.90
 -3  7  0 893.41  28.50
 -3  7  0 853.81  27.00
 -3  7  0 776.92  28.20
 -3  7  0 894.61  27.00
  2 -7  0 2041.20  69.39
  2 -7  0 1861.01  72.89
  2 -7  0 2061.99  64.39
  2 -7  0 1937.11  62.99
  2 -7  0 1879.51  65.19
  2 -7  0 1996.50  66.59
  2 -7  0 2082.19  65.29
 -2  7  0 1950.90  62.79
 -2  7  0 2050.49  62.59
 -2  7  0 1927.71  62.29
 -2  7  0 1935.71  62.19
 -2  7  0 1930.81  62.29
 -2  7  0 2076.99  63.59
  1 -7  0  2.80  1.50
  1 -7  0  5.80  1.70
 -1  7  0  4.90  1.30
 -1  7  0  4.50  1.20
 -1  7  0  3.90  1.10
 -1  7  0  2.80  1.10
  0 -7  0 106.59  5.10
  0 -7  0 115.39  6.10
  0 -7  0 116.59  4.90
  0 -7  0 106.29  5.50
  0  7  0 123.89  5.60
  0  7  0 123.39  5.40
  0  7  0 118.99  5.60
  0  7  0 113.59  5.00
 -1 -7  0 1190.08  38.20
 -1 -7  0 1197.48  39.50
 -1 -7  0 1189.48  38.00
 -1 -7  0 1152.98  38.60
  1  7  0 1165.88  40.20
  1  7  0 1258.87  39.30
 -2 -7  0 1728.63  56.19
 -2 -7  0 1782.82  57.19
 -2 -7  0 1712.83  55.79
 -2 -7  0 1764.62  56.19
  2  7  0 1816.82  55.79
  2  7  0 1774.12  55.59
  2  7  0 1803.92  75.69
  2  7  0 1702.63  61.99
  2  7  0 1675.13  59.79
  2  7  0 1594.44  61.59
  2  7  0 1761.02  57.79
  2  7  0 1916.71  67.59
  2  7  0 1760.82  55.49
  2  7  0 1733.13  58.19
 -3 -7  0  14.20  2.70
 -3 -7  0  19.30  4.50
 -3 -7  0  18.70  4.10
  3  7  0  9.40  6.90
  3  7  0  17.10  6.20
  3  7  0  14.00  4.80
  3  7  0  13.40  2.20
  3  7  0  15.50  3.70
  3  7  0  12.40  2.30
  4 -8  0 1213.68  38.90
  4 -8  0 1141.79  36.20
  4 -8  0 1044.10  43.80
  4 -8  0 1126.99  40.90
 -4  8  0 1135.49  35.90
 -4  8  0 1121.99  36.20
 -4  8  0 1151.08  36.10
  3 -8  0 103.09  11.90
  3 -8  0 104.99  14.70
  3 -8  0 118.89  5.70
  3 -8  0 116.99  7.80
  3 -8  0 123.49  10.40
 -3  8  0 112.79  5.80
 -3  8  0 110.39  5.70
 -3  8  0 119.89  6.40
 -3  8  0 124.19  5.10
 -3  8  0 122.19  5.20
  2 -8  0 196.48  10.20
  2 -8  0 152.98  13.50
  2 -8  0 179.98  16.90
  2 -8  0 193.18  14.00
  2 -8  0 185.68  8.10
 -2  8  0 173.68  9.40
 -2  8  0 189.98  7.20
 -2  8  0 195.78  7.80
 -2  8  0 191.78  7.10
 -2  8  0 193.18  7.20
 -2  8  0 195.48  8.30
 -2  8  0 198.88  8.30
  1 -8  0 283.67  12.10
  1 -8  0 286.27  12.80
 -1  8  0 295.07  11.90
 -1  8  0 292.47  10.20
 -1  8  0 300.17  10.30
 -1  8  0 311.57  10.70
 -1  8  0 301.97  11.30
  0 -8  0 2447.46  79.99
  0 -8  0 2689.63  81.79
  0 -8  0 2430.86  80.49
  0 -8  0 2534.25  79.59
  0 -8  0 2531.25  79.89
  0 -8  0 2555.04  82.89
  0 -8  0 2490.35  79.69
  0  8  0 2510.35  79.59
  0  8  0 2559.84  81.29
  0  8  0 2577.94  79.99
 -1 -8  0 3796.52 117.29
 -1 -8  0 3578.84 123.79
 -1 -8  0 3701.13 117.49
 -1 -8  0 3656.63 117.69
 -1 -8  0 3585.64 117.59
 -1 -8  0 3863.41 117.69
  1  8  0 3712.03 120.29
  1  8  0 3905.71 117.69
  1  8  0 4101.29 140.49
  1  8  0 3699.73 118.69
  1  8  0 3710.93 117.79
  1  8  0 3725.03 117.09
 -2 -8  0  67.89  4.20
 -2 -8  0  65.09  5.50
 -2 -8  0  68.29  4.90
 -2 -8  0  63.59  4.80
  2  8  0  61.19  4.00
  2  8  0  48.90  7.60
  2  8  0  62.29  8.80
  2  8  0  63.39  14.20
  2  8  0  73.69  14.00
  2  8  0  63.99  6.40
 -3 -8  0  36.30  5.20
 -3 -8  0  36.40  4.20
 -3 -8  0  35.40  4.00
  3  8  0  33.80  2.70
  3  8  0  34.20  10.50
  3  8  0  34.90  6.70
  3  8  0  37.30  2.60
  4 -9  0 317.87  16.50
  4 -9  0 334.27  11.20
 -4  9  0 301.97  10.70
 -4  9  0 325.97  11.00
  3 -9  0 218.68  13.20
  3 -9  0 212.48  10.20
  3 -9  0 182.58  18.30
  3 -9  0 204.28  8.30
  3 -9  0 194.88  15.50
 -3  9  0 221.68  8.10
 -3  9  0 217.38  9.40
 -3  9  0 224.18  8.00
 -3  9  0 209.38  8.30
 -3  9  0 205.28  7.70
  2 -9  0 1023.40  38.70
  2 -9  0 1042.80  34.80
  2 -9  0 1091.99  40.90
  2 -9  0 1014.40  38.60
  2 -9  0 1070.89  40.10
  2 -9  0 1016.80  46.20
 -2  9  0 1052.79  34.80
 -2  9  0 1076.89  35.10
 -2  9  0 1118.69  35.80
 -2  9  0 1079.49  34.60
 -2  9  0 1092.29  34.30
  1 -9  0 5996.30 179.38
  1 -9  0 5711.43 180.28
  1 -9  0 6230.78 181.08
  1 -9  0 5527.25 182.08
 -1  9  0 5538.45 177.98
 -1  9  0 5605.64 178.18
 -1  9  0 5662.63 178.98
 -1  9  0 5731.33 180.38
 -1  9  0 6017.40 179.78
 -1  9  0 5504.25 178.78
 -1  9  0 5591.74 179.68
 -1  9  0 5880.11 178.48
 -1  9  0 5573.44 178.18
  0 -9  0 739.93  24.90
  0 -9  0 742.03  25.30
  0 -9  0 769.22  24.80
  0 -9  0 742.03  26.90
  0 -9  0 760.12  25.30
  0 -9  0 699.33  29.10
  0 -9  0 748.73  25.90
  0 -9  0 748.53  25.10
  0 -9  0 775.02  25.10
  0 -9  0 705.83  24.70
  0  9  0 752.52  25.30
  0  9  0 731.73  25.20
  0  9  0 781.72  25.30
  0  9  0 736.53  24.40
  0  9  0 756.42  26.70
  0  9  0 732.13  24.70
 -1 -9  0 7902.01 236.28
 -1 -9  0 7694.03 233.68
 -1 -9  0 7542.55 233.68
 -1 -9  0 7141.89 234.18
 -1 -9  0 7327.67 235.88
 -1 -9  0 7529.05 234.08
 -1 -9  0 7409.26 233.48
 -1 -9  0 7531.55 233.78
  1  9  0 7774.62 253.47
  1  9  0 7201.08 233.28
  1  9  0 7885.51 233.98
  1  9  0 7320.37 233.08
  1  9  0 7418.26 235.18
 -2 -9  0  88.29  5.80
 -2 -9  0  94.39  5.80
 -2 -9  0  94.39  5.30
 -2 -9  0  91.49  8.10
 -2 -9  0  88.69  6.60
 -2 -9  0  92.19  7.50
 -2 -9  0  92.39  6.20
  2  9  0  96.99  4.40
  2  9  0 101.59  12.60
  2  9  0  91.89  5.00
  2  9  0  96.19  8.20
  2  9  0  84.79  10.40
  2  9  0  88.19  14.90
  2  9  0  79.89  9.00
  2  9  0  87.69  4.60
 -3 -9  0 1370.86  43.20
 -3 -9  0 1383.96  43.40
 -3 -9  0 1339.67  43.30
 -3 -9  0 1324.17  43.80
  3  9  0 1383.46  42.80
  3  9  0 1316.77  56.89
  3  9  0 1220.18  47.10
  3  9  0 1364.16  44.00
  3  9  0 1380.06  42.50
  3 -10  0 399.16  14.30
  3 -10  0 390.76  25.80
  3 -10  0 406.46  22.00
  3 -10  0 432.26  19.00
  3 -10  0 413.56  15.80
 -3 10  0 431.96  14.30
 -3 10  0 419.46  13.90
 -3 10  0 413.76  14.30
 -3 10  0 424.36  14.20
 -3 10  0 413.06  16.00
  2 -10  0  12.70  3.70
  2 -10  0  27.50  8.30
  2 -10  0  14.60  7.80
 -2 10  0  17.60  3.40
 -2 10  0  18.30  2.80
 -2 10  0  18.30  4.00
 -2 10  0  16.90  2.40
 -2 10  0  18.40  2.10
  1 -10  0 4194.98 135.59
  1 -10  0 4237.18 132.09
  1 -10  0 4147.08 133.29
  1 -10  0 4490.15 133.99
 -1 10  0 3999.70 131.69
 -1 10  0 4355.66 132.39
 -1 10  0 4108.59 130.89
 -1 10  0 4147.79 130.59
 -1 10  0 4074.99 130.89
 -1 10  0 4295.37 131.19
 -1 10  0 4152.88 131.79
  0 -10  0 946.01  33.30
  0 -10  0 974.20  32.60
  0 -10  0 943.51  35.10
  0 -10  0 991.10  32.60
  0 -10  0 971.30  32.50
  0 -10  0 991.70  32.10
  0 -10  0 985.20  32.50
  0 -10  0 952.50  32.20
  0 -10  0 990.50  34.90
  0 10  0 959.80  31.60
  0 10  0 976.90  32.40
  0 10  0 1011.90  32.60
  0 10  0 987.80  32.70
  0 10  0 1002.10  32.20
 -1 -10  0 2166.88  68.89
 -1 -10  0 2101.39  69.79
 -1 -10  0 2225.18  71.59
 -1 -10  0 2214.38  69.19
 -1 -10  0 2165.18  69.49
 -1 -10  0 2155.48  69.29
 -1 -10  0 2160.38  70.29
 -1 -10  0 2283.87  70.69
 -1 -10  0 2114.39  69.99
  1 10  0 2234.68  68.99
  1 10  0 2127.79  70.49
  1 10  0 2106.09  72.49
  1 10  0 2110.19  68.69
 -2 -10  0 574.94  22.50
 -2 -10  0 579.44  20.10
 -2 -10  0 597.04  20.40
 -2 -10  0 576.34  20.30
  2 10  0 592.34  19.50
  2 10  0 568.34  19.30
  2 10  0 629.04  27.90
  2 10  0 541.65  24.70
  2 10  0 593.24  19.50
  2 10  0 573.14  34.00
 -3 -10  0 509.05  16.90
 -3 -10  0 489.05  17.70
 -3 -10  0 499.15  17.40
 -3 -10  0 505.25  17.20
  3 10  0 496.55  19.90
  3 10  0 509.85  16.50
  3 10  0 495.15  25.90
  3 -11  0 694.63  23.10
  3 -11  0 682.73  32.70
  3 -11  0 668.13  28.90
 -3 11  0 675.03  22.40
 -3 11  0 686.93  22.20
 -3 11  0 676.93  22.00
 -3 11  0 678.43  22.20
  2 -11  0 892.41  40.70
  2 -11  0 975.50  33.40
 -2 11  0 993.60  31.00
 -2 11  0 950.80  37.10
 -2 11  0 950.40  31.60
 -2 11  0 965.90  31.00
 -2 11  0 942.21  30.50
  1 -11  0  4.80  3.60
  1 -11  0  4.00  2.60
  1 -11  0  2.40  3.70
  1 -11  0  4.30  2.80
 -1 11  0  3.20  1.50
 -1 11  0  1.80  2.80
 -1 11  0  4.30  2.40
 -1 11  0  3.10  3.90
 -1 11  0  2.00  1.20
 -1 11  0  7.10  3.50
  0 -11  0 2980.70  94.09
  0 -11  0 2972.60  93.99
  0 -11  0 2962.10  93.49
  0 -11  0 2917.61  93.59
  0 -11  0 2912.01  94.49
  0 -11  0 2925.61  95.09
  0 -11  0 3015.40  96.79
  0 11  0 2966.00  94.19
  0 11  0 2905.01  92.99
  0 11  0 2964.90  96.99
  0 11  0 3155.08  94.29
 -1 -11  0  84.39  5.00
 -1 -11  0  89.19  5.50
 -1 -11  0  81.99  8.10
 -1 -11  0  79.99  5.20
 -1 -11  0  78.89  5.60
 -1 -11  0  98.49  5.00
 -1 -11  0  86.09  6.70
 -1 -11  0  88.49  5.40
  1 11  0  85.59  5.00
  1 11  0  92.39  11.20
  1 11  0  68.09  9.20
  1 11  0  80.69  7.90
  1 11  0  86.69  17.30
 -2 -11  0 1745.23  58.89
 -2 -11  0 1762.12  56.39
 -2 -11  0 1812.52  57.29
 -2 -11  0 1824.92  56.69
 -2 -11  0 1814.12  56.69
 -2 -11  0 1765.92  56.49
  2 11  0 1698.13  85.19
  2 11  0 1675.73  60.69
  3 -12  0 668.23  29.30
  3 -12  0 672.23  22.00
 -3 12  0 682.93  21.80
 -3 12  0 666.43  21.40
 -3 12  0 657.03  21.70
 -3 12  0 661.23  21.60
  2 -12  0  1.90  2.70
  2 -12  0  5.00  5.70
 -2 12  0  5.70  1.40
 -2 12  0  3.70  2.20
 -2 12  0  6.00  1.50
 -2 12  0  3.10  2.30
  1 -12  0 756.82  26.20
  1 -12  0 761.92  27.20
  1 -12  0 762.12  28.00
 -1 12  0 768.62  26.30
 -1 12  0 775.42  26.10
 -1 12  0 796.72  25.20
 -1 12  0 767.72  24.50
 -1 12  0 741.43  25.20
  0 -12  0 2264.67  73.59
  0 -12  0 2406.36  76.59
  0 -12  0 2298.67  73.39
  0 -12  0 2311.17  75.09
  0 -12  0 2370.06  74.29
  0 -12  0 2354.26  73.99
  0 12  0 2328.67  72.99
  0 12  0 2252.37  74.29
  0 12  0 2342.37  74.19
 -1 -12  0 1272.27  45.60
 -1 -12  0 1276.17  42.60
 -1 -12  0 1318.37  42.90
 -1 -12  0 1340.97  43.70
 -1 -12  0 1260.17  42.00
 -1 -12  0 1340.47  42.80
  1 12  0 1353.66  49.80
  1 12  0 1300.17  42.30
  1 12  0 1302.47  46.70
 -2 -12  0  9.50  2.00
  2 12  0  7.30  5.30
  2 -13  0 252.57  10.90
  2 -13  0 269.97  17.00
 -2 13  0 253.57  9.10
 -2 13  0 257.77  9.30
 -2 13  0 258.77  10.10
 -2 13  0 246.18  9.20
 -2 13  0 261.47  8.80
  1 -13  0 4309.77 132.39
  1 -13  0 4225.08 133.39
  1 -13  0 4211.58 134.09
 -1 13  0 4268.37 132.59
 -1 13  0 4178.48 131.39
 -1 13  0 4114.79 132.39
 -1 13  0 4193.58 131.59
  0 -13  0 173.78  7.80
  0 -13  0 163.58  6.60
  0 -13  0 166.38  10.70
  0 -13  0 173.28  8.50
  0 13  0 163.68  7.40
 -1 -13  0 805.02  26.90
 -1 -13  0 809.02  27.40
 -1 -13  0 787.72  27.70
 -1 -13  0 807.02  27.10
 -1 -13  0 801.42  27.10
  1 13  0 807.32  27.50
  1 13  0 824.12  31.80
  1 13  0 814.02  32.00
 -2 -13  0 744.83  25.00
 -2 -13  0 774.62  24.50
 -2 -13  0 772.52  24.90
 -2 -13  0 740.83  25.30
  2 13  0 754.02  27.10
  2 -14  0 971.20  37.70
  2 -14  0 947.51  31.80
 -2 14  0 968.30  30.40
 -2 14  0 931.71  30.50
  1 -14  0  54.59  4.70
  1 -14  0  52.29  4.70
  1 -14  0  51.19  4.20
 -1 14  0  52.59  2.80
 -1 14  0  58.59  4.10
 -1 14  0  49.10  3.70
 -1 14  0  53.99  3.50
  0 -14  0 1830.92  58.79
  0 -14  0 1712.73  55.79
  0 -14  0 1787.52  57.89
  0 -14  0 1791.02  57.09
  0 14  0 1821.72  59.89
  0 14  0 1777.42  57.09
 -1 -14  0 195.38  8.00
 -1 -14  0 216.38  8.60
 -1 -14  0 201.88  7.30
 -1 -14  0 203.18  7.90
  1 14  0 200.48  7.40
  1 14  0 195.78  10.00
  1 14  0 191.38  12.30
  1 -15  0  1.10  2.00
 -1 15  0  4.60  1.50
 -1 15  0  5.60  1.00
 -1 15  0  10.60  2.80
 -1 15  0  7.20  3.50
  0 -15  0 104.69  5.50
  0 -15  0  94.29  7.60
  0 -15  0  98.79  4.70
  0 15  0 102.69  4.50
  0 15  0  98.19  7.40
  0 15  0 105.59  6.50
  0 15 -1 104.29  6.80
  0 15 -1  95.99  4.50
  0 15 -1 102.19  7.40
  0 -15  1 117.39  6.90
  0 -15  1  96.79  4.80
 -1 15 -1 1138.99  43.30
 -1 15 -1 1342.27  40.30
 -1 15 -1 1348.37  39.90
 -1 15 -1 1313.67  40.80
  1 -15  1 1343.97  41.90
  1 -15  1 1135.09  41.20
  1 14 -1 269.37  13.70
  1 14 -1 258.17  9.50
  1 14 -1 262.97  12.20
 -1 -14  1 271.67  9.40
 -1 -14  1 264.17  10.00
 -1 -14  1 273.87  12.20
 -1 -14  1 263.07  10.60
  0 14 -1 221.78  11.10
  0 14 -1 207.08  8.50
  0 -14  1 222.88  7.70
  0 -14  1 212.78  9.50
  0 -14  1 209.88  8.70
  0 -14  1 200.98  10.60
 -1 14 -1 712.43  24.70
 -1 14 -1 742.53  23.80
 -1 14 -1 749.13  24.20
  1 -14  1 714.23  25.90
  1 -14  1 764.92  25.70
  1 -14  1 736.63  24.60
 -2 14 -1 3125.39  99.39
 -2 14 -1 3209.78  99.19
  2 -14  1 3228.78 100.79
  2 -14  1 3175.08 107.59
  2 13 -1  73.29  5.70
 -2 -13  1  74.69  4.20
 -2 -13  1  73.59  6.80
 -2 -13  1  78.19  5.10
 -2 -13  1  73.89  3.60
 -2 -13  1  63.29  4.20
  1 13 -1 304.37  14.20
  1 13 -1 364.06  18.00
 -1 -13  1 362.96  12.70
 -1 -13  1 340.87  12.00
 -1 -13  1 351.56  13.40
 -1 -13  1 335.97  15.30
 -1 -13  1 293.27  16.20
  0 13 -1 859.71  28.50
  0 -13  1 830.02  27.50
  0 -13  1 903.11  29.60
  0 -13  1 808.72  30.60
  0 -13  1 837.12  28.60
 -1 13 -1 472.05  17.60
 -1 13 -1 471.15  16.30
 -1 13 -1 500.55  17.40
 -1 13 -1 491.95  16.60
  1 -13  1 465.55  18.90
  1 -13  1 492.45  17.60
  1 -13  1 503.85  18.50
 -2 13 -1  10.90  1.70
 -2 13 -1  10.30  2.10
 -2 13 -1  12.20  1.80
 -2 13 -1  15.80  2.80
  2 -13  1  9.00  4.70
  2 -13  1  9.30  2.60
  2 12 -1 728.83  28.30
  2 12 -1 683.43  32.30
  2 12 -1 692.53  22.50
  2 12 -1 687.23  26.80
 -2 -12  1 699.53  23.70
 -2 -12  1 707.73  24.10
 -2 -12  1 704.53  23.50
 -2 -12  1 655.33  23.20
 -2 -12  1 712.83  23.10
  1 12 -1 678.63  29.80
  1 12 -1 634.74  22.00
  1 12 -1 627.14  25.80
 -1 -12  1 674.83  22.50
 -1 -12  1 661.53  22.60
 -1 -12  1 653.43  22.50
 -1 -12  1 645.14  21.90
 -1 -12  1 658.83  23.30
 -1 -12  1 626.54  21.70
 -1 -12  1 621.64  25.00
  0 12 -1  7.70  1.80
  0 12 -1  2.80  2.90
  0 12 -1  5.80  2.10
  0 -12  1  11.50  5.40
  0 -12  1  8.50  2.40
  0 -12  1  12.20  2.90
 -1 12 -1 2667.73  84.19
 -1 12 -1 2546.65  84.89
 -1 12 -1 2633.24  83.99
 -1 12 -1 2690.43  83.39
 -1 12 -1 2769.52  85.39
  1 -12  1 2744.43  85.19
  1 -12  1 2766.82  86.99
  1 -12  1 2582.74  86.09
 -2 12 -1  27.20  3.60
 -2 12 -1  25.90  3.50
 -2 12 -1  32.90  2.50
 -2 12 -1  26.10  2.50
 -2 12 -1  27.20  2.60
 -2 12 -1  29.60  2.10
  2 -12  1  26.10  4.80
  2 -12  1  29.70  9.10
 -3 12 -1 1200.18  39.30
 -3 12 -1 1214.28  39.50
 -3 12 -1 1210.98  39.10
 -3 12 -1 1304.87  40.80
  3 -12  1 1278.27  39.90
  3 -12  1 1256.17  48.00
  3 11 -1 328.27  13.40
  3 11 -1 337.07  10.90
  3 11 -1 322.47  17.00
 -3 -11  1 328.67  11.70
 -3 -11  1 323.07  11.20
  2 11 -1 905.61  35.80
  2 11 -1 948.01  31.00
 -2 -11  1 962.40  31.60
 -2 -11  1 995.70  32.70
 -2 -11  1 994.80  32.10
 -2 -11  1 946.31  34.20
 -2 -11  1 989.70  32.10
  1 11 -1 1513.75  54.09
  1 11 -1 1389.86  44.10
  1 11 -1 1255.87  47.70
  1 11 -1 1308.97  48.20
 -1 -11  1 1355.76  44.40
 -1 -11  1 1384.36  46.90
 -1 -11  1 1350.06  43.60
 -1 -11  1 1313.07  45.10
 -1 -11  1 1351.76  45.20
 -1 -11  1 1355.36  44.40
 -1 -11  1 1349.96  44.30
 -1 -11  1 1366.36  44.00
  0 11 -1 3058.49  96.39
  0 11 -1 3027.70  97.49
  0 11 -1 3118.19  97.29
  0 11 -1 3096.69 100.19
  0 11 -1 2978.60  97.59
  0 -11  1 3104.69  97.99
  0 -11  1 3141.79  96.69
  0 -11  1 3074.09  96.69
  0 -11  1 3103.59  97.29
  0 -11  1 3154.08  97.39
  0 -11  1 2998.90  98.19
  0 -11  1 3050.19  97.69
 -1 11 -1 847.02  27.40
 -1 11 -1 817.82  28.70
 -1 11 -1 861.31  28.50
 -1 11 -1 841.12  27.60
 -1 11 -1 821.22  28.70
 -1 11 -1 850.71  27.10
  1 -11  1 894.51  32.50
  1 -11  1 829.42  30.30
  1 -11  1 830.32  32.10
  1 -11  1 824.02  29.60
  1 -11  1 868.11  28.80
 -2 11 -1 956.50  30.20
 -2 11 -1 886.81  32.50
 -2 11 -1 904.21  30.80
 -2 11 -1 934.21  30.10
 -2 11 -1 901.11  31.00
 -2 11 -1 932.21  29.70
  2 -11  1 949.40  32.50
  2 -11  1 942.51  36.10
 -3 11 -1 183.78  7.00
 -3 11 -1 181.88  7.20
 -3 11 -1 190.58  7.10
 -3 11 -1 184.18  7.00
 -3 11 -1 186.68  6.70
  3 -11  1 174.98  14.40
  3 -11  1 190.88  11.30
  3 -11  1 179.98  7.90
  3 10 -1 1353.86  53.19
  3 10 -1 1382.66  42.10
  3 10 -1 1282.97  45.90
 -3 -10  1 1320.27  42.70
 -3 -10  1 1315.97  42.80
  2 10 -1 1034.70  33.20
  2 10 -1 1008.40  48.40
  2 10 -1 1140.29  43.60
  2 10 -1 949.80  38.50
 -2 -10  1 1020.30  33.80
 -2 -10  1 1067.69  34.90
 -2 -10  1 969.70  33.90
 -2 -10  1 977.20  37.60
 -2 -10  1 1058.89  34.20
 -2 -10  1 1049.09  34.10
  1 10 -1  18.70  3.40
  1 10 -1  18.50  6.10
  1 10 -1  17.40  5.10
  1 10 -1  20.90  3.80
  1 10 -1  15.10  3.70
 -1 -10  1  26.30  5.10
 -1 -10  1  19.50  3.40
 -1 -10  1  17.20  3.50
 -1 -10  1  21.00  3.60
 -1 -10  1  20.10  4.60
 -1 -10  1  23.80  4.60
  0 10 -1 717.33  23.50
  0 10 -1 708.43  24.30
  0 10 -1 712.43  26.20
  0 10 -1 709.33  24.60
  0 10 -1 706.43  23.90
  0 10 -1 743.93  24.60
  0 -10  1 709.83  24.40
  0 -10  1 723.63  24.00
  0 -10  1 707.83  26.50
  0 -10  1 712.63  23.90
  0 -10  1 733.93  24.60
  0 -10  1 713.03  24.40
  0 -10  1 707.73  24.40
  0 -10  1 711.63  27.60
  0 -10  1 705.73  25.20
 -1 10 -1 492.85  15.80
 -1 10 -1 480.75  17.00
 -1 10 -1 483.95  16.00
 -1 10 -1 465.55  18.40
 -1 10 -1 465.75  16.00
 -1 10 -1 474.55  17.60
 -1 10 -1 485.25  17.10
  1 -10  1 462.45  18.10
  1 -10  1 492.35  19.20
  1 -10  1 464.65  17.40
  1 -10  1 462.95  19.70
 -2 10 -1 5224.88 166.18
 -2 10 -1 5391.96 166.58
 -2 10 -1 5438.66 166.68
 -2 10 -1 5505.25 166.58
 -2 10 -1 5375.26 167.78
 -2 10 -1 5277.77 168.28
 -2 10 -1 5512.85 167.28
  2 -10  1 5123.09 177.08
  2 -10  1 5328.37 171.18
  2 -10  1 5488.75 169.08
  2 -10  1 5180.48 172.48
 -3 10 -1 385.06  12.80
 -3 10 -1 356.26  12.40
 -3 10 -1 367.06  14.60
 -3 10 -1 357.16  13.20
 -3 10 -1 374.36  12.80
  3 -10  1 355.56  12.80
  3 -10  1 367.16  20.30
  3 -10  1 352.26  15.60
  3 -10  1 354.16  24.00
  3 -10  1 397.06  18.00
  3  9 -1  28.70  6.70
  3  9 -1  25.20  5.80
  3  9 -1  30.80  2.30
  3  9 -1  27.50  4.00
  3  9 -1  27.40  7.90
  3  9 -1  29.60  2.60
 -3 -9  1  23.90  5.30
 -3 -9  1  25.40  3.90
 -3 -9  1  30.40  4.10
  2  9 -1 1648.04  51.69
  2  9 -1 1545.55  57.49
  2  9 -1 1625.34  69.39
  2  9 -1 1661.43  51.49
  2  9 -1 1532.95  56.79
  2  9 -1 1643.84  51.49
  2  9 -1 1587.14  54.39
 -2 -9  1 1672.13  54.29
 -2 -9  1 1634.94  52.29
 -2 -9  1 1618.14  52.59
 -2 -9  1 1602.74  52.99
 -2 -9  1 1689.13  52.29
 -2 -9  1 1628.04  52.59
  1  9 -1  61.39  3.40
  1  9 -1  61.69  4.40
  1  9 -1  51.49  4.30
  1  9 -1  56.99  4.80
  1  9 -1  52.89  5.20
  1  9 -1  57.19  16.90
 -1 -9  1  53.29  4.50
 -1 -9  1  53.89  4.50
 -1 -9  1  53.99  3.70
 -1 -9  1  52.59  5.10
 -1 -9  1  55.99  5.10
 -1 -9  1  55.49  4.20
 -1 -9  1  57.39  5.20
  0  9 -1 2979.90  95.99
  0  9 -1 3176.98  96.29
  0  9 -1 3057.29  97.59
  0  9 -1 3165.08  96.09
  0  9 -1 3017.40  95.69
  0  9 -1 3101.09  95.19
  0 -9  1 3040.90  95.49
  0 -9  1 3087.29  97.99
  0 -9  1 2988.00  95.89
  0 -9  1 3147.69  95.99
  0 -9  1 2944.21  96.59
  0 -9  1 2954.60  95.59
  0 -9  1 3021.20  95.89
  0 -9  1 3036.10  95.39
  0 -9  1 2912.81  99.79
 -1  9 -1 2582.04  83.29
 -1  9 -1 2635.94  82.09
 -1  9 -1 2623.94  81.69
 -1  9 -1 2645.34  83.89
 -1  9 -1 2637.04  83.49
 -1  9 -1 2575.14  81.89
 -1  9 -1 2579.54  82.69
 -1  9 -1 2554.64  81.89
 -1  9 -1 2526.45  82.49
  1 -9  1 2445.66  82.99
  1 -9  1 2755.32  84.69
  1 -9  1 2596.24  85.59
  1 -9  1 2683.93  83.09
  1 -9  1 2611.54  83.99
  1 -9  1 2792.92  83.29
 -2  9 -1 457.35  15.50
 -2  9 -1 441.36  16.00
 -2  9 -1 458.85  14.50
 -2  9 -1 368.96  15.50
 -2  9 -1 431.76  15.40
 -2  9 -1 429.46  14.40
  2 -9  1 368.56  18.70
  2 -9  1 463.15  19.90
  2 -9  1 395.56  18.80
  2 -9  1 396.26  24.80
  2 -9  1 407.76  18.60
 -3  9 -1 135.29  5.40
 -3  9 -1 150.08  5.80
 -3  9 -1 139.59  5.70
 -3  9 -1 133.89  7.00
 -3  9 -1 124.79  5.90
  3 -9  1 143.29  7.90
  3 -9  1 121.99  12.80
  3 -9  1 132.59  10.90
  3 -9  1 124.29  5.80
  3 -9  1 120.69  15.10
 -4  9 -1  72.39  3.60
 -4  9 -1  71.49  3.80
  4 -9  1  72.19  7.20
  4 -9  1  84.49  6.30
  4 -9  1  72.79  3.40
  3  8 -1  89.19  13.40
  3  8 -1  77.69  8.40
  3  8 -1  97.39  4.40
  3  8 -1  96.19  4.30
  3  8 -1  94.09  6.00
 -3 -8  1  98.69  5.40
 -3 -8  1  85.59  6.50
  2  8 -1 226.08  8.20
  2  8 -1 217.18  8.30
  2  8 -1 208.38  11.30
  2  8 -1 200.38  29.40
  2  8 -1 197.88  11.90
  2  8 -1 227.78  23.30
  2  8 -1 213.48  14.90
  2  8 -1 195.68  8.80
  2  8 -1 215.48  10.50
  2  8 -1 190.88  13.10
 -2 -8  1 206.98  9.40
 -2 -8  1 223.08  9.20
 -2 -8  1 214.48  9.50
 -2 -8  1 222.78  9.80
  1  8 -1 3137.99  94.09
  1  8 -1 2921.11  96.29
  1  8 -1 2935.91  93.49
  1  8 -1 2987.00  94.99
 -1 -8  1 2987.00  94.09
 -1 -8  1 2880.51  93.99
 -1 -8  1 3014.70  95.59
 -1 -8  1 3055.39  93.59
  0  8 -1 983.50  32.80
  0  8 -1 1017.60  34.30
  0 -8  1 1007.80  33.80
  0 -8  1 1038.90  35.90
  0 -8  1 1028.70  33.00
  0 -8  1 1015.70  33.10
  0 -8  1 1014.50  32.70
  0 -8  1 1010.50  33.20
  0 -8  1 1038.50  34.70
 -1  8 -1  66.59  3.50
 -1  8 -1  60.49  4.00
 -1  8 -1  62.59  5.00
 -1  8 -1  63.79  3.30
 -1  8 -1  58.69  3.80
 -1  8 -1  58.19  3.00
  1 -8  1  52.49  5.00
  1 -8  1  65.79  4.60
  1 -8  1  62.79  4.80
 -2  8 -1  5.60  1.80
 -2  8 -1  6.80  2.10
 -2  8 -1  4.80  1.50
  2 -8  1  13.80  6.30
  2 -8  1  6.10  2.70
  2 -8  1  4.20  4.00
  2 -8  1  3.20  3.30
 -3  8 -1 823.22  28.20
 -3  8 -1 834.82  26.80
 -3  8 -1 831.22  27.10
 -3  8 -1 844.92  28.60
 -3  8 -1 874.41  27.10
  3 -8  1 800.82  27.30
  3 -8  1 771.32  40.10
  3 -8  1 783.42  35.70
  3 -8  1 870.51  34.50
  3 -8  1 851.91  28.50
 -4  8 -1 449.36  15.50
 -4  8 -1 458.75  15.40
 -4  8 -1 457.55  15.20
  4 -8  1 451.25  22.00
  4 -8  1 471.35  19.80
  4 -8  1 493.15  18.70
  4 -8  1 451.65  15.30
  3  7 -1 1132.09  43.20
  3  7 -1 1039.40  50.99
  3  7 -1 1021.00  35.90
  3  7 -1 1083.89  33.90
  3  7 -1 1046.20  33.70
  3  7 -1 1098.39  40.00
  3  7 -1 927.91  39.40
 -3 -7  1 1034.50  34.00
 -3 -7  1 1010.30  35.20
  2  7 -1 2339.47  82.99
  2  7 -1 2367.16  79.59
  2  7 -1 2383.26  82.69
  2  7 -1 2451.65  77.19
  2  7 -1 2465.35  83.79
  2  7 -1 2562.14  97.29
  2  7 -1 2759.82  91.69
  2  7 -1 2461.35  77.29
  2  7 -1 2450.05  79.29
 -2 -7  1 2528.55  78.89
 -2 -7  1 2342.07  77.79
 -2 -7  1 2347.86  77.99
  1  7 -1 3999.60 125.69
  1  7 -1 4125.69 127.09
 -1 -7  1 4101.59 129.09
 -1 -7  1 4080.49 126.09
 -1 -7  1 4050.99 124.39
 -1 -7  1 3736.63 124.69
 -1 -7  1 3898.41 124.79
 -1 -7  1 3967.40 125.09
  0  7 -1 2251.47  68.59
  0  7 -1 2128.99  67.39
  0  7 -1 2154.08  67.19
  0 -7  1 2012.50  70.79
  0 -7  1 2111.09  67.39
  0 -7  1 2179.58  67.29
  0 -7  1 2134.89  68.09
  0 -7  1 2186.88  67.09
  0 -7  1 2139.49  68.69
  0 -7  1 2095.59  67.59
 -1  7 -1 850.41  26.60
 -1  7 -1 826.72  27.20
 -1  7 -1 827.62  26.30
 -1  7 -1 824.42  26.20
 -1  7 -1 844.82  27.30
 -1  7 -1 825.22  27.20
  1 -7  1 781.72  27.80
  1 -7  1 800.02  26.90
  1 -7  1 803.42  28.50
 -2  7 -1 514.95  17.40
 -2  7 -1 505.25  16.90
 -2  7 -1 507.65  16.70
 -2  7 -1 519.75  17.90
 -2  7 -1 517.85  18.30
 -2  7 -1 516.75  17.30
 -2  7 -1 487.85  16.90
  2 -7  1 515.35  19.50
  2 -7  1 516.55  19.10
  2 -7  1 509.75  17.60
  2 -7  1 474.05  26.60
  2 -7  1 500.05  20.20
  2 -7  1 504.15  20.20
 -3  7 -1 240.48  9.80
 -3  7 -1 244.78  8.90
 -3  7 -1 234.78  9.90
 -3  7 -1 241.88  9.90
 -3  7 -1 231.48  10.90
 -3  7 -1 254.37  8.90
 -3  7 -1 240.98  8.80
  3 -7  1 249.88  15.60
  3 -7  1 237.78  13.80
  3 -7  1 234.88  16.80
  3 -7  1 226.08  18.80
  3 -7  1 238.38  9.30
  3 -7  1 225.78  14.20
  3 -7  1 251.37  10.50
  3 -7  1 207.58  10.90
 -4  7 -1 241.08  9.00
 -4  7 -1 244.58  8.80
  4 -7  1 243.98  13.50
  4 -7  1 244.08  9.00
  4 -7  1 265.77  13.10
  4 -7  1 239.38  15.10
  4  6 -1 150.18  5.70
  4  6 -1 146.49  8.90
  4  6 -1 154.58  6.90
  4  6 -1 154.08  5.50
  4  6 -1 134.79  12.50
  3  6 -1 4385.36 143.99
  3  6 -1 4395.06 142.19
  3  6 -1 4961.10 151.08
  3  6 -1 4399.56 139.59
  3  6 -1 4408.56 139.69
  3  6 -1 4475.95 146.89
  3  6 -1 4454.85 160.68
  3  6 -1 4277.87 145.99
 -3 -6  1 4490.05 140.79
  2  6 -1 3710.73 121.69
  2  6 -1 3860.51 135.99
  2  6 -1 3624.44 120.09
  2  6 -1 3814.02 116.39
  2  6 -1 3880.91 119.89
  2  6 -1 3632.64 118.59
  2  6 -1 3759.12 118.09
  2  6 -1 3598.34 116.19
  2  6 -1 4112.99 129.79
  2  6 -1 3669.93 122.79
 -2 -6  1 3674.73 116.49
 -2 -6  1 3413.06 118.59
 -2 -6  1 3596.24 116.09
  1  6 -1 1358.56  43.70
  1  6 -1 1325.07  42.80
  1  6 -1 1296.47  42.30
 -1 -6  1 1279.07  41.60
 -1 -6  1 1322.77  42.00
 -1 -6  1 1322.57  42.80
 -1 -6  1 1343.97  45.10
  0  6 -1 547.65  19.20
  0  6 -1 583.84  19.00
  0  6 -1 576.54  19.30
  0  6 -1 592.04  19.80
  0  6 -1 570.24  18.80
  0 -6  1 574.74  19.10
  0 -6  1 582.14  20.50
  0 -6  1 570.14  18.90
  0 -6  1 587.24  18.70
  0 -6  1 608.34  20.10
 -1  6 -1 149.88  5.20
 -1  6 -1 128.49  5.50
 -1  6 -1 140.29  5.20
 -1  6 -1 127.89  4.90
 -1  6 -1 135.19  5.60
  1 -6  1 130.09  5.40
  1 -6  1 136.39  5.70
  1 -6  1 144.49  6.60
  1 -6  1 110.59  6.90
 -2  6 -1 3509.25 107.69
 -2  6 -1 3423.36 107.49
 -2  6 -1 3402.36 107.99
 -2  6 -1 3519.25 108.79
 -2  6 -1 3552.74 108.69
  2 -6  1 3509.15 110.79
  2 -6  1 3213.98 119.19
  2 -6  1 3525.85 111.09
  2 -6  1 3407.06 109.79
 -3  6 -1 845.12  26.40
 -3  6 -1 822.02  26.40
 -3  6 -1 849.12  27.60
 -3  6 -1 812.62  27.10
 -3  6 -1 800.92  27.60
  3 -6  1 784.22  38.00
  3 -6  1 794.22  35.60
  3 -6  1 858.51  27.10
  3 -6  1 741.93  26.90
  3 -6  1 800.72  29.90
  3 -6  1 799.92  31.40
  3 -6  1 818.22  27.70
  3 -6  1 815.62  34.20
  3 -6  1 808.22  31.40
 -4  6 -1  8.50  2.10
 -4  6 -1  5.30  1.80
  4 -6  1  4.30  3.40
  4 -6  1  8.40  4.10
  4 -6  1  2.90  1.50
  4 -6  1  5.00  4.10
  4  5 -1 203.68  10.90
  4  5 -1 203.88  7.20
  4  5 -1 185.38  15.80
  4  5 -1 198.88  7.40
  4  5 -1 201.98  11.10
  4  5 -1 205.28  11.40
  4  5 -1 201.88  8.90
  3  5 -1 781.22  32.00
  3  5 -1 800.42  33.30
  3  5 -1 729.33  31.70
  3  5 -1 800.52  26.30
  3  5 -1 804.22  26.30
  3  5 -1 823.32  29.10
  3  5 -1 837.72  30.50
  3  5 -1 880.91  36.90
  3  5 -1 781.12  29.20
  3  5 -1 800.12  43.40
 -3 -5  1 764.02  26.80
 -3 -5  1 804.52  26.30
 -3 -5  1 761.12  27.60
  2  5 -1 347.87  19.20
  2  5 -1 356.96  16.40
  2  5 -1 335.77  12.60
  2  5 -1 338.67  16.10
  2  5 -1 393.96  14.00
  2  5 -1 355.16  12.80
  2  5 -1 363.76  14.80
  2  5 -1 358.76  26.30
  2  5 -1 402.86  23.80
  2  5 -1 354.96  17.40
 -2 -5  1 357.36  13.00
 -2 -5  1 356.96  17.70
 -2 -5  1 371.16  12.70
 -2 -5  1 344.27  12.20
 -2 -5  1 372.86  12.20
  1  5 -1  75.39  4.40
  1  5 -1  83.59  4.40
 -1 -5  1  79.59  5.20
 -1 -5  1  89.79  3.20
 -1 -5  1  83.49  3.40
 -1 -5  1  75.59  3.70
 -1 -5  1  77.79  3.60
 -1 -5  1  76.39  3.90
  1 -5  1 3606.64 111.69
  1 -5  1 3802.62 113.09
  1 -5  1 3351.16 112.39
 -2  5 -1 1277.27  41.00
 -2  5 -1 1265.47  41.20
 -2  5 -1 1319.57  42.00
 -2  5 -1 1327.87  41.50
 -2  5 -1 1317.37  42.00
  2 -5  1 1269.17  42.80
  2 -5  1 1315.97  43.70
  2 -5  1 1328.47  43.90
 -3  5 -1 1907.71  60.19
 -3  5 -1 1924.21  60.69
 -3  5 -1 1937.71  61.89
 -3  5 -1 1973.20  61.29
  3 -5  1 1930.71  64.39
  3 -5  1 1869.31  67.89
  3 -5  1 1832.42  70.19
  3 -5  1 1925.71  64.79
  3 -5  1 1862.21  72.09
  3 -5  1 1884.01  62.99
  3 -5  1 1933.71  60.89
 -4  5 -1  4.20  1.90
 -4  5 -1  6.70  2.10
  4 -5  1  4.40  2.30
  4 -5  1  5.40  3.90
  4 -5  1  2.20  3.80
  4 -5  1  3.20  3.60
  4 -5  1  2.10  1.50
  4  4 -1 735.53  26.00
  4  4 -1 720.53  37.00
  4  4 -1 739.23  29.10
  4  4 -1 722.83  23.90
  4  4 -1 729.63  28.10
  4  4 -1 734.13  27.30
  4  4 -1 741.53  23.90
  4  4 -1 777.32  29.00
  3  4 -1 352.96  20.40
  3  4 -1 357.66  17.80
  3  4 -1 352.26  15.20
  3  4 -1 363.26  17.80
  3  4 -1 346.27  19.00
  3  4 -1 349.27  16.70
  3  4 -1 355.86  19.70
  3  4 -1 354.06  26.80
  3  4 -1 368.76  19.60
  3  4 -1 352.76  21.60
  3  4 -1 370.56  22.20
  3  4 -1 343.87  15.00
  3  4 -1 348.07  13.00
  3  4 -1 341.37  12.60
  3  4 -1 351.56  12.60
 -3 -4  1 340.67  13.90
 -3 -4  1 355.36  12.80
  2  4 -1 2350.26  75.29
  2  4 -1 2437.56  76.39
  2  4 -1 2325.27  75.29
 -2 -4  1 2273.17  73.49
 -2 -4  1 2371.76  74.09
 -2 -4  1 2442.96  78.39
 -2 -4  1 2319.87  74.09
  1  4 -1 2800.62  88.89
  1  4 -1 3071.29  88.99
  1  4 -1 2739.23  88.29
 -1 -4  1 2697.93  87.39
 -1 -4  1 2858.71  87.89
 -1 -4  1 2730.33  87.99
  0  4 -1 1503.25  47.30
  0  4 -1 1445.16  47.00
  0  4 -1 1460.95  47.30
  0  4 -1 1524.75  47.60
  0  4 -1 1509.55  47.20
  0 -4  1 1569.74  47.80
  0 -4  1 1443.56  47.20
  0 -4  1 1497.25  47.10
  0 -4  1 1544.85  48.20
  0 -4  1 1562.34  47.00
 -1  4 -1 1154.88  36.30
 -1  4 -1 1150.68  36.00
 -1  4 -1 1185.58  35.80
 -1  4 -1 1150.58  36.20
  1 -4  1 1114.79  36.10
  1 -4  1 1126.09  36.20
  1 -4  1 1024.80  36.90
  1 -4  1 1240.18  37.30
 -2  4 -1 698.73  23.10
 -2  4 -1 699.83  22.80
 -2  4 -1 671.33  22.50
 -2  4 -1 694.63  23.30
  2 -4  1 719.53  24.90
  2 -4  1 694.93  23.90
  2 -4  1 742.33  24.90
 -3  4 -1 2477.35  76.99
 -3  4 -1 2281.87  75.79
 -3  4 -1 2445.26  76.49
  3 -4  1 2464.05 103.39
  3 -4  1 2388.86  78.59
  3 -4  1 2501.35  86.29
  3 -4  1 2269.07  88.49
  3 -4  1 2586.84  86.09
  3 -4  1 2435.16  80.29
  3 -4  1 2471.65  79.79
  3 -4  1 2428.76  77.09
  3 -4  1 2356.56  76.89
  3 -4  1 2440.86  86.79
  3 -4  1 2408.76  77.19
 -4  4 -1 381.86  15.90
 -4  4 -1 422.96  14.90
  4 -4  1 484.95  20.60
  4 -4  1 462.55  21.60
  4 -4  1 462.55  15.50
  4  3 -1  5.70  2.50
  4  3 -1  11.80  7.60
  4  3 -1  7.80  1.60
  4  3 -1  11.30  4.90
  4  3 -1  6.10  4.60
  4  3 -1  10.40  2.10
  3  3 -1  83.69  10.90
  3  3 -1  92.19  6.50
  3  3 -1  90.99  11.70
  3  3 -1  83.09  10.20
  3  3 -1  87.39  8.50
  3  3 -1  92.69  7.50
  3  3 -1  85.39  17.10
  3  3 -1  91.09  8.70
  3  3 -1  82.79  14.20
  3  3 -1  84.69  19.30
  3  3 -1  93.49  14.10
  3  3 -1  91.79  6.80
  2  3 -1 136.29  6.60
  2  3 -1 135.49  6.20
  2  3 -1 133.29  7.60
  2  3 -1 132.99  5.90
  2  3 -1 136.49  6.20
 -2 -3  1 137.49  5.40
 -2 -3  1 141.59  8.10
 -2 -3  1 127.19  4.80
  1  3 -1 2338.37  71.59
  1  3 -1 2220.48  71.09
  1  3 -1 2422.26  71.89
  1  3 -1 2163.48  70.99
 -1 -3  1 2257.57  70.59
 -1 -3  1 2265.67  70.49
 -1 -3  1 2184.18  70.19
 -1  3 -1 744.63  23.60
 -1  3 -1 762.42  23.80
 -1  3 -1 744.43  23.70
  1 -3  1 775.72  24.60
  1 -3  1 708.23  24.40
  1 -3  1 737.33  23.60
  1 -3  1 729.93  24.10
  1 -3  1 760.62  23.80
 -2  3 -1  6.90  1.60
 -2  3 -1  10.50  1.50
 -3  3 -1  55.69  3.40
 -3  3 -1  56.99  3.70
 -3  3 -1  48.70  2.80
  3 -3  1  50.49  4.00
  3 -3  1  51.19  9.30
  3 -3  1  54.19  5.50
  3 -3  1  52.69  9.50
  3 -3  1  55.59  8.60
  3 -3  1  53.49  3.80
  3 -3  1  56.19  5.10
  3 -3  1  54.29  6.10
  3 -3  1  49.99  9.80
  3 -3  1  53.89  5.40
  3 -3  1  60.39  11.00
 -4  3 -1 1020.20  37.20
 -4  3 -1 1117.99  36.30
  4 -3  1 1230.38  37.00
  4 -3  1 1249.97  44.80
  4 -3  1 1151.98  44.80
  4 -3  1 1121.49  42.10
  4 -3  1 1052.09  52.49
  4 -3  1 1180.18  36.80
  4  2 -1  10.90  4.00
  4  2 -1  16.20  8.30
  4  2 -1  17.20  2.80
  4  2 -1  10.20  1.80
  4  2 -1  17.90  5.70
  4  2 -1  12.30  6.40
  3  2 -1 2008.60  73.19
  3  2 -1 1920.81  63.99
  3  2 -1 1957.60  61.99
  3  2 -1 1960.60  70.69
  3  2 -1 1880.81  66.69
  3  2 -1 2039.10  67.19
  3  2 -1 1926.21  70.49
  3  2 -1 1940.51  64.79
  3  2 -1 2054.69  73.79
  3  2 -1 1931.21  62.49
  3  2 -1 1975.50  63.79
  3  2 -1 1919.91  62.09
  3  2 -1 2093.99  72.39
  3  2 -1 1934.91  63.39
  3  2 -1 1991.90  70.09
  3  2 -1 1713.63  65.39
  3  2 -1 1974.20  61.99
  3  2 -1 2023.60  80.49
  2  2 -1 7173.98 224.28
  1  2 -1 614.84  20.60
  1  2 -1 627.44  20.70
  1  2 -1 649.93  21.00
  1  2 -1 683.23  21.60
  1  2 -1 604.14  20.40
  1  2 -1 627.84  20.60
 -1 -2  1 638.54  19.80
 -1 -2  1 650.93  21.40
 -1 -2  1 626.54  19.80
  0  2 -1 282.57  9.10
  0  2 -1 271.37  8.90
  0  2 -1 278.17  9.00
  0 -2  1 276.67  9.40
  0 -2  1 273.67  9.00
  0 -2  1 274.57  8.90
  0 -2  1 291.47  8.80
  1 -2  1 2505.65  75.59
  1 -2  1 2402.86  75.99
  1 -2  1 2347.97  75.89
 -2  2 -1 3048.90  95.69
 -2  2 -1 3009.70  95.79
 -2  2 -1 2953.90  95.29
 -2  2 -1 2928.31  95.59
  2 -2  1 3124.99  97.59
  2 -2  1 3254.57  97.89
  2 -2  1 3169.48  95.89
  2 -2  1 3086.59  96.89
 -3  2 -1 4298.87 148.09
 -3  2 -1 4624.94 146.59
 -3  2 -1 4731.43 147.49
  3 -2  1 4920.01 147.99
  3 -2  1 4922.61 147.59
  3 -2  1 4662.23 150.58
  3 -2  1 4888.81 150.08
  3 -2  1 4769.12 150.68
  3 -2  1 4602.04 156.08
  3 -2  1 4816.12 157.48
  3 -2  1 4760.12 158.08
  3 -2  1 4541.45 147.79
  3 -2  1 5090.29 157.88
  3 -2  1 4680.03 149.09
  3 -2  1 4645.94 154.08
  3 -2  1 4635.94 150.78
  4 -2  1 159.18  8.10
  4 -2  1 143.99  11.60
  4 -2  1 136.29  10.90
  4 -2  1 138.09  5.90
  4 -2  1 153.38  8.10
  4 -2  1 135.39  9.80
  4 -2  1 146.49  12.70
  4  1 -1 2028.00  73.79
  4  1 -1 2112.99  68.79
  4  1 -1 2100.19  66.89
  4  1 -1 2121.79  66.49
  4  1 -1 2067.79  70.89
  4  1 -1 2159.08  66.29
  4  1 -1 2181.58  75.69
  4  1 -1 2034.90  74.09
  4  1 -1 2153.58  73.59
  3  1 -1 717.03  33.60
  3  1 -1 663.43  30.60
  3  1 -1 683.33  23.00
  3  1 -1 649.64  27.40
  3  1 -1 707.53  24.50
  3  1 -1 668.03  30.50
  3  1 -1 717.83  38.30
  3  1 -1 680.63  30.10
  3  1 -1 684.23  22.90
  3  1 -1 695.23  27.30
  3  1 -1 680.93  23.10
  3  1 -1 735.03  34.20
  3  1 -1 672.83  26.30
  3  1 -1 684.93  23.50
  3  1 -1 711.23  31.80
  3  1 -1 715.03  25.70
  3  1 -1 695.23  24.30
  2  1 -1 583.14  20.00
  2  1 -1 589.94  20.30
  2  1 -1 587.94  19.70
  2  1 -1 608.44  20.40
  2  1 -1 597.24  19.70
  2  1 -1 593.24  21.90
 -2 -1  1 580.54  20.70
 -2 -1  1 550.54  18.60
 -2 -1  1 567.94  18.70
 -2 -1  1 572.94  18.90
  1  1 -1 1070.99  35.00
  1  1 -1 1105.09  35.20
  1  1 -1 1145.69  36.10
  1  1 -1 1093.69  35.00
  1  1 -1 1131.69  35.40
  1  1 -1 1104.59  35.10
 -1 -1  1 1112.19  35.60
 -2  1 -1 851.91  27.50
 -2  1 -1 890.11  27.60
 -2  1 -1 797.42  29.50
 -2  1 -1 888.51  73.99
 -2  1 -1 809.02  27.40
 -2  1 -1 914.21 111.59
  2 -1  1 869.51  28.60
  2 -1  1 892.11  28.10
  2 -1  1 894.81  29.50
  2 -1  1 911.41  29.40
 -3  1 -1 2090.89  65.99
 -3  1 -1 2120.59  66.69
 -3  1 -1 2099.59  66.59
  3 -1  1 2186.78  76.69
  3 -1  1 2136.69  76.49
  3 -1  1 1992.60  74.59
  3 -1  1 2037.70  69.69
  3 -1  1 2131.39  66.89
  3 -1  1 2145.49  73.99
  3 -1  1 2122.49  73.19
  3 -1  1 2157.38  69.89
  3 -1  1 2085.99  68.29
  3 -1  1 2232.98  84.19
  3 -1  1 2099.29  67.29
  3 -1  1 2045.90  67.19
  3 -1  1 2053.79  76.59
  3 -1  1 2157.78  76.49
  3 -1  1 2141.19  69.59
  3 -1  1 2091.79  70.59
  4 -1  1  57.49  6.60
  4 -1  1  55.19  7.40
  4 -1  1  58.89  3.30
  4 -1  1  58.89  8.30
  4 -1  1  63.69  5.50
  4 -1  1  59.79  7.90
  4  0 -1 266.17  11.30
  4  0 -1 236.28  26.80
  4  0 -1 250.47  17.60
  4  0 -1 254.07  13.30
  4  0 -1 260.67  15.10
  4  0 -1 271.77  10.10
  4  0 -1 254.97  15.50
  4  0 -1 261.57  9.90
  4  0 -1 257.17  9.40
  4  0 -1 256.47  16.00
  3  0 -1 1447.76  61.29
  3  0 -1 1292.57  49.60
  3  0 -1 1507.65  54.49
  3  0 -1 1364.26  53.59
  3  0 -1 1455.45  56.59
  3  0 -1 1391.56  46.70
  3  0 -1 1383.16  47.00
  3  0 -1 1409.36  45.90
  3  0 -1 1478.65  48.00
  3  0 -1 1370.86  53.59
  3  0 -1 1481.55  49.80
  3  0 -1 1329.47  45.30
  3  0 -1 1466.65  53.49
  3  0 -1 1498.65  57.39
  3  0 -1 1407.76  45.40
 -3  0  1 1389.26  45.00
 -3  0  1 1381.56  44.70
  2  0 -1 278.07  10.20
  2  0 -1 284.57  10.50
  2  0 -1 290.07  11.10
  2  0 -1 295.97  10.90
  2  0 -1 286.87  10.70
  2  0 -1 296.27  12.50
 -2  0  1 277.07  9.60
 -2  0  1 282.47  9.70
 -2  0  1 280.17  10.90
  1  0 -1 245.28  8.50
  1  0 -1 259.07  8.90
  1  0 -1 259.07  9.70
  1  0 -1 259.77  8.60
  1  0 -1 253.27  8.80
  1  0 -1 246.88  8.60
 -1  0  1 257.27  8.30
 -1  0  1 252.27  8.80
  0  0 -1 775.22  24.90
  0  0  1 835.42  24.90
  0  0  1 808.92  24.90
  0  0  1 784.02  25.00
 -2  0 -1 989.50  34.80
 -2  0 -1 1019.40  32.40
 -2  0 -1 1017.90  32.30
 -2  0 -1 983.20  32.10
  2  0  1 1066.09  34.30
  2  0  1 1041.50  34.10
  2  0  1 1025.50  33.20
  2  0  1 1070.79  33.50
  2  0  1 1016.00  33.40
 -3  0 -1 598.94  19.80
 -3  0 -1 598.64  19.90
  3  0  1 576.64  27.50
  3  0  1 600.54  22.50
  3  0  1 600.24  23.00
  3  0  1 628.14  35.90
  3  0  1 570.04  25.30
  3  0  1 595.54  22.70
  3  0  1 617.24  27.60
  3  0  1 580.64  20.50
  3  0  1 618.24  21.50
  3  0  1 610.54  24.70
  3  0  1 588.34  27.50
  3  0  1 580.94  20.50
  3  0  1 601.94  20.20
  3  0  1 599.64  28.70
  3  0  1 583.14  28.50
  3  0  1 595.54  29.00
  4  0  1 614.44  25.30
  4  0  1 643.94  28.10
  4  0  1 644.54  28.40
  4  0  1 635.84  27.60
  4  0  1 718.43  34.20
  4  0  1 573.44  23.20
  4 -1 -1  29.50  7.10
  4 -1 -1  37.00  5.70
  4 -1 -1  34.70  6.80
  4 -1 -1  35.20  6.90
  4 -1 -1  38.50  6.00
  4 -1 -1  33.00  6.70
  4 -1 -1  37.90  3.70
  4 -1 -1  42.70  3.20
  4 -1 -1  32.90  2.80
  3 -1 -1  16.50  2.70
  3 -1 -1  21.10  9.30
  3 -1 -1  21.60  8.40
  3 -1 -1  15.20  6.00
  3 -1 -1  25.30  8.00
  3 -1 -1  14.80  6.80
  3 -1 -1  22.20  5.10
  3 -1 -1  15.00  8.60
  3 -1 -1  18.30  8.40
  3 -1 -1  21.20  3.90
  3 -1 -1  17.80  6.50
  3 -1 -1  22.30  6.70
 -3  1  1  19.40  2.90
  2 -1 -1  5.20  1.30
  2 -1 -1  3.60  1.40
  2 -1 -1  3.00  1.60
 -2  1  1  4.30  1.80
 -2  1  1  4.80  1.10
  1 -1 -1  25.90  1.70
  1 -1 -1  21.70  1.20
  1 -1 -1  27.50  1.60
  1 -1 -1  22.60  2.20
  1 -1 -1  20.60  1.50
  1 -1 -1  20.70  1.60
 -1  1  1  24.70  1.30
 -1  1  1  26.10  1.30
 -1 -1 -1 512.25  16.70
 -1 -1 -1 525.15  16.70
  1  1  1 514.95  17.20
  1  1  1 549.25  17.40
  1  1  1 536.85  17.70
  1  1  1 545.25  17.60
  1  1  1 538.65  17.30
 -2 -1 -1 6622.84 209.98
 -3 -1 -1  75.19  3.90
 -3 -1 -1  72.19  5.00
  3  1  1  74.99  10.80
  3  1  1  81.19  5.70
  3  1  1  78.39  5.00
  3  1  1  82.59  11.90
  3  1  1  74.89  4.80
  3  1  1  79.49  4.40
  3  1  1  87.99  9.70
  3  1  1  78.59  6.10
  3  1  1  74.69  11.20
  3  1  1  73.39  4.60
  3  1  1  75.29  8.00
  3  1  1  81.09  7.20
  3  1  1  86.09  6.10
  3  1  1  75.89  16.00
  3  1  1  76.59  9.90
  3  1  1  78.19  9.60
  3  1  1  74.29  10.30
  4  1  1 877.51  32.10
  4  1  1 909.71  29.50
  4  1  1 912.11  29.80
  4  1  1 963.70  43.60
  4 -2 -1  -1.70  3.50
  4 -2 -1  1.70  4.20
  4 -2 -1  0.90  2.10
  4 -2 -1  4.00  1.60
  4 -2 -1  4.40  2.80
  4 -2 -1  1.20  1.40
  4 -2 -1  2.10  3.60
  3 -2 -1 664.93  31.20
  3 -2 -1 677.63  35.80
  3 -2 -1 683.13  22.70
  3 -2 -1 662.63  22.70
  3 -2 -1 676.93  24.20
  3 -2 -1 648.64  31.20
  3 -2 -1 670.03  24.10
  3 -2 -1 674.53  23.10
  3 -2 -1 660.03  24.30
  3 -2 -1 671.63  28.00
  3 -2 -1 676.33  32.20
  3 -2 -1 690.03  30.00
  3 -2 -1 682.03  29.70
  3 -2 -1 696.53  33.40
  3 -2 -1 667.63  22.60
  3 -2 -1 654.93  26.00
 -3  2  1 643.74  21.90
 -3  2  1 655.63  22.20
 -1 -2 -1 203.48  6.80
 -1 -2 -1 200.38  6.60
 -1 -2 -1 197.48  6.40
 -1 -2 -1 204.68  6.60
  1  2  1 201.38  7.30
  1  2  1 203.18  7.00
  1  2  1 200.18  7.40
  1  2  1 202.18  7.50
  1  2  1 201.98  7.40
 -2 -2 -1 2088.59  65.49
 -2 -2 -1 2081.49  65.79
 -2 -2 -1 2100.89  65.69
  2  2  1 2247.38  67.59
  2  2  1 2102.79  67.49
  2  2  1 2063.79  67.29
  2  2  1 2055.79  66.89
  2  2  1 2056.99  66.59
 -3 -2 -1 2260.57  70.09
 -3 -2 -1 2268.67 114.39
  3  2  1 2102.49  72.29
  3  2  1 2146.29  78.89
  3  2  1 2172.78  69.89
  3  2  1 2287.97  75.29
  3  2  1 2186.78  81.09
  3  2  1 2264.37  78.19
  3  2  1 2144.39  70.09
  3  2  1 2412.56 111.29
  3  2  1 2158.08  71.99
  4  2  1 289.47  21.20
  4  2  1 269.27  12.10
  4  2  1 272.37  15.50
  4  2  1 274.97  13.20
  4  2  1 276.27  10.00
  4  2  1 270.27  15.20
  4 -3 -1 1915.41  59.89
  4 -3 -1 1881.51  64.39
  4 -3 -1 1780.12  68.49
  4 -3 -1 1875.11  60.19
  4 -3 -1 1837.92  67.89
  4 -3 -1 2023.20  65.59
  3 -3 -1 905.71  31.20
  3 -3 -1 919.91  29.60
  3 -3 -1 866.41  29.50
  3 -3 -1 902.11  36.70
  3 -3 -1 869.11  39.00
  3 -3 -1 884.61  29.20
  3 -3 -1 903.81  39.00
  3 -3 -1 914.21  35.20
  3 -3 -1 892.51  38.90
  3 -3 -1 883.71  32.30
  3 -3 -1 879.11  29.90
  3 -3 -1 942.21  40.60
  3 -3 -1 903.61  43.00
  3 -3 -1 883.11  31.20
 -3  3  1 880.21  29.10
 -3  3  1 876.51  29.30
 -3  3  1 839.92  28.30
  2 -3 -1 6470.85 196.08
 -2  3  1 6023.50 193.38
  1 -3 -1 878.31  28.20
  1 -3 -1 888.61  28.90
  1 -3 -1 893.31  28.40
  1 -3 -1 868.61  27.70
  1 -3 -1 909.81  29.90
 -1  3  1 864.01  28.10
 -1  3  1 877.41  28.00
 -1  3  1 904.11  28.20
  0 -3 -1 741.63  24.10
  0 -3 -1 735.03  24.50
  0 -3 -1 799.52  24.20
  0 -3 -1 801.12  24.80
  0  3  1 757.52  24.40
  0  3  1 751.72  24.20
  0  3  1 778.72  24.30
  0  3  1 766.82  24.00
 -2 -3 -1 989.60  31.60
 -2 -3 -1 959.90  31.10
 -2 -3 -1 993.80  31.10
 -2 -3 -1 923.21  31.00
  2  3  1 1027.60  33.50
  2  3  1 955.70  32.60
  2  3  1 1027.90  33.00
 -3 -3 -1 609.14  21.10
 -3 -3 -1 593.04  20.40
  3  3  1 649.24  26.60
  3  3  1 638.84  23.50
  3  3  1 616.04  23.50
  3  3  1 627.44  21.10
  3  3  1 590.04  28.30
  3  3  1 633.14  21.10
  3  3  1 622.54  24.10
  3  3  1 641.14  38.50
  3  3  1 637.44  28.50
  3  3  1 630.74  20.80
  3  3  1 606.34  27.90
  3  3  1 633.04  25.40
  4  3  1 116.49  5.00
  4  3  1 107.69  8.70
  4  3  1 130.59  9.00
  4  3  1 110.19  6.90
  4  3  1 118.09  5.60
  4  3  1 114.79  13.80
  4 -4 -1 263.17  9.50
  4 -4 -1 231.98  19.80
  4 -4 -1 280.37  15.20
  4 -4 -1 236.18  16.50
  4 -4 -1 249.58  11.10
 -4  4  1 250.37  9.10
 -4  4  1 209.68  10.20
  3 -4 -1 824.22  37.40
  3 -4 -1 827.82  37.40
  3 -4 -1 836.32  27.70
  3 -4 -1 839.32  37.00
  3 -4 -1 771.42  37.30
  3 -4 -1 830.52  34.70
  3 -4 -1 831.52  29.80
  3 -4 -1 846.12  28.00
  3 -4 -1 852.21  33.50
  3 -4 -1 825.22  30.90
  3 -4 -1 848.02  27.40
 -3  4  1 800.52  26.50
 -3  4  1 812.82  27.50
 -3  4  1 853.91  27.50
  2 -4 -1 434.26  15.10
  2 -4 -1 407.06  15.30
  2 -4 -1 423.86  16.00
 -2  4  1 415.66  14.40
 -2  4  1 422.36  14.20
 -2  4  1 387.46  13.80
 -2  4  1 421.76  14.10
  1 -4 -1 2433.66  74.49
  1 -4 -1 2439.46  74.19
  1 -4 -1 2347.07  74.69
  1 -4 -1 2231.38  73.79
  1 -4 -1 2303.67  75.29
 -1  4  1 2454.25  74.39
 -1  4  1 2428.56  73.89
 -1 -4 -1 1668.33  52.49
 -1 -4 -1 1640.54  52.59
 -1 -4 -1 1734.33  53.19
 -1 -4 -1 1676.83  52.69
 -1 -4 -1 1665.83  52.49
  1  4  1 1668.33  54.09
  1  4  1 1693.33  53.49
  1  4  1 1716.63  53.59
 -2 -4 -1 2834.22  88.89
 -2 -4 -1 2765.82  89.69
 -2 -4 -1 2810.02  88.99
  2  4  1 2837.72  90.79
  2  4  1 3065.89  92.19
  2  4  1 2795.32  90.79
 -3 -4 -1  19.50  3.80
 -3 -4 -1  16.40  3.00
 -3 -4 -1  18.60  3.30
  3  4  1  24.20  7.60
  3  4  1  17.80  9.30
  3  4  1  17.20  6.90
  3  4  1  15.90  4.50
  3  4  1  23.70  6.70
  3  4  1  17.50  2.70
  3  4  1  17.70  2.90
  3  4  1  22.20  5.20
  3  4  1  20.00  6.80
  4  4  1 375.76  13.30
  4  4  1 395.16  15.90
  4  4  1 371.46  24.90
  4  4  1 378.66  17.50
  4  4  1 397.46  13.10
  4  4  1 373.16  15.10
  4  4  1 412.66  16.20
  4 -5 -1 615.24  20.20
  4 -5 -1 619.64  24.00
  4 -5 -1 616.24  27.60
  4 -5 -1 627.64  20.30
  4 -5 -1 558.84  28.30
 -4  5  1 561.64  19.70
  3 -5 -1  -1.40  3.50
  3 -5 -1  9.10  4.00
  3 -5 -1  6.00  7.30
  3 -5 -1  7.00  5.00
  3 -5 -1  3.40  2.00
  3 -5 -1  3.90  3.50
  3 -5 -1  8.30  5.90
  3 -5 -1  4.60  2.10
  3 -5 -1  2.20  6.00
 -3  5  1  3.00  1.30
 -3  5  1  3.90  1.90
 -3  5  1  0.20  2.70
  2 -5 -1 2174.98  69.89
  2 -5 -1 2280.77  68.49
  2 -5 -1 2079.39  68.79
 -2  5  1 2116.29  67.49
 -2  5  1 2096.79  66.79
 -2  5  1 2104.09  66.59
 -2  5  1 2113.59  67.59
 -2  5  1 2080.39  67.09
  1 -5 -1 2336.87  69.99
  1 -5 -1 2059.59  68.99
 -1  5  1 2240.18  68.79
 -1  5  1 2180.08  69.39
 -1  5  1 2208.68  68.89
 -1  5  1 2239.88  69.59
  0 -5 -1 3414.36 106.09
  0 -5 -1 3352.96 105.89
  0 -5 -1 3422.36 106.19
  0  5  1 3431.26 106.39
 -1 -5 -1 522.95  17.80
 -1 -5 -1 543.65  17.60
 -1 -5 -1 538.55  17.70
 -1 -5 -1 542.15  17.80
  1  5  1 572.34  18.80
  1  5  1 550.94  19.40
 -2 -5 -1 166.68  6.50
 -2 -5 -1 167.78  6.60
 -2 -5 -1 165.98  7.20
  2  5  1 163.78  19.40
  2  5  1 171.38  12.90
  2  5  1 179.78  13.10
  2  5  1 159.28  10.50
  2  5  1 166.28  6.90
  2  5  1 171.68  8.00
  2  5  1 172.08  9.10
  2  5  1 146.59  13.00
  2  5  1 164.78  9.70
  2  5  1 175.38  7.20
 -3 -5 -1 349.47  13.70
 -3 -5 -1 354.56  12.70
 -3 -5 -1 344.17  14.80
  3  5  1 363.06  15.50
  3  5  1 344.97  16.00
  3  5  1 342.07  28.30
  3  5  1 352.66  12.80
  3  5  1 374.76  18.70
  3  5  1 329.57  17.30
  3  5  1 364.16  12.70
  3  5  1 357.96  19.00
  4  5  1 1014.30  48.30
  4  5  1 1128.59  35.90
  4  5  1 1196.78  35.80
  4  5  1 1124.09  37.60
  4  5  1 1164.88  40.00
  4 -6 -1 308.67  13.80
  4 -6 -1 288.17  16.70
  4 -6 -1 267.07  17.50
  4 -6 -1 294.07  10.60
  4 -6 -1 296.87  10.50
 -4  6  1 281.27  10.30
 -4  6  1 282.37  10.30
  3 -6 -1 1611.64  55.99
  3 -6 -1 1533.45  55.09
  3 -6 -1 1485.75  53.19
  3 -6 -1 1518.65  59.09
  3 -6 -1 1517.45  60.59
  3 -6 -1 1454.85  62.49
  3 -6 -1 1588.64  50.19
  3 -6 -1 1601.44  50.29
 -3  6  1 1538.05  49.30
 -3  6  1 1544.25  50.29
 -3  6  1 1618.94  49.20
 -3  6  1 1614.44  50.59
  2 -6 -1 1606.54  56.19
  2 -6 -1 1712.43  57.49
  2 -6 -1 1537.45  55.19
  2 -6 -1 1718.33  54.09
  2 -6 -1 1727.03  66.59
  2 -6 -1 1797.02  54.89
 -2  6  1 1756.02  54.69
 -2  6  1 1729.13  54.19
 -2  6  1 1647.14  54.79
 -2  6  1 1760.02  53.79
 -2  6  1 1747.73  53.59
  1 -6 -1 1165.88  36.80
  1 -6 -1 1027.30  36.50
  1 -6 -1 1187.28  38.30
  1 -6 -1 1147.49  37.00
  1 -6 -1 1067.39  38.50
 -1  6  1 1172.38  37.20
 -1  6  1 1204.68  37.10
 -1  6  1 1166.28  36.60
 -1  6  1 1142.99  36.30
 -1  6  1 1157.18  36.40
 -1  6  1 1212.98  36.20
  0 -6 -1  1.40  0.80
  0 -6 -1  2.90  1.60
  0 -6 -1  2.60  1.40
  0  6  1  1.50  0.90
  0  6  1  3.20  1.40
  0  6  1  2.50  0.80
  0  6  1  4.00  1.20
  0  6  1  3.20  1.30
 -1 -6 -1 337.57  12.40
 -1 -6 -1 335.97  11.30
 -1 -6 -1 325.57  11.90
 -1 -6 -1 309.67  11.20
 -1 -6 -1 326.87  11.50
  1  6  1 346.47  13.20
  1  6  1 328.27  12.30
 -2 -6 -1 1754.72  56.49
 -2 -6 -1 1805.12  56.89
 -2 -6 -1 1845.52  57.99
 -2 -6 -1 1732.03  56.59
  2  6  1 1804.32  76.59
  2  6  1 1709.63  63.19
  2  6  1 1841.82  59.69
  2  6  1 1847.82  56.79
  2  6  1 1754.42  56.49
  2  6  1 1746.03  60.29
  2  6  1 1779.32  60.59
  2  6  1 1751.22  63.29
  2  6  1 1805.52  56.59
  2  6  1 1803.02  58.59
 -3 -6 -1 1067.69  34.30
 -3 -6 -1 1065.19  34.80
  3  6  1 1043.90  40.50
  3  6  1 1065.09  34.00
  3  6  1 1055.99  37.80
  3  6  1 1027.90  40.40
  3  6  1 1053.19  34.20
  3  6  1 1010.50  53.39
  3  6  1 1057.09  36.80
  4  6  1  53.99  2.90
  4  6  1  48.90  3.60
  4  6  1  55.29  6.20
  4  6  1  47.90  2.50
  4  6  1  42.30  7.70
  4 -7 -1 1362.16  49.80
  4 -7 -1 1373.46  43.10
  4 -7 -1 1449.95  45.80
  4 -7 -1 1302.07  51.99
 -4  7  1 1364.06  42.60
 -4  7  1 1360.36  42.80
 -4  7  1 1217.48  43.60
  3 -7 -1 588.34  27.90
  3 -7 -1 629.54  34.80
  3 -7 -1 582.54  26.30
  3 -7 -1 674.63  22.40
  3 -7 -1 685.63  27.70
  3 -7 -1 660.83  22.50
  3 -7 -1 626.94  31.90
 -3  7  1 691.13  21.50
 -3  7  1 690.83  23.00
 -3  7  1 661.53  21.50
 -3  7  1 642.64  22.90
 -3  7  1 676.03  21.60
  2 -7 -1 413.06  17.90
  2 -7 -1 436.26  18.90
  2 -7 -1 415.66  25.40
  2 -7 -1 458.45  17.40
  2 -7 -1 464.15  16.10
  2 -7 -1 408.06  21.30
 -2  7  1 459.35  14.80
 -2  7  1 437.56  14.90
 -2  7  1 472.65  16.10
 -2  7  1 416.46  14.90
 -2  7  1 444.66  15.40
 -2  7  1 455.95  15.40
  1 -7 -1 2092.39  69.09
  1 -7 -1 2098.69  70.29
  1 -7 -1 2111.29  67.89
 -1  7  1 2171.88  68.39
 -1  7  1 2228.48  68.39
 -1  7  1 2166.58  67.29
 -1  7  1 2177.58  67.69
 -1  7  1 2155.18  67.39
  0 -7 -1  65.09  4.50
  0 -7 -1  61.59  3.20
  0 -7 -1  54.99  4.10
  0 -7 -1  61.09  3.30
  0  7  1  59.29  3.80
  0  7  1  59.99  3.70
  0  7  1  54.29  4.00
  0  7  1  61.89  3.00
 -1 -7 -1 2329.97  75.99
 -1 -7 -1 2330.47  74.69
 -1 -7 -1 2347.07  74.99
 -1 -7 -1 2413.36  74.39
 -1 -7 -1 2310.07  74.59
  1  7  1 2382.36  77.09
  1  7  1 2471.95  75.89
 -2 -7 -1 1087.89  35.40
 -2 -7 -1 1081.69  36.10
 -2 -7 -1 1107.09  35.70
 -2 -7 -1 1068.29  35.70
 -2 -7 -1 1152.18  37.00
  2  7  1 1093.69  37.90
  2  7  1 1255.27  52.49
  2  7  1 1035.30  41.50
  2  7  1 944.21  41.40
  2  7  1 1090.29  35.10
  2  7  1 1104.99  35.10
  2  7  1 1089.29  37.40
  2  7  1 1088.79  54.29
  2  7  1 1117.09  35.40
  2  7  1 972.20  39.20
 -3 -7 -1  22.90  4.40
  3  7  1  30.10  7.00
  3  7  1  27.90  4.30
  3  7  1  28.60  2.50
  3  7  1  32.10  7.40
  3  7  1  32.90  2.80
  3  7  1  31.80  11.50
  4 -8 -1 132.19  5.30
  4 -8 -1 132.39  9.90
  4 -8 -1 122.49  10.20
 -4  8  1 127.29  5.10
 -4  8  1 128.89  5.60
 -4  8  1 125.39  5.20
 -4  8  1 119.29  5.60
  3 -8 -1 1358.86  57.19
  3 -8 -1 1390.96  61.69
  3 -8 -1 1486.05  47.70
  3 -8 -1 1512.25  51.99
  3 -8 -1 1443.56  46.80
 -3  8  1 1435.16  46.30
 -3  8  1 1461.05  47.80
 -3  8  1 1504.75  46.20
 -3  8  1 1458.35  46.00
  2 -8 -1 268.07  10.60
  2 -8 -1 229.08  13.00
  2 -8 -1 281.77  12.40
  2 -8 -1 258.07  20.10
  2 -8 -1 231.38  13.80
 -2  8  1 270.67  10.00
 -2  8  1 274.67  9.60
 -2  8  1 269.97  10.30
 -2  8  1 281.27  10.70
 -2  8  1 267.37  9.50
 -2  8  1 264.77  9.50
  1 -8 -1 1010.40  34.20
  1 -8 -1 1001.50  35.50
  1 -8 -1 1008.70  34.80
  1 -8 -1 995.90  33.00
 -1  8  1 1001.20  32.50
 -1  8  1 1011.70  32.60
 -1  8  1 1016.30  32.10
 -1  8  1 1017.60  32.20
 -1  8  1 1002.90  32.10
 -1  8  1 984.60  33.30
  0 -8 -1 1773.62  55.79
  0 -8 -1 1688.13  54.59
  0 -8 -1 1699.23  53.69
  0 -8 -1 1673.03  53.99
  0 -8 -1 1737.13  53.69
  0 -8 -1 1696.03  53.89
  0  8  1 1589.74  54.29
  0  8  1 1660.63  53.39
  0  8  1 1689.73  54.09
  0  8  1 1658.63  55.19
 -1 -8 -1 1808.42  56.59
 -1 -8 -1 1795.72  56.79
 -1 -8 -1 1811.52  56.79
 -1 -8 -1 1830.22  58.49
 -1 -8 -1 1727.03  56.79
 -1 -8 -1 1737.23  57.09
  1  8  1 1783.62  74.09
  1  8  1 1815.12  56.89
  1  8  1 1732.83  56.19
  1  8  1 1824.62  60.49
  1  8  1 1759.52  56.49
  1  8  1 1784.72  57.89
  1  8  1 1733.33  59.39
 -2 -8 -1 9093.69 278.27
 -2 -8 -1 9020.30 278.57
 -2 -8 -1 9336.97 280.17
 -2 -8 -1 8927.41 277.97
 -2 -8 -1 9332.87 278.67
  2  8  1 8859.81 280.27
  2  8  1 8906.41 280.47
  2  8  1 8546.84 283.27
  2  8  1 8944.41 277.57
  2  8  1 7908.11 284.27
  2  8  1 9072.29 277.87
  2  8  1 9209.08 277.67
  2  8  1 9156.68 301.67
 -3 -8 -1 117.69  6.10
 -3 -8 -1 115.49  7.40
  3  8  1 114.19  19.30
  3  8  1 120.99  6.90
  3  8  1 113.79  6.10
  3  8  1 122.59  5.90
  4 -9 -1  53.09  2.90
  4 -9 -1  59.29  7.30
  4 -9 -1  54.69  6.30
 -4  9  1  52.49  2.80
 -4  9  1  53.29  3.10
 -4  9  1  55.89  4.00
  3 -9 -1  57.99  6.70
  3 -9 -1  58.59  12.10
  3 -9 -1  57.89  3.90
  3 -9 -1  59.29  10.30
 -3  9  1  56.29  4.30
 -3  9  1  60.59  5.00
 -3  9  1  60.29  3.40
 -3  9  1  57.79  3.20
 -3  9  1  55.49  4.70
 -3  9  1  65.49  3.50
  2 -9 -1  16.00  3.60
  2 -9 -1  19.90  11.00
  2 -9 -1  9.10  4.90
  2 -9 -1  12.40  3.80
  2 -9 -1  16.30  5.50
 -2  9  1  16.30  2.80
 -2  9  1  13.80  2.20
 -2  9  1  13.50  2.10
 -2  9  1  14.90  3.40
 -2  9  1  18.80  2.20
  1 -9 -1 255.07  12.30
  1 -9 -1 242.28  10.10
  1 -9 -1 245.58  12.30
  1 -9 -1 248.78  10.90
  1 -9 -1 254.97  11.40
 -1  9  1 251.47  10.20
 -1  9  1 268.77  11.20
 -1  9  1 250.87  9.60
 -1  9  1 250.37  9.10
 -1  9  1 258.57  10.60
 -1  9  1 255.57  9.60
 -1  9  1 261.97  9.20
 -1  9  1 243.48  11.60
 -1  9  1 255.57  9.00
 -1  9  1 265.67  9.80
  0 -9 -1 6159.08 186.78
  0 -9 -1 6003.00 186.58
  0 -9 -1 5935.11 184.08
  0 -9 -1 5795.32 184.28
  0 -9 -1 5962.80 184.18
  0 -9 -1 5803.02 185.08
  0 -9 -1 5708.63 183.98
  0 -9 -1 5909.51 183.98
  0 -9 -1 5891.51 184.38
  0 -9 -1 5918.31 183.98
  0  9  1 5938.41 183.58
  0  9  1 5765.02 184.28
  0  9  1 5834.92 183.98
  0  9  1 6108.99 184.58
  0  9  1 5814.92 186.28
  0  9  1 5927.31 184.68
 -1 -9 -1 163.88  7.30
 -1 -9 -1 149.09  6.80
 -1 -9 -1 158.58  7.20
 -1 -9 -1 151.78  6.90
 -1 -9 -1 157.98  8.20
 -1 -9 -1 144.19  6.90
 -1 -9 -1 152.78  7.00
 -1 -9 -1 147.39  7.20
  1  9  1 148.09  19.40
  1  9  1 151.18  7.10
  1  9  1 153.88  6.20
  1  9  1 143.69  9.00
  1  9  1 152.58  6.90
 -2 -9 -1 111.99  5.90
 -2 -9 -1 111.69  6.50
 -2 -9 -1 117.19  6.20
 -2 -9 -1 124.19  6.10
 -2 -9 -1 108.49  7.00
 -2 -9 -1 108.89  6.40
  2  9  1 126.29  5.70
  2  9  1 115.99  5.10
  2  9  1 130.99  5.50
  2  9  1 115.69  16.50
  2  9  1 104.69  10.20
 -3 -9 -1 223.98  8.90
 -3 -9 -1 210.68  9.00
  3  9  1 232.38  12.20
  3  9  1 229.48  7.90
  3  9  1 213.88  17.60
  3  9  1 217.38  8.20
  3  9  1 225.78  9.50
  3 -10 -1  7.30  2.30
  3 -10 -1  3.00  6.50
  3 -10 -1  7.90  5.80
  3 -10 -1  3.00  3.00
 -3 10  1  5.30  1.60
  2 -10 -1 1265.37  42.90
  2 -10 -1 1312.77  49.70
  2 -10 -1 1260.97  47.90
  2 -10 -1 1370.76  45.10
  2 -10 -1 1269.07  54.59
 -2 10  1 1375.26  44.30
 -2 10  1 1346.97  43.20
 -2 10  1 1290.87  43.60
 -2 10  1 1402.46  42.50
 -2 10  1 1342.77  42.50
 -2 10  1 1394.76  42.70
 -2 10  1 1302.17  42.20
  1 -10 -1 562.64  23.20
  1 -10 -1 562.64  20.30
  1 -10 -1 577.44  22.00
  1 -10 -1 586.04  21.40
 -1 10  1 555.84  20.60
 -1 10  1 569.44  19.90
 -1 10  1 596.64  19.30
 -1 10  1 559.44  19.70
 -1 10  1 557.74  18.60
 -1 10  1 566.94  18.80
 -1 10  1 552.24  18.90
 -1 10  1 570.04  21.60
  0 -10 -1  0.90  2.20
  0 -10 -1  4.50  2.20
  0 -10 -1  -0.50  2.70
  0 -10 -1  4.20  2.40
  0 -10 -1  3.50  2.10
  0 -10 -1  8.10  2.70
  0 -10 -1  5.20  2.40
  0 -10 -1  5.10  2.30
  0 -10 -1  0.80  5.50
  0 -10 -1  0.90  3.20
  0 10  1  2.00  2.20
  0 10  1  -0.10  1.80
  0 10  1  1.20  2.90
  0 10  1  3.40  2.50
 -1 -10 -1 1077.89  35.60
 -1 -10 -1 1102.69  38.10
 -1 -10 -1 1058.79  35.50
 -1 -10 -1 1081.49  36.30
 -1 -10 -1 1084.59  36.30
 -1 -10 -1 1068.69  35.30
 -1 -10 -1 1130.89  36.00
  1 10  1 1086.59  52.59
  1 10  1 1152.08  44.30
  1 10  1 1058.29  39.30
  1 10  1 1027.90  35.00
  1 10  1 1118.79  35.80
  1 10  1 1059.89  37.50
 -2 -10 -1 111.99  5.80
 -2 -10 -1 116.99  6.70
 -2 -10 -1 113.29  7.50
 -2 -10 -1 123.59  6.20
 -2 -10 -1 119.49  6.00
  2 10  1 118.39  16.20
  2 10  1 108.79  9.60
  2 10  1 131.49  5.60
  2 10  1 112.79  5.30
  2 10  1 124.59  5.00
 -3 -10 -1 3222.58 103.99
 -3 -10 -1 3306.07 102.49
 -3 -10 -1 3266.67 102.79
 -3 -10 -1 3264.47 103.19
  3 10  1 3452.95 105.59
  3 10  1 3185.88 113.79
  3 10  1 3281.07 102.29
  3 -11 -1 1066.09  36.00
  3 -11 -1 1220.28  47.30
  3 -11 -1 1185.98  36.90
  3 -11 -1 1053.19  42.90
 -3 11  1 1114.89  36.00
 -3 11  1 1132.49  35.80
 -3 11  1 1126.49  36.10
 -3 11  1 1139.29  36.00
 -3 11  1 1118.79  36.50
  2 -11 -1 705.13  25.40
  2 -11 -1 651.63  33.20
 -2 11  1 720.03  22.90
 -2 11  1 692.83  22.60
 -2 11  1 679.43  25.30
 -2 11  1 702.23  23.10
 -2 11  1 714.23  23.00
 -2 11  1 690.03  23.60
  1 -11 -1 1605.44  51.49
  1 -11 -1 1618.44  55.69
  1 -11 -1 1620.04  53.29
  1 -11 -1 1593.24  52.59
 -1 11  1 1534.25  51.49
 -1 11  1 1549.14  50.09
 -1 11  1 1566.64  49.80
 -1 11  1 1610.54  51.79
 -1 11  1 1621.74  50.49
 -1 11  1 1590.04  51.29
 -1 11  1 1506.35  53.69
  0 -11 -1 2860.91  89.39
  0 -11 -1 2706.43  86.39
  0 -11 -1 2752.02  87.99
  0 -11 -1 2753.02  86.79
  0 -11 -1 2767.42  86.19
  0 -11 -1 2547.45  87.29
  0 -11 -1 2743.43  86.79
  0 -11 -1 2618.34  86.89
  0 11  1 2718.03  89.99
  0 11  1 2769.32  85.79
  0 11  1 2846.92  86.99
  0 11  1 2741.23  86.89
 -1 -11 -1 3459.25 111.49
 -1 -11 -1 3360.36 108.29
 -1 -11 -1 3361.86 109.49
 -1 -11 -1 3416.36 108.79
 -1 -11 -1 3565.04 108.79
 -1 -11 -1 3399.86 108.09
 -1 -11 -1 3464.25 108.79
  1 11  1 3400.06 125.59
  1 11  1 3429.06 108.49
  1 11  1 3706.43 116.69
  1 11  1 3326.07 113.09
 -2 -11 -1 836.52  26.60
 -2 -11 -1 825.42  26.30
 -2 -11 -1 806.62  26.90
 -2 -11 -1 812.12  27.60
 -2 -11 -1 783.02  26.60
 -2 -11 -1 757.42  29.00
 -2 -11 -1 805.62  26.90
  2 11  1 835.62  26.10
  2 11  1 764.62  38.70
  2 11  1 782.92  25.70
  2 11  1 795.92  37.20
  3 -12 -1 1310.07  48.30
  3 -12 -1 1476.95  51.79
 -3 12  1 1343.77  43.50
 -3 12  1 1387.06  43.40
 -3 12  1 1400.26  43.50
 -3 12  1 1349.56  43.20
  2 -12 -1 1820.22  60.59
  2 -12 -1 1944.51  71.19
 -2 12  1 1806.02  57.89
 -2 12  1 1777.62  58.29
 -2 12  1 1901.31  58.29
 -2 12  1 1862.51  58.79
 -2 12  1 1808.62  58.99
  1 -12 -1 171.58  8.30
  1 -12 -1 176.48  10.40
  1 -12 -1 165.38  9.60
 -1 12  1 163.98  8.20
 -1 12  1 170.88  6.90
 -1 12  1 168.08  6.80
 -1 12  1 167.18  6.10
 -1 12  1 167.78  7.70
  0 -12 -1 1077.39  36.40
  0 -12 -1 1040.00  34.90
  0 -12 -1 1060.49  37.80
  0 -12 -1 1100.29  35.50
  0 -12 -1 1064.99  34.50
  0 12  1 1049.09  35.50
  0 12  1 1113.39  35.60
  0 12  1 1038.10  34.20
 -1 -12 -1 443.36  15.60
 -1 -12 -1 439.26  19.30
 -1 -12 -1 446.96  16.20
 -1 -12 -1 460.45  15.80
 -1 -12 -1 466.15  16.20
 -1 -12 -1 454.85  17.00
 -1 -12 -1 461.85  16.40
  1 12  1 448.16  15.90
  1 12  1 437.06  28.60
  1 12  1 434.96  19.60
 -2 -12 -1 1072.39  35.20
 -2 -12 -1 1135.69  34.90
 -2 -12 -1 1070.49  35.00
 -2 -12 -1 1099.09  35.80
 -2 -12 -1 1054.99  35.40
  2 12  1 1073.59  34.30
  2 12  1 1052.19  44.40
  2 12  1 1104.99  38.50
  2 -13 -1 193.58  14.50
  2 -13 -1 177.08  8.60
  2 -13 -1 185.18  13.20
 -2 13  1 213.68  8.10
 -2 13  1 187.38  7.10
 -2 13  1 188.58  7.20
 -2 13  1 191.88  6.70
  1 -13 -1 1716.83  54.99
  1 -13 -1 1720.93  54.59
  1 -13 -1 1724.33  55.89
 -1 13  1 1708.83  54.19
 -1 13  1 1688.93  53.19
 -1 13  1 1588.84  54.59
 -1 13  1 1615.04  54.19
  0 -13 -1 832.12  27.80
  0 -13 -1 796.62  26.60
  0 -13 -1 826.82  28.50
  0 13  1 839.32  27.70
 -1 -13 -1 1677.33  54.59
 -1 -13 -1 1699.73  53.79
 -1 -13 -1 1663.83  53.19
 -1 -13 -1 1710.43  53.29
 -1 -13 -1 1692.83  53.89
 -1 -13 -1 1667.93  54.19
  1 13  1 1675.43  57.19
  1 13  1 1657.53  53.49
 -2 -13 -1 224.88  7.70
 -2 -13 -1 209.28  8.10
 -2 -13 -1 211.18  8.30
 -2 -13 -1 220.48  8.90
  2 13  1 224.18  10.00
  2 -14 -1 529.95  18.70
  2 -14 -1 546.05  23.50
 -2 14  1 512.65  17.90
 -2 14  1 541.55  17.50
 -2 14  1 537.85  17.30
  1 -14 -1 1453.95  46.00
  1 -14 -1 1413.66  46.90
  1 -14 -1 1397.26  52.39
  1 -14 -1 1463.95  47.70
 -1 14  1 1415.26  46.40
 -1 14  1 1447.86  46.40
 -1 14  1 1467.25  45.50
 -1 14  1 1463.05  45.60
  0 -14 -1  15.80  2.90
  0 -14 -1  16.30  3.80
  0 -14 -1  13.00  2.40
  0 14  1  11.30  3.50
  0 14  1  13.20  4.10
  0 14  1  12.60  2.10
 -1 -14 -1  10.10  2.90
 -1 -14 -1  9.30  1.80
 -1 -14 -1  8.10  1.40
  1 14  1  9.40  3.30
  1 -15 -1  78.19  4.80
 -1 15  1  83.69  4.10
  0 -15 -1 212.08  10.40
  0 -15 -1 224.98  9.10
  0 -15 -1 228.58  8.40
  0 15  1 237.48  10.20
  0 15  1 226.98  8.30
  1 15 -2 234.88  11.40
 -1 -15  2 259.97  8.50
 -1 -15  2 239.28  8.90
 -1 -15  2 247.48  9.60
  0 15 -2 127.89  5.50
  0 15 -2 130.09  8.70
  0 15 -2 135.29  7.90
  0 -15  2 151.08  6.60
  0 -15  2 128.89  5.80
  0 -15  2 137.59  6.60
 -1 15 -2  9.20  1.60
  1 -15  2  5.80  2.10
  1 -15  2  -0.50  2.50
  1 14 -2 720.33  23.20
  1 14 -2 701.03  25.90
  1 14 -2 751.72  28.70
  1 14 -2 694.93  23.20
 -1 -14  2 700.93  24.30
 -1 -14  2 711.13  23.00
 -1 -14  2 714.43  23.50
 -1 -14  2 655.73  24.20
 -1 -14  2 730.33  23.80
  0 14 -2 655.43  24.60
  0 14 -2 663.33  22.10
  0 -14  2 648.04  22.30
  0 -14  2 666.93  21.10
  0 -14  2 638.94  23.90
  0 -14  2 638.24  22.90
 -1 14 -2 366.16  13.90
 -1 14 -2 403.96  13.50
 -1 14 -2 384.66  13.00
  1 -14  2 401.06  14.90
  1 -14  2 392.46  13.90
  1 -14  2 370.16  15.20
 -2 14 -2  95.09  3.70
 -2 14 -2  89.49  4.10
  2 -14  2  82.19  4.90
  2 -14  2  83.59  8.10
  2 13 -2 151.28  8.20
  2 13 -2 143.19  9.30
 -2 -13  2 144.29  7.20
 -2 -13  2 133.09  6.20
 -2 -13  2 138.09  6.70
 -2 -13  2 154.68  7.30
 -2 -13  2 150.08  5.80
  1 13 -2 475.35  17.40
  1 13 -2 518.95  24.50
 -1 -13  2 506.25  18.00
 -1 -13  2 486.65  18.00
 -1 -13  2 454.65  20.70
 -1 -13  2 486.35  16.80
 -1 -13  2 534.55  17.60
 -1 -13  2 513.55  18.30
  0 13 -2 326.47  12.50
  0 13 -2 317.17  15.10
  0 -13  2 315.37  15.30
  0 -13  2 328.37  11.70
  0 -13  2 350.66  13.70
  0 -13  2 346.87  12.60
  0 -13  2 336.97  12.80
 -1 13 -2 180.08  6.80
 -1 13 -2 178.48  7.10
 -1 13 -2 169.78  8.10
  1 -13  2 165.18  9.40
  1 -13  2 171.28  8.40
 -2 13 -2 1547.15  48.70
 -2 13 -2 1556.34  49.00
 -2 13 -2 1561.74  48.30
 -2 13 -2 1493.75  48.70
  2 -13  2 1569.24  59.39
  2 -13  2 1527.15  50.59
  2 -13  2 1525.55  52.99
  2 12 -2  9.60  3.90
 -2 -12  2  6.50  2.90
 -2 -12  2  7.30  1.90
 -2 -12  2  7.20  2.00
 -2 -12  2  8.40  2.50
  1 12 -2 2441.06  84.19
  1 12 -2 2350.36  74.99
  1 12 -2 2299.27  78.99
 -1 -12  2 2276.87  77.99
 -1 -12  2 2441.16  75.39
 -1 -12  2 2377.06  75.49
 -1 -12  2 2379.36  75.39
 -1 -12  2 2336.07  74.79
 -1 -12  2 2376.16  76.09
  0 12 -2 2640.44  81.39
  0 12 -2 2666.43  81.99
  0 12 -2 2445.36  86.09
  0 12 -2 2626.34  80.79
  0 -12  2 2514.25  82.79
  0 -12  2 2638.14  81.79
  0 -12  2 2568.64  87.19
  0 -12  2 2625.44  84.29
  0 -12  2 2387.56  83.59
  0 -12  2 2588.94  81.19
  0 -12  2 2632.04  82.09
 -1 12 -2 904.21  30.00
 -1 12 -2 889.81  29.00
 -1 12 -2 873.71  28.60
 -1 12 -2 868.21  29.70
 -1 12 -2 891.61  28.10
  1 -12  2 871.11  30.70
  1 -12  2 883.81  29.90
  1 -12  2 861.81  31.30
 -2 12 -2  5.80  1.50
 -2 12 -2  6.80  1.30
 -2 12 -2  5.90  2.40
 -2 12 -2  6.10  1.80
 -2 12 -2  12.30  2.90
 -2 12 -2  7.20  1.50
  2 -12  2  10.90  3.20
  2 -12  2  6.10  6.20
  2 -12  2  6.30  4.40
 -3 12 -2  6.20  1.70
 -3 12 -2  5.50  1.10
 -3 12 -2  4.00  1.30
  3 -12  2  7.70  2.10
  3 -12  2  6.70  3.80
  3 11 -2 395.26  15.60
  3 11 -2 400.86  12.90
  3 11 -2 383.06  18.80
 -3 -11  2 395.66  13.20
 -3 -11  2 389.56  13.70
  2 11 -2 3411.66 108.09
  2 11 -2 3044.60  97.39
  2 11 -2 2972.30 102.49
 -2 -11  2 3140.09  98.99
 -2 -11  2 3103.69 100.79
 -2 -11  2 3101.69  98.39
 -2 -11  2 3044.80  98.39
  1 11 -2 264.27  14.50
  1 11 -2 272.77  14.30
  1 11 -2 285.97  10.70
  1 11 -2 295.47  18.80
 -1 -11  2 272.37  11.10
 -1 -11  2 267.17  12.60
 -1 -11  2 277.87  11.20
 -1 -11  2 274.77  12.90
 -1 -11  2 278.77  11.80
 -1 -11  2 294.57  11.20
  0 11 -2 522.45  18.40
  0 11 -2 444.86  18.90
  0 11 -2 516.05  18.00
  0 11 -2 498.45  20.40
  0 11 -2 510.55  18.80
  0 11 -2 509.05  17.80
  0 -11  2 524.45  18.00
  0 -11  2 507.45  18.30
  0 -11  2 511.95  18.20
  0 -11  2 491.15  20.50
  0 -11  2 498.35  17.30
  0 -11  2 496.85  18.70
  0 -11  2 533.85  28.30
  0 -11  2 500.85  18.70
 -1 11 -2 276.77  9.50
 -1 11 -2 282.57  11.50
 -1 11 -2 267.47  10.00
 -1 11 -2 276.77  10.00
 -1 11 -2 270.67  11.50
 -1 11 -2 272.47  10.20
 -1 11 -2 269.47  11.00
  1 -11  2 267.37  11.80
  1 -11  2 274.27  12.90
  1 -11  2 279.77  15.10
  1 -11  2 272.27  14.00
  1 -11  2 269.77  11.40
 -2 11 -2 107.09  4.90
 -2 11 -2 106.29  5.10
 -2 11 -2  97.09  10.10
 -2 11 -2 101.69  4.80
 -2 11 -2 105.39  6.00
 -2 11 -2 105.09  4.40
  2 -11  2 111.79  7.20
 -3 11 -2 1937.81  62.39
 -3 11 -2 1981.10  62.39
 -3 11 -2 1984.40  62.19
 -3 11 -2 1931.71  61.99
 -3 11 -2 1944.51  62.39
  3 -11  2 1970.70  72.99
  3 -11  2 2047.50  67.19
  3 -11  2 2037.00  63.29
  3 10 -2 367.36  16.30
  3 10 -2 409.86  17.50
  3 10 -2 382.16  12.80
  3 10 -2 372.06  21.20
 -3 -10  2 361.76  13.70
 -3 -10  2 389.56  13.40
 -3 -10  2 371.26  13.50
  2 10 -2 138.19  6.00
  2 10 -2 137.29  10.10
  2 10 -2 136.99  16.50
  2 10 -2 160.58  14.70
 -2 -10  2 127.69  7.60
 -2 -10  2 152.48  7.80
 -2 -10  2 142.49  6.90
 -2 -10  2 167.48  7.50
 -2 -10  2 141.39  7.00
 -2 -10  2 131.69  8.10
  1 10 -2 1879.41  62.29
  1 10 -2 2014.30  62.39
  1 10 -2 1837.22  60.29
  1 10 -2 1895.71  64.29
 -1 -10  2 1900.01  61.29
 -1 -10  2 1913.51  63.29
 -1 -10  2 1942.91  61.99
 -1 -10  2 1913.91  61.69
 -1 -10  2 1882.71  61.59
  0 10 -2  2.10  2.90
  0 10 -2  2.20  1.70
  0 10 -2  0.60  2.00
  0 10 -2  5.80  3.00
  0 10 -2  4.00  2.40
  0 10 -2  4.00  2.40
  0 -10  2  7.60  2.30
  0 -10  2  0.70  2.10
  0 -10  2  5.90  2.00
  0 -10  2  4.30  2.90
  0 -10  2  1.30  6.20
  0 -10  2  -0.10  2.10
  0 -10  2  0.90  2.10
  0 -10  2  3.20  2.70
 -1 10 -2 707.13  22.60
 -1 10 -2 802.22  24.20
 -1 10 -2 684.53  24.30
 -1 10 -2 668.93  23.80
 -1 10 -2 686.33  23.00
 -1 10 -2 698.23  22.90
 -1 10 -2 670.73  22.90
  1 -10  2 729.63  24.90
  1 -10  2 695.03  25.80
  1 -10  2 677.03  24.80
  1 -10  2 690.53  24.30
  1 -10  2 671.93  26.40
 -2 10 -2 2084.49  67.49
 -2 10 -2 2120.69  66.89
 -2 10 -2 2102.99  66.59
 -2 10 -2 2072.39  68.09
 -2 10 -2 2164.78  68.69
 -2 10 -2 2191.38  66.99
 -2 10 -2 2173.88  66.89
  2 -10  2 1994.90  70.69
  2 -10  2 2171.18  73.19
  2 -10  2 2039.40  72.19
  2 -10  2 2189.98  69.29
 -3 10 -2 646.64  20.90
 -3 10 -2 630.54  20.80
 -3 10 -2 634.74  20.80
 -3 10 -2 604.74  20.50
 -3 10 -2 644.74  22.60
  3 -10  2 625.24  22.40
  3 -10  2 613.04  20.80
  3 -10  2 591.84  31.60
  3 -10  2 667.63  29.10
  3  9 -2 2170.08  82.09
  3  9 -2 1955.20  72.09
  3  9 -2 2153.38  67.59
  3  9 -2 2412.26  75.99
  3  9 -2 2163.98  69.09
  3  9 -2 2179.48  67.79
 -3 -9  2 2090.99  68.19
 -3 -9  2 2101.19  68.29
  2  9 -2  7.30  4.80
  2  9 -2  10.40  1.90
  2  9 -2  -0.90  3.50
  2  9 -2  5.80  6.80
  2  9 -2  9.50  4.80
  2  9 -2  7.20  1.70
  2  9 -2  11.30  6.80
 -2 -9  2  6.50  2.20
 -2 -9  2  7.40  3.90
 -2 -9  2  8.60  2.50
 -2 -9  2  5.90  2.30
 -2 -9  2  5.90  2.60
  1  9 -2 272.27  10.40
  1  9 -2 280.37  12.80
  1  9 -2 321.57  11.90
  1  9 -2 266.97  14.30
  1  9 -2 290.77  10.80
 -1 -9  2 267.97  10.80
 -1 -9  2 281.07  12.10
 -1 -9  2 276.67  11.30
 -1 -9  2 275.37  11.30
 -1 -9  2 278.47  10.60
 -1 -9  2 273.17  10.80
 -1 -9  2 284.47  11.00
  0  9 -2 1937.21  60.99
  0  9 -2 1923.31  60.79
  0  9 -2 1895.51  61.09
  0  9 -2 1880.51  60.09
  0  9 -2 1875.61  60.49
  0  9 -2 1937.31  62.39
  0 -9  2 1883.41  60.79
  0 -9  2 1849.52  64.99
  0 -9  2 1831.22  61.69
  0 -9  2 1946.01  60.99
  0 -9  2 1919.91  60.49
  0 -9  2 1924.81  60.99
  0 -9  2 1994.70  62.99
 -1  9 -2 1602.24  50.89
 -1  9 -2 1727.03  53.09
 -1  9 -2 1599.94  51.99
 -1  9 -2 1555.94  52.39
 -1  9 -2 1616.54  51.09
 -1  9 -2 1603.54  52.49
 -1  9 -2 1633.34  51.79
 -1  9 -2 1598.04  50.99
 -1  9 -2 1677.33  51.29
  1 -9  2 1634.94  52.19
  1 -9  2 1575.44  54.29
  1 -9  2 1684.03  52.39
  1 -9  2 1650.53  53.79
  1 -9  2 1590.74  52.89
  1 -9  2 1496.05  51.19
 -2  9 -2 1259.57  41.70
 -2  9 -2 1254.57  41.20
 -2  9 -2 1272.47  40.30
 -2  9 -2 1376.16  42.80
 -2  9 -2 1237.48  41.20
 -2  9 -2 1234.08  40.00
 -2  9 -2 1257.97  41.20
  2 -9  2 1256.37  45.80
  2 -9  2 1191.48  44.70
  2 -9  2 1278.47  42.80
  2 -9  2 1215.08  43.60
 -3  9 -2  7.90  1.70
 -3  9 -2  6.30  1.40
 -3  9 -2  4.40  1.40
 -3  9 -2  2.30  1.80
 -3  9 -2  5.20  2.20
  3 -9  2  3.70  4.40
  3 -9  2  5.00  1.90
  3 -9  2  9.50  3.30
  3 -9  2  3.50  2.80
  3 -9  2  6.20  6.40
  3  8 -2 122.69  5.30
  3  8 -2 137.79  13.10
  3  8 -2 104.49  9.10
  3  8 -2 119.69  14.60
  3  8 -2 122.89  5.10
  3  8 -2 121.09  6.90
 -3 -8  2 123.19  6.20
 -3 -8  2 111.59  7.30
 -3 -8  2 134.79  7.10
  2  8 -2  28.10  5.60
  2  8 -2  41.70  7.10
  2  8 -2  33.20  4.90
  2  8 -2  33.90  14.30
  2  8 -2  28.10  5.60
  2  8 -2  34.70  5.00
  2  8 -2  36.00  3.00
  2  8 -2  33.70  2.80
 -2 -8  2  35.90  4.90
 -2 -8  2  30.20  3.10
 -2 -8  2  31.10  3.60
 -2 -8  2  29.60  4.00
  1  8 -2 968.60  33.00
  1  8 -2 996.60  37.40
  1  8 -2 1064.39  33.60
  1  8 -2 1046.20  35.80
  1  8 -2 1018.90  34.20
 -1 -8  2 1039.10  35.00
 -1 -8  2 1069.19  33.10
 -1 -8  2 1020.50  33.50
 -1 -8  2 1043.70  33.70
  0  8 -2 7337.97 220.08
  0  8 -2 7062.49 218.48
  0 -8  2 6855.41 218.48
  0 -8  2 6954.80 219.08
  0 -8  2 6694.13 218.38
  0 -8  2 7189.48 220.38
  0 -8  2 7129.69 221.88
  0 -8  2 6942.01 218.48
  0 -8  2 7042.40 217.98
 -1  8 -2 1091.49  36.30
 -1  8 -2 1056.89  36.60
 -1  8 -2 1206.48  36.30
 -1  8 -2 1084.19  35.10
 -1  8 -2 1094.89  35.70
 -1  8 -2 1110.79  35.20
 -1  8 -2 1131.59  36.50
  1 -8  2 1109.99  36.20
  1 -8  2 1064.09  37.70
 -2  8 -2  35.90  4.10
 -2  8 -2  29.00  2.40
 -2  8 -2  29.40  5.20
 -2  8 -2  28.40  2.30
 -2  8 -2  29.20  2.60
 -2  8 -2  28.00  2.90
 -2  8 -2  28.00  3.30
  2 -8  2  25.10  4.40
  2 -8  2  29.60  5.50
  2 -8  2  28.70  6.80
  2 -8  2  32.70  5.80
  2 -8  2  24.20  6.60
 -3  8 -2  6.90  1.60
 -3  8 -2  7.40  1.70
 -3  8 -2  10.20  2.10
  3 -8  2  6.50  4.90
  3 -8  2  8.30  3.00
  3 -8  2  8.80  6.50
  3 -8  2  8.60  3.50
  3 -8  2  5.80  1.80
 -4  8 -2 300.57  11.50
 -4  8 -2 311.97  10.90
 -4  8 -2 318.27  10.60
  4 -8  2 307.07  16.00
  4 -8  2 301.27  10.70
  4 -8  2 349.87  14.90
  3  7 -2 709.13  29.00
  3  7 -2 681.03  38.00
  3  7 -2 729.73  23.00
  3  7 -2 641.34  28.20
  3  7 -2 677.93  25.10
  3  7 -2 703.53  23.20
  3  7 -2 760.12  34.00
 -3 -7  2 688.63  24.60
 -3 -7  2 690.23  23.40
  2  7 -2 5394.06 177.58
  2  7 -2 5510.95 177.78
  2  7 -2 5498.15 178.68
  2  7 -2 5420.06 174.48
  2  7 -2 5738.93 172.48
  2  7 -2 5626.34 172.28
  2  7 -2 5687.63 173.58
  2  7 -2 5921.01 187.88
  2  7 -2 5475.75 174.78
  2  7 -2 5623.14 191.18
 -2 -7  2 5719.83 172.98
 -2 -7  2 4738.23 175.08
 -2 -7  2 5427.96 172.48
 -2 -7  2 5725.53 174.08
  1  7 -2 1404.16  45.50
  1  7 -2 1372.26  44.20
  1  7 -2 1331.07  44.10
 -1 -7  2 1372.66  44.60
 -1 -7  2 1366.26  43.50
 -1 -7  2 1362.56  42.90
 -1 -7  2 1376.46  47.40
 -1 -7  2 1305.67  43.70
 -1 -7  2 1354.16  43.40
  0 -7  2 6974.70 214.18
  0 -7  2 6914.91 213.68
  0 -7  2 6733.63 213.58
 -1  7 -2 1241.28  40.50
 -1  7 -2 1279.27  40.50
 -1  7 -2 1284.87  41.50
 -1  7 -2 1273.27  40.90
 -1  7 -2 1342.57  41.50
 -1  7 -2 1313.57  41.60
  1 -7  2 1303.97  42.70
  1 -7  2 1245.78  41.20
  1 -7  2 1252.07  41.90
 -2  7 -2 101.89  5.30
 -2  7 -2 102.49  4.30
 -2  7 -2 106.69  5.20
 -2  7 -2  96.49  4.70
 -2  7 -2 105.19  5.00
 -2  7 -2  99.49  4.40
  2 -7  2  98.49  6.80
  2 -7  2 107.89  7.30
  2 -7  2 102.89  6.50
  2 -7  2  97.49  5.60
  2 -7  2  91.79  7.60
 -3  7 -2 2378.06  72.99
 -3  7 -2 2310.87  73.69
 -3  7 -2 2444.46  74.69
 -3  7 -2 2368.06  73.19
 -3  7 -2 2413.26  73.09
 -3  7 -2 2404.86  73.19
  3 -7  2 2180.48  78.39
  3 -7  2 2230.78  76.89
  3 -7  2 2225.48  81.59
  3 -7  2 2287.57  82.39
  3 -7  2 2263.37  73.39
  3 -7  2 2460.05  74.39
  3 -7  2 2318.27  86.09
  3 -7  2 2258.67  80.79
  3 -7  2 2292.47  74.39
 -4  7 -2 223.78  8.10
 -4  7 -2 213.28  8.40
  4 -7  2 234.78  12.90
  4 -7  2 234.88  15.30
  4 -7  2 218.38  13.40
  4 -7  2 211.88  8.10
  4 -7  2 248.48  10.40
  4  6 -2 287.37  9.40
  4  6 -2 272.37  17.70
  4  6 -2 242.58  12.70
  4  6 -2 295.47  9.60
  4  6 -2 288.67  10.90
  3  6 -2  40.00  3.20
  3  6 -2  49.80  11.40
  3  6 -2  49.10  3.20
  3  6 -2  52.39  11.00
  3  6 -2  43.60  7.10
  3  6 -2  43.30  7.10
  3  6 -2  47.00  4.90
 -3 -6  2  47.40  4.50
 -3 -6  2  38.30  4.40
  2  6 -2 3386.06 113.29
  2  6 -2 3473.65 110.09
  2  6 -2 3289.37 106.79
  2  6 -2 3455.55 124.79
  2  6 -2 3424.96 109.29
  2  6 -2 3419.56 106.89
  2  6 -2 3385.26 108.59
  2  6 -2 3400.96 108.09
  2  6 -2 3387.06 111.69
  2  6 -2 3378.96 110.89
  2  6 -2 3542.75 120.69
 -2 -6  2 3445.36 107.19
  1  6 -2 1672.63  54.39
  1  6 -2 1821.92  54.69
  1  6 -2 1674.23  53.39
  1  6 -2 1594.44  53.19
 -1 -6  2 1638.64  52.19
 -1 -6  2 1687.33  53.59
 -1 -6  2 1661.53  52.69
 -1 -6  2 1550.24  52.79
 -1 -6  2 1714.73  55.99
  0  6 -2 295.87  11.10
  0  6 -2 308.47  10.80
  0  6 -2 317.37  11.60
  0  6 -2 313.87  10.70
  0 -6  2 322.57  10.50
  0 -6  2 310.17  10.90
  0 -6  2 335.37  12.00
  0 -6  2 326.97  12.50
 -1  6 -2 4321.97 136.49
 -1  6 -2 4614.34 137.19
 -1  6 -2 4414.66 136.79
 -1  6 -2 4543.85 137.29
  1 -6  2 4420.56 138.39
  1 -6  2 4159.08 137.69
  1 -6  2 4308.07 137.79
  1 -6  2 4380.46 137.69
 -2  6 -2 608.54  21.60
 -2  6 -2 641.54  21.40
 -2  6 -2 654.93  20.80
 -2  6 -2 643.54  20.30
 -2  6 -2 611.54  20.40
  2 -6  2 661.83  22.70
  2 -6  2 626.44  22.20
  2 -6  2 569.74  30.00
  2 -6  2 621.64  23.10
  2 -6  2 604.94  23.60
 -3  6 -2 3016.30  92.29
 -3  6 -2 2859.61  91.39
 -3  6 -2 3026.20  90.89
 -3  6 -2 3039.60  90.99
  3 -6  2 2886.21  92.19
  3 -6  2 2849.51  99.89
  3 -6  2 2874.61  96.29
  3 -6  2 2785.52  99.79
  3 -6  2 2876.21  95.79
  3 -6  2 2823.32  93.79
  3 -6  2 2902.71  91.29
  3 -6  2 2865.81 103.09
 -4  6 -2 1048.10  34.10
 -4  6 -2 1094.59  34.00
 -4  6 -2 1048.60  34.10
  4 -6  2 1054.59  34.20
  4 -6  2 1071.59  40.00
  4 -6  2 1049.20  38.90
  4 -6  2 1114.79  34.40
  4 -6  2 1046.20  41.20
  4  5 -2 173.38  14.70
  4  5 -2 179.28  10.20
  4  5 -2 196.48  11.20
  4  5 -2 177.18  10.70
  4  5 -2 182.18  6.90
  4  5 -2 194.18  8.40
  4  5 -2 186.18  6.70
  3  5 -2 2677.73  91.49
  3  5 -2 2581.84  89.59
  3  5 -2 2475.35  83.09
  3  5 -2 2581.34  89.99
  3  5 -2 2485.85  82.99
  3  5 -2 2551.74  87.99
  3  5 -2 2555.84  85.99
  3  5 -2 2750.52  93.49
  3  5 -2 2540.65  86.29
  3  5 -2 2464.95  84.89
  3  5 -2 2573.14  99.99
  3  5 -2 2496.75  80.49
  3  5 -2 2562.64  80.69
 -3 -5  2 2557.04  81.19
  2  5 -2 1027.30  34.40
  2  5 -2 918.81  36.60
  2  5 -2 965.60  31.70
  2  5 -2 923.81  37.60
  2  5 -2 908.21  41.80
  2  5 -2 932.81  30.30
  2  5 -2 942.61  32.80
  2  5 -2 935.01  34.90
  2  5 -2 926.81  45.30
  2  5 -2 899.41  33.90
  2  5 -2 934.31  30.40
 -2 -5  2 910.71  35.80
 -2 -5  2 902.11  30.00
 -2 -5  2 961.30  30.70
 -2 -5  2 976.20  30.50
  1  5 -2 4667.43 146.09
  1  5 -2 4867.31 146.69
 -1 -5  2 4607.94 147.39
 -1 -5  2 4733.43 145.29
 -1 -5  2 4627.34 144.59
 -1 -5  2 4405.36 144.09
  0  5 -2 1433.86  47.00
  0  5 -2 1533.85  47.50
  0  5 -2 1461.05  46.80
  0  5 -2 1497.35  46.80
  0 -5  2 1500.35  46.90
  0 -5  2 1472.75  46.50
  0 -5  2 1518.25  47.10
  0 -5  2 1534.15  48.30
  0 -5  2 1447.06  46.80
 -1  5 -2 2638.14  81.79
 -1  5 -2 2635.54  81.19
 -1  5 -2 2537.05  81.79
 -1  5 -2 2689.53  81.59
  1 -5  2 2608.54  82.89
  1 -5  2 2564.04  81.69
  1 -5  2 2673.63  82.59
  1 -5  2 2527.55  82.19
 -2  5 -2 2194.28  67.79
 -2  5 -2 2157.38  68.49
 -2  5 -2 2151.08  67.59
 -2  5 -2 2189.58  68.49
 -2  5 -2 2123.09  67.99
  2 -5  2 2264.47  70.59
  2 -5  2 2120.09  69.19
  2 -5  2 2092.89  70.59
 -3  5 -2  8.60  2.30
 -3  5 -2  11.30  2.60
 -3  5 -2  7.30  1.60
 -3  5 -2  10.00  2.20
  3 -5  2  6.10  2.90
  3 -5  2  8.40  2.60
  3 -5  2  13.50  2.20
  3 -5  2  10.90  5.60
  3 -5  2  10.50  5.00
  3 -5  2  11.70  6.30
  3 -5  2  10.10  6.60
  3 -5  2  8.50  6.40
  3 -5  2  4.10  3.50
 -4  5 -2 578.84  19.70
 -4  5 -2 588.64  19.80
  4 -5  2 581.34  25.40
  4 -5  2 608.54  20.20
  4 -5  2 590.14  26.40
  4 -5  2 591.84  25.00
  4 -5  2 593.14  19.80
  4 -5  2 653.43  25.10
  4  4 -2 3895.11 136.99
  4  4 -2 3745.13 125.69
  4  4 -2 3846.12 121.19
  4  4 -2 3753.42 126.99
  4  4 -2 4274.27 128.99
  4  4 -2 3841.32 123.49
  4  4 -2 3909.31 121.29
  3  4 -2  53.29  6.50
  3  4 -2  52.09  5.20
  3  4 -2  42.70  7.80
  3  4 -2  40.50  3.40
  3  4 -2  46.50  11.90
  3  4 -2  46.60  3.40
  3  4 -2  43.40  3.80
  3  4 -2  50.59  5.90
  3  4 -2  55.29  7.50
  3  4 -2  48.80  9.60
  3  4 -2  49.90  8.40
  3  4 -2  46.00  11.20
  3  4 -2  43.60  10.90
  2  4 -2 1423.76  47.00
  2  4 -2 1474.35  47.80
  2  4 -2 1398.46  46.10
 -2 -4  2 1427.36  49.00
 -2 -4  2 1358.46  45.00
 -2 -4  2 1393.06  44.90
 -2 -4  2 1417.16  44.90
  1  4 -2  63.59  4.10
  1  4 -2  56.39  3.00
  1  4 -2  59.99  3.60
 -1 -4  2  57.29  2.30
 -1 -4  2  63.99  3.30
 -1 -4  2  58.09  3.00
 -1 -4  2  56.49  2.60
 -1 -4  2  60.89  4.10
 -1 -4  2  58.39  2.90
  0  4 -2 4140.19 128.69
 -1  4 -2 1658.13  50.99
 -1  4 -2 1668.53  51.09
 -1  4 -2 1676.23  50.59
 -1  4 -2 1594.94  50.69
  1 -4  2 1633.74  50.99
  1 -4  2 1665.83  51.89
  1 -4  2 1552.74  51.89
  1 -4  2 1515.65  51.29
  1 -4  2 1620.64  51.09
 -2  4 -2 904.61  30.40
 -2  4 -2 959.60  30.80
 -2  4 -2 977.30  31.00
 -2  4 -2 952.50  30.20
 -2  4 -2 950.30  30.50
  2 -4  2 931.31  32.70
  2 -4  2 961.70  31.70
  2 -4  2 992.80  32.70
 -3  4 -2  61.89  3.80
 -3  4 -2  64.89  4.20
 -3  4 -2  54.49  3.90
 -3  4 -2  58.19  3.10
  3 -4  2  57.09  8.50
  3 -4  2  56.29  5.10
  3 -4  2  52.29  12.50
  3 -4  2  56.79  6.00
  3 -4  2  58.19  3.90
  3 -4  2  61.99  6.20
  3 -4  2  65.09  7.70
 -4  4 -2  93.79  4.80
 -4  4 -2  88.99  5.00
  4 -4  2  94.39  9.20
  4 -4  2 109.69  9.30
  4 -4  2 104.29  5.40
  4 -4  2 104.59  4.60
  4 -4  2 107.19  9.00
  4 -4  2 101.79  8.90
  4  3 -2 1186.98  45.40
  4  3 -2 1191.98  38.30
  4  3 -2 1217.68  52.49
  4  3 -2 1160.38  38.30
  4  3 -2 1184.48  40.50
  4  3 -2 1188.38  44.20
  4  3 -2 1203.58  42.80
  4  3 -2 1286.77  45.90
  4  3 -2 1259.37  46.20
  4  3 -2 1165.08  42.00
  3  3 -2  95.79  11.90
  3  3 -2  96.39  10.60
  3  3 -2 101.39  12.30
  3  3 -2  94.49  8.30
  3  3 -2  79.59  6.50
  3  3 -2 102.39  11.40
  3  3 -2  98.59  7.30
  3  3 -2  95.69  6.60
  3  3 -2  96.59  9.10
  3  3 -2  96.79  15.20
  2  3 -2 3689.73 116.09
  2  3 -2 3735.13 117.09
  2  3 -2 3598.74 115.69
  2  3 -2 3569.44 115.99
  2  3 -2 3903.41 118.39
 -2 -3  2 3808.02 114.89
 -2 -3  2 3735.83 118.39
 -2 -3  2 3569.34 114.29
 -2 -3  2 3581.44 115.29
  0  3 -2 836.62  27.30
  0  3 -2 877.91  27.30
  0  3 -2 904.21  27.70
  0 -3  2 880.61  28.20
  0 -3  2 894.91  27.90
  0 -3  2 825.72  27.30
  0 -3  2 855.61  27.50
 -2  3 -2 290.77  10.30
 -2  3 -2 281.87  9.60
 -2  3 -2 292.77  9.90
 -2  3 -2 294.37  10.10
  2 -3  2 294.67  11.00
  2 -3  2 285.17  11.70
  2 -3  2 300.77  11.80
 -3  3 -2 1882.91  58.49
 -3  3 -2 1862.11  57.99
 -3  3 -2 1855.21  58.99
  3 -3  2 1853.71  68.39
  3 -3  2 1797.22  58.89
  3 -3  2 1934.61  69.29
  3 -3  2 1886.31  58.69
  3 -3  2 1782.82  66.49
  3 -3  2 1845.92  60.29
  3 -3  2 1806.12  61.19
  3 -3  2 1791.32  59.29
  3 -3  2 1861.21  62.09
  3 -3  2 1818.22  61.89
 -4  3 -2 817.82  28.50
  4 -3  2 908.81  35.00
  4 -3  2 911.11  29.30
  4 -3  2 866.31  30.60
  4 -3  2 872.91  37.20
  4 -3  2 954.50  36.40
  4  2 -2 989.50  50.69
  4  2 -2 1021.70  40.70
  4  2 -2 984.10  42.00
  4  2 -2 973.40  36.00
  4  2 -2 1023.30  39.30
  4  2 -2 915.81  31.50
  3  2 -2 2402.56  77.39
  3  2 -2 2323.57  75.89
  3  2 -2 2351.36  77.69
  3  2 -2 2436.36  93.79
  3  2 -2 2303.17  80.49
  3  2 -2 2350.16  76.39
  3  2 -2 2393.96  76.59
  3  2 -2 2466.55  75.89
  3  2 -2 2456.15  80.89
  3  2 -2 2339.67  84.49
  3  2 -2 2467.45  78.69
  3  2 -2 2438.66  87.99
  3  2 -2 2382.56  75.99
  3  2 -2 2441.76  87.79
  3  2 -2 2384.86  84.69
  3  2 -2 2535.75  86.99
  3  2 -2 2447.66  77.59
  3  2 -2 2393.16  83.49
  3  2 -2 2497.45  79.59
  2  2 -2 1543.35  50.09
  2  2 -2 1593.24  50.49
  2  2 -2 1521.95  49.99
  2  2 -2 1648.54  52.69
  2  2 -2 1599.54  50.19
  2  2 -2 1582.94  50.99
 -2 -2  2 1475.75  48.70
 -2 -2  2 1537.65  48.60
 -2 -2  2 1559.54  49.50
  0 -2  2 1636.94  51.39
  0 -2  2 1660.13  51.49
  0 -2  2 1657.73  51.89
 -2  2 -2 3699.13 112.49
 -2  2 -2 3479.75 112.49
 -2  2 -2 3677.43 112.99
 -2  2 -2 3696.33 112.69
 -2  2 -2 3494.85 112.29
  2 -2  2 3709.43 114.79
  2 -2  2 3593.14 113.69
  2 -2  2 3612.34 114.79
 -3  2 -2 495.25  16.50
 -3  2 -2 522.75  17.20
 -3  2 -2 522.35  17.40
  3 -2  2 491.25  18.00
  3 -2  2 521.25  25.80
  3 -2  2 520.75  26.80
  3 -2  2 500.55  17.30
  3 -2  2 507.75  20.20
  3 -2  2 483.15  23.30
  3 -2  2 503.75  20.10
  3 -2  2 469.55  24.00
  3 -2  2 503.35  18.80
  3 -2  2 496.35  17.60
  3 -2  2 515.35  20.30
 -4  2 -2 1614.14  54.29
 -4  2 -2 1554.34  52.09
  4 -2  2 1702.93  52.89
  4 -2  2 1655.63  59.09
  4 -2  2 1677.13  63.89
  4 -2  2 1796.92  54.49
  4 -2  2 1663.23  53.59
  4 -2  2 1561.74  63.79
  4  1 -2  33.00  11.60
  4  1 -2  35.80  6.30
  4  1 -2  40.40  7.10
  4  1 -2  32.40  3.00
  4  1 -2  39.10  6.90
  4  1 -2  32.90  7.70
  4  1 -2  30.20  6.90
  4  1 -2  34.90  5.00
  4  1 -2  36.70  4.00
  4  1 -2  39.20  8.90
  4  1 -2  37.20  3.10
  4  1 -2  38.30  3.30
  4  1 -2  31.40  6.40
  3  1 -2 1575.54  61.29
  3  1 -2 1533.55  50.69
  3  1 -2 1553.44  49.40
  3  1 -2 1502.05  54.09
  3  1 -2 1509.55  49.50
  3  1 -2 1544.35  53.79
  3  1 -2 1496.75  57.69
  3  1 -2 1446.46  52.49
  3  1 -2 1567.54  49.99
  3  1 -2 1604.44  59.19
  3  1 -2 1622.94  61.49
  3  1 -2 1635.64  52.59
  3  1 -2 1516.95  57.79
  3  1 -2 1582.94  51.99
  3  1 -2 1478.25  49.40
  3  1 -2 1623.14  50.39
  3  1 -2 1537.55  50.99
  3  1 -2 1605.64  66.19
  3  1 -2 1550.84  56.79
  2  1 -2 1883.51  62.69
  2  1 -2 1995.80  62.69
  2  1 -2 2008.30  63.59
  2  1 -2 1910.61  62.69
  2  1 -2 2070.79  65.59
  2  1 -2 2011.80  63.29
 -2 -1  2 1935.81  62.19
 -2 -1  2 1985.10  63.99
  1  1 -2 2552.54  81.09
  0  1 -2  20.20  1.20
  0  1 -2  22.50  1.10
  0  1 -2  23.80  1.50
  0 -1  2  23.20  1.00
  0 -1  2  23.50  1.10
  0 -1  2  24.40  1.50
 -1  1 -2 471.45  15.80
 -1  1 -2 451.05  14.70
 -1  1 -2 456.55  14.90
 -1  1 -2 450.85  14.70
  1 -1  2 457.85  14.60
  1 -1  2 473.75  15.00
  1 -1  2 467.35  15.10
  1 -1  2 480.85  15.70
  1 -1  2 467.95  15.70
 -2  1 -2 2647.44  83.09
 -2  1 -2 2536.35  82.59
 -2  1 -2 2659.83  82.89
 -2  1 -2 2604.24  82.49
  2 -1  2 2718.53  83.49
  2 -1  2 2715.63  84.99
  2 -1  2 2760.42  84.99
  2 -1  2 2624.24  83.89
 -3  1 -2 1391.06  44.90
 -3  1 -2 1375.26  45.10
 -3  1 -2 1430.96  45.50
 -3  1 -2 1496.45  45.90
  3 -1  2 1381.96  46.00
  3 -1  2 1411.66  48.50
  3 -1  2 1487.65  48.90
  3 -1  2 1453.45  62.69
  3 -1  2 1393.26  53.49
  3 -1  2 1393.56  47.00
  3 -1  2 1401.36  51.89
  3 -1  2 1466.25  56.09
  3 -1  2 1421.16  46.20
  3 -1  2 1454.45  48.70
  3 -1  2 1445.96  45.70
  3 -1  2 1411.36  54.19
  4 -1  2 128.79  15.30
  4 -1  2 149.99  7.90
  4 -1  2 138.19  6.50
  4 -1  2 113.79  12.50
  4 -1  2 148.29  6.30
  4 -1  2 139.79  11.10
  4  0 -2 1682.23  62.39
  4  0 -2 1661.13  58.49
  4  0 -2 1723.93  58.19
  4  0 -2 1668.53  62.49
  4  0 -2 1722.13  56.09
  4  0 -2 1763.82  64.59
  4  0 -2 1721.43  54.89
  4  0 -2 1658.93  64.19
  4  0 -2 1732.23  60.69
  4  0 -2 1775.62  55.19
  4  0 -2 1721.93  70.69
  3  0 -2  63.29  4.70
  3  0 -2  65.79  10.20
  3  0 -2  74.19  10.90
  3  0 -2  70.09  5.30
  3  0 -2  74.29  7.90
  3  0 -2  59.39  10.50
  3  0 -2  67.19  10.20
  3  0 -2  66.29  4.40
  3  0 -2  63.79  4.60
  3  0 -2  64.79  5.90
  3  0 -2  66.59  11.90
  3  0 -2  71.99  5.70
  3  0 -2  70.39  13.70
  3  0 -2  67.19  7.70
  3  0 -2  62.69  5.50
  3  0 -2  69.19  9.40
  2  0 -2 277.67  10.40
  2  0 -2 286.77  10.90
  2  0 -2 291.17  11.00
  2  0 -2 286.57  12.80
 -2  0  2 274.37  9.90
 -2  0  2 279.87  11.10
  1  0 -2  14.40  2.10
  1  0 -2  11.80  1.00
  1  0 -2  12.50  1.00
  1  0 -2  13.00  1.30
 -1  0  2  13.00  0.70
 -1  0  2  11.90  1.00
  0  0 -2  63.19  2.20
  0  0 -2  56.69  2.90
  0  0 -2  58.29  2.20
  0  0 -2  57.79  2.70
  0  0 -2  64.89  2.10
  0  0  2  67.69  2.30
  0  0  2  58.89  2.90
  0  0  2  71.39  2.20
 -2  0 -2 591.44  19.70
 -2  0 -2 621.84  20.20
 -2  0 -2 617.84  20.00
  2  0  2 635.54  21.90
  2  0  2 626.54  20.90
  2  0  2 648.54  21.90
 -3  0 -2 816.32  27.10
 -3  0 -2 869.61  27.90
 -3  0 -2 837.62  27.70
 -3  0 -2 849.61  27.40
  3  0  2 903.01  45.50
  3  0  2 842.82  28.30
  3  0  2 813.02  33.30
  3  0  2 836.02  28.10
  3  0  2 853.51  37.40
  3  0  2 821.42  35.40
  3  0  2 878.51  30.70
  3  0  2 859.41  29.20
  3  0  2 884.51  27.90
  3  0  2 833.72  35.30
  3  0  2 830.42  28.20
  3  0  2 808.12  34.30
  3  0  2 855.61  30.60
  3  0  2 868.71  31.20
  4  0  2  53.59  5.20
  4  0  2  46.10  6.70
  4  0  2  50.49  3.10
  4  0  2  49.80  3.60
  4  0  2  42.00  9.80
  4  0  2  56.09  7.50
  4 -1 -2 384.26  13.30
  4 -1 -2 367.66  20.20
  4 -1 -2 372.96  21.40
  4 -1 -2 379.16  17.00
  4 -1 -2 377.56  13.80
  4 -1 -2 385.56  18.60
  4 -1 -2 378.76  20.30
  3 -1 -2 288.07  12.10
  3 -1 -2 282.07  14.10
  3 -1 -2 269.87  12.40
  3 -1 -2 277.37  12.70
  3 -1 -2 293.17  12.00
  3 -1 -2 272.07  19.40
  3 -1 -2 275.97  18.50
  3 -1 -2 295.47  18.40
  3 -1 -2 283.97  11.20
  3 -1 -2 294.37  22.40
  3 -1 -2 289.17  10.80
  3 -1 -2 292.07  20.10
  3 -1 -2 289.67  17.00
  3 -1 -2 285.17  11.40
  3 -1 -2 271.07  11.10
  3 -1 -2 264.07  14.60
  3 -1 -2 278.87  18.30
 -3  1  2 269.07  10.30
  2 -1 -2 1239.98  40.40
  2 -1 -2 1304.17  43.50
  2 -1 -2 1276.67  41.10
  2 -1 -2 1208.08  40.60
 -2  1  2 1266.57  40.60
 -2  1  2 1252.37  40.00
 -2  1  2 1227.08  39.10
 -2  1  2 1253.07  39.70
 -1 -1 -2 3365.46 104.49
  1  1  2 3244.98 103.39
 -2 -1 -2 257.47  9.10
 -2 -1 -2 270.17  9.20
 -2 -1 -2 271.27  9.30
 -2 -1 -2 276.57  9.50
  2  1  2 277.97  10.40
  2  1  2 282.77  10.60
  2  1  2 276.47  11.00
  2  1  2 278.37  11.00
  2  1  2 284.67  10.20
 -3 -1 -2 2230.88  67.29
 -3 -1 -2 1972.90  65.39
 -3 -1 -2 1993.10  65.59
 -3 -1 -2 2101.29  66.29
  3  1  2 2079.89  70.39
  3  1  2 2051.89  81.19
  3  1  2 2088.09  66.19
  3  1  2 2090.89  68.99
  3  1  2 1995.30  68.59
  3  1  2 2149.78  66.29
  3  1  2 2237.48  86.79
  3  1  2 2068.99  67.39
  4  1  2 818.42  38.00
  4  1  2 730.33  31.70
  4  1  2 756.72  27.60
  4  1  2 769.32  24.90
  4  1  2 766.12  31.00
  4  1  2 768.22  25.20
  4  1  2 754.72  28.80
  4 -2 -2  45.10  4.60
  4 -2 -2  45.90  3.20
  4 -2 -2  42.50  7.80
  4 -2 -2  42.50  5.70
  4 -2 -2  42.60  7.40
  4 -2 -2  47.70  3.60
  4 -2 -2  45.10  7.70
  3 -2 -2 1980.00  66.49
  3 -2 -2 2115.99  76.89
  3 -2 -2 2061.09  66.59
  3 -2 -2 1811.02  71.89
  3 -2 -2 2078.79  71.89
  3 -2 -2 2047.30  65.49
  3 -2 -2 2071.59  72.69
  3 -2 -2 2103.09  79.69
  3 -2 -2 2066.69  70.19
  3 -2 -2 2017.40  68.29
  3 -2 -2 2082.39  65.09
  3 -2 -2 2053.29  76.79
  3 -2 -2 2068.49  75.29
  3 -2 -2 2079.19  74.99
  3 -2 -2 2101.89  64.99
 -3  2  2 1974.20  64.29
 -3  2  2 2008.60  64.79
  2 -2 -2 345.77  12.50
  2 -2 -2 365.26  15.20
  2 -2 -2 342.27  12.80
  2 -2 -2 350.36  13.30
 -2  2  2 338.87  11.60
 -2  2  2 348.27  12.10
 -2  2  2 356.26  11.90
  0  2  2 2755.82  85.79
 -1 -2 -2  11.70  1.30
 -1 -2 -2  15.70  1.00
 -1 -2 -2  16.00  0.90
  1  2  2  16.10  1.60
  1  2  2  13.60  1.60
  1  2  2  13.30  1.40
 -2 -2 -2 905.31  28.50
 -2 -2 -2 902.41  28.70
 -2 -2 -2 876.11  28.50
 -2 -2 -2 897.21  29.00
  2  2  2 914.41  30.10
  2  2  2 909.21  29.60
  2  2  2 892.21  30.50
  2  2  2 906.21  30.50
 -3 -2 -2 255.97  9.40
 -3 -2 -2 257.57  10.10
 -3 -2 -2 269.57  10.00
  3  2  2 277.17  25.30
  3  2  2 269.47  12.80
  3  2  2 254.77  14.00
  3  2  2 255.27  15.90
  3  2  2 268.67  12.50
  3  2  2 267.97  16.60
  3  2  2 266.17  17.50
  3  2  2 251.87  10.10
  3  2  2 265.87  13.10
  3  2  2 270.67  9.80
  3  2  2 262.77  10.30
  4  2  2 1167.78  44.70
  4  2  2 1133.39  40.80
  4  2  2 1294.07  53.59
  4  2  2 1194.48  38.30
  4  2  2 1193.68  41.70
  4 -3 -2 129.69  5.80
  4 -3 -2 128.69  6.10
  4 -3 -2 130.49  9.40
  4 -3 -2 127.39  11.70
  4 -3 -2 138.09  11.70
  4 -3 -2 132.49  12.10
  3 -3 -2 1033.60  40.00
  3 -3 -2 964.70  42.20
  3 -3 -2 973.70  32.80
  3 -3 -2 981.00  42.40
  3 -3 -2 984.20  42.20
  3 -3 -2 1001.40  37.50
  3 -3 -2 1043.90  43.80
  3 -3 -2 961.60  35.10
  3 -3 -2 958.30  34.10
  3 -3 -2 1007.10  32.50
  3 -3 -2 990.30  45.50
  3 -3 -2 977.80  32.10
  3 -3 -2 987.90  38.80
 -3  3  2 930.41  31.10
 -3  3  2 921.51  33.50
 -3  3  2 989.90  32.00
  2 -3 -2 288.07  11.20
  2 -3 -2 290.27  10.80
  2 -3 -2 304.27  13.50
  2 -3 -2 292.67  11.70
 -2  3  2 271.57  9.70
 -2  3  2 308.27  10.60
 -2  3  2 289.37  10.20
 -2  3  2 298.87  10.30
  1 -3 -2  51.69  3.80
  1 -3 -2  52.59  3.10
  1 -3 -2  53.59  2.50
  1 -3 -2  48.00  2.60
  1 -3 -2  55.19  2.40
  1 -3 -2  59.39  3.00
 -1  3  2  55.99  2.50
 -1  3  2  51.69  2.60
 -1  3  2  52.89  2.40
  0 -3 -2 801.52  25.30
  0 -3 -2 837.62  26.10
  0 -3 -2 791.12  25.40
  0 -3 -2 757.32  25.20
  0 -3 -2 862.61  27.00
  0  3  2 794.52  25.10
  0  3  2 771.62  25.20
  0  3  2 787.32  25.60
 -2 -3 -2 2484.25  77.29
 -2 -3 -2 2411.66  77.29
 -2 -3 -2 2498.25  78.09
 -2 -3 -2 2442.36  77.39
  2  3  2 2437.26  79.09
  2  3  2 2690.83  79.99
  2  3  2 2369.66  79.19
 -3 -3 -2 1578.04  51.69
 -3 -3 -2 1612.24  50.79
 -3 -3 -2 1567.24  51.09
  3  3  2 1673.33  51.39
  3  3  2 1595.04  54.69
  3  3  2 1700.43  56.69
  3  3  2 1561.94  51.29
  3  3  2 1509.75  53.79
  3  3  2 1679.83  54.09
  3  3  2 1604.34  50.99
  3  3  2 1543.55  59.49
  3  3  2 1650.83  73.09
  3  3  2 1627.04  59.09
  3  3  2 1530.95  55.39
  4  3  2  58.49  3.30
  4  3  2  53.49  6.10
  4  3  2  66.49  5.50
  4  3  2  54.69  10.80
  4  3  2  55.99  4.20
  4 -4 -2 1234.78  41.90
  4 -4 -2 1318.47  41.60
  4 -4 -2 1301.17  44.10
 -4  4  2 1170.08  39.90
  3 -4 -2 1636.94  56.29
  3 -4 -2 1661.83  62.99
  3 -4 -2 1560.04  54.19
  3 -4 -2 1531.55  66.49
  3 -4 -2 1541.55  50.59
  3 -4 -2 1622.94  52.59
  3 -4 -2 1541.55  52.99
 -3  4  2 1527.25  49.70
 -3  4  2 1588.74  50.69
 -3  4  2 1581.44  50.79
  2 -4 -2 269.67  10.90
  2 -4 -2 273.17  10.30
  2 -4 -2 262.67  11.30
  2 -4 -2 275.07  12.80
 -2  4  2 270.77  9.70
 -2  4  2 255.57  9.00
 -2  4  2 265.57  9.60
 -2  4  2 268.27  10.00
  1 -4 -2 848.02  28.00
  1 -4 -2 881.71  27.80
  1 -4 -2 881.61  27.60
  1 -4 -2 865.01  28.50
  1 -4 -2 909.11  29.80
  1 -4 -2 871.01  27.00
  1 -4 -2 804.72  28.70
 -1  4  2 846.42  27.30
 -1  4  2 862.91  27.70
 -1  4  2 875.21  27.50
 -1  4  2 866.81  27.90
 -1 -4 -2 3791.42 113.99
 -1 -4 -2 3762.92 113.29
 -1 -4 -2 3647.33 113.29
  1  4  2 3441.46 114.59
  1  4  2 3570.74 114.89
 -2 -4 -2 539.85  17.80
 -2 -4 -2 529.95  17.50
 -2 -4 -2 535.95  17.50
 -2 -4 -2 542.65  18.30
  2  4  2 559.94  20.50
  2  4  2 521.45  21.00
  2  4  2 521.45  18.20
  2  4  2 510.25  18.00
  2  4  2 524.15  24.80
  2  4  2 499.95  33.90
  2  4  2 544.05  19.40
  2  4  2 536.95  19.20
 -3 -4 -2 106.29  5.20
 -3 -4 -2  99.69  5.50
  3  4  2  99.19  7.90
  3  4  2 101.59  5.30
  3  4  2 105.39  10.20
  3  4  2  98.29  4.90
  3  4  2  97.49  10.00
  3  4  2  92.69  16.70
  3  4  2  86.89  10.00
  3  4  2  99.29  7.50
  3  4  2  94.29  8.00
  3  4  2 108.59  9.80
  4  4  2 379.96  16.80
  4  4  2 356.86  14.50
  4  4  2 350.56  23.50
  4  4  2 360.16  12.70
  4  4  2 393.86  12.50
  4 -5 -2 156.78  12.70
  4 -5 -2 157.78  6.60
  4 -5 -2 156.18  9.20
  4 -5 -2 153.88  6.60
  4 -5 -2 150.88  12.60
 -4  5  2 139.99  6.30
  3 -5 -2 4931.81 171.78
  3 -5 -2 5259.87 165.48
  3 -5 -2 5046.50 159.98
  3 -5 -2 5240.28 159.28
  3 -5 -2 5103.99 170.98
  3 -5 -2 5115.89 163.98
  3 -5 -2 5151.08 159.88
  3 -5 -2 5100.89 172.38
  3 -5 -2 4998.00 162.38
 -3  5  2 5020.10 159.68
 -3  5  2 5267.67 159.98
 -3  5  2 5019.30 158.78
  2 -5 -2 2459.45  83.59
  2 -5 -2 2509.45  84.59
 -2  5  2 2674.73  82.39
 -2  5  2 2674.33  81.59
 -2  5  2 2644.64  82.59
 -2  5  2 2617.24  81.39
 -2  5  2 2677.73  82.09
  1 -5 -2 1479.05  48.30
  1 -5 -2 1464.75  50.49
  1 -5 -2 1569.84  49.20
  1 -5 -2 1588.44  48.90
 -1  5  2 1555.54  48.70
 -1  5  2 1562.24  48.40
 -1  5  2 1559.24  49.20
 -1  5  2 1589.84  49.10
  0 -5 -2 402.56  14.00
  0 -5 -2 434.26  13.70
  0 -5 -2 442.36  16.50
  0 -5 -2 447.36  15.10
  0 -5 -2 419.96  14.10
  0 -5 -2 415.96  13.90
  0  5  2 392.66  13.60
  0  5  2 431.66  14.30
  0  5  2 428.96  14.00
  0  5  2 416.06  13.60
  0  5  2 399.06  14.30
 -1 -5 -2 200.68  7.40
 -1 -5 -2 185.28  7.80
 -1 -5 -2 207.58  7.30
 -1 -5 -2 227.88  7.30
 -1 -5 -2 208.98  8.10
  1  5  2 203.58  8.90
 -2 -5 -2 564.74  20.10
 -2 -5 -2 599.74  19.60
 -2 -5 -2 619.24  20.60
 -2 -5 -2 584.34  19.50
  2  5  2 619.24  21.30
  2  5  2 627.04  23.30
  2  5  2 573.24  37.00
  2  5  2 560.04  23.50
  2  5  2 608.94  20.10
  2  5  2 576.24  20.00
  2  5  2 603.44  21.50
  2  5  2 579.44  26.40
  2  5  2 595.64  22.90
  2  5  2 556.44  26.90
  2  5  2 579.04  19.80
 -3 -5 -2 2084.29  69.59
 -3 -5 -2 2206.28  70.09
 -3 -5 -2 2167.78  68.69
  3  5  2 2182.28  76.09
  3  5  2 1959.80  89.99
  3  5  2 2221.98  68.89
  3  5  2 2213.98  72.09
  3  5  2 2436.06  75.29
  3  5  2 2018.70  71.89
  3  5  2 2209.68  68.69
  4  5  2 567.94  18.70
  4  5  2 575.64  20.30
  4  5  2 598.04  22.00
  4  5  2 501.05  28.70
  4  5  2 603.34  18.50
  4 -6 -2  33.50  7.40
  4 -6 -2  27.10  6.40
  4 -6 -2  36.60  5.60
  4 -6 -2  35.20  3.00
  4 -6 -2  33.00  2.90
 -4  6  2  26.40  3.90
 -4  6  2  26.70  3.40
  3 -6 -2 880.01  35.10
  3 -6 -2 934.11  40.50
  3 -6 -2 1014.10  36.90
  3 -6 -2 982.50  43.80
  3 -6 -2 908.71  36.50
  3 -6 -2 969.20  32.00
  3 -6 -2 947.21  32.00
 -3  6  2 985.60  32.20
 -3  6  2 955.50  32.20
 -3  6  2 989.50  30.90
 -3  6  2 965.40  31.00
  2 -6 -2 289.17  13.70
  2 -6 -2 311.77  11.80
  2 -6 -2 299.97  11.20
  2 -6 -2 280.67  20.70
  2 -6 -2 309.77  22.10
  2 -6 -2 319.17  13.40
  2 -6 -2 296.17  13.20
 -2  6  2 317.67  11.10
 -2  6  2 296.37  10.60
 -2  6  2 322.47  10.50
 -2  6  2 301.77  11.50
  1 -6 -2 2782.82  86.09
  1 -6 -2 2546.95  88.19
 -1  6  2 2753.92  85.69
 -1  6  2 2828.02  85.89
 -1  6  2 2789.52  86.49
 -1  6  2 2737.93  85.59
 -1  6  2 2762.82  86.29
 -1  6  2 2737.13  85.49
  0 -6 -2 3557.14 110.19
  0 -6 -2 3698.03 111.69
  0 -6 -2 3536.75 110.39
  0 -6 -2 3661.13 109.99
  0  6  2 3567.94 110.69
  0  6  2 3488.55 109.89
  0  6  2 3376.56 109.79
  0  6  2 3482.25 110.59
  0  6  2 3419.76 110.69
 -1 -6 -2  25.60  2.90
 -1 -6 -2  27.60  2.40
 -1 -6 -2  24.50  3.10
 -1 -6 -2  25.80  2.30
  1  6  2  29.80  3.00
  1  6  2  28.50  3.10
 -2 -6 -2 402.86  14.10
 -2 -6 -2 395.86  14.60
 -2 -6 -2 408.36  14.20
  2  6  2 387.66  18.10
  2  6  2 394.46  21.10
  2  6  2 395.86  17.80
  2  6  2 468.05  14.60
  2  6  2 410.56  31.20
  2  6  2 397.06  14.10
  2  6  2 409.66  18.40
  2  6  2 370.06  20.80
  2  6  2 409.16  17.10
  2  6  2 396.86  14.30
 -3 -6 -2  68.29  5.10
 -3 -6 -2  69.99  5.50
 -3 -6 -2  85.19  5.00
  3  6  2  76.59  4.30
  3  6  2  90.79  9.30
  3  6  2  72.69  6.20
  3  6  2  67.59  14.60
  3  6  2  76.49  8.80
  3  6  2  77.69  4.00
  4 -7 -2  71.69  8.80
  4 -7 -2  69.19  3.80
  4 -7 -2  69.99  8.10
  4 -7 -2  72.79  4.00
 -4  7  2  72.39  4.00
 -4  7  2  68.39  4.20
 -4  7  2  63.69  3.80
  3 -7 -2 1774.62  57.39
  3 -7 -2 1692.03  69.79
  3 -7 -2 1825.22  71.49
  3 -7 -2 1789.82  57.39
  3 -7 -2 1615.44  68.69
  3 -7 -2 1815.62  66.09
 -3  7  2 1868.71  58.09
 -3  7  2 1842.92  60.09
 -3  7  2 1781.42  56.39
 -3  7  2 1846.12  56.49
 -3  7  2 1776.02  56.49
  2 -7 -2 4527.05 161.38
  2 -7 -2 4269.67 149.69
  2 -7 -2 4445.35 151.58
  2 -7 -2 5185.48 148.79
 -2  7  2 4789.62 146.39
 -2  7  2 4633.64 146.49
 -2  7  2 4706.43 146.39
 -2  7  2 4849.31 147.99
 -2  7  2 4657.23 147.09
 -2  7  2 4985.00 146.89
  1 -7 -2  41.30  5.60
  1 -7 -2  36.00  3.20
 -1  7  2  34.30  3.60
 -1  7  2  35.40  2.40
 -1  7  2  32.40  2.20
 -1  7  2  39.10  2.50
 -1  7  2  36.70  3.00
  0 -7 -2  34.20  3.00
  0 -7 -2  38.60  3.60
  0 -7 -2  36.40  2.80
  0 -7 -2  34.00  3.80
  0 -7 -2  35.60  2.60
  0  7  2  32.40  3.10
  0  7  2  35.00  2.30
  0  7  2  34.50  2.90
 -1 -7 -2  55.49  4.10
 -1 -7 -2  64.09  3.60
 -1 -7 -2  62.19  3.70
 -1 -7 -2  64.59  3.80
  1  7  2  64.09  4.80
  1  7  2  66.29  5.00
 -2 -7 -2 3449.16 103.09
 -2 -7 -2 3221.08 101.19
 -2 -7 -2 3203.08 101.49
 -2 -7 -2 3361.96 101.59
 -2 -7 -2 3138.89 100.99
  2  7  2 3188.38 103.99
  2  7  2 3124.39 103.29
  2  7  2 3109.09 136.69
  2  7  2 3338.57 100.99
  2  7  2 3241.38 102.19
  2  7  2 2984.70 105.99
 -3 -7 -2 3108.39 101.19
 -3 -7 -2 3257.17  99.99
  3  7  2 3250.47  99.29
  3  7  2 3420.06 105.39
  3  7  2 2944.61 120.39
  3  7  2 3171.78  99.49
  3  7  2 3031.40 101.69
  4 -8 -2 2539.35  81.49
  4 -8 -2 2231.58  72.99
  4 -8 -2 2258.67  79.29
 -4  8  2 2276.47  72.79
  3 -8 -2  59.09  4.10
  3 -8 -2  59.99  11.70
  3 -8 -2  48.70  10.70
 -3  8  2  55.59  4.80
 -3  8  2  59.29  4.70
 -3  8  2  48.90  3.30
 -3  8  2  48.80  5.30
 -3  8  2  52.49  3.40
  2 -8 -2  1.10  3.40
  2 -8 -2  6.20  8.00
  2 -8 -2  3.10  3.70
  2 -8 -2  5.80  3.90
  2 -8 -2  6.40  2.80
 -2  8  2  7.70  2.20
 -2  8  2  6.30  1.40
 -2  8  2  2.90  1.90
 -2  8  2  5.00  1.40
 -2  8  2  4.80  2.10
  1 -8 -2  69.89  7.20
  1 -8 -2  60.79  6.20
  1 -8 -2  62.89  4.90
  1 -8 -2  58.39  6.70
 -1  8  2  61.49  3.30
 -1  8  2  60.09  4.30
 -1  8  2  59.99  3.10
 -1  8  2  61.79  3.60
 -1  8  2  56.89  4.30
 -1  8  2  58.89  4.10
  0 -8 -2 1500.65  46.50
  0 -8 -2 1461.35  46.60
  0 -8 -2 1362.76  46.50
  0 -8 -2 1389.56  46.60
  0 -8 -2 1521.45  48.70
  0 -8 -2 1464.65  46.80
  0 -8 -2 1437.86  46.60
  0  8  2 1418.36  46.10
  0  8  2 1475.85  48.30
  0  8  2 1423.66  46.20
  0  8  2 1391.26  47.30
  0  8  2 1474.25  47.20
  0  8  2 1566.74  48.60
 -1 -8 -2 5227.28 165.78
 -1 -8 -2 5261.27 166.08
 -1 -8 -2 5285.57 165.88
 -1 -8 -2 5588.64 168.08
 -1 -8 -2 5258.57 166.28
 -1 -8 -2 5338.27 165.88
  1  8  2 5233.38 169.08
  1  8  2 5286.27 167.38
  1  8  2 5376.86 185.58
  1  8  2 5129.59 165.28
  1  8  2 5326.27 165.58
  1  8  2 5467.35 166.08
 -2 -8 -2  15.40  2.90
 -2 -8 -2  8.10  4.80
 -2 -8 -2  9.40  3.40
 -2 -8 -2  7.30  2.30
 -2 -8 -2  9.30  2.50
  2  8  2  11.20  4.30
  2  8  2  10.40  6.30
  2  8  2  11.30  5.80
  2  8  2  17.30  5.40
  2  8  2  8.60  1.90
  2  8  2  12.80  2.20
 -3 -8 -2  80.49  5.50
 -3 -8 -2  79.99  5.00
 -3 -8 -2  67.49  6.50
 -3 -8 -2  81.19  5.30
 -3 -8 -2  74.49  4.70
  3  8  2  78.59  5.60
  3  8  2  88.89  4.20
  3  8  2  66.59  12.20
  3  8  2  92.59  8.30
  3  8  2  83.89  3.80
  3 -9 -2 666.53  23.30
  3 -9 -2 732.33  24.60
  3 -9 -2 748.33  36.30
  3 -9 -2 639.54  33.50
 -3  9  2 674.63  23.30
 -3  9  2 677.23  22.60
 -3  9  2 716.63  22.90
 -3  9  2 689.63  24.50
 -3  9  2 716.93  22.90
 -3  9  2 680.43  23.00
  2 -9 -2  44.10  12.20
  2 -9 -2  51.39  8.80
  2 -9 -2  46.10  4.80
  2 -9 -2  52.69  6.30
  2 -9 -2  50.89  8.70
 -2  9  2  47.10  4.00
 -2  9  2  45.90  3.00
 -2  9  2  52.89  3.10
 -2  9  2  47.10  3.80
 -2  9  2  49.00  4.60
 -2  9  2  47.30  3.20
  1 -9 -2 1666.03  53.89
  1 -9 -2 1669.83  55.59
  1 -9 -2 1658.63  57.29
  1 -9 -2 1659.53  55.19
  1 -9 -2 1622.64  53.99
  1 -9 -2 1696.03  54.09
 -1  9  2 1720.83  53.89
 -1  9  2 1678.33  53.29
 -1  9  2 1663.03  52.99
 -1  9  2 1662.73  53.09
 -1  9  2 1671.83  54.69
 -1  9  2 1649.23  53.49
 -1  9  2 1716.93  52.79
 -1  9  2 1691.63  54.69
 -1  9  2 1701.33  52.99
  0 -9 -2 589.84  20.80
  0 -9 -2 580.54  20.80
  0 -9 -2 628.24  23.50
  0 -9 -2 603.24  21.20
  0 -9 -2 615.04  21.90
  0 -9 -2 621.94  21.00
  0 -9 -2 633.44  21.10
  0 -9 -2 599.74  23.90
  0 -9 -2 618.74  21.20
  0 -9 -2 613.34  20.90
  0  9  2 620.34  21.40
  0  9  2 642.24  21.80
  0  9  2 609.14  20.50
  0  9  2 624.74  22.90
  0  9  2 615.34  20.50
  0  9  2 580.84  21.20
 -1 -9 -2  29.30  3.50
 -1 -9 -2  25.60  3.50
 -1 -9 -2  22.70  3.90
 -1 -9 -2  28.20  3.50
 -1 -9 -2  26.60  3.10
 -1 -9 -2  24.10  3.90
 -1 -9 -2  35.70  4.20
 -1 -9 -2  22.80  3.40
  1  9  2  24.70  5.00
  1  9  2  26.20  2.80
  1  9  2  24.30  13.20
  1  9  2  28.40  4.90
  1  9  2  25.70  3.80
 -2 -9 -2  35.50  4.50
 -2 -9 -2  39.30  4.30
 -2 -9 -2  33.50  3.80
  2  9  2  32.90  11.70
  2  9  2  34.30  2.70
  2  9  2  33.20  3.00
  2  9  2  37.10  7.30
  2  9  2  39.10  3.50
 -3 -9 -2 119.99  5.80
 -3 -9 -2 132.59  6.40
  3  9  2 127.19  4.90
  3  9  2 130.99  8.30
  3  9  2 114.09  12.50
  3  9  2 126.49  6.40
  3  9  2 123.19  5.20
  3 -10 -2 350.26  13.60
  3 -10 -2 352.36  12.90
  3 -10 -2 340.67  21.20
  3 -10 -2 408.06  24.70
 -3 10  2 368.46  13.30
 -3 10  2 371.86  12.30
 -3 10  2 351.96  14.50
 -3 10  2 374.36  12.70
 -3 10  2 348.17  12.60
 -3 10  2 366.86  12.60
  2 -10 -2 356.76  24.30
  2 -10 -2 345.17  13.60
  2 -10 -2 388.36  15.70
  2 -10 -2 337.57  20.70
  2 -10 -2 377.86  19.50
 -2 10  2 371.16  12.70
 -2 10  2 376.76  13.20
 -2 10  2 365.36  14.50
 -2 10  2 384.26  13.10
 -2 10  2 396.66  13.10
 -2 10  2 377.36  14.70
 -2 10  2 373.26  13.70
  1 -10 -2 882.11  31.30
  1 -10 -2 897.11  29.60
  1 -10 -2 880.41  30.80
  1 -10 -2 861.41  33.00
 -1 10  2 876.81  30.30
 -1 10  2 851.31  29.30
 -1 10  2 883.41  28.30
 -1 10  2 880.91  31.40
 -1 10  2 856.81  28.50
 -1 10  2 887.91  29.00
 -1 10  2 891.31  28.50
 -1 10  2 899.91  29.90
  0 -10 -2 5505.95 173.38
  0 -10 -2 5468.75 173.88
  0 -10 -2 5553.24 173.78
  0 -10 -2 5487.75 173.38
  0 -10 -2 5550.84 174.78
  0 -10 -2 5646.33 173.88
  0 -10 -2 5782.52 176.28
  0 -10 -2 5506.75 173.78
  0 10  2 5530.45 172.88
  0 10  2 5442.76 173.68
  0 10  2 5660.53 174.28
  0 10  2 5534.45 176.58
 -1 -10 -2 1487.85  49.20
 -1 -10 -2 1494.25  48.40
 -1 -10 -2 1543.75  48.50
 -1 -10 -2 1507.75  51.09
 -1 -10 -2 1563.34  48.90
 -1 -10 -2 1503.95  48.20
 -1 -10 -2 1445.46  49.00
  1 10  2 1476.05  47.90
  1 10  2 1592.64  48.80
  1 10  2 1498.55  65.99
  1 10  2 1463.35  52.59
  1 10  2 1461.45  50.59
 -2 -10 -2 927.71  30.70
 -2 -10 -2 923.01  31.00
 -2 -10 -2 953.50  33.60
 -2 -10 -2 1000.50  31.70
 -2 -10 -2 962.40  31.50
  2 10  2 908.31  30.20
  2 10  2 946.01  47.60
  2 10  2 951.60  36.20
  2 10  2 940.21  30.60
  2 10  2 927.31  30.50
 -3 -10 -2  58.89  4.10
 -3 -10 -2  58.49  4.80
  3 10  2  71.49  5.50
  3 10  2  63.89  3.00
  3 10  2  53.89  7.60
  3 -11 -2  55.39  4.50
  3 -11 -2  63.89  7.80
  3 -11 -2  55.89  8.90
  3 -11 -2  60.99  3.80
 -3 11  2  59.79  4.60
 -3 11  2  56.39  3.00
 -3 11  2  63.39  3.80
 -3 11  2  58.79  2.90
 -3 11  2  55.79  3.20
  2 -11 -2 3363.56 123.09
  2 -11 -2 3564.74 112.99
 -2 11  2 3586.14 112.59
 -2 11  2 3588.04 110.39
 -2 11  2 3587.84 110.49
 -2 11  2 3486.05 111.19
 -2 11  2 3451.55 110.09
 -2 11  2 3628.94 110.59
  1 -11 -2 914.61  30.30
  1 -11 -2 919.11  32.10
  1 -11 -2 864.81  34.20
  1 -11 -2 905.11  31.40
 -1 11  2 851.01  32.70
 -1 11  2 927.01  29.30
 -1 11  2 893.91  29.00
 -1 11  2 864.61  30.40
 -1 11  2 911.21  30.00
 -1 11  2 898.11  28.60
 -1 11  2 901.61  30.60
  0 -11 -2  10.30  4.20
  0 -11 -2  10.40  2.20
  0 -11 -2  14.20  3.10
  0 -11 -2  15.70  3.10
  0 -11 -2  16.90  5.20
  0 11  2  12.90  2.60
  0 11  2  11.50  2.00
  0 11  2  10.00  4.00
 -1 -11 -2  54.49  7.00
 -1 -11 -2  57.59  4.10
 -1 -11 -2  58.89  6.90
 -1 -11 -2  73.79  5.10
  1 11  2  61.79  4.20
  1 11  2  60.19  6.90
 -2 -11 -2 832.72  32.30
 -2 -11 -2 913.51  29.90
 -2 -11 -2 925.11  29.50
 -2 -11 -2 923.61  29.20
 -2 -11 -2 889.01  29.60
 -2 -11 -2 884.81  30.50
 -2 -11 -2 905.61  30.00
  2 11  2 857.71  28.70
  2 11  2 895.51  42.70
  2 11  2 929.71  29.10
  2 11  2 954.80  33.70
  3 -12 -2  62.19  13.00
  3 -12 -2  78.69  7.10
 -3 12  2  79.29  4.70
 -3 12  2  81.79  3.20
 -3 12  2  82.79  3.50
 -3 12  2  76.39  3.50
 -3 12  2  80.49  3.50
  2 -12 -2  10.20  3.10
  2 -12 -2  12.00  6.80
  2 -12 -2  15.30  6.80
 -2 12  2  11.00  1.50
 -2 12  2  15.60  2.40
 -2 12  2  13.50  2.60
 -2 12  2  10.30  2.60
 -2 12  2  14.30  2.10
  1 -12 -2  90.99  6.20
  1 -12 -2 110.09  7.00
  1 -12 -2  90.59  7.20
 -1 12  2  93.39  3.90
 -1 12  2  89.59  5.30
 -1 12  2  94.39  6.10
 -1 12  2  93.39  4.60
  0 -12 -2 1289.17  45.90
  0 -12 -2 1339.97  43.70
  0 -12 -2 1317.57  42.70
  0 -12 -2 1322.37  43.20
  0 -12 -2 1393.06  44.80
  0 12  2 1356.26  43.80
  0 12  2 1361.66  43.80
  0 12  2 1327.87  42.60
 -1 -12 -2 1733.23  54.89
 -1 -12 -2 1722.23  54.39
 -1 -12 -2 1695.73  55.09
 -1 -12 -2 1728.93  54.49
 -1 -12 -2 1620.64  57.99
 -1 -12 -2 1715.83  55.79
 -1 -12 -2 1720.93  54.89
  1 12  2 1686.23  73.89
  1 12  2 1798.92  54.89
  1 12  2 1664.83  58.59
 -2 -12 -2 1628.64  50.29
 -2 -12 -2 1586.94  51.09
 -2 -12 -2 1595.24  50.39
 -2 -12 -2 1625.54  50.99
 -2 -12 -2 1514.75  50.79
 -2 -12 -2 1588.74  50.59
  2 12  2 1533.25  59.79
  2 12  2 1654.73  53.49
  2 12  2 1551.14  49.70
  2 -13 -2 313.37  17.90
  2 -13 -2 308.07  12.50
  2 -13 -2 320.57  17.40
 -2 13  2 317.67  11.00
 -2 13  2 333.17  11.80
 -2 13  2 323.67  10.60
 -2 13  2 327.67  11.10
  1 -13 -2 1029.90  33.10
  1 -13 -2 946.21  36.50
  1 -13 -2 1036.40  34.00
 -1 13  2 979.00  32.60
 -1 13  2 1015.00  33.20
 -1 13  2 1050.89  32.40
 -1 13  2 984.70  33.30
  0 -13 -2 1801.62  57.69
  0 -13 -2 1834.22  56.49
  0 -13 -2 1815.02  59.59
  0 -13 -2 1739.33  57.19
  0 -13 -2 1759.92  58.39
  0 13  2 1876.01  59.49
  0 13  2 1769.72  57.69
 -1 -13 -2 502.05  19.50
 -1 -13 -2 542.35  19.30
 -1 -13 -2 569.54  18.60
 -1 -13 -2 534.55  18.20
 -1 -13 -2 546.15  18.00
 -1 -13 -2 551.94  18.50
  1 13  2 534.25  18.20
  1 13  2 554.84  21.50
  2 -14 -2  6.80  1.70
  2 -14 -2  3.90  2.90
 -2 14  2  6.70  1.50
 -2 14  2  4.70  0.80
 -2 14  2  5.90  1.90
  1 -14 -2 794.72  27.50
  1 -14 -2 787.52  32.50
  1 -14 -2 776.12  26.00
 -1 14  2 817.22  26.50
 -1 14  2 797.02  26.40
 -1 14  2 809.62  25.50
  0 -14 -2 1210.28  39.40
  0 -14 -2 1176.28  40.00
  0 -14 -2 1226.58  38.70
  0 14  2 1182.38  38.70
 -1 -14 -2  13.60  2.20
 -1 -14 -2  20.60  3.20
  1 14  2  18.70  3.60
  1 14  2  13.20  1.60
  1 -15 -2 151.38  6.90
 -1 15  2 156.98  6.30
 -1 15  2 167.68  5.60
  0 -15 -2  2.30  1.30
  0 -15 -2  1.30  2.40
  0 -15 -2  -0.10  4.00
  0 15  2  1.80  2.30
  0 15  2  1.40  1.00
  1 15 -3 1090.09  40.60
  1 15 -3 1050.69  35.90
  1 15 -3 1087.39  34.20
 -1 -15  3 1107.49  34.80
 -1 -15  3 1106.49  34.10
 -1 -15  3 1055.59  35.10
  0 15 -3 726.43  24.20
  0 15 -3 748.93  28.80
  0 -15  3 738.43  23.80
  0 -15  3 726.53  25.00
  0 -15  3 746.23  24.40
 -1 15 -3 143.69  5.80
 -1 15 -3 147.59  5.20
 -1 15 -3 140.09  5.90
  1 -15  3 140.99  6.90
  1 -15  3 141.99  6.80
  1 14 -3 164.68  9.10
  1 14 -3 169.88  10.80
  1 14 -3 157.98  6.30
 -1 -14  3 167.18  6.30
 -1 -14  3 151.58  8.50
 -1 -14  3 171.88  7.00
 -1 -14  3 170.98  7.70
 -1 -14  3 162.58  6.90
  0 14 -3  27.60  5.90
  0 14 -3  26.20  2.70
  0 -14  3  23.70  3.30
  0 -14  3  25.30  4.60
  0 -14  3  30.70  3.90
 -1 14 -3  84.79  3.80
 -1 14 -3  95.19  4.50
 -1 14 -3  80.79  4.70
  1 -14  3  81.89  5.70
  1 -14  3  85.39  5.00
 -2 14 -3 1269.97  41.30
 -2 14 -3 1271.87  41.00
  2 -14  3 1280.77  42.40
  2 -14  3 1316.97  48.40
  2 -14  3 1355.26  46.50
  2 13 -3 404.06  16.20
  2 13 -3 435.16  18.40
 -2 -13  3 409.46  15.20
 -2 -13  3 382.56  15.70
 -2 -13  3 429.66  13.80
 -2 -13  3 403.86  14.70
 -2 -13  3 390.36  14.10
  1 13 -3 276.57  18.40
  1 13 -3 265.97  16.20
  1 13 -3 234.98  9.80
 -1 -13  3 258.97  9.90
 -1 -13  3 230.28  10.90
 -1 -13  3 251.37  10.60
 -1 -13  3 253.77  10.40
 -1 -13  3 247.08  9.20
 -1 -13  3 224.48  13.20
  0 13 -3 2845.62  89.49
  0 13 -3 2730.13  91.99
  0 13 -3 2850.11  88.99
  0 -13  3 2782.42  88.49
  0 -13  3 2817.42  90.39
  0 -13  3 2810.52  91.49
  0 -13  3 2903.41  89.19
  0 -13  3 2856.51  89.69
 -1 13 -3 2266.97  71.69
 -1 13 -3 2279.87  72.49
 -1 13 -3 2303.47  71.29
  1 -13  3 2263.57  72.39
  1 -13  3 2210.58  73.19
  1 -13  3 2283.17  73.99
 -2 13 -3 219.08  7.50
 -2 13 -3 218.48  8.20
 -2 13 -3 218.78  7.90
  2 -13  3 210.08  14.70
  2 -13  3 232.48  12.70
  2 -13  3 202.48  9.60
  2 12 -3 532.45  23.30
  2 12 -3 475.45  16.00
  2 12 -3 484.25  19.90
 -2 -12  3 493.05  16.60
 -2 -12  3 482.95  17.20
 -2 -12  3 471.65  17.50
 -2 -12  3 465.85  16.90
 -2 -12  3 487.15  17.00
  1 12 -3 1505.25  47.70
  1 12 -3 1467.25  51.49
  1 12 -3 1516.25  56.99
 -1 -12  3 1503.05  48.20
 -1 -12  3 1438.56  47.40
 -1 -12  3 1456.45  50.79
 -1 -12  3 1462.45  48.70
 -1 -12  3 1511.05  48.10
 -1 -12  3 1465.25  48.10
  0 12 -3 418.36  14.70
  0 12 -3 435.46  15.40
  0 12 -3 444.56  15.80
  0 12 -3 427.76  18.60
  0 -12  3 422.46  15.70
  0 -12  3 421.96  15.00
  0 -12  3 428.16  16.60
  0 -12  3 465.25  16.10
  0 -12  3 424.26  18.60
 -1 12 -3 1185.18  37.50
 -1 12 -3 1171.18  37.90
 -1 12 -3 1194.48  36.90
 -1 12 -3 1160.58  38.70
  1 -12  3 1177.08  38.70
  1 -12  3 1184.28  40.30
  1 -12  3 1108.59  39.40
 -2 12 -3 245.88  10.10
 -2 12 -3 243.28  9.20
 -2 12 -3 238.88  8.60
 -2 12 -3 247.48  9.00
 -2 12 -3 248.78  9.00
  2 -12  3 263.37  14.70
  2 -12  3 248.08  17.90
  2 -12  3 242.98  11.10
 -3 12 -3  2.60  1.00
 -3 12 -3  5.40  1.10
 -3 12 -3  3.00  1.30
  3 -12  3  9.10  3.60
  3 -12  3  2.30  2.00
  3 11 -3 205.58  6.90
  3 11 -3 204.08  10.40
  3 11 -3 185.38  12.00
  3 11 -3 193.88  9.30
 -3 -11  3 196.18  7.40
 -3 -11  3 192.18  7.80
  2 11 -3 535.25  29.90
  2 11 -3 547.65  18.30
  2 11 -3 537.05  22.70
  2 11 -3 582.24  27.90
 -2 -11  3 543.95  18.80
 -2 -11  3 564.14  19.30
 -2 -11  3 562.54  20.00
 -2 -11  3 568.44  19.30
 -2 -11  3 522.75  21.20
  1 11 -3 1046.60  39.80
  1 11 -3 1148.19  36.10
  1 11 -3 1071.09  39.80
  1 11 -3 1122.49  45.90
 -1 -11  3 1095.09  35.80
 -1 -11  3 1105.59  36.40
 -1 -11  3 1156.78  36.50
 -1 -11  3 1104.79  38.70
 -1 -11  3 1045.50  37.10
 -1 -11  3 1088.49  37.00
 -1 -11  3 1100.09  36.40
  0 11 -3 1690.93  57.39
  0 11 -3 1747.03  54.99
  0 11 -3 1667.73  53.79
  0 11 -3 1722.43  54.49
  0 11 -3 1665.03  55.49
  0 -11  3 1764.32  55.19
  0 -11  3 1637.44  55.59
  0 -11  3 1737.33  55.59
  0 -11  3 1702.83  57.59
  0 -11  3 1700.83  54.19
  0 -11  3 1645.04  57.19
  0 -11  3 1739.43  54.89
 -1 11 -3 107.19  6.60
 -1 11 -3 107.69  6.00
 -1 11 -3 101.29  5.20
 -1 11 -3 109.19  4.50
 -1 11 -3 108.39  7.10
 -1 11 -3 107.59  5.00
  1 -11  3 112.19  9.90
  1 -11  3 113.69  10.60
  1 -11  3  97.99  6.50
  1 -11  3 102.69  6.70
  1 -11  3 108.79  6.40
  1 -11  3 117.99  8.00
  1 -11  3 104.49  8.90
 -2 11 -3 170.88  6.50
 -2 11 -3 156.48  9.30
 -2 11 -3 165.28  7.90
 -2 11 -3 172.58  6.90
 -2 11 -3 175.78  7.00
 -2 11 -3 174.48  7.00
 -2 11 -3 177.08  7.10
  2 -11  3 175.38  9.10
  2 -11  3 173.48  16.00
 -3 11 -3 818.62  26.90
 -3 11 -3 814.72  26.60
 -3 11 -3 835.92  26.80
 -3 11 -3 806.92  27.00
 -3 11 -3 814.02  27.00
  3 -11  3 894.71  32.60
  3 -11  3 860.01  27.40
  3 -11  3 797.52  34.70
  3 -11  3 848.02  27.80
  3 10 -3 691.23  26.60
  3 10 -3 711.63  32.10
  3 10 -3 697.93  23.10
  3 10 -3 780.02  29.30
 -3 -10  3 700.43  23.80
 -3 -10  3 723.43  23.50
 -3 -10  3 705.53  23.90
  2 10 -3 3967.80 134.39
  2 10 -3 4098.09 129.19
  2 10 -3 4063.89 144.79
  2 10 -3 4308.17 142.69
  2 10 -3 4380.06 130.19
 -2 -10  3 4100.19 129.99
 -2 -10  3 4260.77 130.59
 -2 -10  3 4100.19 130.39
 -2 -10  3 4046.40 129.89
 -2 -10  3 4082.79 129.69
 -2 -10  3 4124.59 132.39
  1 10 -3  19.90  4.70
  1 10 -3  22.60  5.20
  1 10 -3  15.20  2.60
  1 10 -3  12.80  2.60
 -1 -10  3  19.70  3.10
 -1 -10  3  16.90  3.20
 -1 -10  3  17.00  3.50
 -1 -10  3  15.20  3.50
  0 10 -3  88.39  5.80
  0 10 -3  96.39  5.70
  0 10 -3  95.29  6.60
  0 10 -3  90.49  4.80
  0 10 -3  95.99  5.30
  0 10 -3 105.89  5.70
  0 -10  3  87.79  6.00
  0 -10  3 104.39  4.90
  0 -10  3  84.29  6.70
  0 -10  3  92.49  10.90
  0 -10  3  91.59  6.20
  0 -10  3  92.99  5.40
  0 -10  3  90.19  5.60
  0 -10  3  92.19  5.30
 -1 10 -3 218.78  8.60
 -1 10 -3 223.68  9.40
 -1 10 -3 217.08  8.50
 -1 10 -3 231.18  9.60
 -1 10 -3 227.08  10.20
 -1 10 -3 220.08  8.10
 -1 10 -3 230.28  8.40
  1 -10  3 236.68  10.70
  1 -10  3 220.38  9.70
  1 -10  3 227.28  11.50
  1 -10  3 231.18  10.00
  1 -10  3 217.08  11.50
  1 -10  3 216.98  10.10
 -2 10 -3 2066.09  64.89
 -2 10 -3 1953.60  64.39
 -2 10 -3 2106.49  64.09
 -2 10 -3 1981.50  64.19
 -2 10 -3 1984.70  63.69
 -2 10 -3 2156.38  64.19
 -2 10 -3 2089.89  64.19
 -2 10 -3 2090.69  65.99
 -2 10 -3 2012.10  65.39
  2 -10  3 2136.39  66.59
  2 -10  3 1981.90  77.59
  2 -10  3 2046.10  71.09
  2 -10  3 1880.71  67.39
  2 -10  3 1910.91  68.79
 -3 10 -3 1169.48  38.20
 -3 10 -3 1224.38  38.20
 -3 10 -3 1100.29  38.60
 -3 10 -3 1202.08  38.20
 -3 10 -3 1185.78  38.00
 -3 10 -3 1133.09  39.80
  3 -10  3 1320.77  46.80
  3 -10  3 1120.99  50.29
  3 -10  3 1200.98  39.30
  3 -10  3 1259.77  39.10
  3  9 -3 931.61  36.60
  3  9 -3 848.82  39.50
  3  9 -3 890.91  27.80
  3  9 -3 828.62  32.10
  3  9 -3 860.71  29.10
 -3 -9  3 838.22  28.30
 -3 -9  3 820.82  28.40
  2  9 -3  52.79  12.60
  2  9 -3  60.59  3.20
  2  9 -3  50.49  6.60
  2  9 -3  52.29  3.40
  2  9 -3  51.49  5.90
  2  9 -3  49.30  12.20
  2  9 -3  47.70  7.50
  2  9 -3  50.49  7.00
 -2 -9  3  54.79  4.80
 -2 -9  3  49.70  4.40
 -2 -9  3  57.79  4.10
 -2 -9  3  54.39  6.80
 -2 -9  3  49.30  5.00
 -2 -9  3  41.40  6.30
  1  9 -3 966.10  35.60
  1  9 -3 987.20  31.80
  1  9 -3 936.81  31.30
  1  9 -3 1012.50  34.70
  1  9 -3 966.80  32.70
 -1 -9  3 952.00  32.20
 -1 -9  3 1005.60  33.80
 -1 -9  3 953.50  32.00
 -1 -9  3 961.10  32.50
 -1 -9  3 957.60  31.90
 -1 -9  3 953.10  31.80
 -1 -9  3 947.41  32.50
  0  9 -3 464.45  16.90
  0  9 -3 489.95  17.80
  0  9 -3 466.85  16.60
  0  9 -3 464.95  16.20
  0  9 -3 443.66  15.70
  0  9 -3 471.75  16.50
  0 -9  3 458.45  16.10
  0 -9  3 467.15  16.50
  0 -9  3 463.95  18.20
  0 -9  3 473.35  17.10
  0 -9  3 493.85  16.90
  0 -9  3 479.25  16.60
  0 -9  3 466.85  16.40
  0 -9  3 424.86  20.60
 -1  9 -3 2323.97  74.09
 -1  9 -3 2368.46  74.09
 -1  9 -3 2300.67  72.89
 -1  9 -3 2361.16  74.59
 -1  9 -3 2351.06  74.69
 -1  9 -3 2279.57  73.09
 -1  9 -3 2304.97  73.29
 -1  9 -3 2374.86  73.19
  1 -9  3 2242.18  74.79
  1 -9  3 2404.16  74.59
  1 -9  3 2339.77  76.39
  1 -9  3 2305.07  74.09
  1 -9  3 2472.85  75.99
  1 -9  3 2320.17  74.29
  1 -9  3 2226.78  73.29
 -2  9 -3 389.16  12.90
 -2  9 -3 364.06  14.00
 -2  9 -3 365.66  12.40
 -2  9 -3 354.76  17.20
 -2  9 -3 371.06  13.10
 -2  9 -3 376.36  12.70
 -2  9 -3 367.46  12.80
 -2  9 -3 366.86  13.90
  2 -9  3 335.97  15.80
  2 -9  3 344.37  18.90
  2 -9  3 340.57  16.30
  2 -9  3 363.86  15.20
 -3  9 -3 183.48  7.00
 -3  9 -3 173.58  7.00
 -3  9 -3 177.68  6.90
 -3  9 -3 171.98  7.00
 -3  9 -3 171.98  6.60
 -3  9 -3 174.28  8.40
  3 -9  3 166.88  6.90
  3 -9  3 157.48  8.60
  3 -9  3 192.08  8.60
  3 -9  3 154.98  14.40
  3 -9  3 193.58  14.20
  3  8 -3 968.60  33.20
  3  8 -3 988.70  31.50
  3  8 -3 899.71  36.00
  3  8 -3 986.50  31.30
  3  8 -3 967.40  45.50
  3  8 -3 1059.49  43.20
 -3 -8  3 1013.70  32.40
 -3 -8  3 974.50  31.90
 -3 -8  3 922.21  33.20
  2  8 -3 156.38  11.10
  2  8 -3 164.18  6.60
  2  8 -3 157.88  9.30
  2  8 -3 155.48  9.80
  2  8 -3 160.98  6.50
  2  8 -3 138.49  17.00
  2  8 -3 161.68  8.70
 -2 -8  3 161.28  7.40
 -2 -8  3 164.48  8.10
 -2 -8  3 169.68  8.10
 -2 -8  3 164.58  8.00
 -2 -8  3 153.28  8.90
  1  8 -3 2123.39  71.89
  1  8 -3 2233.68  70.79
  1  8 -3 2187.78  68.19
  1  8 -3 2196.18  69.09
  1  8 -3 2229.48  68.29
 -1 -8  3 2076.89  70.69
 -1 -8  3 2219.68  68.89
 -1 -8  3 2151.08  68.39
 -1 -8  3 1980.20  68.59
 -1 -8  3 2148.58  68.19
  0  8 -3  22.60  2.50
  0  8 -3  28.50  2.60
  0  8 -3  22.80  2.90
  0 -8  3  30.40  3.20
  0 -8  3  26.80  3.30
  0 -8  3  21.90  5.30
  0 -8  3  23.40  2.60
 -1  8 -3 9216.78 275.57
 -1  8 -3 8875.21 274.17
 -1  8 -3 8611.74 273.77
  1 -8  3 8332.67 274.97
  1 -8  3 9526.65 277.27
  1 -8  3 8499.55 276.77
 -2  8 -3 1099.39  34.60
 -2  8 -3 1119.89  36.10
 -2  8 -3 1098.99  34.60
 -2  8 -3 1155.58  34.80
 -2  8 -3 1095.89  34.40
 -2  8 -3 1119.69  35.50
 -2  8 -3 1125.09  34.80
  2 -8  3 1034.20  46.20
  2 -8  3 1052.89  38.10
  2 -8  3 921.71  39.00
  2 -8  3 1125.09  37.00
  2 -8  3 965.00  39.00
 -3  8 -3 146.39  6.10
 -3  8 -3 159.38  6.10
 -3  8 -3 152.68  6.20
 -3  8 -3 143.79  6.20
 -3  8 -3 149.39  5.80
  3 -8  3 138.19  7.70
  3 -8  3 136.69  6.10
  3 -8  3 139.59  7.80
  3 -8  3 131.39  12.70
  3 -8  3 134.49  13.30
 -4  8 -3 352.76  11.70
 -4  8 -3 330.77  11.80
  4 -8  3 379.76  16.20
  4 -8  3 332.27  15.80
  4 -8  3 355.46  11.70
  3  7 -3 306.27  15.90
  3  7 -3 319.67  23.70
  3  7 -3 320.87  13.40
  3  7 -3 329.47  22.10
  3  7 -3 332.77  11.60
  3  7 -3 323.87  16.70
  3  7 -3 330.27  11.40
 -3 -7  3 333.07  12.00
 -3 -7  3 313.97  13.00
  2  7 -3  24.00  3.00
  2  7 -3  31.10  2.80
  2  7 -3  20.90  4.10
  2  7 -3  27.90  6.60
  2  7 -3  24.70  4.80
  2  7 -3  23.40  4.40
  2  7 -3  20.90  8.70
  2  7 -3  30.00  11.80
  2  7 -3  24.80  3.90
  2  7 -3  30.50  7.00
 -2 -7  3  28.50  4.50
 -2 -7  3  26.70  3.20
 -2 -7  3  25.00  5.10
 -2 -7  3  26.80  2.70
  1  7 -3 5018.50 157.78
  1  7 -3 5132.29 159.18
 -1 -7  3 5007.10 161.38
 -1 -7  3 4878.51 156.98
 -1 -7  3 5092.59 157.48
 -1 -7  3 5014.60 157.08
 -1 -7  3 5278.47 158.48
 -1 -7  3 4864.91 156.88
  0  7 -3 4221.08 132.99
  0  7 -3 4128.19 132.79
  0  7 -3 4411.16 134.09
  0 -7  3 4183.58 132.99
  0 -7  3 4366.86 135.79
  0 -7  3 4295.67 133.59
  0 -7  3 4361.86 134.39
  0 -7  3 4293.57 132.99
  0 -7  3 4083.79 132.99
 -1  7 -3  5.60  1.70
 -1  7 -3  2.90  1.00
 -1  7 -3  2.10  1.60
 -1  7 -3  1.40  1.10
 -1  7 -3  2.00  1.10
  1 -7  3  4.60  1.60
  1 -7  3  7.60  2.20
  1 -7  3  6.90  1.80
 -2  7 -3 687.63  22.40
 -2  7 -3 707.63  22.70
 -2  7 -3 713.93  23.20
 -2  7 -3 715.53  22.50
 -2  7 -3 720.93  22.70
 -2  7 -3 702.23  23.70
 -2  7 -3 714.63  22.60
  2 -7  3 675.93  24.40
  2 -7  3 673.03  25.40
  2 -7  3 633.24  22.80
  2 -7  3 653.53  32.50
  2 -7  3 621.84  26.30
  2 -7  3 716.53  24.70
 -3  7 -3  7.50  2.40
 -3  7 -3  2.20  1.50
 -3  7 -3  6.20  1.70
 -3  7 -3  0.90  2.00
  3 -7  3  2.00  3.30
  3 -7  3  1.90  2.70
  3 -7  3  4.30  5.30
  3 -7  3  1.50  6.70
  3 -7  3  3.20  4.80
 -4  7 -3 2465.75  77.29
 -4  7 -3 2444.46  77.49
 -4  7 -3 2417.76  77.49
  4 -7  3 2399.86  82.99
  4 -7  3 2735.23  77.79
  4 -7  3 2446.26  83.29
  4 -7  3 2419.96  77.39
  4  6 -3 406.86  14.60
  4  6 -3 387.96  21.60
  4  6 -3 452.65  18.40
  4  6 -3 409.76  13.30
  4  6 -3 348.97  16.30
  3  6 -3  45.00  6.70
  3  6 -3  47.50  10.10
  3  6 -3  50.99  7.00
  3  6 -3  44.40  11.20
  3  6 -3  44.80  3.20
  3  6 -3  42.30  4.60
  3  6 -3  39.00  2.90
  3  6 -3  39.80  10.50
 -3 -6  3  40.40  4.50
 -3 -6  3  47.50  4.70
  2  6 -3 4115.39 133.99
  2  6 -3 4302.87 134.69
  2  6 -3 4221.48 146.29
  2  6 -3 4138.19 134.89
  2  6 -3 4394.46 150.68
  2  6 -3 4258.67 139.29
  2  6 -3 4364.86 132.99
  2  6 -3 4257.97 132.79
  2  6 -3 4338.97 145.19
  2  6 -3 4139.19 135.99
 -2 -6  3 4233.08 134.49
 -2 -6  3 4426.56 133.39
 -2 -6  3 4192.08 132.79
  1  6 -3 2010.90  61.19
  1  6 -3 2043.30  62.29
  1  6 -3 1862.31  59.89
 -1 -6  3 1891.91  60.09
 -1 -6  3 1914.51  62.69
 -1 -6  3 1830.12  58.39
 -1 -6  3 1593.24  59.19
 -1 -6  3 1867.11  59.19
  0  6 -3 1380.96  43.70
  0  6 -3 1350.56  44.80
  0  6 -3 1395.66  44.60
  0  6 -3 1400.96  44.50
  0  6 -3 1458.45  45.40
  0 -6  3 1386.86  44.60
  0 -6  3 1431.06  45.70
  0 -6  3 1433.36  46.70
  0 -6  3 1417.56  44.60
 -1  6 -3  33.50  2.40
 -1  6 -3  31.30  2.50
 -1  6 -3  27.20  2.20
 -1  6 -3  32.80  2.20
  1 -6  3  31.30  2.70
  1 -6  3  27.50  3.30
  1 -6  3  29.80  2.80
 -2  6 -3 2005.90  62.89
 -2  6 -3 2027.10  62.69
 -2  6 -3 1997.40  62.29
 -2  6 -3 2058.09  62.59
 -2  6 -3 1956.60  64.89
  2 -6  3 2008.90  65.39
  2 -6  3 1964.40  62.89
  2 -6  3 1851.41  65.89
  2 -6  3 1962.70  63.99
  2 -6  3 2106.29  64.29
  2 -6  3 1881.31  72.29
 -3  6 -3 1745.93  55.39
 -3  6 -3 1827.62  54.99
 -3  6 -3 1831.22  56.39
 -3  6 -3 1868.11  54.89
 -3  6 -3 1779.92  54.79
  3 -6  3 1581.94  60.69
  3 -6  3 1798.92  55.89
  3 -6  3 1636.94  57.49
  3 -6  3 1698.53  59.39
  3 -6  3 1650.53  62.39
  3 -6  3 1705.13  65.29
  3 -6  3 1764.32  55.19
  3 -6  3 1949.80  65.79
  3 -6  3 1609.24  56.19
  3 -6  3 1526.65  63.39
 -4  6 -3  6.60  1.90
 -4  6 -3  2.20  1.50
 -4  6 -3  4.10  1.90
  4 -6  3  2.60  3.10
  4 -6  3  1.50  3.90
  4 -6  3  4.90  1.30
  4 -6  3  6.00  3.90
  4 -6  3  4.80  2.10
  4  5 -3 472.85  15.60
  4  5 -3 481.25  15.80
  4  5 -3 521.25  22.30
  4  5 -3 494.95  17.50
  4  5 -3 464.45  25.60
  4  5 -3 449.36  19.50
  3  5 -3 2891.81  95.69
  3  5 -3 2738.33  84.59
  3  5 -3 2622.04  84.79
  3  5 -3 2683.13  91.69
  3  5 -3 2629.54  89.69
  3  5 -3 2778.02  96.29
  3  5 -3 2674.33  97.59
  3  5 -3 2648.94  86.89
  3  5 -3 2695.13 103.09
  3  5 -3 2614.74  89.39
  3  5 -3 2609.04  88.89
  3  5 -3 2684.53  84.39
  3  5 -3 2637.84  86.99
 -3 -5  3 2712.23  85.19
  2  5 -3 848.72  30.50
  2  5 -3 805.32  32.50
  2  5 -3 840.42  26.60
  2  5 -3 833.02  34.10
  2  5 -3 801.42  40.80
  2  5 -3 778.72  37.30
  2  5 -3 825.42  31.00
  2  5 -3 822.82  29.00
  2  5 -3 771.02  28.50
  2  5 -3 818.52  27.90
  2  5 -3 803.42  26.60
 -2 -5  3 826.92  27.10
 -2 -5  3 868.71  26.80
 -2 -5  3 781.42  26.20
  0  5 -3 1200.48  37.80
  0  5 -3 1200.18  38.50
  0  5 -3 1231.38  38.50
  0  5 -3 1224.68  38.80
  0  5 -3 1249.38  39.10
  0 -5  3 1253.07  39.50
  0 -5  3 1207.28  38.80
  0 -5  3 1242.98  40.20
  0 -5  3 1172.68  38.50
  0 -5  3 1176.48  38.50
 -1  5 -3 3275.67  96.29
 -1  5 -3 3070.49  96.79
 -1  5 -3 3191.68  96.09
  1 -5  3 3009.00  97.79
  1 -5  3 2950.80  97.89
  1 -5  3 3044.30  96.69
 -2  5 -3 1053.99  33.70
 -2  5 -3 1082.99  33.60
 -2  5 -3 1040.00  33.30
 -2  5 -3 1029.50  33.40
 -2  5 -3 1046.50  34.30
  2 -5  3 1033.10  34.80
  2 -5  3 1002.80  36.40
  2 -5  3 1106.79  36.10
 -3  5 -3  8.20  1.80
 -3  5 -3  9.00  2.10
 -3  5 -3  6.90  2.10
 -3  5 -3  7.30  2.20
  3 -5  3  10.10  6.10
  3 -5  3  11.00  5.60
  3 -5  3  9.80  2.60
  3 -5  3  7.90  5.90
  3 -5  3  11.30  2.10
  3 -5  3  7.00  4.00
  3 -5  3  14.30  4.00
  3 -5  3  10.10  2.80
  3 -5  3  15.40  7.30
 -4  5 -3 417.76  14.40
 -4  5 -3 407.06  14.40
  4 -5  3 422.36  19.70
  4 -5  3 437.36  19.30
  4 -5  3 426.06  15.10
  4 -5  3 486.85  20.20
  4 -5  3 389.86  19.50
  4 -5  3 427.76  14.50
  4  4 -3 369.76  18.50
  4  4 -3 333.07  15.40
  4  4 -3 330.97  11.40
  4  4 -3 325.47  11.50
  4  4 -3 333.07  13.30
  4  4 -3 321.77  21.10
  4  4 -3 357.06  18.00
  4  4 -3 338.97  16.00
  3  4 -3 3928.61 129.79
  3  4 -3 4045.10 134.29
  3  4 -3 4106.59 123.19
  3  4 -3 3874.51 122.29
  3  4 -3 3938.01 126.79
  3  4 -3 3811.92 130.49
  3  4 -3 3826.52 122.19
  3  4 -3 3943.31 124.89
  3  4 -3 3924.51 131.09
  3  4 -3 4019.40 135.09
  3  4 -3 3874.61 122.79
  3  4 -3 3897.21 127.39
  3  4 -3 3944.31 124.59
  3  4 -3 3939.31 141.39
  3  4 -3 3646.04 126.49
  3  4 -3 3884.71 134.59
  2  4 -3 240.48  11.60
  2  4 -3 247.88  10.60
  2  4 -3 242.88  9.80
 -2 -4  3 247.68  8.90
 -2 -4  3 237.58  8.80
 -2 -4  3 240.08  12.80
  1  4 -3 3731.13 119.99
 -1 -4  3 3696.73 117.09
 -1 -4  3 3879.81 117.79
  0  4 -3 1556.24  49.80
  0  4 -3 1624.74  50.09
  0  4 -3 1544.75  49.10
  0  4 -3 1537.55  49.60
  0  4 -3 1547.05  49.60
  0 -4  3 1595.74  49.70
  0 -4  3 1616.44  49.90
  0 -4  3 1594.34  51.09
  0 -4  3 1638.64  50.39
  0 -4  3 1564.54  49.60
 -1  4 -3 2304.87  71.99
 -1  4 -3 2297.97  71.69
 -1  4 -3 2254.97  72.29
  1 -4  3 2421.26  72.39
  1 -4  3 2511.95  73.29
  1 -4  3 2303.87  72.29
  1 -4  3 2276.97  72.19
  1 -4  3 2163.58  73.19
  1 -4  3 2206.68  73.19
 -2  4 -3 8561.14 265.17
 -3  4 -3  66.19  3.90
 -3  4 -3  67.09  4.30
 -3  4 -3  66.39  4.00
  3 -4  3  59.09  9.80
  3 -4  3  73.59  10.60
  3 -4  3  59.89  6.70
  3 -4  3  61.49  4.50
  3 -4  3  67.49  5.40
  3 -4  3  63.69  8.30
  3 -4  3  61.79  8.80
  3 -4  3  56.09  6.10
  3 -4  3  61.39  3.90
  3 -4  3  60.99  12.20
 -4  4 -3 393.76  13.60
 -4  4 -3 383.76  13.60
  4 -4  3 393.36  14.20
  4 -4  3 365.36  18.40
  4 -4  3 395.26  18.30
  4 -4  3 388.66  18.80
  4 -4  3 453.45  20.40
  4 -4  3 402.06  13.60
  4  3 -3 571.14  23.00
  4  3 -3 568.64  18.90
  4  3 -3 546.05  18.80
  4  3 -3 571.34  30.60
  4  3 -3 570.44  22.40
  4  3 -3 576.54  20.90
  4  3 -3 572.54  24.10
  4  3 -3 609.54  27.10
  4  3 -3 576.04  26.40
  4  3 -3 598.84  26.60
  3  3 -3 742.63  35.00
  3  3 -3 777.52  26.70
  3  3 -3 737.63  25.70
  3  3 -3 776.22  25.10
  3  3 -3 722.53  28.90
  3  3 -3 732.33  32.60
  3  3 -3 767.52  36.00
  3  3 -3 718.73  28.00
  3  3 -3 733.93  28.90
  3  3 -3 745.03  31.40
  3  3 -3 730.33  26.80
  3  3 -3 719.33  26.30
  3  3 -3 732.43  36.40
  3  3 -3 749.82  32.50
  2  3 -3 2568.04  83.89
  2  3 -3 2603.44  84.29
  2  3 -3 2699.73  85.39
  2  3 -3 2811.32  87.39
 -2 -3  3 2613.74  83.89
 -2 -3  3 2671.43  83.19
 -2 -3  3 2651.63  86.89
  1  3 -3 4237.78 134.29
 -1  3 -3 1008.80  32.20
 -1  3 -3 1008.80  31.70
 -1  3 -3 1003.20  31.80
 -1  3 -3 1045.10  31.70
 -1  3 -3 985.80  33.00
  1 -3  3 996.10  33.00
  1 -3  3 1003.90  31.60
  1 -3  3 1024.90  32.00
  1 -3  3 957.10  33.10
  1 -3  3 1053.99  32.90
  1 -3  3 1038.60  32.20
  1 -3  3 984.40  32.10
 -2  3 -3 808.02  27.80
 -2  3 -3 891.61  27.90
 -2  3 -3 868.41  28.30
 -2  3 -3 870.51  27.80
 -2  3 -3 867.01  27.60
  2 -3  3 893.81  28.90
  2 -3  3 913.81  30.00
  2 -3  3 843.32  30.00
 -3  3 -3 252.97  9.50
 -3  3 -3 253.47  9.10
 -3  3 -3 261.77  10.00
 -3  3 -3 264.37  9.80
  3 -3  3 254.77  9.70
  3 -3  3 254.37  12.40
  3 -3  3 247.78  13.10
  3 -3  3 252.37  11.60
  3 -3  3 249.78  10.60
  3 -3  3 249.28  12.90
  3 -3  3 258.87  19.50
  3 -3  3 270.77  19.50
 -4  3 -3 229.78  9.00
 -4  3 -3 227.78  8.80
  4 -3  3 235.88  9.40
  4 -3  3 234.28  13.70
  4 -3  3 247.68  8.80
  4 -3  3 254.07  15.40
  4 -3  3 239.18  13.30
  4 -3  3 240.88  13.50
  4  2 -3  22.10  6.10
  4  2 -3  30.40  5.30
  4  2 -3  28.30  4.10
  4  2 -3  29.40  4.80
  4  2 -3  31.80  2.70
  4  2 -3  28.80  6.60
  4  2 -3  23.50  6.90
  4  2 -3  27.60  5.40
  4  2 -3  30.20  7.60
  4  2 -3  33.00  6.60
  4  2 -3  29.30  8.60
  3  2 -3  75.39  9.20
  3  2 -3  75.59  4.90
  3  2 -3  80.79  9.50
  3  2 -3  79.79  10.30
  3  2 -3  84.59  10.40
  3  2 -3  78.49  4.60
  3  2 -3  85.29  5.90
  3  2 -3  84.19  14.90
  3  2 -3  82.49  11.70
  3  2 -3  81.39  13.20
  3  2 -3  83.29  8.00
  3  2 -3  89.09  5.40
  3  2 -3  80.79  4.60
  3  2 -3  66.49  6.70
  3  2 -3  82.49  8.50
  3  2 -3  90.99  6.10
  3  2 -3  88.39  6.40
  3  2 -3  83.89  12.30
  2  2 -3 4623.34 143.09
  2  2 -3 4730.53 143.19
  2  2 -3 4507.05 142.79
  2  2 -3 4556.54 143.99
  2  2 -3 4396.26 142.79
  2  2 -3 4788.72 146.49
 -2 -2  3 4572.84 141.89
 -2 -2  3 4407.26 142.59
 -2 -2  3 4582.54 141.39
 -2 -2  3 4499.45 144.99
  1  2 -3 1788.82  56.09
  1  2 -3 1810.22  58.09
  1  2 -3 1722.63  55.79
  1  2 -3 1794.52  56.69
 -1 -2  3 1788.22  55.59
 -1 -2  3 1768.92  57.19
 -1 -2  3 1798.62  55.49
  0  2 -3 573.64  18.70
  0  2 -3 545.25  17.20
  0  2 -3 556.54  17.70
  0  2 -3 543.35  17.60
  0 -2  3 541.85  18.60
  0 -2  3 533.15  17.50
  0 -2  3 557.04  18.10
 -1  2 -3 554.84  19.40
 -1  2 -3 582.44  18.70
 -1  2 -3 588.34  18.80
 -1  2 -3 606.74  18.80
 -1  2 -3 586.44  20.10
  1 -2  3 596.14  19.10
  1 -2  3 612.44  19.80
  1 -2  3 589.44  18.80
  1 -2  3 603.74  20.30
  1 -2  3 584.54  19.10
  1 -2  3 591.54  18.90
  1 -2  3 602.94  19.90
 -2  2 -3 622.74  20.40
 -2  2 -3 647.64  20.50
 -2  2 -3 570.94  21.00
 -2  2 -3 644.74  20.90
  2 -2  3 649.24  22.70
  2 -2  3 657.53  22.50
  2 -2  3 644.24  21.40
 -3  2 -3 2529.75  78.89
 -3  2 -3 2539.35  78.69
 -3  2 -3 2598.74  79.29
 -3  2 -3 2653.23  79.89
  3 -2  3 2301.37 100.49
  3 -2  3 2404.56  90.29
  3 -2  3 2695.43  82.89
  3 -2  3 2471.15  81.49
  3 -2  3 2535.95  80.79
  3 -2  3 2309.87  90.49
  3 -2  3 2500.65  82.79
  3 -2  3 2589.84  82.79
  3 -2  3 2569.34  79.49
 -4  2 -3 458.85  16.60
  4 -2  3 540.75  18.90
  4 -2  3 487.15  22.20
  4 -2  3 508.85  16.70
  4 -2  3 488.35  24.10
  4 -2  3 487.55  17.10
  4 -2  3 493.85  21.20
  4  1 -3 894.01  40.00
  4  1 -3 845.92  28.10
  4  1 -3 858.71  27.40
  4  1 -3 894.81  38.40
  4  1 -3 816.62  33.20
  4  1 -3 854.11  35.90
  4  1 -3 772.82  49.90
  4  1 -3 853.91  35.00
  4  1 -3 852.31  37.40
  4  1 -3 832.92  36.60
  4  1 -3 823.92  34.70
  3  1 -3 1814.52  62.79
  3  1 -3 1766.72  68.29
  3  1 -3 1785.72  58.49
  3  1 -3 1792.52  56.99
  3  1 -3 1647.94  55.89
  3  1 -3 1730.13  60.59
  3  1 -3 1851.81  73.49
  3  1 -3 1770.32  63.19
  3  1 -3 1704.83  64.69
  3  1 -3 1762.72  56.69
  3  1 -3 1815.82  56.39
  3  1 -3 1761.72  65.79
  3  1 -3 1685.13  60.49
  3  1 -3 1771.62  68.79
  3  1 -3 1837.62  57.79
  3  1 -3 1793.62  60.49
  3  1 -3 1750.42  64.69
  3  1 -3 1772.62  55.89
  2  1 -3 208.48  7.90
  2  1 -3 207.18  10.50
  2  1 -3 211.08  8.10
  2  1 -3 206.18  8.70
  2  1 -3 210.18  8.00
 -2 -1  3 202.98  9.50
 -2 -1  3 200.48  7.10
 -2 -1  3 198.28  8.30
  1  1 -3 2491.05  80.09
  1  1 -3 2587.74  79.39
  1  1 -3 2661.83  81.69
  1  1 -3 2529.65  80.69
 -1 -1  3 2574.04  79.19
 -1 -1  3 2504.15  79.09
 -1 -1  3 2489.55  80.69
  0 -1  3  1.40  0.70
  0 -1  3  1.40  0.80
  0 -1  3  1.70  0.50
  0 -1  3  1.80  0.40
 -2  1 -3 2266.87  72.49
 -2  1 -3 2335.67  72.79
 -2  1 -3 2299.37  73.19
  2 -1  3 2302.47  73.49
  2 -1  3 2337.07  73.69
  2 -1  3 2322.27  74.99
  2 -1  3 2445.66  74.99
 -3  1 -3 549.05  18.10
 -3  1 -3 553.04  17.90
 -3  1 -3 567.74  18.80
 -3  1 -3 552.64  18.50
  3 -1  3 558.24  18.70
  3 -1  3 522.25  21.40
  3 -1  3 552.74  21.40
  3 -1  3 558.54  31.30
  3 -1  3 544.75  19.90
  3 -1  3 514.45  34.00
  3 -1  3 533.45  32.40
  3 -1  3 553.04  19.90
  3 -1  3 487.05  26.00
 -4  1 -3 132.29  6.40
  4 -1  3 131.89  11.40
  4 -1  3 138.09  9.30
  4 -1  3 136.39  9.90
  4 -1  3 158.18  8.20
  4 -1  3 144.49  6.40
  4 -1  3 157.18  5.90
  4  0 -3 506.95  24.20
  4  0 -3 510.65  17.80
  4  0 -3 491.95  25.80
  4  0 -3 508.95  26.40
  4  0 -3 507.15  20.70
  4  0 -3 503.25  20.70
  4  0 -3 510.15  25.10
  4  0 -3 511.75  24.50
  4  0 -3 487.55  29.90
  4  0 -3 524.75  24.70
  4  0 -3 532.85  17.30
  3  0 -3 2865.21 103.09
  3  0 -3 2808.12  98.89
  3  0 -3 3001.80  97.69
  3  0 -3 2942.41 106.89
  3  0 -3 2902.41  92.49
  3  0 -3 2932.91  90.79
  3  0 -3 2904.71  90.59
  3  0 -3 2975.30  92.79
  3  0 -3 2896.91  99.59
  3  0 -3 2742.93 102.39
  3  0 -3 2795.72  91.79
  3  0 -3 2725.83  94.59
  3  0 -3 2932.21  97.39
  3  0 -3 2874.31  94.49
  3  0 -3 2794.32  91.09
  2  0 -3 943.61  32.90
  2  0 -3 862.81  29.30
  2  0 -3 938.21  30.50
  2  0 -3 902.41  29.40
  2  0 -3 904.21  29.70
 -2  0  3 896.01  28.40
 -2  0  3 894.91  29.30
 -2  0  3 882.21  30.60
  1  0 -3 1934.51  58.49
  1  0 -3 1766.52  58.09
  1  0 -3 1859.31  59.39
  1  0 -3 1871.31  58.49
  1  0 -3 1875.31  59.09
  1  0 -3 1958.00  60.59
 -1  0  3 1812.12  59.39
 -1  0  3 1868.31  57.89
 -1  0  3 1827.62  58.39
 -1  0  3 1892.31  58.19
 -1  0 -3 1185.78  38.00
 -1  0 -3 1146.99  36.20
 -1  0 -3 1160.58  35.70
 -1  0 -3 1143.99  35.80
  1  0  3 1127.69  36.40
  1  0  3 1216.18  36.00
  1  0  3 1101.29  36.10
  1  0  3 1114.89  36.70
  1  0  3 1109.59  36.80
 -2  0 -3 4027.80 124.09
 -2  0 -3 3971.60 124.29
 -2  0 -3 3832.72 123.99
  2  0  3 4052.99 125.39
  2  0  3 4068.19 126.49
  2  0  3 3910.11 125.09
  2  0  3 4118.49 126.49
 -3  0 -3  36.10  4.20
 -3  0 -3  31.40  2.60
 -3  0 -3  36.70  3.30
 -3  0 -3  35.30  3.00
  3  0  3  36.40  7.10
  3  0  3  32.10  6.90
  3  0  3  33.40  4.80
  3  0  3  36.10  5.70
  3  0  3  36.60  5.00
  3  0  3  30.90  9.20
  3  0  3  34.40  4.70
  3  0  3  39.30  3.10
  3  0  3  30.00  8.40
  3  0  3  31.80  3.60
  3  0  3  40.80  16.90
 -4  0 -3 530.25  19.30
  4  0  3 585.14  22.90
  4  0  3 550.24  26.00
  4  0  3 609.44  22.00
  4  0  3 584.34  19.00
  4  0  3 584.04  19.40
  4  0  3 579.14  24.40
  4 -1 -3 843.52  38.40
  4 -1 -3 891.71  39.00
  4 -1 -3 963.20  32.80
  4 -1 -3 881.31  36.60
  4 -1 -3 868.21  32.80
  4 -1 -3 861.71  36.90
  4 -1 -3 881.91  29.50
  4 -1 -3 872.21  29.30
  4 -1 -3 914.51  29.00
  3 -1 -3  67.29  9.50
  3 -1 -3  68.99  6.10
  3 -1 -3  67.29  10.80
  3 -1 -3  75.69  5.90
  3 -1 -3  72.09  11.50
  3 -1 -3  78.29  11.30
  3 -1 -3  84.99  7.80
  3 -1 -3  68.69  8.10
  3 -1 -3  66.19  5.90
  3 -1 -3  74.09  12.30
  3 -1 -3  75.19  5.50
  3 -1 -3  69.19  4.80
  3 -1 -3  68.69  13.10
  3 -1 -3  62.39  7.60
  3 -1 -3  87.39  10.90
  3 -1 -3  74.29  4.90
 -3  1  3  73.59  5.00
  2 -1 -3 327.17  12.20
  2 -1 -3 309.77  11.30
  2 -1 -3 330.77  14.60
  2 -1 -3 324.87  11.90
 -2  1  3 316.87  12.30
 -2  1  3 322.47  11.40
  1 -1 -3 318.07  10.70
  1 -1 -3 313.07  12.40
  1 -1 -3 308.97  10.70
  1 -1 -3 321.67  10.50
  1 -1 -3 315.57  12.20
 -1  1  3 311.17  11.40
 -1  1  3 326.17  10.60
 -1  1  3 309.77  10.60
 -1 -1 -3 445.86  14.20
 -1 -1 -3 445.86  16.50
 -1 -1 -3 428.76  14.30
 -1 -1 -3 449.16  14.30
  1  1  3 442.56  15.30
  1  1  3 438.56  14.50
  1  1  3 475.15  14.90
  1  1  3 464.95  15.30
  1  1  3 426.56  15.00
 -2 -1 -3 670.93  22.30
 -2 -1 -3 676.93  21.70
 -2 -1 -3 666.53  21.90
  2  1  3 659.23  23.10
  2  1  3 695.73  22.70
  2  1  3 688.03  23.80
  2  1  3 690.73  23.70
 -3 -1 -3  25.30  2.80
 -3 -1 -3  26.20  3.50
 -3 -1 -3  19.70  2.50
 -3 -1 -3  24.80  5.20
  3  1  3  29.00  4.00
  3  1  3  25.20  6.70
  3  1  3  32.40  3.40
  3  1  3  25.50  2.70
  3  1  3  27.00  8.50
  3  1  3  25.40  7.60
  3  1  3  28.00  5.90
  3  1  3  27.70  14.70
  3  1  3  33.50  5.40
  3  1  3  22.80  6.00
 -4 -1 -3 262.87  11.00
  4  1  3 297.07  10.50
  4  1  3 291.47  13.00
  4  1  3 298.07  13.50
  4  1  3 276.57  15.80
  4  1  3 311.87  15.10
  4 -2 -3  24.00  6.80
  4 -2 -3  23.20  3.00
  4 -2 -3  24.20  6.70
  4 -2 -3  19.90  5.30
  4 -2 -3  20.80  2.60
  4 -2 -3  20.20  6.30
  3 -2 -3  1.80  2.20
  3 -2 -3  0.50  4.20
  3 -2 -3  3.90  5.80
  3 -2 -3  5.00  2.50
  3 -2 -3  7.10  6.10
  3 -2 -3  0.20  2.30
  3 -2 -3  1.70  6.30
  3 -2 -3  2.90  2.20
  3 -2 -3  2.50  5.30
  3 -2 -3  4.20  4.30
  3 -2 -3  1.60  5.80
  3 -2 -3  1.90  3.80
  3 -2 -3  6.60  3.40
 -3  2  3  2.60  1.40
 -3  2  3  1.10  2.60
  2 -2 -3 2856.71  86.49
  2 -2 -3 2600.14  85.79
  2 -2 -3 2695.03  85.09
  2 -2 -3 2811.72  89.49
 -2  2  3 2712.73  84.89
 -2  2  3 2650.23  85.29
 -2  2  3 2718.63  84.99
 -2  2  3 2647.34  84.29
  1 -2 -3 108.19  5.80
  1 -2 -3 106.29  4.00
  1 -2 -3 104.89  4.60
  1 -2 -3 103.19  4.30
 -1  2  3 106.89  4.90
 -1  2  3 115.49  4.30
 -1  2  3 105.49  4.20
  0 -2 -3 2012.10  61.99
  0 -2 -3 1858.01  59.99
  0 -2 -3 1971.90  60.79
  0 -2 -3 1892.81  60.29
  0 -2 -3 1936.91  60.69
  0  2  3 1904.11  60.49
 -1 -2 -3  79.49  3.30
 -1 -2 -3  82.19  3.20
 -1 -2 -3  80.09  3.00
 -1 -2 -3  88.99  3.70
 -1 -2 -3  76.49  5.50
  1  2  3  79.09  4.00
  1  2  3  79.29  3.80
  1  2  3  81.09  3.90
 -2 -2 -3 1846.42  57.89
 -2 -2 -3 1838.82  57.09
 -2 -2 -3 1818.62  57.29
 -2 -2 -3 1773.82  57.09
  2  2  3 1892.51  59.29
  2  2  3 1782.62  58.79
  2  2  3 1802.42  59.19
 -3 -2 -3 2445.56  76.29
 -3 -2 -3 2434.56  75.29
 -3 -2 -3 2355.06  75.39
  3  2  3 2396.66  78.49
  3  2  3 2292.87  80.09
  3  2  3 2270.67  78.49
  3  2  3 2337.07  85.19
  3  2  3 2437.96  75.49
  3  2  3 2473.75  83.59
  3  2  3 2406.96  79.69
  3  2  3 2596.94  99.69
  3  2  3 2404.66  75.99
  3  2  3 2293.57  75.79
  4  2  3 331.17  14.80
  4  2  3 353.26  17.50
  4  2  3 358.06  12.90
  4  2  3 358.26  15.10
  4  2  3 365.66  12.50
  4  2  3 402.86  23.60
  4 -3 -3 494.65  30.70
  4 -3 -3 523.55  20.30
  4 -3 -3 491.15  25.20
  4 -3 -3 501.75  18.90
  4 -3 -3 486.75  19.10
  3 -3 -3 2390.06  75.79
  3 -3 -3 2342.67  77.39
  3 -3 -3 2229.78  83.89
  3 -3 -3 2414.16  87.49
  3 -3 -3 2454.15  78.49
  3 -3 -3 2680.23  94.09
  3 -3 -3 2334.97  87.79
  3 -3 -3 2349.86  79.89
  3 -3 -3 2423.16  75.39
  3 -3 -3 2428.76  85.99
  3 -3 -3 2370.26  76.49
 -3  3  3 2237.48  74.39
 -3  3  3 2330.07  75.59
 -3  3  3 2356.46  75.29
  2 -3 -3 2462.45  78.39
  2 -3 -3 2262.67  74.79
  2 -3 -3 2364.36  75.49
 -2  3  3 2248.48  73.19
 -2  3  3 2371.16  73.89
 -2  3  3 2330.57  74.19
 -2  3  3 2399.66  73.89
  1 -3 -3 1099.29  37.20
  1 -3 -3 1138.39  36.30
  1 -3 -3 1166.48  36.80
  1 -3 -3 1218.38  38.80
  1 -3 -3 1136.69  37.80
 -1  3  3 1140.29  36.10
 -1  3  3 1179.78  36.70
 -1  3  3 1118.89  36.50
  0 -3 -3 1012.40  33.80
  0 -3 -3 1038.00  33.50
  0 -3 -3 1098.99  34.30
  0 -3 -3 1113.79  35.60
  0 -3 -3 1083.89  33.60
  0 -3 -3 1077.79  34.10
  0  3  3 1021.70  33.90
  0  3  3 1068.89  33.50
  0  3  3 1066.79  33.40
 -2 -3 -3 2105.49  67.19
 -2 -3 -3 2182.18  67.09
 -2 -3 -3 2146.09  66.79
 -2 -3 -3 2186.48  67.79
 -2 -3 -3 2138.69  66.79
  2  3  3 2153.28  70.59
  2  3  3 2129.99  68.79
  2  3  3 2094.89  67.39
  2  3  3 2034.30  92.09
  2  3  3 2144.99  68.89
 -3 -3 -3 692.93  25.70
 -3 -3 -3 745.63  23.70
 -3 -3 -3 668.53  24.10
 -3 -3 -3 718.83  24.60
  3  3  3 727.93  27.80
  3  3  3 691.13  26.60
  3  3  3 746.93  31.30
  3  3  3 713.13  24.00
  3  3  3 710.63  27.90
  3  3  3 720.13  32.20
  3  3  3 728.43  24.30
  3  3  3 675.13  27.80
  3  3  3 747.73  44.30
  3  3  3 746.83  23.70
  4  3  3 383.76  14.10
  4  3  3 452.75  25.50
  4  3  3 369.96  16.00
  4  3  3 407.56  18.40
  4  3  3 424.26  13.90
  4  3  3 428.86  16.30
  4 -4 -3 197.98  14.80
  4 -4 -3 191.98  8.00
  4 -4 -3 200.08  10.40
  4 -4 -3 195.68  13.70
  4 -4 -3 196.88  15.00
  4 -4 -3 200.48  8.30
  3 -4 -3 788.92  34.00
  3 -4 -3 828.02  28.00
  3 -4 -3 835.62  30.10
  3 -4 -3 836.02  40.40
  3 -4 -3 797.22  38.60
  3 -4 -3 871.21  27.60
  3 -4 -3 856.11  31.00
  3 -4 -3 780.52  28.10
  3 -4 -3 865.01  37.90
 -3  4  3 793.82  27.80
 -3  4  3 850.71  26.60
 -3  4  3 822.72  27.60
 -2  4  3 9828.22 306.97
 -2  4  3 9993.50 308.07
  1 -4 -3 2129.19  65.99
  1 -4 -3 2086.99  63.09
  1 -4 -3 2111.89  65.39
  1 -4 -3 1790.12  64.49
  1 -4 -3 1961.90  63.39
 -1  4  3 1986.20  62.99
 -1  4  3 2037.30  63.59
 -1  4  3 2061.19  63.79
  0 -4 -3 170.38  8.20
  0 -4 -3 154.58  6.00
  0 -4 -3 164.08  5.90
  0 -4 -3 152.58  6.20
  0 -4 -3 154.18  5.80
  0 -4 -3 160.28  6.80
  0  4  3 163.08  5.80
  0  4  3 164.28  6.20
  0  4  3 166.68  6.30
  0  4  3 158.28  5.50
  0  4  3 151.28  5.70
 -1 -4 -3 783.92  25.40
 -1 -4 -3 803.02  26.10
 -1 -4 -3 782.72  25.30
 -1 -4 -3 785.42  25.10
  1  4  3 790.42  26.30
  1  4  3 774.42  26.90
  1  4  3 797.12  26.10
 -2 -4 -3 1497.75  47.50
 -2 -4 -3 1450.95  47.80
 -2 -4 -3 1494.15  47.40
 -2 -4 -3 1539.75  47.80
  2  4  3 1522.95  49.70
  2  4  3 1462.55  47.80
  2  4  3 1504.75  54.29
  2  4  3 1534.75  49.30
  2  4  3 1521.95  51.19
  2  4  3 1497.35  54.79
  2  4  3 1403.36  47.80
  2  4  3 1450.25  55.89
  2  4  3 1439.26  67.99
  2  4  3 1493.05  48.00
  2  4  3 1647.94  51.09
 -3 -4 -3 361.36  13.50
 -3 -4 -3 374.56  13.00
 -3 -4 -3 354.66  13.90
  3  4  3 363.56  31.10
  3  4  3 364.36  13.30
  3  4  3 346.37  19.30
  3  4  3 362.86  16.50
  3  4  3 368.16  16.40
  3  4  3 367.46  13.00
  4  4  3 1411.46  46.70
  4  4  3 1339.07  48.30
  4  4  3 1514.25  46.50
  4  4  3 1507.25  50.79
  4  4  3 1609.44  60.39
  4 -5 -3 390.86  13.80
  4 -5 -3 382.66  21.50
  4 -5 -3 398.96  20.20
  4 -5 -3 402.76  16.10
  4 -5 -3 385.26  13.70
 -4  5  3 338.17  13.10
  3 -5 -3  11.00  2.20
  3 -5 -3  7.40  5.70
  3 -5 -3  4.40  5.00
  3 -5 -3  9.00  2.40
  3 -5 -3  8.90  6.00
  3 -5 -3  9.50  2.50
  3 -5 -3  9.10  4.50
  3 -5 -3  12.70  7.00
  3 -5 -3  9.60  4.50
 -3  5  3  9.30  3.20
 -3  5  3  10.10  2.30
 -3  5  3  7.80  1.90
 -3  5  3  10.10  1.80
  2 -5 -3 164.88  7.80
  2 -5 -3 155.38  16.90
  2 -5 -3 159.58  7.30
  2 -5 -3 196.98  9.20
  2 -5 -3 176.68  8.50
 -2  5  3 167.08  6.20
 -2  5  3 172.48  6.90
 -2  5  3 170.08  7.90
 -2  5  3 167.48  6.70
 -2  5  3 166.38  7.10
  1 -5 -3 246.58  10.90
  1 -5 -3 250.07  8.60
  1 -5 -3 215.98  10.20
  1 -5 -3 231.98  8.90
  1 -5 -3 252.87  11.20
 -1  5  3 239.28  8.60
 -1  5  3 242.88  8.30
 -1  5  3 269.77  8.70
 -1  5  3 247.28  9.00
 -1  5  3 246.28  9.10
  0 -5 -3 6398.66 198.08
  0 -5 -3 6305.17 198.08
  0 -5 -3 6421.56 198.18
 -1 -5 -3 1626.64  51.59
 -1 -5 -3 1648.94  52.69
 -1 -5 -3 1616.74  52.09
 -1 -5 -3 1693.73  51.89
 -1 -5 -3 1639.94  51.79
  1  5  3 1631.34  52.89
  1  5  3 1611.64  53.79
 -2 -5 -3  30.90  3.10
 -2 -5 -3  34.70  3.20
 -2 -5 -3  33.00  3.70
 -2 -5 -3  26.30  2.50
  2  5  3  32.60  3.10
  2  5  3  31.40  4.40
  2  5  3  23.10  13.70
  2  5  3  31.40  4.10
  2  5  3  37.80  4.00
  2  5  3  35.80  10.70
  2  5  3  28.70  3.60
  2  5  3  25.80  6.20
  2  5  3  38.10  9.80
  2  5  3  32.80  6.00
 -3 -5 -3 249.88  9.50
 -3 -5 -3 242.88  9.90
  3  5  3 241.88  12.10
  3  5  3 239.88  9.50
  3  5  3 236.08  14.70
  3  5  3 236.08  12.10
  3  5  3 241.88  9.10
  3  5  3 260.07  14.30
  3  5  3 210.98  23.90
  4  5  3  77.39  3.20
  4  5  3  74.69  4.60
  4  5  3  77.99  4.30
  4  5  3  72.59  6.10
  4 -6 -3 113.69  11.30
  4 -6 -3 116.29  5.40
  4 -6 -3 120.89  5.40
  4 -6 -3 129.29  10.30
 -4  6  3 105.59  5.30
 -4  6  3 107.99  5.40
  3 -6 -3  74.89  4.90
  3 -6 -3  67.39  9.80
  3 -6 -3  79.99  4.50
  3 -6 -3  67.59  11.40
  3 -6 -3  70.09  5.30
  3 -6 -3  74.59  10.40
  3 -6 -3  71.09  12.30
  3 -6 -3  84.59  12.00
 -3  6  3  85.89  4.00
 -3  6  3  68.79  4.20
 -3  6  3  71.69  4.60
 -3  6  3  87.59  6.30
  2 -6 -3 3811.52 123.39
  2 -6 -3 4049.49 123.89
  2 -6 -3 4075.59 134.79
  2 -6 -3 3910.81 122.39
  2 -6 -3 3864.51 138.09
  2 -6 -3 3796.72 124.79
  2 -6 -3 3931.81 123.09
  2 -6 -3 3905.61 126.29
 -2  6  3 3806.92 121.89
 -2  6  3 3890.11 122.49
 -2  6  3 3961.80 122.69
 -2  6  3 3953.20 123.29
  1 -6 -3 9250.07 299.67
  1 -6 -3 9891.21 297.17
  0 -6 -3  52.69  4.10
  0 -6 -3  51.09  3.40
  0 -6 -3  52.09  2.80
  0 -6 -3  53.79  4.00
  0 -6 -3  57.39  3.30
  0  6  3  51.69  3.10
  0  6  3  50.19  3.60
  0  6  3  51.59  2.50
  0  6  3  50.49  2.90
 -1 -6 -3 1347.37  43.90
 -1 -6 -3 1336.97  44.10
 -1 -6 -3 1401.06  44.20
 -1 -6 -3 1425.06  45.60
  1  6  3 1439.96  45.60
  1  6  3 1339.87  46.40
 -2 -6 -3  3.40  3.40
 -2 -6 -3  0.00  2.00
 -2 -6 -3  5.80  1.80
 -2 -6 -3  1.00  2.00
  2  6  3  1.50  1.50
  2  6  3  2.50  6.40
  2  6  3  0.80  3.60
  2  6  3  5.60  3.50
  2  6  3  3.30  2.00
  2  6  3  3.80  7.40
  2  6  3  2.10  8.00
 -3 -6 -3 2801.22  90.59
 -3 -6 -3 2832.12  89.09
 -3 -6 -3 2886.71  89.39
  3  6  3 2797.12  91.79
  3  6  3 2864.21  88.69
  3  6  3 2453.55 110.39
  3  6  3 2829.42  94.89
  3  6  3 2826.62  89.09
  3  6  3 3140.89  93.99
  4 -7 -3  34.80  3.00
  4 -7 -3  33.20  7.40
  4 -7 -3  35.50  5.80
  4 -7 -3  35.60  2.90
 -4  7  3  33.00  3.10
 -4  7  3  34.90  3.40
  3 -7 -3 3632.24 120.19
  3 -7 -3 3379.66 106.59
  3 -7 -3 3239.48 121.59
  3 -7 -3 3344.17 106.49
 -3  7  3 3372.06 106.89
 -3  7  3 3334.07 105.39
 -3  7  3 3361.76 105.49
 -3  7  3 3306.97 105.29
  2 -7 -3 227.38  11.50
  2 -7 -3 196.58  10.00
  2 -7 -3 218.08  10.90
  2 -7 -3 192.08  20.10
  2 -7 -3 196.58  11.90
  2 -7 -3 219.38  9.20
 -2  7  3 206.38  8.70
 -2  7  3 207.48  9.10
 -2  7  3 220.38  9.00
 -2  7  3 222.38  7.80
 -2  7  3 212.18  8.00
 -2  7  3 207.18  8.00
  1 -7 -3 547.85  19.50
  1 -7 -3 570.34  22.00
  1 -7 -3 539.65  21.00
 -1  7  3 587.94  18.80
 -1  7  3 565.84  19.70
 -1  7  3 552.74  19.10
 -1  7  3 575.54  18.60
 -1  7  3 616.14  19.10
 -1  7  3 556.74  19.80
  0 -7 -3 139.39  5.50
  0 -7 -3 128.69  5.70
  0 -7 -3 127.99  6.40
  0 -7 -3 138.59  7.30
  0 -7 -3 135.59  6.10
  0  7  3 129.49  5.20
  0  7  3 128.19  6.20
  0  7  3 138.39  6.20
  0  7  3 117.19  5.70
 -1 -7 -3 2002.00  62.49
 -1 -7 -3 1935.21  62.29
 -1 -7 -3 1885.61  62.19
 -1 -7 -3 1967.80  62.49
 -1 -7 -3 1996.80  62.19
 -1 -7 -3 1948.80  62.09
  1  7  3 2003.00  62.19
  1  7  3 1924.41  61.89
  1  7  3 1868.71  64.79
  1  7  3 2016.80  63.79
  1  7  3 2010.10  62.59
 -2 -7 -3 3817.62 118.79
 -2 -7 -3 3840.52 119.09
 -2 -7 -3 3889.61 118.69
 -2 -7 -3 3631.94 118.69
 -2 -7 -3 3952.80 120.79
 -2 -7 -3 3766.32 119.09
 -2 -7 -3 3851.01 118.89
  2  7  3 3849.11 118.49
  2  7  3 3717.63 143.49
  2  7  3 3779.82 121.39
  2  7  3 3627.34 121.09
  2  7  3 3524.05 123.99
  2  7  3 3815.22 118.69
  2  7  3 3696.63 118.19
  2  7  3 3988.30 126.09
 -3 -7 -3  15.60  3.10
 -3 -7 -3  15.90  3.10
 -3 -7 -3  10.40  3.20
  3  7  3  13.20  6.10
  3  7  3  8.90  7.70
  3  7  3  15.30  2.30
  3  7  3  16.60  5.50
  3  7  3  16.90  5.30
  4 -8 -3 188.58  12.50
  4 -8 -3 216.58  11.80
  4 -8 -3 184.58  7.20
 -4  8  3 193.48  7.00
 -4  8  3 182.48  7.10
  3 -8 -3 428.86  16.00
  3 -8 -3 410.76  27.20
  3 -8 -3 487.95  26.60
  3 -8 -3 423.16  16.10
 -3  8  3 428.06  15.50
 -3  8  3 458.65  16.80
 -3  8  3 458.45  15.20
 -3  8  3 444.66  15.10
 -3  8  3 459.45  15.30
  2 -8 -3 1760.72  57.09
  2 -8 -3 1612.24  58.59
  2 -8 -3 1423.76  58.99
  2 -8 -3 1739.73  53.89
  2 -8 -3 1501.65  77.89
 -2  8  3 1697.73  52.79
 -2  8  3 1686.63  53.49
 -2  8  3 1729.93  54.29
 -2  8  3 1670.63  52.59
 -2  8  3 1732.43  53.09
 -2  8  3 1714.73  52.69
  1 -8 -3 415.26  16.10
  1 -8 -3 414.26  16.90
  1 -8 -3 407.16  15.60
  1 -8 -3 458.55  18.20
  1 -8 -3 423.26  17.40
  1 -8 -3 411.06  15.60
 -1  8  3 420.86  15.00
 -1  8  3 422.16  14.40
 -1  8  3 424.06  15.80
 -1  8  3 431.86  14.50
 -1  8  3 487.75  14.80
 -1  8  3 434.66  14.60
 -1  8  3 430.36  14.90
  0 -8 -3 647.34  22.00
  0 -8 -3 627.04  22.90
  0 -8 -3 652.53  27.60
  0 -8 -3 636.24  21.80
  0 -8 -3 662.53  24.00
  0 -8 -3 658.33  21.90
  0 -8 -3 659.93  21.60
  0 -8 -3 653.53  21.90
  0  8  3 672.43  21.60
  0  8  3 672.83  22.60
  0  8  3 603.24  20.80
  0  8  3 657.63  23.50
  0  8  3 647.84  21.40
  0  8  3 584.74  22.50
  0  8  3 681.43  22.70
  0  8  3 626.34  22.10
 -1 -8 -3 291.17  10.80
 -1 -8 -3 278.97  10.90
 -1 -8 -3 292.67  12.30
 -1 -8 -3 272.17  10.70
 -1 -8 -3 275.47  11.00
 -1 -8 -3 275.97  10.70
 -1 -8 -3 289.27  10.80
  1  8  3 289.17  11.20
  1  8  3 249.08  15.90
  1  8  3 287.47  12.90
  1  8  3 266.77  10.20
  1  8  3 293.47  10.80
 -2 -8 -3 725.53  24.90
 -2 -8 -3 686.33  25.20
 -2 -8 -3 732.03  26.30
 -2 -8 -3 718.03  25.70
 -2 -8 -3 757.92  24.70
 -2 -8 -3 732.23  24.40
 -2 -8 -3 721.23  24.40
  2  8  3 760.02  30.70
  2  8  3 745.83  24.30
  2  8  3 745.63  24.10
  2  8  3 717.33  26.70
  2  8  3 660.43  27.30
  2  8  3 724.63  23.80
  2  8  3 716.23  43.00
 -3 -8 -3 587.34  19.70
 -3 -8 -3 574.74  19.90
 -3 -8 -3 560.44  19.90
  3  8  3 581.74  20.90
  3  8  3 530.55  32.40
  3  8  3 641.24  22.90
  3  8  3 611.24  19.10
  3  8  3 578.04  19.40
  3 -9 -3 197.58  17.60
  3 -9 -3 171.98  11.20
  3 -9 -3 224.98  17.00
  3 -9 -3 205.08  8.50
 -3  9  3 220.38  7.90
 -3  9  3 221.88  7.90
 -3  9  3 204.88  10.30
 -3  9  3 203.18  7.60
 -3  9  3 206.18  9.40
  2 -9 -3 106.59  10.70
  2 -9 -3  88.79  14.90
  2 -9 -3  95.79  10.90
  2 -9 -3 102.29  7.40
  2 -9 -3  95.79  5.90
 -2  9  3 102.99  5.80
 -2  9  3  80.89  7.60
 -2  9  3  94.79  5.10
 -2  9  3  95.79  6.30
 -2  9  3 102.69  4.60
 -2  9  3  94.09  4.50
 -2  9  3  97.79  4.40
  1 -9 -3  65.49  6.20
  1 -9 -3  81.79  6.80
  1 -9 -3  71.59  7.30
  1 -9 -3  68.29  5.60
  1 -9 -3  62.69  6.20
 -1  9  3  61.69  4.60
 -1  9  3  67.19  7.10
 -1  9  3  64.79  3.60
 -1  9  3  69.49  3.50
 -1  9  3  69.39  3.70
 -1  9  3  71.49  4.10
 -1  9  3  71.79  4.50
  0 -9 -3 1724.83  57.89
  0 -9 -3 1813.42  57.99
  0 -9 -3 1819.02  59.09
  0 -9 -3 1779.02  58.19
  0 -9 -3 1837.22  60.69
  0 -9 -3 1797.22  58.29
  0 -9 -3 1798.42  57.89
  0  9  3 1847.72  57.59
  0  9  3 1817.52  57.49
  0  9  3 1862.21  59.19
  0  9  3 1907.91  58.69
  0  9  3 1787.22  58.19
 -1 -9 -3 5490.45 170.88
 -1 -9 -3 5464.15 170.78
 -1 -9 -3 5407.86 171.08
 -1 -9 -3 5674.03 173.58
 -1 -9 -3 5638.44 171.28
 -1 -9 -3 5328.47 171.38
  1  9  3 5325.37 191.18
  1  9  3 5274.37 172.78
  1  9  3 5447.95 174.88
  1  9  3 5665.63 171.18
 -2 -9 -3  72.59  4.70
 -2 -9 -3  62.89  4.70
 -2 -9 -3  62.09  4.30
 -2 -9 -3  62.69  5.70
  2  9  3  67.09  13.90
  2  9  3  80.09  8.40
  2  9  3  73.29  8.20
  2  9  3  68.09  3.50
  2  9  3  66.09  4.20
  2  9  3  65.69  3.90
 -3 -9 -3  3.40  2.70
 -3 -9 -3  2.50  1.80
 -3 -9 -3  6.50  1.90
  3  9  3  6.50  3.80
  3  9  3  5.00  1.30
  3 -10 -3  41.30  9.40
  3 -10 -3  42.40  7.40
  3 -10 -3  31.70  4.60
  3 -10 -3  43.10  3.50
 -3 10  3  35.30  5.20
 -3 10  3  49.80  2.70
 -3 10  3  40.40  2.60
 -3 10  3  45.80  4.00
 -3 10  3  40.50  3.10
  2 -10 -3 406.66  26.90
  2 -10 -3 426.06  17.20
  2 -10 -3 415.96  15.40
  2 -10 -3 466.05  25.80
 -2 10  3 429.46  14.70
 -2 10  3 426.56  14.40
 -2 10  3 443.06  14.90
 -2 10  3 432.16  14.70
 -2 10  3 413.56  16.40
 -2 10  3 402.36  14.70
 -2 10  3 420.46  15.30
  1 -10 -3 3572.94 114.89
  1 -10 -3 3677.43 117.09
  1 -10 -3 3662.93 114.19
  1 -10 -3 3729.03 113.09
  1 -10 -3 3509.85 112.79
 -1 10  3 3553.84 115.29
 -1 10  3 3558.84 111.99
 -1 10  3 3535.95 111.89
 -1 10  3 3636.44 112.29
 -1 10  3 3518.95 111.59
 -1 10  3 3546.35 112.79
 -1 10  3 3408.86 112.69
 -1 10  3 3666.93 113.59
  0 -10 -3 410.06  14.70
  0 -10 -3 405.96  15.00
  0 -10 -3 386.26  14.50
  0 -10 -3 415.06  15.90
  0 -10 -3 410.16  15.70
  0 10  3 405.36  17.40
  0 10  3 400.26  15.10
  0 10  3 419.26  15.40
  0 10  3 412.36  14.30
 -1 -10 -3 276.27  12.90
 -1 -10 -3 304.07  11.60
 -1 -10 -3 287.67  11.10
 -1 -10 -3 306.87  11.20
 -1 -10 -3 286.87  13.40
 -1 -10 -3 297.67  13.10
  1 10  3 267.47  15.40
  1 10  3 289.27  10.80
  1 10  3 289.77  14.50
  1 10  3 302.87  11.40
  1 10  3 290.87  24.60
 -2 -10 -3 152.48  6.80
 -2 -10 -3 147.69  6.90
 -2 -10 -3 143.49  8.80
 -2 -10 -3 141.49  6.30
  2 10  3 128.39  6.70
  2 10  3 148.89  17.10
  2 10  3 147.89  9.90
  2 10  3 142.09  6.20
  3 -11 -3 846.62  28.00
  3 -11 -3 907.71  35.00
  3 -11 -3 812.92  35.30
 -3 11  3 870.81  28.30
 -3 11  3 901.01  27.90
 -3 11  3 866.41  28.10
 -3 11  3 865.31  27.60
 -3 11  3 876.21  27.90
  2 -11 -3  66.19  10.10
  2 -11 -3  58.89  4.40
  2 -11 -3  57.69  5.70
  2 -11 -3  53.29  10.60
 -2 11  3  58.39  6.20
 -2 11  3  66.79  3.40
 -2 11  3  61.59  4.10
 -2 11  3  58.09  3.70
 -2 11  3  59.09  3.00
 -2 11  3  62.99  3.80
  1 -11 -3 724.83  25.00
  1 -11 -3 740.83  26.00
  1 -11 -3 731.33  26.90
 -1 11  3 719.13  24.80
 -1 11  3 747.63  24.20
 -1 11  3 718.23  23.40
 -1 11  3 718.33  25.40
  0 -11 -3 109.89  9.20
  0 -11 -3  85.69  6.00
  0 -11 -3  90.79  8.70
  0 -11 -3 100.59  5.10
  0 -11 -3  87.39  6.10
  0 -11 -3  86.89  5.50
  0 11  3  82.09  9.00
  0 11  3  88.99  4.60
  0 11  3  88.29  5.50
  0 11  3  92.09  5.60
 -1 -11 -3 333.57  12.50
 -1 -11 -3 357.96  13.90
 -1 -11 -3 344.47  13.20
 -1 -11 -3 357.86  13.10
 -1 -11 -3 344.27  12.70
 -1 -11 -3 343.07  12.50
 -1 -11 -3 318.87  15.70
  1 11  3 355.36  12.90
  1 11  3 359.26  16.70
  1 11  3 340.47  25.50
 -2 -11 -3 1470.35  48.60
 -2 -11 -3 1521.65  48.20
 -2 -11 -3 1510.25  48.30
 -2 -11 -3 1527.95  48.00
 -2 -11 -3 1489.55  49.10
 -2 -11 -3 1500.45  48.50
  2 11  3 1484.35  47.70
  2 11  3 1589.14  51.89
  2 11  3 1486.35  47.50
  2 11  3 1538.45  62.29
  3 -12 -3 309.57  14.40
  3 -12 -3 271.77  16.50
 -3 12  3 301.87  10.20
 -3 12  3 311.87  10.80
 -3 12  3 316.97  10.00
 -3 12  3 305.27  10.20
  2 -12 -3 1242.48  43.90
  2 -12 -3 1278.87  51.29
  2 -12 -3 1340.67  50.09
 -2 12  3 1299.17  41.20
 -2 12  3 1234.68  41.20
 -2 12  3 1284.67  40.80
 -2 12  3 1316.17  40.60
 -2 12  3 1300.57  41.80
  1 -12 -3 675.83  24.00
  1 -12 -3 713.43  24.90
  1 -12 -3 676.63  25.70
 -1 12  3 689.03  22.40
 -1 12  3 687.13  23.10
 -1 12  3 673.93  24.30
 -1 12  3 793.52  24.10
  0 -12 -3 994.30  33.60
  0 -12 -3 989.20  35.10
  0 -12 -3 983.30  31.70
  0 -12 -3 979.80  32.40
  0 -12 -3 1017.40  32.80
  0 12  3 992.50  32.90
  0 12  3 966.50  31.70
  0 12  3 969.50  32.70
 -1 -12 -3 332.97  13.90
 -1 -12 -3 371.26  13.80
 -1 -12 -3 338.97  13.50
 -1 -12 -3 366.26  12.90
 -1 -12 -3 326.67  12.50
 -1 -12 -3 365.76  12.90
  1 12  3 334.77  23.10
  1 12  3 336.07  13.70
  1 12  3 381.96  20.20
 -2 -12 -3 1537.95  49.70
 -2 -12 -3 1550.14  49.20
 -2 -12 -3 1597.24  48.90
 -2 -12 -3 1526.15  49.00
 -2 -12 -3 1525.35  48.70
  2 12  3 1486.05  57.59
  2 12  3 1552.64  48.40
  2 12  3 1600.74  51.39
  2 -13 -3  3.90  1.80
  2 -13 -3  5.00  4.90
 -2 13  3  5.20  1.90
 -2 13  3  5.80  1.60
 -2 13  3  4.50  1.00
  1 -13 -3 651.83  22.80
  1 -13 -3 643.84  21.90
  1 -13 -3 637.14  23.70
 -1 13  3 670.13  22.20
 -1 13  3 670.83  21.40
 -1 13  3 644.54  22.30
  0 -13 -3 849.41  30.40
  0 -13 -3 860.21  29.50
  0 -13 -3 876.41  28.50
  0 -13 -3 884.01  28.80
  0 13  3 855.41  28.80
  0 13  3 886.31  29.00
 -1 -13 -3 1353.96  42.80
 -1 -13 -3 1323.87  43.40
 -1 -13 -3 1347.47  42.10
 -1 -13 -3 1313.17  42.30
 -1 -13 -3 1285.77  42.50
  1 13  3 1348.57  45.60
  1 13  3 1356.86  55.89
  1 13  3 1313.87  42.50
  1 -14 -3 961.80  37.40
  1 -14 -3 975.20  32.50
 -1 14  3 979.90  30.60
 -1 14  3 957.10  31.40
 -1 14  3 943.31  31.40
  0 -14 -3 278.07  9.90
  0 -14 -3 253.97  11.50
  0 -14 -3 280.17  10.70
  0 14  3 283.37  12.20
  0 14  3 266.87  9.90
  1 15 -4 1155.78  39.80
  1 15 -4 1272.77  39.90
  1 15 -4 1270.37  44.10
 -1 -15  4 1300.77  40.00
 -1 -15  4 1292.17  40.40
 -1 -15  4 1304.67  39.80
  0 15 -4 310.27  14.90
  0 15 -4 295.57  10.80
  0 -15  4 297.97  11.00
  0 -15  4 314.37  10.60
  0 -15  4 310.17  11.90
 -1 15 -4 101.59  4.40
 -1 15 -4  96.19  4.50
  1 -15  4  94.89  5.40
  1 14 -4 1459.45  49.30
  1 14 -4 1463.35  47.00
  1 14 -4 1487.35  47.10
  1 14 -4 1527.25  53.49
 -1 -14  4 1526.85  47.60
 -1 -14  4 1531.85  48.90
 -1 -14  4 1340.97  47.60
 -1 -14  4 1497.25  47.30
 -1 -14  4 1499.55  46.90
  0 14 -4 223.68  9.00
  0 -14  4 225.58  9.40
  0 -14  4 233.28  10.00
  0 -14  4 248.98  8.90
  0 -14  4 222.68  15.80
  0 -14  4 241.58  8.30
 -1 14 -4 1191.18  39.70
 -1 14 -4 1225.18  38.80
 -1 14 -4 1230.48  39.40
  1 -14  4 1230.88  41.00
  1 -14  4 1244.98  39.70
 -2 14 -4 509.55  16.80
 -2 14 -4 511.65  17.20
  2 -14  4 525.85  22.70
  2 -14  4 500.85  18.10
  2 -14  4 542.85  20.50
  2 13 -4 904.21  29.10
  2 13 -4 960.70  34.70
  2 13 -4 888.11  31.40
 -2 -13  4 874.11  29.70
 -2 -13  4 921.01  29.90
 -2 -13  4 933.21  29.20
 -2 -13  4 891.51  29.90
  1 13 -4 229.68  11.70
  1 13 -4 216.98  17.80
 -1 -13  4 220.18  8.40
 -1 -13  4 197.18  12.40
 -1 -13  4 218.78  9.80
 -1 -13  4 239.48  12.40
 -1 -13  4 231.38  9.00
  0 13 -4  5.30  2.50
  0 13 -4  5.20  1.80
  0 -13  4  9.30  2.40
  0 -13  4  3.70  4.80
  0 -13  4  2.90  2.50
 -1 13 -4 776.12  25.40
 -1 13 -4 803.62  26.70
 -1 13 -4 775.62  25.90
  1 -13  4 787.02  26.60
  1 -13  4 769.42  27.90
 -2 13 -4 813.12  25.60
 -2 13 -4 794.52  26.40
 -2 13 -4 803.62  26.00
  2 -13  4 828.02  31.30
  2 -13  4 806.82  34.00
  2 -13  4 792.42  27.70
  2 12 -4  59.19  5.90
  2 12 -4  52.59  4.50
  2 12 -4  48.90  7.00
  2 12 -4  50.79  3.20
 -2 -12  4  45.60  4.30
 -2 -12  4  54.39  3.50
 -2 -12  4  50.89  3.80
 -2 -12  4  52.09  4.30
  1 12 -4 597.74  20.00
  1 12 -4 553.64  23.00
  1 12 -4 583.94  28.10
 -1 -12  4 561.14  22.70
 -1 -12  4 567.84  19.70
 -1 -12  4 591.74  20.50
 -1 -12  4 599.54  20.40
 -1 -12  4 595.24  20.40
 -1 -12  4 586.24  20.90
  0 12 -4 1987.90  62.49
  0 12 -4 2010.90  62.19
  0 12 -4 1946.71  65.19
  0 -12  4 1961.50  64.79
  0 -12  4 2017.00  62.79
  0 -12  4 2015.60  61.69
  0 -12  4 1940.41  63.29
  0 -12  4 1664.43  62.29
  0 -12  4 1979.50  62.29
 -1 12 -4 2028.50  66.79
 -1 12 -4 2117.99  67.59
 -1 12 -4 2084.09  66.39
  1 -12  4 2188.98  66.99
  1 -12  4 2107.09  68.89
  1 -12  4 2121.29  69.19
  1 -12  4 2089.09  67.49
 -2 12 -4  68.69  3.30
 -2 12 -4  78.19  4.00
 -2 12 -4  72.59  3.80
 -2 12 -4  74.29  3.80
  2 -12  4  71.89  5.90
  2 -12  4  73.89  10.40
 -3 12 -4  76.89  3.40
 -3 12 -4  78.39  3.80
 -3 12 -4  88.19  3.90
 -3 12 -4  83.29  3.30
  3 -12  4  87.99  4.80
  3 -12  4  69.29  6.90
  3 -12  4  88.79  6.90
  3 -12  4  72.09  4.40
  3 11 -4 145.79  7.40
  3 11 -4 138.29  5.00
  3 11 -4 136.29  10.80
 -3 -11  4 132.69  5.70
 -3 -11  4 133.29  6.20
  2 11 -4 1273.77  45.60
  2 11 -4 1293.27  42.00
  2 11 -4 1325.97  52.49
  2 11 -4 1291.77  46.30
 -2 -11  4 1385.86  43.20
 -2 -11  4 1314.87  42.50
 -2 -11  4 1352.86  43.10
 -2 -11  4 1402.16  43.70
 -2 -11  4 1335.17  45.40
 -2 -11  4 1264.77  43.10
  1 11 -4 3936.51 131.19
  1 11 -4 3903.21 124.29
  1 11 -4 3907.21 120.29
  1 11 -4 3656.63 123.99
 -1 -11  4 3638.24 121.19
 -1 -11  4 3847.42 120.69
 -1 -11  4 3770.62 120.09
 -1 -11  4 3813.22 120.69
 -1 -11  4 3817.32 121.09
 -1 -11  4 3876.71 120.69
 -1 -11  4 3982.10 123.49
  0 11 -4 141.39  6.80
  0 11 -4 130.99  5.80
  0 11 -4 133.59  8.20
  0 11 -4 133.39  10.30
  0 11 -4 127.59  9.70
  0 11 -4 138.49  6.40
  0 -11  4 141.19  7.00
  0 -11  4 120.39  9.00
  0 -11  4 135.49  7.20
  0 -11  4 135.19  11.40
  0 -11  4 144.79  8.30
  0 -11  4 128.89  9.10
  0 -11  4 134.29  7.30
  0 -11  4 135.99  6.70
  0 -11  4 140.59  6.00
 -1 11 -4 715.23  23.80
 -1 11 -4 708.63  25.50
 -1 11 -4 729.53  25.10
 -1 11 -4 729.73  24.20
 -1 11 -4 737.53  23.40
  1 -11  4 757.62  24.60
  1 -11  4 762.12  29.30
  1 -11  4 729.93  26.60
  1 -11  4 757.82  26.80
  1 -11  4 676.83  25.40
  1 -11  4 699.83  25.00
  1 -11  4 673.83  27.80
 -2 11 -4  38.20  5.60
 -2 11 -4  45.70  2.60
 -2 11 -4  42.00  3.10
 -2 11 -4  42.30  3.60
 -2 11 -4  40.90  3.10
 -2 11 -4  42.00  3.10
  2 -11  4  48.10  5.30
  2 -11  4  44.40  9.60
 -3 11 -4 1444.56  45.60
 -3 11 -4 1375.16  45.80
 -3 11 -4 1419.46  45.80
 -3 11 -4 1450.55  45.80
 -3 11 -4 1432.66  45.50
  3 -11  4 1513.35  51.79
  3 -11  4 1363.86  52.39
  3 -11  4 1472.15  46.50
  3 -11  4 1530.95  46.40
  3 10 -4 781.32  24.80
  3 10 -4 838.72  31.70
  3 10 -4 758.82  28.00
  3 10 -4 756.92  32.60
 -3 -10  4 740.33  25.50
 -3 -10  4 752.92  25.40
  2 10 -4 441.76  15.30
  2 10 -4 441.06  19.70
  2 10 -4 430.56  27.00
  2 10 -4 443.16  25.80
  2 10 -4 449.56  16.60
 -2 -10  4 425.66  16.50
 -2 -10  4 446.46  15.90
 -2 -10  4 469.95  16.30
 -2 -10  4 488.15  17.30
 -2 -10  4 460.25  16.30
  1 10 -4 2493.15  82.49
  1 10 -4 2363.86  87.99
  1 10 -4 2437.66  79.09
  1 10 -4 2538.35  77.79
  1 10 -4 2427.96  80.99
 -1 -10  4 2458.25  77.59
 -1 -10  4 2419.36  78.09
 -1 -10  4 2515.55  78.29
 -1 -10  4 2554.04  78.19
 -1 -10  4 2449.45  80.19
 -1 -10  4 2421.36  78.59
 -1 -10  4 2373.56  78.49
  0 10 -4 556.44  19.10
  0 10 -4 544.65  18.50
  0 10 -4 545.25  20.00
  0 10 -4 576.94  19.60
  0 10 -4 556.54  21.30
  0 -10  4 573.74  19.80
  0 -10  4 542.55  21.40
  0 -10  4 531.05  20.90
  0 -10  4 572.04  19.50
  0 -10  4 567.74  19.90
  0 -10  4 559.44  19.40
  0 -10  4 542.05  20.00
  0 -10  4 552.34  18.80
 -1 10 -4 215.58  8.20
 -1 10 -4 209.58  8.60
 -1 10 -4 211.18  9.40
 -1 10 -4 211.88  9.40
 -1 10 -4 221.58  9.90
 -1 10 -4 213.88  7.90
 -1 10 -4 206.38  8.40
  1 -10  4 209.88  9.30
  1 -10  4 203.98  11.20
  1 -10  4 222.78  10.40
  1 -10  4 209.28  9.90
  1 -10  4 233.48  12.50
  1 -10  4 248.28  9.00
  1 -10  4 223.78  9.90
  1 -10  4 213.18  11.20
 -2 10 -4  50.49  6.30
 -2 10 -4  55.89  3.60
 -2 10 -4  64.29  3.20
 -2 10 -4  61.29  3.60
 -2 10 -4  55.69  4.80
 -2 10 -4  64.89  3.60
 -2 10 -4  59.59  3.70
 -2 10 -4  62.29  6.10
  2 -10  4  58.19  10.60
  2 -10  4  45.20  9.00
  2 -10  4  57.19  13.30
  2 -10  4  56.29  5.80
 -3 10 -4 239.38  8.30
 -3 10 -4 219.18  8.30
 -3 10 -4 204.28  10.60
 -3 10 -4 234.38  8.50
 -3 10 -4 230.08  8.60
 -3 10 -4 236.38  8.70
  3 -10  4 240.88  9.90
  3 -10  4 223.98  9.50
  3 -10  4 256.87  15.50
  3 -10  4 213.38  14.50
  3  9 -4 2060.09  63.59
  3  9 -4 2128.29  73.99
  3  9 -4 2035.50  75.79
  3  9 -4 1976.10  67.69
 -3 -9  4 1968.70  64.09
 -3 -9  4 1957.20  63.99
  2  9 -4 1409.06  52.79
  2  9 -4 1531.65  63.59
  2  9 -4 1546.05  53.49
  2  9 -4 1518.05  49.80
  2  9 -4 1446.36  61.59
  2  9 -4 1471.05  50.89
  2  9 -4 1564.94  48.40
 -2 -9  4 1490.25  49.99
 -2 -9  4 1540.15  49.70
 -2 -9  4 1590.14  51.09
 -2 -9  4 1590.54  49.10
 -2 -9  4 1551.04  49.20
  1  9 -4  43.50  4.50
  1  9 -4  44.60  4.20
  1  9 -4  44.50  7.10
  1  9 -4  53.79  3.90
 -1 -9  4  48.00  4.40
 -1 -9  4  54.89  4.40
 -1 -9  4  42.20  5.30
 -1 -9  4  46.50  4.30
 -1 -9  4  48.10  4.50
 -1 -9  4  53.79  3.90
 -1 -9  4  51.89  3.60
  0  9 -4 427.96  17.10
  0  9 -4 404.26  14.60
  0  9 -4 379.36  14.10
  0  9 -4 395.06  14.50
  0  9 -4 381.26  13.70
  0  9 -4 402.56  15.60
  0 -9  4 401.36  15.50
  0 -9  4 397.96  14.30
  0 -9  4 415.66  14.90
  0 -9  4 398.96  14.50
  0 -9  4 383.56  14.80
  0 -9  4 397.26  16.20
  0 -9  4 385.56  13.90
  0 -9  4 394.96  14.40
 -1  9 -4  44.90  4.70
 -1  9 -4  39.70  3.00
 -1  9 -4  42.70  3.50
 -1  9 -4  40.70  2.70
 -1  9 -4  40.20  5.20
 -1  9 -4  37.60  3.20
 -1  9 -4  41.80  2.90
 -1  9 -4  43.90  3.30
  1 -9  4  38.50  4.00
  1 -9  4  42.20  4.60
  1 -9  4  37.80  4.00
  1 -9  4  43.30  5.50
  1 -9  4  46.80  4.60
  1 -9  4  55.89  6.80
 -2  9 -4 4663.93 145.59
 -2  9 -4 4724.93 143.99
 -2  9 -4 4622.44 144.09
 -2  9 -4 4527.15 143.99
 -2  9 -4 4606.74 143.89
 -2  9 -4 4667.83 145.09
 -2  9 -4 4756.82 143.89
 -2  9 -4 4499.95 143.59
  2 -9  4 4433.26 155.48
  2 -9  4 4961.00 146.39
  2 -9  4 4370.46 146.29
  2 -9  4 4456.65 147.89
  2 -9  4 4695.13 150.38
 -3  9 -4 492.85  17.30
 -3  9 -4 523.75  16.90
 -3  9 -4 503.55  18.50
 -3  9 -4 510.55  16.50
 -3  9 -4 524.15  16.90
 -3  9 -4 495.85  16.70
  3 -9  4 475.85  18.10
  3 -9  4 499.95  18.30
  3 -9  4 496.75  16.80
  3 -9  4 466.05  24.70
  3 -9  4 474.15  24.70
  3  8 -4 223.38  10.10
  3  8 -4 223.58  18.50
  3  8 -4 204.38  11.70
  3  8 -4 218.98  8.00
  3  8 -4 207.08  17.30
 -3 -8  4 197.48  10.10
 -3 -8  4 222.48  8.80
 -3 -8  4 224.48  9.50
  2  8 -4  56.29  13.20
  2  8 -4  79.39  6.10
  2  8 -4  60.99  3.60
  2  8 -4  69.49  6.70
  2  8 -4  70.89  4.00
  2  8 -4  62.89  6.40
  2  8 -4  59.29  6.30
  2  8 -4  65.89  7.60
  2  8 -4  63.39  13.80
 -2 -8  4  63.49  5.80
 -2 -8  4  79.89  6.50
 -2 -8  4  72.69  4.90
 -2 -8  4  65.19  5.00
 -2 -8  4  68.19  5.00
  1  8 -4 178.08  11.50
  1  8 -4 188.18  9.40
  1  8 -4 195.68  8.40
  1  8 -4 185.48  7.50
  1  8 -4 198.88  8.20
 -1 -8  4 195.48  8.00
 -1 -8  4 189.88  9.10
 -1 -8  4 193.58  9.20
 -1 -8  4 178.58  8.40
 -1 -8  4 191.68  8.60
 -1 -8  4 204.78  7.70
  0  8 -4 4325.17 137.59
  0  8 -4 4598.84 138.79
  0 -8  4 4317.27 137.79
  0 -8  4 4392.96 141.29
  0 -8  4 4264.37 137.29
  0 -8  4 4278.57 137.29
  0 -8  4 4383.36 137.39
  0 -8  4 4485.95 139.29
  0 -8  4 4483.55 138.59
 -1  8 -4 4182.28 128.19
 -1  8 -4 4045.20 129.49
 -1  8 -4 4185.58 127.99
 -1  8 -4 4101.59 128.09
 -1  8 -4 4171.08 127.99
 -1  8 -4 4175.48 128.99
 -1  8 -4 4182.28 128.19
  1 -8  4 3953.90 128.79
  1 -8  4 4253.27 129.29
  1 -8  4 4496.35 130.79
  1 -8  4 4102.49 129.19
  1 -8  4 3497.75 131.89
  1 -8  4 4140.09 130.79
 -2  8 -4 116.89  6.10
 -2  8 -4 108.69  5.20
 -2  8 -4 110.69  4.80
 -2  8 -4 109.99  4.90
 -2  8 -4 109.09  5.20
 -2  8 -4 107.79  5.10
 -2  8 -4 107.29  4.60
 -2  8 -4 108.89  5.80
  2 -8  4  88.99  13.30
  2 -8  4 110.79  7.70
  2 -8  4 108.69  7.50
  2 -8  4 105.99  9.70
  2 -8  4  94.79  7.40
  2 -8  4 101.19  13.40
 -3  8 -4  23.60  3.20
 -3  8 -4  31.80  2.70
 -3  8 -4  40.40  3.20
 -3  8 -4  32.00  3.70
 -3  8 -4  34.20  2.80
  3 -8  4  29.40  4.80
  3 -8  4  40.00  8.60
  3 -8  4  22.70  8.20
  3 -8  4  28.90  2.80
 -4  8 -4  7.30  1.60
 -4  8 -4  5.80  1.80
 -4  8 -4  3.50  1.40
  4 -8  4  7.70  2.00
  4 -8  4  5.00  3.10
  4 -8  4  6.10  1.40
  4 -8  4  6.70  3.10
  3  7 -4  68.99  5.10
  3  7 -4  66.99  6.20
  3  7 -4  67.49  7.00
  3  7 -4  63.09  3.60
  3  7 -4  71.09  11.80
  3  7 -4  60.09  12.10
  3  7 -4  67.49  3.50
  3  7 -4  69.89  11.30
 -3 -7  4  62.39  5.60
 -3 -7  4  65.29  4.90
  2  7 -4 318.97  14.60
  2  7 -4 338.97  11.70
  2  7 -4 326.67  13.30
  2  7 -4 296.27  13.20
  2  7 -4 318.77  11.40
  2  7 -4 330.67  16.10
  2  7 -4 344.27  24.90
  2  7 -4 304.87  23.20
  2  7 -4 339.87  23.20
  2  7 -4 311.17  13.50
 -2 -7  4 337.37  12.60
 -2 -7  4 343.97  13.00
 -2 -7  4 309.17  12.20
 -2 -7  4 320.17  11.70
  1  7 -4 3510.85 111.39
  1  7 -4 3392.16 109.99
  1  7 -4 3852.81 113.79
 -1 -7  4 3420.16 109.39
 -1 -7  4 3408.66 109.19
 -1 -7  4 3487.85 113.99
 -1 -7  4 3447.26 110.69
 -1 -7  4 3518.25 109.79
 -1 -7  4 3363.36 109.29
  0  7 -4 727.43  24.00
  0  7 -4 707.53  23.20
  0 -7  4 680.43  23.00
  0 -7  4 688.13  23.60
  0 -7  4 697.23  23.10
  0 -7  4 665.63  23.20
  0 -7  4 707.73  24.50
  0 -7  4 719.93  26.00
 -1  7 -4 579.64  18.40
 -1  7 -4 572.54  18.60
 -1  7 -4 565.74  19.00
 -1  7 -4 560.94  18.50
 -1  7 -4 570.84  19.50
  1 -7  4 555.14  19.30
  1 -7  4 577.54  20.50
  1 -7  4 546.45  19.70
 -2  7 -4  28.00  3.20
 -2  7 -4  21.60  2.10
 -2  7 -4  21.10  2.50
 -2  7 -4  21.00  2.30
 -2  7 -4  27.20  2.50
 -2  7 -4  26.20  2.80
 -2  7 -4  18.90  2.40
  2 -7  4  25.50  4.50
  2 -7  4  18.50  3.90
  2 -7  4  20.50  3.90
  2 -7  4  21.80  4.90
  2 -7  4  26.20  5.70
  2 -7  4  24.80  5.60
  2 -7  4  21.80  9.60
 -3  7 -4 886.21  29.50
 -3  7 -4 864.71  27.70
 -3  7 -4 873.21  27.90
 -3  7 -4 841.92  27.80
 -3  7 -4 855.01  27.90
  3 -7  4 820.82  36.50
  3 -7  4 755.72  29.20
  3 -7  4 851.51  29.00
  3 -7  4 848.82  27.90
  3 -7  4 945.51  37.90
 -4  7 -4 632.84  21.20
 -4  7 -4 592.14  19.60
 -4  7 -4 584.84  19.30
  4 -7  4 580.14  24.20
  4 -7  4 629.74  20.00
  4 -7  4 586.54  19.40
  4 -7  4 581.24  23.30
  4  6 -4  8.90  3.50
  4  6 -4  9.00  1.70
  4  6 -4  12.20  4.80
  4  6 -4  11.50  5.10
  3  6 -4 331.47  16.30
  3  6 -4 355.66  13.70
  3  6 -4 340.37  14.00
  3  6 -4 346.87  17.70
  3  6 -4 339.57  11.80
  3  6 -4 337.37  12.00
  3  6 -4 340.37  24.40
  3  6 -4 319.77  22.60
  3  6 -4 348.77  21.50
 -3 -6  4 325.07  13.20
  2  6 -4 292.27  10.70
  2  6 -4 292.27  13.30
  2  6 -4 302.17  12.50
  2  6 -4 295.67  23.20
  2  6 -4 286.67  21.40
  2  6 -4 285.87  12.70
  2  6 -4 296.07  15.10
  2  6 -4 310.67  12.30
  2  6 -4 313.67  22.80
  2  6 -4 289.17  16.00
  2  6 -4 309.27  11.00
 -2 -6  4 308.37  11.40
 -2 -6  4 348.87  12.10
 -2 -6  4 298.47  10.80
  1  6 -4 2817.42  91.69
  1  6 -4 3202.38  95.49
  1  6 -4 2915.51  92.79
 -1 -6  4 2846.92  90.89
 -1 -6  4 2917.11  92.09
 -1 -6  4 2887.51  91.09
 -1 -6  4 2885.81  94.79
 -1 -6  4 2771.12  91.09
  0 -6  4 8652.43 268.37
 -1  6 -4 1019.20  32.80
 -1  6 -4 1021.90  32.70
 -1  6 -4 1046.30  32.60
 -1  6 -4 1039.30  33.70
 -1  6 -4 1067.29  33.20
  1 -6  4 1033.10  33.40
  1 -6  4 1012.20  34.90
  1 -6  4 1010.30  33.90
  1 -6  4 1037.90  33.60
  1 -6  4 1104.39  34.70
  1 -6  4 943.61  35.10
 -2  6 -4 1329.27  41.30
 -2  6 -4 1291.97  40.70
 -2  6 -4 1305.47  40.80
 -2  6 -4 1299.87  40.80
 -2  6 -4 1290.47  40.90
 -2  6 -4 1297.17  42.00
 -2  6 -4 1274.57  40.70
  2 -6  4 1214.68  50.19
  2 -6  4 1307.07  43.70
  2 -6  4 1258.17  44.60
  2 -6  4 1192.38  41.00
  2 -6  4 1259.27  42.10
  2 -6  4 1327.67  42.80
 -3  6 -4 252.67  9.10
 -3  6 -4 249.68  10.30
 -3  6 -4 234.98  9.30
 -3  6 -4 250.87  9.00
 -3  6 -4 220.58  10.80
 -3  6 -4 254.77  9.30
  3 -6  4 263.27  18.50
  3 -6  4 260.67  18.80
  3 -6  4 250.97  9.30
  3 -6  4 244.28  10.60
  3 -6  4 249.08  10.80
  3 -6  4 213.98  22.60
  3 -6  4 239.58  16.60
  3 -6  4 236.48  16.50
 -4  6 -4 823.42  27.10
 -4  6 -4 828.52  26.90
 -4  6 -4 832.12  27.10
  4 -6  4 818.92  31.30
  4 -6  4 851.11  27.00
  4 -6  4 817.52  32.20
  4 -6  4 952.60  32.20
  4 -6  4 792.52  27.50
  4  5 -4  95.99  8.90
  4  5 -4 100.79  5.40
  4  5 -4  97.59  4.20
  4  5 -4  98.09  10.20
  4  5 -4 103.29  9.00
  4  5 -4  98.19  7.20
  3  5 -4 1835.72  72.59
  3  5 -4 1919.31  59.89
  3  5 -4 1987.20  71.09
  3  5 -4 1856.61  59.59
  3  5 -4 1797.72  62.19
  3  5 -4 1911.11  77.29
  3  5 -4 1900.81  62.29
  3  5 -4 1911.61  64.79
  3  5 -4 1873.91  64.29
  3  5 -4 1876.51  66.59
  3  5 -4 1943.61  61.09
  3  5 -4 1978.00  72.69
  3  5 -4 1881.71  60.19
  3  5 -4 1770.72  64.39
 -3 -5  4 1905.71  60.69
  2  5 -4 2866.51  95.99
  2  5 -4 2715.53  91.89
  2  5 -4 2689.23  87.99
  2  5 -4 2786.02  89.59
  2  5 -4 3012.20  93.39
  2  5 -4 2757.32  90.19
  2  5 -4 2775.42  89.19
  2  5 -4 2819.32  92.39
  2  5 -4 2900.11 101.99
  2  5 -4 2756.02  99.09
  2  5 -4 2796.82  88.19
  2  5 -4 2782.62  94.19
  2  5 -4 2781.02  90.89
  2  5 -4 2853.11 104.39
 -2 -5  4 2774.52  87.99
 -2 -5  4 2847.42  88.99
 -2 -5  4 2910.41  88.49
  1  5 -4 1489.95  47.80
  1  5 -4 1459.25  50.99
  1  5 -4 1561.34  48.80
 -1 -5  4 1423.36  47.00
 -1 -5  4 1501.25  50.19
 -1 -5  4 1488.55  47.90
 -1 -5  4 1511.75  47.20
  0  5 -4 981.90  31.70
  0  5 -4 1038.20  32.00
  0  5 -4 840.02  32.00
  0  5 -4 998.30  30.70
  0 -5  4 1016.90  32.40
  0 -5  4 1001.20  31.70
  0 -5  4 944.11  31.30
  0 -5  4 1028.00  33.50
 -1  5 -4 147.59  5.20
 -1  5 -4 142.99  6.00
 -1  5 -4 150.38  5.50
 -1  5 -4 142.39  5.30
 -1  5 -4 144.79  5.60
  1 -5  4 147.49  6.90
  1 -5  4 138.69  7.50
  1 -5  4 138.49  5.90
  1 -5  4 161.58  5.90
  1 -5  4 142.89  6.60
 -2  5 -4 3079.89  97.09
 -2  5 -4 3036.10  96.69
 -2  5 -4 3088.99  97.79
 -2  5 -4 3067.49  96.79
 -2  5 -4 3074.99  96.59
  2 -5  4 3234.18  99.59
  2 -5  4 3113.89  97.19
  2 -5  4 2993.80  97.89
  2 -5  4 3263.37  98.49
  2 -5  4 3014.30 100.09
 -3  5 -4 4163.98 124.89
 -3  5 -4 4106.19 124.69
 -3  5 -4 4068.39 125.19
 -3  5 -4 4032.40 124.59
 -3  5 -4 4230.08 126.19
  3 -5  4 3909.21 126.99
  3 -5  4 4055.19 134.59
  3 -5  4 3715.53 129.89
  3 -5  4 4027.80 129.09
  3 -5  4 3466.25 132.49
  3 -5  4 3706.73 125.89
  3 -5  4 4028.00 124.99
  3 -5  4 4419.66 138.29
 -4  5 -4  8.70  2.10
 -4  5 -4  4.30  1.90
 -4  5 -4  6.50  2.00
  4 -5  4  6.20  2.00
  4 -5  4  5.30  3.20
  4 -5  4  3.60  1.30
  4 -5  4  8.70  3.80
  4  4 -4 183.08  13.10
  4  4 -4 187.38  14.90
  4  4 -4 221.28  14.00
  4  4 -4 189.28  8.60
  4  4 -4 201.98  12.70
  4  4 -4 193.78  10.40
  4  4 -4 194.38  7.20
  3  4 -4 1116.49  48.70
  3  4 -4 1133.99  44.20
  3  4 -4 1104.19  40.90
  3  4 -4 1106.39  36.20
  3  4 -4 1111.59  38.60
  3  4 -4 1170.58  47.70
  3  4 -4 1142.49  43.20
  3  4 -4 1146.09  37.50
  3  4 -4 1130.99  38.70
  3  4 -4 1097.89  36.80
  3  4 -4 1143.59  36.30
  3  4 -4 1070.99  47.30
  3  4 -4 1193.18  45.00
  3  4 -4 1164.58  52.99
  3  4 -4 1100.09  40.40
  3  4 -4 1098.29  40.40
  2  4 -4  4.30  4.60
  2  4 -4  0.80  1.90
  2  4 -4  1.10  5.90
 -2 -4  4  6.00  1.60
 -2 -4  4  1.10  1.80
 -2 -4  4  5.20  3.80
 -2 -4  4  2.90  1.40
  1  4 -4 871.41  31.70
  1  4 -4 894.81  29.60
  1  4 -4 855.21  28.80
 -1 -4  4 856.81  28.20
 -1 -4  4 849.91  28.30
 -1 -4  4 992.20  35.40
 -1 -4  4 894.41  28.90
  0  4 -4 6120.69 190.18
 -1  4 -4 2688.63  86.29
 -1  4 -4 2711.53  84.99
 -1  4 -4 2715.63  84.69
 -1  4 -4 2714.53  85.39
  1 -4  4 2649.53  85.19
  1 -4  4 2798.02  86.09
  1 -4  4 2747.93  86.39
  1 -4  4 2746.13  85.19
  1 -4  4 2850.51  85.39
  1 -4  4 2698.83  84.59
  1 -4  4 2608.84  86.99
 -2  4 -4 1063.39  34.40
 -2  4 -4 1096.69  34.60
 -2  4 -4 1070.89  35.30
 -2  4 -4 1069.39  34.70
 -2  4 -4 1071.69  34.50
  2 -4  4 1092.59  35.60
  2 -4  4 1142.69  37.00
  2 -4  4 1058.19  37.30
 -3  4 -4  26.40  3.80
 -3  4 -4  27.00  2.90
 -3  4 -4  33.20  2.70
 -3  4 -4  25.90  3.00
  3 -4  4  24.00  8.90
  3 -4  4  22.70  6.60
  3 -4  4  28.70  5.50
  3 -4  4  32.50  7.10
  3 -4  4  26.10  4.10
  3 -4  4  27.10  8.40
  3 -4  4  27.60  10.50
  3 -4  4  25.30  6.70
  3 -4  4  25.10  2.80
 -4  4 -4  58.29  3.80
 -4  4 -4  52.79  3.60
  4 -4  4  63.19  6.90
  4 -4  4  71.39  8.10
  4 -4  4  56.59  6.20
  4 -4  4  60.39  3.20
  4 -4  4  55.79  4.10
  4  3 -4 873.91  32.30
  4  3 -4 899.11  33.60
  4  3 -4 875.51  40.40
  4  3 -4 887.31  29.00
  4  3 -4 868.11  28.30
  4  3 -4 922.21  36.80
  4  3 -4 883.51  30.30
  4  3 -4 839.32  36.20
  4  3 -4 932.11  38.00
  3  3 -4 1880.51  64.39
  3  3 -4 1858.51  73.29
  3  3 -4 1922.81  68.59
  3  3 -4 1901.81  67.09
  3  3 -4 1888.31  60.59
  3  3 -4 1924.91  68.39
  3  3 -4 1888.61  60.89
  3  3 -4 1847.62  59.99
  3  3 -4 1891.81  71.19
  3  3 -4 1921.61  59.79
  3  3 -4 1865.61  71.79
  3  3 -4 1891.71  63.69
  3  3 -4 1950.80  77.79
  3  3 -4 1813.62  63.99
  3  3 -4 1907.71  67.09
  3  3 -4 1892.51  62.29
  2  3 -4 181.68  7.60
  2  3 -4 177.28  8.30
  2  3 -4 181.48  7.30
  2  3 -4 180.28  10.30
 -2 -3  4 172.48  7.90
 -2 -3  4 179.18  10.40
 -2 -3  4 179.08  6.80
 -1 -3  4 6668.23 206.48
  0  3 -4 2166.38  68.49
  0  3 -4 2186.78  70.09
  0  3 -4 2164.58  68.69
  0  3 -4 2216.28  68.69
  0  3 -4 2175.48  67.99
  0 -3  4 2215.58  68.39
  0 -3  4 2277.57  69.19
  0 -3  4 2232.78  68.39
  0 -3  4 2108.29  68.39
  0 -3  4 2168.88  70.09
 -1  3 -4 672.43  22.60
 -1  3 -4 670.03  21.40
 -1  3 -4 661.13  20.80
 -1  3 -4 646.64  21.00
 -1  3 -4 670.03  20.80
  1 -3  4 629.24  21.20
  1 -3  4 632.34  22.90
  1 -3  4 631.24  22.10
  1 -3  4 681.93  21.20
  1 -3  4 649.24  21.10
  1 -3  4 641.74  21.80
 -2  3 -4 134.19  5.20
 -2  3 -4 137.09  5.40
 -2  3 -4 130.39  5.00
 -2  3 -4 129.09  5.70
 -2  3 -4 126.79  5.30
  2 -3  4 126.59  6.70
  2 -3  4 138.39  6.20
  2 -3  4 132.29  7.20
 -3  3 -4 672.03  22.20
 -3  3 -4 625.74  21.50
 -3  3 -4 676.83  21.00
 -3  3 -4 655.73  21.20
  3 -3  4 613.14  22.10
  3 -3  4 654.13  24.80
  3 -3  4 621.24  32.20
  3 -3  4 613.24  23.10
  3 -3  4 649.93  21.30
  3 -3  4 648.34  29.50
  3 -3  4 645.64  24.80
  3 -3  4 597.74  27.50
  3 -3  4 604.24  28.00
  3 -3  4 612.44  25.30
 -4  3 -4 2183.88  69.99
 -4  3 -4 2249.27  70.19
  4 -3  4 2316.67  75.69
  4 -3  4 2258.77  78.89
  4 -3  4 2171.98  74.69
  4 -3  4 2222.88  69.99
  4 -3  4 2189.78  70.49
  4  2 -4  87.19  5.40
  4  2 -4  75.09  9.10
  4  2 -4  96.59  10.10
  4  2 -4  79.49  7.30
  4  2 -4  88.09  7.20
  4  2 -4 101.19  9.00
  4  2 -4  90.29  10.70
  4  2 -4  82.29  10.90
  4  2 -4  82.29  8.20
  4  2 -4  86.39  4.40
  4  2 -4  85.39  6.60
  3  2 -4 206.58  12.40
  3  2 -4 217.08  17.70
  3  2 -4 216.28  10.00
  3  2 -4 200.78  10.90
  3  2 -4 210.18  14.20
  3  2 -4 204.68  11.20
  3  2 -4 222.58  20.20
  3  2 -4 193.38  8.30
  3  2 -4 213.48  18.60
  3  2 -4 212.98  14.90
  3  2 -4 213.28  19.80
  2  2 -4 1573.54  50.59
  2  2 -4 1626.24  53.69
  2  2 -4 1546.75  49.50
  2  2 -4 1511.65  49.20
 -2 -2  4 1527.95  51.89
 -2 -2  4 1505.95  49.30
 -2 -2  4 1458.65  48.30
  1  2 -4 1260.97  43.00
  1  2 -4 1246.28  42.20
  1  2 -4 1291.07  41.20
  1  2 -4 1273.47  40.10
 -1 -2  4 1281.07  42.10
 -1 -2  4 1277.17  40.00
 -1 -2  4 1287.87  40.40
 -1  2 -4  2.50  1.50
  1 -2  4  2.40  0.70
  1 -2  4  4.00  1.60
  1 -2  4  4.30  1.00
  1 -2  4  1.90  1.10
 -2  2 -4 2287.47  71.89
 -2  2 -4 2273.17  71.69
 -2  2 -4 2274.87  72.59
 -2  2 -4 2238.48  71.89
 -2  2 -4 2323.77  71.89
  2 -2  4 2393.86  74.19
  2 -2  4 2268.67  74.39
  2 -2  4 2318.47  72.79
 -3  2 -4 827.12  26.80
 -3  2 -4 832.82  27.10
 -3  2 -4 855.81  27.60
 -3  2 -4 859.31  26.50
 -3  2 -4 818.92  26.60
  3 -2  4 821.72  30.10
  3 -2  4 822.72  26.90
  3 -2  4 811.42  33.20
  3 -2  4 797.52  37.80
  3 -2  4 776.32  33.90
  3 -2  4 808.02  30.60
  3 -2  4 809.12  28.50
  3 -2  4 769.82  33.50
  3 -2  4 841.72  30.60
  3 -2  4 798.02  27.60
 -4  2 -4 627.24  22.30
 -4  2 -4 641.64  21.70
  4 -2  4 616.34  29.00
  4 -2  4 716.53  23.70
  4 -2  4 643.74  22.00
  4 -2  4 669.93  25.70
  4 -2  4 681.83  26.50
  4 -2  4 664.13  21.60
  4  1 -4 164.38  7.30
  4  1 -4 154.88  10.20
  4  1 -4 160.88  7.80
  4  1 -4 162.98  9.10
  4  1 -4 158.18  11.40
  4  1 -4 172.88  14.70
  4  1 -4 162.78  16.90
  4  1 -4 139.09  8.00
  4  1 -4 147.69  19.90
  3  1 -4 2010.60  64.69
  3  1 -4 2062.79  70.39
  3  1 -4 1974.90  64.19
  3  1 -4 2015.10  63.79
  3  1 -4 1950.60  67.39
  3  1 -4 1905.51  70.69
  3  1 -4 2045.10  70.79
  3  1 -4 1900.11  71.99
  3  1 -4 1928.41  81.79
  3  1 -4 1988.10  65.49
  3  1 -4 2025.10  77.29
  3  1 -4 1971.30  85.29
  3  1 -4 2060.09  63.49
  3  1 -4 2013.20  79.09
  3  1 -4 2043.60  62.89
  3  1 -4 2010.80  71.59
  2  1 -4 6281.17 193.48
  2  1 -4 6321.37 197.88
 -2 -1  4 6053.79 193.18
 -2 -1  4 6141.89 192.08
  1  1 -4 103.59  4.00
  1  1 -4 100.39  6.10
  1  1 -4  94.69  5.50
  1  1 -4 102.69  3.80
  1  1 -4 104.59  4.80
 -1 -1  4 109.89  5.40
 -1 -1  4 102.39  4.30
 -1 -1  4 121.19  3.80
  0  1 -4 221.98  9.60
  0  1 -4 247.98  8.10
  0  1 -4 254.37  7.80
  0  1 -4 240.88  8.60
  0 -1  4 254.27  8.20
  0 -1  4 241.38  9.70
  0 -1  4 259.47  8.90
 -1  1 -4 1228.08  39.10
 -1  1 -4 1253.57  39.10
 -1  1 -4 1261.97  39.10
 -1  1 -4 1325.77  41.70
 -1  1 -4 1249.77  39.60
  1 -1  4 1178.08  39.70
  1 -1  4 1213.58  39.20
  1 -1  4 1244.88  40.30
  1 -1  4 1234.08  38.90
  1 -1  4 1284.17  40.10
 -2  1 -4 1268.47  42.30
 -2  1 -4 1342.47  42.90
 -2  1 -4 1335.47  42.10
 -2  1 -4 1344.77  42.30
  2 -1  4 1287.97  42.90
  2 -1  4 1356.26  44.30
  2 -1  4 1363.06  44.60
  2 -1  4 1402.66  43.30
 -3  1 -4 1163.48  37.20
 -3  1 -4 1109.09  36.60
 -3  1 -4 1117.29  36.20
 -3  1 -4 1194.78  36.10
 -3  1 -4 1133.79  36.30
  3 -1  4 1123.49  37.10
  3 -1  4 1136.79  37.90
  3 -1  4 1123.19  39.60
  3 -1  4 1102.39  42.30
  3 -1  4 1102.29  47.50
  3 -1  4 1099.79  39.80
  3 -1  4 1098.39  43.80
  3 -1  4 1155.08  40.40
  3 -1  4 1075.69  43.20
  3 -1  4 1173.98  36.50
 -4  1 -4  12.20  2.60
  4 -1  4  14.10  2.50
  4 -1  4  12.80  5.50
  4 -1  4  13.50  4.30
  4  0 -4 2299.77  68.69
  4  0 -4 2137.99  80.09
  4  0 -4 2247.18  69.89
  4  0 -4 2149.69  71.79
  4  0 -4 2120.89  80.29
  4  0 -4 2073.09  84.19
  4  0 -4 2192.18  68.49
  4  0 -4 2106.29  78.29
  4  0 -4 2225.98  73.69
  3  0 -4 1142.49  36.30
  3  0 -4 1107.69  45.30
  3  0 -4 1135.59  37.90
  3  0 -4 1085.49  48.60
  3  0 -4 1099.89  36.70
  3  0 -4 1135.19  36.50
  3  0 -4 1104.19  44.60
  3  0 -4 1098.79  37.40
  3  0 -4 1106.29  48.70
  3  0 -4 1134.09  42.50
  3  0 -4 1074.89  39.80
  3  0 -4 1080.39  43.90
  3  0 -4 1117.89  50.49
  3  0 -4 1076.79  39.70
  3  0 -4 1148.99  43.30
 -3  0  4 1055.09  37.10
  2  0 -4 164.18  7.70
  2  0 -4 160.28  7.00
  2  0 -4 170.18  7.30
  2  0 -4 161.38  9.60
 -2  0  4 170.98  7.00
 -2  0  4 184.58  8.70
  1  0 -4 400.76  12.80
  1  0 -4 385.76  14.50
  1  0 -4 387.36  15.20
  1  0 -4 386.66  13.70
  1  0 -4 396.96  12.90
 -1  0  4 393.56  13.00
 -1  0  4 398.26  13.10
 -1  0  4 378.56  14.30
 -1  0  4 384.46  12.40
  0  0 -4 1965.10  61.89
  0  0 -4 1993.60  61.49
  0  0 -4 2088.79  62.39
  0  0 -4 2016.40  63.89
  0  0 -4 1957.90  62.89
  0  0  4 1895.61  61.79
  0  0  4 1986.60  62.39
  0  0  4 1965.90  63.59
 -1  0 -4 4581.34 144.99
 -2  0 -4 259.77  9.80
 -2  0 -4 268.17  9.30
 -2  0 -4 279.97  10.10
 -2  0 -4 274.47  9.30
 -2  0 -4 281.27  9.60
  2  0  4 270.27  11.10
  2  0  4 275.37  11.40
  2  0  4 278.77  10.80
  2  0  4 278.37  10.20
 -3  0 -4 428.16  15.20
 -3  0 -4 450.05  14.80
 -3  0 -4 433.86  15.00
 -3  0 -4 454.75  15.90
 -3  0 -4 439.56  15.80
  3  0  4 431.86  19.20
  3  0  4 428.86  21.50
  3  0  4 427.66  24.70
  3  0  4 438.06  15.80
  3  0  4 436.46  18.50
  3  0  4 439.16  15.70
  3  0  4 426.86  20.20
  3  0  4 432.56  18.00
  3  0  4 439.56  15.10
  3  0  4 435.46  22.00
 -4  0 -4  61.19  4.70
 -4  0 -4  64.99  4.80
  4  0  4  74.09  6.30
  4  0  4  65.29  6.60
  4  0  4  61.49  7.40
  4  0  4  72.69  3.90
  4  0  4  77.59  6.20
  4 -1 -4 269.47  18.80
  4 -1 -4 286.97  13.10
  4 -1 -4 294.37  10.40
  4 -1 -4 262.27  18.60
  4 -1 -4 276.67  10.90
  4 -1 -4 295.37  10.60
  4 -1 -4 278.17  13.90
  4 -1 -4 271.07  18.60
  3 -1 -4 632.54  25.30
  3 -1 -4 650.63  31.30
  3 -1 -4 612.64  25.50
  3 -1 -4 660.43  28.50
  3 -1 -4 662.83  27.90
  3 -1 -4 626.14  22.60
  3 -1 -4 672.63  30.60
  3 -1 -4 655.83  22.20
  3 -1 -4 658.43  22.20
  3 -1 -4 624.14  33.40
  3 -1 -4 645.94  23.40
  3 -1 -4 658.13  35.00
  3 -1 -4 641.74  33.40
  3 -1 -4 639.64  29.80
  3 -1 -4 659.33  23.40
 -3  1  4 616.84  22.10
  2 -1 -4  36.30  3.10
  2 -1 -4  42.60  4.60
 -2  1  4  36.00  2.50
 -2  1  4  38.90  3.10
 -2  1  4  38.80  4.40
 -1  1  4 6691.23 207.18
  0 -1 -4 2615.84  80.09
  0 -1 -4 2639.64  80.59
  0 -1 -4 2548.25  81.69
  0 -1 -4 2450.15  79.59
  0  1  4 2512.75  81.39
 -1 -1 -4 3822.72 117.59
 -1 -1 -4 3754.12 120.79
 -1 -1 -4 3775.62 117.49
 -2 -1 -4 826.92  27.70
 -2 -1 -4 794.12  27.20
 -2 -1 -4 813.82  26.90
 -2 -1 -4 863.31  26.80
 -2 -1 -4 862.51  27.10
  2  1  4 866.51  29.00
  2  1  4 864.91  29.20
  2  1  4 852.61  28.80
  2  1  4 829.02  27.70
 -3 -1 -4 274.87  12.10
 -3 -1 -4 291.67  10.10
 -3 -1 -4 272.07  10.50
 -3 -1 -4 266.97  10.50
 -3 -1 -4 283.27  10.90
  3  1  4 273.57  10.60
  3  1  4 276.77  13.40
  3  1  4 263.27  14.30
  3  1  4 277.77  10.20
  3  1  4 276.07  16.50
  3  1  4 272.17  14.30
  3  1  4 272.87  18.60
  3  1  4 274.57  11.00
  3  1  4 302.97  27.50
 -4 -1 -4 716.03  24.80
 -4 -1 -4 674.43  24.60
  4  1  4 725.43  30.30
  4  1  4 817.82  27.40
  4  1  4 829.72  24.60
  4  1  4 737.63  27.30
  4 -2 -4 152.08  6.30
  4 -2 -4 149.79  6.50
  4 -2 -4 148.19  8.70
  4 -2 -4 138.29  11.30
  4 -2 -4 116.79  8.10
  4 -2 -4 134.39  18.40
  3 -2 -4 835.22  28.00
  3 -2 -4 841.02  40.70
  3 -2 -4 834.02  42.60
  3 -2 -4 834.72  29.10
  3 -2 -4 835.92  28.80
  3 -2 -4 828.52  36.30
  3 -2 -4 786.42  30.90
  3 -2 -4 848.72  27.90
  3 -2 -4 828.42  34.20
  3 -2 -4 818.82  47.70
  3 -2 -4 823.22  33.20
 -3  2  4 805.92  27.00
 -3  2  4 787.32  27.60
 -3  2  4 790.42  26.50
  2 -2 -4 2447.85  77.49
  2 -2 -4 2595.44  77.99
  2 -2 -4 2513.95  81.69
 -2  2  4 2374.56  77.09
 -2  2  4 2340.27  76.59
 -2  2  4 2353.86  75.99
  1 -2 -4 3844.82 118.49
  1 -2 -4 3819.42 120.09
  1 -2 -4 3825.82 120.59
  1 -2 -4 3843.02 117.79
 -1  2  4 3624.04 117.59
  0 -2 -4 3353.86 104.69
  0 -2 -4 3431.86 105.59
  0 -2 -4 3464.85 107.49
  0 -2 -4 3250.37 105.09
 -1 -2 -4 338.57  11.50
 -1 -2 -4 352.36  11.30
 -1 -2 -4 328.57  11.60
 -1 -2 -4 341.17  11.70
 -1 -2 -4 350.06  12.10
  1  2  4 345.97  12.30
  1  2  4 368.86  12.60
  1  2  4 335.27  12.40
 -2 -2 -4 3848.91 118.59
 -2 -2 -4 3745.63 117.59
 -2 -2 -4 3810.02 117.49
 -2 -2 -4 3746.03 117.79
 -2 -2 -4 3792.22 117.79
  2  2  4 3755.52 117.79
  2  2  4 3675.23 119.59
  2  2  4 3892.51 118.29
  2  2  4 3739.73 119.69
  2  2  4 3855.41 142.19
  2  2  4 3651.13 121.39
 -3 -2 -4 346.87  13.10
 -3 -2 -4 324.87  12.70
 -3 -2 -4 355.76  12.20
 -3 -2 -4 335.57  12.60
  3  2  4 370.16  30.00
  3  2  4 348.47  12.20
  3  2  4 329.67  16.10
  3  2  4 329.67  12.80
  3  2  4 353.56  20.50
  3  2  4 348.17  18.70
  3  2  4 327.37  12.40
  3  2  4 340.77  16.20
  3  2  4 323.77  15.40
 -4 -2 -4 727.33  26.70
  4  2  4 805.22  24.30
  4  2  4 772.42  26.50
  4  2  4 685.63  26.70
  4  2  4 750.92  29.50
  4 -3 -4  48.80  7.00
  4 -3 -4  49.20  8.80
  4 -3 -4  48.70  3.80
  4 -3 -4  52.29  8.90
  4 -3 -4  44.30  3.90
  4 -3 -4  53.09  3.80
  4 -3 -4  48.00  5.90
  3 -3 -4  56.69  4.70
  3 -3 -4  58.39  12.20
  3 -3 -4  62.99  11.20
  3 -3 -4  51.49  4.40
  3 -3 -4  56.09  12.10
  3 -3 -4  51.29  10.50
  3 -3 -4  54.39  6.40
  3 -3 -4  52.09  4.40
  3 -3 -4  44.70  7.80
  3 -3 -4  44.80  6.90
  3 -3 -4  53.69  8.70
 -3  3  4  58.09  3.70
 -3  3  4  50.89  3.20
 -3  3  4  56.49  4.90
  2 -3 -4 3546.35 112.49
  2 -3 -4 3470.35 108.69
  2 -3 -4 3395.96 108.19
 -2  3  4 3360.86 107.69
 -2  3  4 3505.35 107.39
 -2  3  4 3302.27 106.49
 -2  3  4 3391.36 107.39
  1 -3 -4 2036.00  65.99
  1 -3 -4 2130.59  66.79
  1 -3 -4 2173.58  68.39
  1 -3 -4 2143.99  68.69
 -1  3  4 2104.49  66.19
 -1  3  4 2044.90  66.29
 -1  3  4 2091.69  65.59
  0 -3 -4 421.56  15.70
  0 -3 -4 378.66  13.20
  0 -3 -4 409.46  13.80
  0 -3 -4 396.06  13.80
  0 -3 -4 396.36  13.00
  0 -3 -4 363.46  13.10
  0 -3 -4 368.86  12.80
  0  3  4 373.26  12.70
  0  3  4 393.66  12.90
  0  3  4 405.06  13.50
 -1 -3 -4 2005.10  61.09
 -1 -3 -4 1991.40  61.79
 -1 -3 -4 2029.00  60.79
 -1 -3 -4 1978.80  60.99
  1  3  4 1869.41  61.99
  1  3  4 1783.82  62.29
 -2 -3 -4 1442.06  44.90
 -2 -3 -4 1422.76  45.40
 -2 -3 -4 1401.66  47.30
 -2 -3 -4 1439.46  45.30
 -2 -3 -4 1423.36  45.00
  2  3  4 1410.66  47.30
  2  3  4 1457.05  53.59
  2  3  4 1388.86  45.40
  2  3  4 1408.36  67.29
  2  3  4 1411.96  45.70
  2  3  4 1384.86  53.89
  2  3  4 1392.46  48.90
  2  3  4 1458.95  47.00
 -3 -3 -4 1984.80  64.19
 -3 -3 -4 1988.60  63.39
 -3 -3 -4 2018.40  63.09
  3  3  4 1982.30  66.99
  3  3  4 1933.21  67.19
  3  3  4 1959.20  72.09
  3  3  4 1949.01  63.59
  3  3  4 1972.50  63.19
  3  3  4 2133.89  89.69
  4  3  4 108.99  4.30
  4  3  4  96.79  6.20
  4  3  4  99.89  7.30
  4 -4 -4 930.41  40.00
  4 -4 -4 923.71  39.30
  4 -4 -4 924.21  31.30
  4 -4 -4 931.71  31.10
  4 -4 -4 1007.70  38.00
  3 -4 -4  76.79  5.40
  3 -4 -4  73.69  4.70
  3 -4 -4  79.79  11.80
  3 -4 -4  68.09  11.50
  3 -4 -4  74.49  11.30
  3 -4 -4  70.49  8.60
  3 -4 -4  73.09  11.90
  3 -4 -4  85.49  5.30
  3 -4 -4  77.19  7.60
 -3  4  4  73.59  4.50
 -3  4  4  70.69  5.70
 -3  4  4  77.19  3.90
  2 -4 -4 209.98  9.50
  2 -4 -4 211.88  9.20
  2 -4 -4 212.28  9.10
  2 -4 -4 209.98  11.50
  2 -4 -4 213.78  22.50
  2 -4 -4 203.08  9.20
 -2  4  4 205.98  7.40
 -2  4  4 216.68  8.10
 -2  4  4 192.28  7.80
 -2  4  4 206.58  8.20
 -2  4  4 200.28  8.80
  1 -4 -4 1852.61  59.09
  1 -4 -4 1845.72  59.09
  1 -4 -4 1747.33  57.39
  1 -4 -4 1683.03  56.29
 -1  4  4 1787.82  56.69
 -1  4  4 1749.92  56.39
 -1  4  4 1827.42  56.19
 -1  4  4 1762.72  55.79
  0 -4 -4 312.87  11.50
  0 -4 -4 293.67  10.60
  0 -4 -4 303.27  10.80
  0 -4 -4 293.27  10.40
  0 -4 -4 296.47  10.30
  0  4  4 309.27  10.30
  0  4  4 302.67  11.20
  0  4  4 305.47  10.00
  0  4  4 291.57  10.00
 -1 -4 -4 4331.27 135.19
 -1 -4 -4 4407.36 135.39
 -1 -4 -4 4464.75 135.59
 -1 -4 -4 4373.26 135.59
  1  4  4 4361.16 136.69
  1  4  4 4175.28 137.29
  1  4  4 4326.37 136.19
 -2 -4 -4 773.52  25.70
 -2 -4 -4 789.72  25.20
 -2 -4 -4 821.82  26.50
 -2 -4 -4 790.32  25.80
 -2 -4 -4 793.22  25.30
  2  4  4 761.82  27.60
  2  4  4 785.82  27.00
  2  4  4 676.73  44.60
  2  4  4 769.22  25.50
  2  4  4 762.22  33.70
  2  4  4 778.12  25.80
  2  4  4 761.32  29.00
 -3 -4 -4 104.99  7.10
 -3 -4 -4 113.59  5.50
 -3 -4 -4 102.49  5.80
  3  4  4 100.79  5.50
  3  4  4 105.69  8.10
  3  4  4 106.09  5.00
  3  4  4 105.09  10.50
  3  4  4 114.29  8.10
  3  4  4 104.79  18.90
  4  4  4 995.00  30.50
  4  4  4 824.42  32.00
  4  4  4 942.31  30.70
  4  4  4 979.10  35.00
  4  4  4 1072.69  40.30
  4 -5 -4 698.13  24.20
  4 -5 -4 740.73  31.20
  4 -5 -4 707.03  32.80
  4 -5 -4 811.22  30.70
  4 -5 -4 747.83  24.40
 -4  5  4 634.94  23.50
  3 -5 -4 488.25  16.60
  3 -5 -4 463.95  17.30
  3 -5 -4 494.85  20.30
  3 -5 -4 513.25  26.20
  3 -5 -4 457.55  24.80
  3 -5 -4 459.55  26.40
  3 -5 -4 467.65  17.60
  3 -5 -4 450.15  28.30
 -3  5  4 484.75  16.00
 -3  5  4 466.05  16.30
 -3  5  4 479.55  17.10
 -3  5  4 470.95  17.50
  2 -5 -4  8.70  2.50
  2 -5 -4  8.10  3.10
  2 -5 -4  4.50  2.60
  2 -5 -4  8.30  2.50
  2 -5 -4  4.90  2.50
  2 -5 -4  6.00  4.20
  2 -5 -4  5.80  2.10
  2 -5 -4  6.90  8.10
 -2  5  4  5.00  1.60
 -2  5  4  7.10  1.50
 -2  5  4  7.50  1.80
  1 -5 -4 3214.28 105.59
  1 -5 -4 3339.67 107.39
  1 -5 -4 3471.45 108.39
 -1  5  4 3410.06 105.69
 -1  5  4 3427.16 105.99
 -1  5  4 3285.37 104.89
 -1  5  4 3454.55 105.29
 -1  5  4 3354.16 104.99
  0 -5 -4 9391.76 291.47
 -1 -5 -4 945.51  30.60
 -1 -5 -4 956.40  30.90
 -1 -5 -4 958.10  31.90
 -1 -5 -4 963.10  31.20
 -1 -5 -4 964.20  31.10
  1  5  4 927.61  32.10
  1  5  4 976.10  33.20
 -2 -5 -4 2375.36  73.49
 -2 -5 -4 2313.67  73.29
 -2 -5 -4 2301.07  73.69
 -2 -5 -4 2384.36  74.79
 -2 -5 -4 2301.57  73.39
  2  5  4 2065.19  96.29
  2  5  4 2386.66  73.59
  2  5  4 2243.38  73.29
  2  5  4 2283.27  75.99
  2  5  4 2334.57  77.09
  2  5  4 2348.27  75.29
  2  5  4 2589.14  80.19
  2  5  4 2325.57  73.69
  2  5  4 2294.87  81.49
 -3 -5 -4  12.60  2.50
 -3 -5 -4  12.40  3.00
  3  5  4  11.00  2.10
  3  5  4  8.20  1.90
  3  5  4  12.90  4.20
  3  5  4  11.10  9.10
  3  5  4  14.10  5.10
  3  5  4  14.20  5.20
  4 -6 -4 789.62  28.90
  4 -6 -4 725.93  23.00
  4 -6 -4 633.34  30.80
  4 -6 -4 701.53  23.10
 -4  6  4 628.44  22.40
 -4  6  4 643.24  22.40
  3 -6 -4  23.30  10.40
  3 -6 -4  5.10  7.30
  3 -6 -4  6.90  2.50
  3 -6 -4  6.10  2.30
  3 -6 -4  6.70  6.90
  3 -6 -4  5.70  1.80
 -3  6  4  12.00  4.50
 -3  6  4  6.80  2.00
 -3  6  4  6.90  2.00
 -3  6  4  8.00  1.80
  2 -6 -4 699.13  26.20
  2 -6 -4 780.22  27.00
  2 -6 -4 797.72  27.30
  2 -6 -4 803.32  28.50
  2 -6 -4 753.52  35.20
  2 -6 -4 735.83  25.90
  2 -6 -4 713.33  24.90
  2 -6 -4 686.73  39.40
 -2  6  4 727.53  24.70
 -2  6  4 763.42  24.50
 -2  6  4 814.12  25.30
 -2  6  4 787.32  25.70
 -2  6  4 747.53  24.60
 -2  6  4 719.03  25.10
  1 -6 -4 577.64  21.40
  1 -6 -4 541.35  19.40
 -1  6  4 558.34  19.60
 -1  6  4 554.94  18.60
 -1  6  4 566.74  18.50
 -1  6  4 591.94  19.70
 -1  6  4 564.44  18.90
 -1  6  4 579.14  19.20
  0 -6 -4 3765.62 116.49
  0 -6 -4 3907.71 117.99
  0 -6 -4 3685.93 116.59
  0 -6 -4 3683.13 116.29
  0 -6 -4 3840.72 116.69
  0  6  4 3789.32 116.99
  0  6  4 3513.55 115.69
  0  6  4 3662.83 116.39
  0  6  4 3614.64 115.69
  0  6  4 3724.43 116.89
 -1 -6 -4 313.37  11.80
 -1 -6 -4 314.77  12.60
 -1 -6 -4 327.97  11.30
 -1 -6 -4 282.47  12.10
 -1 -6 -4 313.57  11.60
 -1 -6 -4 295.47  11.60
 -1 -6 -4 323.87  11.20
  1  6  4 294.47  13.30
  1  6  4 324.47  12.60
  1  6  4 319.57  12.10
 -2 -6 -4 1046.80  36.20
 -2 -6 -4 1056.59  36.00
 -2 -6 -4 1151.48  36.10
 -2 -6 -4 1098.99  35.80
 -2 -6 -4 1089.69  36.30
  2  6  4 1143.59  35.90
  2  6  4 1084.39  38.40
  2  6  4 997.30  56.59
  2  6  4 1135.19  39.20
  2  6  4 1097.19  36.20
  2  6  4 1144.49  35.70
 -3 -6 -4 1703.03  53.79
 -3 -6 -4 1748.82  53.79
 -3 -6 -4 1735.53  53.99
 -3 -6 -4 1591.74  55.19
  3  6  4 1629.94  56.19
  3  6  4 1739.33  58.69
  3  6  4 1623.14  53.59
  3  6  4 1678.43  53.19
  4 -7 -4 396.06  21.50
  4 -7 -4 495.55  19.80
  4 -7 -4 441.06  15.10
  4 -7 -4 457.85  14.90
 -4  7  4 414.26  14.50
 -4  7  4 435.06  14.80
  3 -7 -4  9.80  2.40
  3 -7 -4  9.30  7.50
  3 -7 -4  10.10  2.80
  3 -7 -4  12.80  6.60
 -3  7  4  6.10  1.90
 -3  7  4  7.50  1.80
  2 -7 -4 1795.82  57.39
  2 -7 -4 1684.53  57.59
  2 -7 -4 1892.91  58.59
  2 -7 -4 1904.51  68.49
  2 -7 -4 1906.01  59.59
  2 -7 -4 1509.65  72.29
 -2  7  4 1803.72  56.89
 -2  7  4 1784.02  57.49
 -2  7  4 1775.62  55.99
 -2  7  4 1749.43  56.09
 -2  7  4 1768.82  56.49
 -2  7  4 1728.83  55.99
 -2  7  4 1741.33  55.99
  1 -7 -4 2284.37  69.19
  1 -7 -4 1966.00  66.19
  1 -7 -4 1940.51  66.19
  1 -7 -4 2200.28  67.79
  1 -7 -4 2005.00  67.29
 -1  7  4 2087.89  66.09
 -1  7  4 2050.69  65.69
 -1  7  4 2137.69  65.19
 -1  7  4 2043.40  65.19
 -1  7  4 2046.70  65.29
 -1  7  4 2098.29  65.69
 -1  7  4 2059.19  66.59
  0 -7 -4 523.45  17.90
  0 -7 -4 493.65  17.60
  0 -7 -4 496.55  18.00
  0 -7 -4 517.55  17.60
  0 -7 -4 491.65  17.60
  0 -7 -4 540.55  17.20
  0 -7 -4 543.75  19.60
  0  7  4 500.25  18.20
  0  7  4 486.35  17.00
  0  7  4 486.05  17.20
  0  7  4 545.25  18.40
  0  7  4 526.95  17.90
 -1 -7 -4  11.10  2.30
 -1 -7 -4  6.50  3.30
 -1 -7 -4  11.20  2.00
 -1 -7 -4  6.20  3.30
 -1 -7 -4  6.00  2.10
 -1 -7 -4  7.10  2.10
  1  7  4  14.00  3.60
  1  7  4  13.10  3.90
  1  7  4  8.50  2.40
  1  7  4  11.20  2.70
  1  7  4  12.70  2.70
  1  7  4  14.50  2.50
 -2 -7 -4 139.09  7.00
 -2 -7 -4 164.78  7.10
 -2 -7 -4 151.58  6.80
 -2 -7 -4 140.39  7.70
 -2 -7 -4 136.89  6.80
 -2 -7 -4 143.09  8.30
  2  7  4 149.29  6.70
  2  7  4 133.19  19.80
  2  7  4 149.69  6.60
  2  7  4 159.08  12.20
  2  7  4 145.39  6.10
  2  7  4 145.09  10.20
  2  7  4 142.59  9.10
 -3 -7 -4 1991.50  62.19
 -3 -7 -4 2091.39  62.69
 -3 -7 -4 1820.12  63.99
  3  7  4 2037.70  61.79
  3  7  4 1754.62  79.49
  3  7  4 2046.40  62.19
  3  7  4 2001.40  64.19
  4 -8 -4 947.11  36.80
  4 -8 -4 947.21  30.50
 -4  8  4 937.01  30.10
 -4  8  4 972.20  30.30
  3 -8 -4 1583.44  70.69
  3 -8 -4 1735.13  56.79
  3 -8 -4 1702.43  56.59
  3 -8 -4 1906.81  67.09
 -3  8  4 1728.93  55.89
 -3  8  4 1816.82  55.79
 -3  8  4 1825.02  55.79
 -3  8  4 1715.53  55.49
 -3  8  4 1836.12  57.49
  2 -8 -4 1051.69  37.60
  2 -8 -4 1050.19  45.10
  2 -8 -4 1058.59  36.30
  2 -8 -4 1092.99  39.80
  2 -8 -4 1021.20  34.90
 -2  8  4 1025.30  33.70
 -2  8  4 1026.40  34.10
 -2  8  4 1037.10  34.60
 -2  8  4 1064.39  35.40
 -2  8  4 1067.99  33.70
 -2  8  4 1003.20  33.50
  1 -8 -4 273.37  12.60
  1 -8 -4 274.77  12.90
  1 -8 -4 250.07  10.70
  1 -8 -4 251.27  10.70
  1 -8 -4 281.57  12.60
 -1  8  4 259.57  9.30
 -1  8  4 258.17  9.80
 -1  8  4 258.87  10.80
 -1  8  4 249.68  13.80
 -1  8  4 261.87  10.00
 -1  8  4 256.17  9.40
 -1  8  4 252.57  9.60
 -1  8  4 253.67  9.20
  0 -8 -4  78.69  5.10
  0 -8 -4  84.29  4.90
  0 -8 -4  85.49  8.80
  0 -8 -4  86.09  5.00
  0 -8 -4  80.19  4.90
  0 -8 -4  86.59  6.30
  0 -8 -4  78.79  4.90
  0  8  4  87.79  4.10
  0  8  4  85.79  5.90
  0  8  4  84.49  5.80
  0  8  4  86.29  5.60
  0  8  4  78.19  5.60
  0  8  4  84.09  5.10
 -1 -8 -4 2053.89  66.19
 -1 -8 -4 2021.90  66.49
 -1 -8 -4 2135.29  66.29
 -1 -8 -4 2098.89  68.39
 -1 -8 -4 2079.39  66.39
 -1 -8 -4 2053.09  66.99
 -1 -8 -4 2065.49  66.69
 -1 -8 -4 2079.49  66.39
  1  8  4 2176.58  66.79
  1  8  4 2121.69  68.29
  1  8  4 2056.39  65.69
  1  8  4 2027.70  69.79
  1  8  4 2121.79  66.09
 -2 -8 -4 2082.09  69.69
 -2 -8 -4 2212.98  68.59
 -2 -8 -4 2147.69  68.59
 -2 -8 -4 2130.09  70.79
  2  8  4 2152.38  67.99
  2  8  4 2073.59  90.79
  2  8  4 2200.28  68.49
  2  8  4 2332.77  74.39
  2  8  4 2140.99  68.49
  2  8  4 2135.89  70.99
 -3 -8 -4  24.40  3.10
 -3 -8 -4  30.20  3.20
 -3 -8 -4  33.10  4.00
  3  8  4  30.50  2.20
  3  8  4  32.50  2.50
  3  8  4  29.90  6.10
  3  8  4  23.90  3.70
  3  8  4  22.80  7.50
  3 -9 -4 966.60  41.30
  3 -9 -4 890.21  45.60
 -3  9  4 866.01  28.30
 -3  9  4 855.11  30.10
 -3  9  4 835.02  28.40
 -3  9  4 846.22  28.30
 -3  9  4 865.41  28.90
 -3  9  4 876.21  28.40
  2 -9 -4  82.49  14.40
  2 -9 -4  84.39  11.60
  2 -9 -4  89.89  12.00
  2 -9 -4  84.19  7.10
  2 -9 -4  85.19  5.50
  2 -9 -4  93.89  10.70
 -2  9  4  93.49  4.30
 -2  9  4  84.69  4.00
 -2  9  4  86.19  4.80
 -2  9  4  80.69  4.30
 -2  9  4  84.29  5.40
 -2  9  4  88.59  4.80
 -2  9  4  86.09  6.50
  1 -9 -4 829.42  29.00
  1 -9 -4 880.61  31.90
  1 -9 -4 886.41  29.10
  1 -9 -4 840.32  29.20
  1 -9 -4 826.62  32.90
  1 -9 -4 901.41  30.00
 -1  9  4 780.02  27.90
 -1  9  4 840.12  29.70
 -1  9  4 842.22  27.70
 -1  9  4 851.21  29.40
 -1  9  4 877.51  27.70
 -1  9  4 845.62  28.40
 -1  9  4 889.41  28.10
  0 -9 -4 1715.33  55.79
  0 -9 -4 1735.53  56.09
  0 -9 -4 1689.23  55.59
  0 -9 -4 1692.43  55.49
  0 -9 -4 1743.53  56.69
  0 -9 -4 1752.22  55.69
  0  9  4 1741.63  58.39
  0  9  4 1682.93  55.79
  0  9  4 1740.33  55.29
  0  9  4 1850.71  56.49
  0  9  4 1780.62  55.29
 -1 -9 -4 872.91  31.00
 -1 -9 -4 895.31  29.00
 -1 -9 -4 840.12  29.10
 -1 -9 -4 831.82  29.20
 -1 -9 -4 863.21  29.10
 -1 -9 -4 829.92  28.40
 -1 -9 -4 830.22  29.30
 -1 -9 -4 878.91  28.50
  1  9  4 821.02  32.40
  1  9  4 871.51  28.20
  1  9  4 849.41  31.00
  1  9  4 900.31  29.00
  1  9  4 850.51  45.80
 -2 -9 -4 401.36  14.30
 -2 -9 -4 396.66  13.80
 -2 -9 -4 392.76  14.20
 -2 -9 -4 381.66  13.80
 -2 -9 -4 370.06  16.00
  2  9  4 367.86  13.50
  2  9  4 367.96  13.00
  2  9  4 358.86  27.80
  2  9  4 380.26  13.50
  2  9  4 423.26  18.40
 -3 -9 -4  6.70  1.60
 -3 -9 -4  6.90  2.50
  3  9  4  7.50  5.10
  3  9  4  8.50  4.50
  3  9  4  8.70  1.60
  3 -10 -4 108.69  5.50
  3 -10 -4 114.39  9.60
  3 -10 -4 113.19  12.40
 -3 10  4 115.39  5.10
 -3 10  4 122.69  5.20
 -3 10  4 122.99  4.70
 -3 10  4 119.99  4.80
 -3 10  4 117.59  5.70
  2 -10 -4 757.12  26.90
  2 -10 -4 684.43  37.40
  2 -10 -4 764.72  34.30
  2 -10 -4 735.63  25.20
 -2 10  4 699.23  24.20
 -2 10  4 728.33  24.00
 -2 10  4 739.03  25.10
 -2 10  4 750.82  24.60
 -2 10  4 762.12  24.50
 -2 10  4 749.03  27.50
 -2 10  4 780.32  24.40
  1 -10 -4 139.69  7.00
  1 -10 -4 150.28  8.50
  1 -10 -4 145.39  10.30
  1 -10 -4 145.69  7.70
  1 -10 -4 141.19  9.50
  1 -10 -4 149.49  9.00
  1 -10 -4 139.39  7.70
 -1 10  4 147.99  6.90
 -1 10  4 146.79  8.20
 -1 10  4 148.39  5.70
 -1 10  4 143.99  6.00
 -1 10  4 148.09  6.30
 -1 10  4 140.29  8.30
 -1 10  4 151.08  6.50
 -1 10  4 140.19  9.20
  0 -10 -4 2500.45  82.29
  0 -10 -4 2544.35  81.99
  0 -10 -4 2677.63  85.09
  0 -10 -4 2583.14  82.39
  0 -10 -4 2655.73  82.39
  0 -10 -4 2603.84  83.49
  0 -10 -4 2488.25  82.99
  0 10  4 2597.14  81.89
  0 10  4 2706.23  82.99
  0 10  4 2654.93  81.89
  0 10  4 2652.73  82.59
  0 10  4 2558.94  85.69
 -1 -10 -4  54.39  3.80
 -1 -10 -4  60.39  4.10
 -1 -10 -4  50.09  3.80
 -1 -10 -4  56.29  4.70
 -1 -10 -4  52.99  6.50
  1 10  4  61.09  4.20
  1 10  4  69.39  4.30
  1 10  4  58.79  13.40
 -2 -10 -4  44.50  3.60
 -2 -10 -4  49.00  3.50
 -2 -10 -4  47.80  6.30
 -2 -10 -4  43.30  6.60
 -2 -10 -4  47.30  3.50
  2 10  4  42.20  2.90
  2 10  4  49.99  6.20
  2 10  4  39.90  10.20
  3 -11 -4  43.10  3.10
  3 -11 -4  41.80  5.40
  3 -11 -4  50.59  7.80
 -3 11  4  44.00  2.70
 -3 11  4  43.40  3.70
 -3 11  4  43.70  3.80
 -3 11  4  46.40  2.30
 -3 11  4  40.60  3.40
  2 -11 -4 794.62  38.50
  2 -11 -4 873.11  29.80
  2 -11 -4 792.82  28.30
  2 -11 -4 906.71  36.60
 -2 11  4 846.82  27.50
 -2 11  4 876.81  27.30
 -2 11  4 839.42  26.90
 -2 11  4 772.22  29.40
 -2 11  4 841.52  27.90
 -2 11  4 860.51  27.40
  1 -11 -4 2335.17  78.09
  1 -11 -4 2468.15  80.39
  1 -11 -4 2563.54  79.29
  1 -11 -4 2491.45  78.39
 -1 11  4 2429.76  78.79
 -1 11  4 2519.05  77.59
 -1 11  4 2480.75  77.69
 -1 11  4 2482.55  76.99
 -1 11  4 2414.36  78.19
  0 -11 -4 486.65  23.10
  0 -11 -4 532.05  21.20
  0 -11 -4 518.75  18.30
  0 11  4 546.35  18.70
  0 11  4 543.65  18.90
  0 11  4 541.35  17.80
 -1 -11 -4 132.89  7.00
 -1 -11 -4 131.69  6.00
 -1 -11 -4 144.39  7.30
 -1 -11 -4 136.09  6.40
 -1 -11 -4 120.19  10.50
 -1 -11 -4 131.89  5.90
 -1 -11 -4 134.49  6.20
  1 11  4 129.59  6.20
  1 11  4 127.99  16.10
  1 11  4 140.99  9.30
 -2 -11 -4  35.70  2.70
 -2 -11 -4  37.10  4.50
 -2 -11 -4  38.70  3.20
 -2 -11 -4  31.00  3.00
 -2 -11 -4  29.70  3.00
 -2 -11 -4  34.30  3.50
  2 11  4  30.80  4.90
  2 11  4  31.90  7.60
  2 11  4  33.10  2.70
  2 -12 -4 196.48  9.20
  2 -12 -4 202.48  15.20
  2 -12 -4 215.78  13.20
 -2 12  4 207.08  8.30
 -2 12  4 204.18  7.50
 -2 12  4 215.38  7.70
 -2 12  4 215.28  7.30
  1 -12 -4 390.36  16.00
  1 -12 -4 401.16  15.10
 -1 12  4 391.06  13.40
 -1 12  4 368.26  14.00
 -1 12  4 382.56  16.30
  0 -12 -4 388.26  17.70
  0 -12 -4 429.46  15.60
  0 -12 -4 397.96  14.70
  0 -12 -4 396.36  14.30
  0 12  4 398.26  14.70
  0 12  4 410.36  14.90
  0 12  4 414.66  29.00
 -1 -12 -4 1185.48  39.50
 -1 -12 -4 1203.98  38.90
 -1 -12 -4 1176.08  38.40
 -1 -12 -4 1221.08  38.40
 -1 -12 -4 1191.68  38.70
  1 12  4 1166.38  50.79
  1 12  4 1243.98  42.10
  1 12  4 1199.28  38.70
  2 -13 -4 221.18  13.70
  2 -13 -4 226.68  12.30
  2 -13 -4 221.98  9.20
 -2 13  4 227.38  8.00
 -2 13  4 246.78  8.10
 -2 13  4 232.98  8.70
 -2 13  4 236.58  7.60
  1 -13 -4 1471.95  48.90
  1 -13 -4 1701.83  52.69
  1 -13 -4 1511.45  50.69
 -1 13  4 1557.44  48.70
 -1 13  4 1506.05  49.50
 -1 13  4 1499.75  49.30
  0 -13 -4  79.69  5.30
  0 -13 -4  75.09  4.30
  0 -13 -4  83.19  6.40
  0 -13 -4  84.29  4.30
  0 13  4  83.09  4.30
 -1 -13 -4 444.66  15.50
 -1 -13 -4 442.36  14.70
 -1 -13 -4 450.75  14.30
 -1 -13 -4 447.46  14.90
  1 13  4 452.25  17.20
  1 13  4 378.36  29.20
  1 13  4 433.86  14.60
  1 -14 -4 663.33  27.00
  1 -14 -4 706.53  28.10
  1 -14 -4 686.63  23.50
 -1 14  4 703.33  21.80
 -1 14  4 696.43  22.50
 -1 14  4 653.83  22.60
  0 -14 -4 1210.98  37.70
  0 -14 -4 1170.98  38.20
  0 -14 -4 1144.49  38.80
  0 14  4 1212.28  39.80
  0 14  4 1160.18  37.70
  0 15 -5 1871.11  64.09
  0 15 -5 1818.62  59.19
  0 -15  5 1934.01  59.49
  0 -15  5 1871.61  58.79
  1 -15  5  6.90  3.50
  1 -15  5  9.70  2.20
  1 -15  5  8.60  2.20
  1 14 -5 1004.10  32.70
  1 14 -5 1028.10  32.90
  1 14 -5 1027.80  35.60
  1 14 -5 1049.99  39.00
 -1 -14  5 975.00  33.50
 -1 -14  5 1035.60  32.60
 -1 -14  5 1036.10  33.40
  0 14 -5  2.50  1.30
  0 -14  5  5.80  2.50
  0 -14  5  3.90  1.80
  0 -14  5  1.90  1.80
  0 -14  5  3.30  1.50
 -1 14 -5 419.36  14.20
 -1 14 -5 421.66  15.20
 -1 14 -5 432.46  14.90
  1 -14  5 443.56  15.20
  1 -14  5 419.16  16.20
  1 -14  5 450.95  14.70
 -2 14 -5 593.64  19.00
 -2 14 -5 572.74  19.40
 -2 14 -5 606.04  19.00
  2 -14  5 572.94  20.20
  2 -14  5 606.24  22.70
  2 13 -5 445.26  19.30
  2 13 -5 412.96  16.10
 -2 -13  5 452.95  14.40
 -2 -13  5 431.46  14.80
 -2 -13  5 403.46  14.90
  1 13 -5 686.43  34.80
  1 13 -5 604.24  23.20
  1 13 -5 602.84  20.40
 -1 -13  5 618.64  21.10
 -1 -13  5 605.94  21.30
 -1 -13  5 544.05  26.40
 -1 -13  5 613.14  20.80
 -1 -13  5 600.64  20.40
 -1 -13  5 605.14  21.10
  0 13 -5 521.25  18.10
  0 -13  5 509.15  17.10
  0 -13  5 458.25  23.90
  0 -13  5 508.25  18.80
  0 -13  5 525.25  18.40
  0 -13  5 545.45  18.00
 -1 13 -5 1542.05  51.29
 -1 13 -5 1542.35  49.99
 -1 13 -5 1555.04  50.59
  1 -13  5 1555.34  51.29
  1 -13  5 1617.34  52.69
  1 -13  5 1678.93  50.69
 -2 13 -5 1454.35  45.30
 -2 13 -5 1431.76  45.60
 -2 13 -5 1415.26  45.70
 -2 13 -5 1405.06  46.10
  2 -13  5 1482.75  53.09
  2 -13  5 1520.85  51.59
  2 -13  5 1430.06  47.40
  2 12 -5 110.49  9.50
  2 12 -5 107.29  4.60
  2 12 -5 111.49  5.70
  2 12 -5 110.09  7.50
 -2 -12  5 110.69  5.80
 -2 -12  5 115.79  5.10
 -2 -12  5 107.29  5.70
 -2 -12  5 113.89  5.50
  1 12 -5 1437.76  45.80
  1 12 -5 1436.66  54.89
  1 12 -5 1398.46  48.90
 -1 -12  5 1412.16  46.60
 -1 -12  5 1463.95  46.20
 -1 -12  5 1405.56  48.90
 -1 -12  5 1439.16  46.20
 -1 -12  5 1378.26  45.50
 -1 -12  5 1424.66  46.40
  0 12 -5 1148.59  37.60
  0 12 -5 1134.99  37.30
  0 -12  5 1157.38  36.80
  0 -12  5 1108.59  39.80
  0 -12  5 1186.98  38.00
  0 -12  5 1111.49  38.30
 -1 12 -5 945.41  31.30
 -1 12 -5 912.71  30.50
 -1 12 -5 925.11  30.00
 -1 12 -5 922.01  29.80
  1 -12  5 922.91  32.70
  1 -12  5 939.11  30.60
  1 -12  5 924.61  31.20
 -2 12 -5 2551.84  79.49
 -2 12 -5 2406.36  79.99
 -2 12 -5 2610.84  79.39
 -2 12 -5 2531.15  79.99
  2 -12  5 2613.64  88.99
  2 -12  5 2484.35  82.29
 -3 12 -5  93.69  3.70
 -3 12 -5  92.09  3.50
 -3 12 -5  88.39  3.60
 -3 12 -5  85.09  5.00
 -3 12 -5  84.19  4.30
  3 -12  5  97.49  4.60
  3 -12  5  78.89  6.90
  3 -12  5  82.49  4.30
  3 -12  5  98.89  7.00
  2 11 -5  22.00  7.90
  2 11 -5  25.20  6.00
 -2 -11  5  26.80  3.70
 -2 -11  5  29.40  3.40
 -2 -11  5  18.90  3.30
 -2 -11  5  22.30  5.00
 -2 -11  5  25.60  3.40
  1 11 -5 174.18  7.60
  1 11 -5 167.68  14.10
  1 11 -5 170.68  7.10
  1 11 -5 169.48  10.70
 -1 -11  5 175.78  7.90
 -1 -11  5 182.18  8.50
 -1 -11  5 179.98  9.70
 -1 -11  5 189.58  8.40
 -1 -11  5 174.08  7.30
 -1 -11  5 181.48  8.00
  0 11 -5 4073.89 128.19
  0 11 -5 4294.97 129.49
  0 11 -5 4064.19 129.09
  0 11 -5 3958.60 130.29
  0 -11  5 3688.43 131.69
  0 -11  5 4244.88 130.19
  0 -11  5 4068.79 129.99
  0 -11  5 4385.46 129.79
  0 -11  5 4306.47 129.39
  0 -11  5 3962.20 128.59
  0 -11  5 4187.08 131.59
  0 -11  5 4143.99 129.29
 -1 11 -5  47.30  3.50
 -1 11 -5  57.59  3.00
 -1 11 -5  51.29  6.40
 -1 11 -5  46.10  4.70
 -1 11 -5  47.80  3.20
  1 -11  5  50.29  5.10
  1 -11  5  54.09  6.20
  1 -11  5  56.99  4.30
  1 -11  5  57.29  8.30
  1 -11  5  47.10  9.30
 -2 11 -5  54.29  3.40
 -2 11 -5  63.49  3.50
 -2 11 -5  55.09  3.60
 -2 11 -5  61.99  4.20
 -2 11 -5  59.49  3.00
  2 -11  5  59.79  5.60
  2 -11  5  55.19  10.10
 -3 11 -5  4.80  2.10
 -3 11 -5  6.30  1.10
  3 -11  5  4.80  2.10
  3 -11  5  5.70  3.80
  3 -11  5  5.20  3.60
  3 -11  5  8.90  2.00
  3 10 -5 155.08  8.50
  3 10 -5 153.08  10.60
  3 10 -5 147.29  11.60
  3 10 -5 152.48  5.70
 -3 -10  5 140.39  7.00
 -3 -10  5 150.58  6.90
 -3 -10  5 178.28  8.00
  2 10 -5 2535.35  85.19
  2 10 -5 2497.15  92.89
  2 10 -5 2556.84  80.79
  2 10 -5 2585.24  81.99
 -2 -10  5 2515.45  81.79
 -2 -10  5 2541.95  81.29
 -2 -10  5 2681.93  84.09
 -2 -10  5 2650.14  81.79
 -2 -10  5 2627.84  81.79
  1 10 -5 1709.73  53.29
  1 10 -5 1606.44  56.29
  1 10 -5 1634.44  52.49
  1 10 -5 1617.94  62.99
  1 10 -5 1643.84  56.79
 -1 -10  5 1746.13  56.09
 -1 -10  5 1591.34  53.99
 -1 -10  5 1626.04  53.49
 -1 -10  5 1722.13  53.89
 -1 -10  5 1731.93  53.59
 -1 -10  5 1653.93  53.99
 -1 -10  5 1643.94  52.99
  0 10 -5 399.26  14.00
  0 10 -5 406.96  14.60
  0 10 -5 407.46  15.60
  0 10 -5 419.56  15.00
  0 10 -5 389.16  18.90
  0 -10  5 387.76  18.40
  0 -10  5 405.96  15.40
  0 -10  5 427.26  15.50
  0 -10  5 401.56  16.90
  0 -10  5 407.76  14.30
  0 -10  5 415.46  14.90
  0 -10  5 405.26  14.80
  0 -10  5 409.66  15.40
  0 -10  5 407.46  18.80
 -1 10 -5  88.39  4.50
 -1 10 -5  87.79  6.00
 -1 10 -5  75.09  4.20
 -1 10 -5  77.49  4.40
 -1 10 -5  79.69  3.80
  1 -10  5  85.99  5.30
  1 -10  5  78.89  6.20
  1 -10  5  74.79  7.20
  1 -10  5  81.09  7.10
  1 -10  5  76.09  5.30
  1 -10  5  92.89  8.40
  1 -10  5  74.19  7.60
 -2 10 -5 553.44  19.10
 -2 10 -5 571.24  18.90
 -2 10 -5 553.14  20.80
 -2 10 -5 566.44  18.60
 -2 10 -5 564.24  19.00
 -2 10 -5 572.14  19.00
  2 -10  5 551.14  28.00
  2 -10  5 576.74  21.20
 -3 10 -5 2063.59  65.49
 -3 10 -5 2052.99  65.49
 -3 10 -5 2006.80  65.39
 -3 10 -5 2124.49  65.29
 -3 10 -5 2068.59  65.19
  3 -10  5 1972.70  71.79
  3 -10  5 2141.19  66.49
  3 -10  5 2189.38  73.59
  3 -10  5 2090.19  66.19
  3  9 -5 1944.91  71.99
  3  9 -5 1965.50  61.39
  3  9 -5 1944.51  65.09
  3  9 -5 2076.19  62.09
  3  9 -5 1890.11  70.99
 -3 -9  5 1928.41  61.89
 -3 -9  5 1930.81  61.99
  2  9 -5 1010.80  37.20
  2  9 -5 890.11  34.20
  2  9 -5 942.11  29.90
  2  9 -5 828.12  41.00
  2  9 -5 938.81  39.80
  2  9 -5 883.41  43.00
  2  9 -5 894.81  31.20
 -2 -9  5 956.00  30.70
 -2 -9  5 892.01  30.70
 -2 -9  5 930.71  32.60
 -2 -9  5 1018.80  35.00
 -2 -9  5 893.41  30.40
  1  9 -5 728.73  35.10
  1  9 -5 709.73  23.40
  1  9 -5 669.73  25.70
  1  9 -5 708.03  25.00
  1  9 -5 678.13  26.90
  1  9 -5 646.34  31.90
  1  9 -5 677.63  22.70
 -1 -9  5 695.53  24.00
 -1 -9  5 686.73  23.20
 -1 -9  5 695.93  24.00
 -1 -9  5 695.43  23.50
 -1 -9  5 673.93  23.50
 -1 -9  5 729.23  25.50
 -1 -9  5 687.53  23.90
  0  9 -5 193.38  8.00
  0  9 -5 190.98  9.20
  0  9 -5 199.18  8.40
  0  9 -5 200.28  10.60
  0  9 -5 197.38  8.50
  0  9 -5 187.28  7.50
  0 -9  5 195.18  8.40
  0 -9  5 187.78  9.00
  0 -9  5 190.28  7.70
  0 -9  5 189.68  8.10
  0 -9  5 180.08  11.40
  0 -9  5 195.48  8.00
  0 -9  5 197.98  8.60
  0 -9  5 189.18  8.90
 -1  9 -5 4262.17 138.39
 -1  9 -5 4527.95 139.79
 -1  9 -5 4388.16 138.49
 -1  9 -5 4440.56 138.19
 -1  9 -5 4309.97 139.69
 -1  9 -5 4382.96 138.49
 -1  9 -5 4375.06 138.79
  1 -9  5 4624.24 141.19
  1 -9  5 4194.48 139.99
  1 -9  5 4455.75 140.09
  1 -9  5 4401.16 138.39
  1 -9  5 4319.77 139.09
  1 -9  5 4564.84 139.69
  1 -9  5 4804.02 143.49
  1 -9  5 4685.53 141.89
  1 -9  5 4378.16 140.19
 -2  9 -5 1352.76  44.90
 -2  9 -5 1381.76  43.40
 -2  9 -5 1350.86  45.00
 -2  9 -5 1400.56  43.40
 -2  9 -5 1409.36  43.70
 -2  9 -5 1363.26  43.10
 -2  9 -5 1315.27  43.60
 -2  9 -5 1366.56  43.40
  2 -9  5 1423.06  44.50
  2 -9  5 1350.76  49.70
  2 -9  5 1305.27  53.29
  2 -9  5 1394.26  45.70
  2 -9  5 1235.18  47.00
 -3  9 -5 308.97  12.90
 -3  9 -5 338.67  11.30
 -3  9 -5 332.67  11.30
 -3  9 -5 315.97  11.10
 -3  9 -5 308.37  11.20
 -3  9 -5 332.47  11.50
  3 -9  5 331.27  11.70
  3 -9  5 305.17  12.30
  3 -9  5 283.57  17.10
  3 -9  5 310.97  18.50
  3  8 -5 1809.42  62.09
  3  8 -5 1682.13  53.19
  3  8 -5 1644.04  57.19
  3  8 -5 1764.02  54.29
  3  8 -5 1525.85  64.29
 -3 -8  5 1594.84  54.99
 -3 -8  5 1751.72  53.99
  2  8 -5 267.47  13.90
  2  8 -5 256.67  21.40
  2  8 -5 275.47  9.80
  2  8 -5 247.98  11.20
  2  8 -5 252.47  11.50
  2  8 -5 254.77  13.30
  2  8 -5 270.87  12.20
  2  8 -5 246.38  19.60
  2  8 -5 285.07  21.00
 -2 -8  5 263.47  10.50
 -2 -8  5 278.17  10.40
 -2 -8  5 284.97  11.80
 -2 -8  5 269.17  11.60
  1  8 -5 827.52  32.50
  1  8 -5 857.01  28.40
  1  8 -5 877.71  31.10
  1  8 -5 970.00  34.10
  1  8 -5 911.41  41.70
  1  8 -5 911.51  29.10
  1  8 -5 877.61  29.70
 -1 -8  5 863.21  29.60
 -1 -8  5 847.22  29.00
 -1 -8  5 893.51  29.00
 -1 -8  5 906.31  30.80
 -1 -8  5 859.71  29.30
 -1 -8  5 873.71  29.10
 -1 -8  5 822.42  29.40
  0  8 -5 585.24  20.50
  0  8 -5 612.44  20.90
  0  8 -5 614.34  20.90
  0  8 -5 621.44  21.70
  0 -8  5 609.14  21.20
  0 -8  5 578.94  25.00
  0 -8  5 593.64  20.30
  0 -8  5 614.24  20.60
  0 -8  5 624.14  22.50
  0 -8  5 616.14  21.40
  0 -8  5 613.24  21.20
  0 -8  5 619.54  20.80
  0 -8  5 603.54  20.70
 -1  8 -5 486.55  17.80
 -1  8 -5 504.35  16.50
 -1  8 -5 495.65  18.10
 -1  8 -5 502.75  16.40
 -1  8 -5 494.95  16.60
 -1  8 -5 501.65  17.00
 -1  8 -5 510.85  16.60
 -1  8 -5 497.15  16.30
 -1  8 -5 519.45  17.50
  1 -8  5 493.55  17.90
  1 -8  5 490.65  17.80
  1 -8  5 463.35  16.70
  1 -8  5 478.35  17.90
  1 -8  5 494.15  17.70
  1 -8  5 490.85  19.50
  1 -8  5 473.85  17.20
  1 -8  5 517.95  19.00
 -2  8 -5 1890.21  58.79
 -2  8 -5 1897.11  60.59
 -2  8 -5 1816.32  59.09
 -2  8 -5 1918.81  59.09
 -2  8 -5 1891.41  58.99
 -2  8 -5 1937.61  59.29
 -2  8 -5 1898.41  60.19
  2 -8  5 1941.21  61.29
  2 -8  5 1846.32  62.59
  2 -8  5 1752.32  61.09
  2 -8  5 1742.23  61.89
  2 -8  5 1843.12  64.39
 -3  8 -5  4.80  2.30
 -3  8 -5  4.20  3.10
 -3  8 -5  6.80  1.50
 -3  8 -5  1.20  1.50
 -3  8 -5  5.10  1.60
  3 -8  5  3.20  2.40
  3 -8  5  9.70  3.00
  3 -8  5  1.80  1.70
  3 -8  5  5.80  5.80
  3 -8  5  0.20  7.90
  3 -8  5  1.80  4.60
  3  7 -5  6.50  3.00
  3  7 -5  4.80  2.40
  3  7 -5  7.60  3.80
  3  7 -5  7.30  1.40
  3  7 -5  6.00  5.50
  3  7 -5  5.50  5.80
  3  7 -5  4.90  5.30
 -3 -7  5  5.80  3.10
 -3 -7  5  11.20  2.80
  2  7 -5  11.30  7.70
  2  7 -5  9.60  3.20
  2  7 -5  9.80  4.90
  2  7 -5  8.00  3.30
  2  7 -5  6.50  1.80
  2  7 -5  5.80  6.10
  2  7 -5  11.10  2.30
  2  7 -5  6.60  2.80
  2  7 -5  11.00  8.10
 -2 -7  5  11.30  2.90
 -2 -7  5  11.40  2.80
 -2 -7  5  9.20  2.70
 -2 -7  5  9.90  2.10
  1  7 -5 257.07  12.90
  1  7 -5 251.57  9.60
  1  7 -5 233.68  10.30
  1  7 -5 228.48  9.40
 -1 -7  5 219.88  9.00
 -1 -7  5 223.28  8.70
 -1 -7  5 224.38  10.00
 -1 -7  5 224.58  9.80
 -1 -7  5 232.58  9.10
  0  7 -5 3588.34 113.69
  0  7 -5 3797.82 114.49
  0 -7  5 3678.63 113.89
  0 -7  5 3549.54 113.29
  0 -7  5 3736.23 115.19
  0 -7  5 3629.24 114.09
  0 -7  5 3561.64 113.49
  0 -7  5 3589.74 117.09
  0 -7  5 3465.55 113.39
 -1  7 -5 2138.69  67.59
 -1  7 -5 2130.19  67.49
 -1  7 -5 2117.69  67.29
 -1  7 -5 2209.08  68.19
 -1  7 -5 2243.38  67.99
 -1  7 -5 2132.49  67.49
 -1  7 -5 2140.29  67.29
 -1  7 -5 2140.89  68.69
  1 -7  5 2098.79  70.19
  1 -7  5 2178.68  68.39
  1 -7  5 2054.69  68.19
  1 -7  5 2215.78  69.59
 -2  7 -5 242.98  9.30
 -2  7 -5 249.68  10.10
 -2  7 -5 241.48  8.90
 -2  7 -5 237.78  10.30
 -2  7 -5 243.88  8.80
 -2  7 -5 242.98  9.10
 -2  7 -5 244.88  9.00
 -2  7 -5 247.28  9.10
  2 -7  5 247.38  13.20
  2 -7  5 226.48  11.20
  2 -7  5 234.28  11.60
  2 -7  5 243.48  17.80
  2 -7  5 244.78  11.10
 -3  7 -5  72.49  3.90
 -3  7 -5  74.09  4.00
 -3  7 -5  69.49  3.70
 -3  7 -5  74.39  5.00
 -3  7 -5  72.89  4.20
  3 -7  5  67.39  5.30
  3 -7  5  68.69  9.70
  3 -7  5  78.99  12.10
  3 -7  5  75.19  5.60
  3 -7  5  74.19  3.90
  3 -7  5  64.39  9.90
 -4  7 -5 110.39  4.90
 -4  7 -5 118.59  4.90
 -4  7 -5 118.09  5.30
  4 -7  5 119.29  5.30
  4 -7  5 116.09  9.80
  4 -7  5 118.29  8.00
  4  6 -5  95.49  8.80
  4  6 -5 102.29  3.90
  4  6 -5  81.09  7.70
  4  6 -5 102.29  8.70
  4  6 -5  95.99  6.20
  3  6 -5  7.90  5.40
  3  6 -5  9.60  1.60
  3  6 -5  9.10  3.10
  3  6 -5  9.70  3.20
  3  6 -5  14.00  4.50
  3  6 -5  14.40  6.90
  3  6 -5  12.70  2.10
 -3 -6  5  8.30  3.60
  2  6 -5 5213.48 155.18
  2  6 -5 4635.94 147.69
  2  6 -5 4655.43 159.68
  2  6 -5 4744.93 148.99
  2  6 -5 4783.02 164.38
  2  6 -5 4754.92 152.28
  2  6 -5 5137.69 164.48
  2  6 -5 4441.16 152.68
  2  6 -5 4581.34 149.79
  2  6 -5 4693.13 147.89
 -2 -6  5 4588.84 147.99
 -2 -6  5 4839.92 149.59
 -2 -6  5 4662.93 148.59
  1  6 -5 873.41  33.70
  1  6 -5 925.81  30.90
  1  6 -5 915.91  29.90
 -1 -6  5 893.61  33.30
 -1 -6  5 898.61  30.40
 -1 -6  5 929.91  29.40
 -1 -6  5 892.51  29.10
 -1 -6  5 871.71  29.40
  0  6 -5 2048.59  64.39
  0  6 -5 2000.00  63.89
  0 -6  5 2025.40  63.99
  0 -6  5 1967.40  63.69
  0 -6  5 2041.10  66.69
  0 -6  5 1941.21  63.69
  0 -6  5 2105.09  65.19
  0 -6  5 2004.30  64.19
  0 -6  5 2022.70  63.69
 -1  6 -5 144.29  6.10
 -1  6 -5 127.39  5.00
 -1  6 -5 132.19  5.60
 -1  6 -5 129.39  5.10
 -1  6 -5 123.79  5.30
  1 -6  5 132.49  6.30
  1 -6  5 136.89  7.00
  1 -6  5 141.59  6.00
  1 -6  5 125.99  6.40
 -2  6 -5  68.09  4.30
 -2  6 -5  76.39  3.80
 -2  6 -5  74.99  4.20
 -2  6 -5  74.79  4.70
 -2  6 -5  67.39  4.50
 -2  6 -5  69.09  3.80
 -2  6 -5  67.19  3.70
 -2  6 -5  71.99  3.50
  2 -6  5  77.89  5.90
  2 -6  5  68.19  5.60
  2 -6  5  86.59  13.00
  2 -6  5  64.49  4.60
  2 -6  5  82.39  6.90
  2 -6  5  67.69  6.40
 -3  6 -5 2012.50  61.49
 -3  6 -5 1913.61  61.79
 -3  6 -5 1971.60  61.29
 -3  6 -5 1983.00  61.29
 -3  6 -5 1991.80  62.99
  3 -6  5 1893.81  61.39
  3 -6  5 1861.21  62.69
  3 -6  5 1802.52  69.79
  3 -6  5 1864.01  69.59
  3 -6  5 2157.78  74.79
  3 -6  5 1912.41  62.19
 -4  6 -5 577.34  19.10
 -4  6 -5 582.94  19.40
  4 -6  5 576.54  23.30
  4 -6  5 581.24  19.10
  4 -6  5 566.94  19.70
  4 -6  5 568.94  22.40
  4 -6  5 676.63  27.00
  4  5 -5 1789.72  66.59
  4  5 -5 1617.24  62.99
  4  5 -5 2003.00  63.59
  4  5 -5 1723.63  59.09
  4  5 -5 1800.52  55.99
  3  5 -5 583.54  31.20
  3  5 -5 575.54  24.80
  3  5 -5 574.34  32.50
  3  5 -5 561.54  20.80
  3  5 -5 543.95  22.80
  3  5 -5 558.74  18.60
  3  5 -5 543.25  20.10
  3  5 -5 536.15  18.40
  3  5 -5 542.75  29.20
  3  5 -5 574.24  28.60
 -3 -5  5 515.65  19.50
  2  5 -5 1492.05  59.09
  2  5 -5 1523.35  54.99
  2  5 -5 1580.04  61.79
  2  5 -5 1500.25  50.99
  2  5 -5 1561.64  51.99
  2  5 -5 1528.35  63.69
  2  5 -5 1563.64  50.59
  2  5 -5 1511.45  49.99
  2  5 -5 1512.45  49.00
  2  5 -5 1530.75  53.19
  2  5 -5 1479.35  48.90
  2  5 -5 1695.53  55.89
  2  5 -5 1591.44  64.69
 -2 -5  5 1557.64  49.50
 -2 -5  5 1552.54  49.00
  1  5 -5 1269.87  41.40
  1  5 -5 1328.97  42.40
  1  5 -5 1182.28  45.00
 -1 -5  5 1292.37  44.40
 -1 -5  5 1295.47  40.90
 -1 -5  5 1310.37  41.90
 -1 -5  5 1300.97  40.90
  0  5 -5 323.37  10.60
  0  5 -5 298.07  11.80
  0  5 -5 316.67  11.70
  0  5 -5 329.37  11.50
  0 -5  5 336.57  12.40
  0 -5  5 352.76  11.40
  0 -5  5 339.77  11.40
  0 -5  5 329.37  16.10
  0 -5  5 324.97  11.40
 -1  5 -5 3628.34 111.49
 -1  5 -5 3627.34 111.69
 -1  5 -5 3637.94 112.09
 -1  5 -5 3554.84 111.59
 -1  5 -5 3599.54 112.59
  1 -5  5 3576.94 112.09
  1 -5  5 3563.14 113.69
  1 -5  5 3640.14 113.09
  1 -5  5 3491.35 112.29
  1 -5  5 3542.65 114.99
 -2  5 -5 176.48  6.90
 -2  5 -5 177.98  7.00
 -2  5 -5 178.78  6.70
 -2  5 -5 181.88  7.70
 -2  5 -5 187.08  6.90
 -2  5 -5 185.28  7.50
 -2  5 -5 184.58  7.30
  2 -5  5 185.58  9.70
  2 -5  5 182.78  9.20
  2 -5  5 179.18  8.90
  2 -5  5 179.88  8.20
  2 -5  5 164.58  7.30
  2 -5  5 171.48  17.20
 -3  5 -5 617.24  21.20
 -3  5 -5 631.24  21.10
 -3  5 -5 637.74  21.40
 -3  5 -5 675.33  21.30
 -3  5 -5 655.43  22.60
  3 -5  5 613.34  22.40
  3 -5  5 631.14  22.10
  3 -5  5 613.84  21.30
  3 -5  5 675.33  34.00
  3 -5  5 638.84  29.00
 -4  5 -5  37.10  2.80
 -4  5 -5  29.30  3.30
 -4  5 -5  34.00  2.80
  4 -5  5  31.60  3.20
  4 -5  5  36.60  5.50
  4 -5  5  36.10  6.20
  4 -5  5  34.70  2.30
  4  4 -5  53.19  5.40
  4  4 -5  50.99  7.30
  4  4 -5  52.59  3.10
  4  4 -5  65.09  7.70
  4  4 -5  53.99  5.50
  4  4 -5  61.69  8.70
  4  4 -5  54.09  7.90
  3  4 -5 1768.62  67.39
  3  4 -5 1774.22  62.19
  3  4 -5 1719.13  59.69
  3  4 -5 1701.43  56.49
  3  4 -5 1719.23  55.29
  3  4 -5 1766.42  63.29
  3  4 -5 1823.32  72.59
  3  4 -5 1730.23  59.59
  3  4 -5 1712.93  57.59
  3  4 -5 1833.42  63.99
  3  4 -5 1690.53  66.29
  3  4 -5 1747.63  70.29
  3  4 -5 1722.63  59.79
  3  4 -5 1736.93  55.89
  2  4 -5 4569.64 143.19
  2  4 -5 4455.15 141.69
  2  4 -5 4506.75 141.09
  2  4 -5 4801.42 147.59
  2  4 -5 4381.46 143.99
  2  4 -5 4581.64 156.48
  2  4 -5 4434.56 144.09
  2  4 -5 4547.65 150.18
  2  4 -5 4900.01 159.68
  2  4 -5 4623.74 156.08
  2  4 -5 4330.97 142.19
  2  4 -5 4436.16 140.29
 -2 -4  5 4333.97 140.09
 -2 -4  5 4451.75 140.49
 -2 -4  5 4239.68 141.79
 -2 -4  5 4503.05 141.19
  1  4 -5 358.36  13.40
  1  4 -5 352.06  12.60
 -1 -4  5 374.46  12.30
 -1 -4  5 350.76  14.90
 -1 -4  5 348.97  12.10
 -1 -4  5 371.06  13.00
  0  4 -5 1898.51  63.49
  0  4 -5 2001.70  62.39
  0  4 -5 2038.50  63.39
  0  4 -5 2022.70  63.29
  0 -4  5 1929.31  62.89
  0 -4  5 2024.10  62.99
  0 -4  5 2079.89  62.89
  0 -4  5 2080.39  63.99
  0 -4  5 1968.40  65.29
 -1  4 -5 2193.48  67.09
 -1  4 -5 2086.19  69.19
 -1  4 -5 2148.78  67.49
 -1  4 -5 2145.79  66.59
 -1  4 -5 2166.28  66.69
  1 -4  5 2173.48  67.99
  1 -4  5 2020.60  67.19
  1 -4  5 2070.29  69.59
  1 -4  5 2267.17  67.59
  1 -4  5 2088.59  66.89
  1 -4  5 2112.79  68.39
 -2  4 -5 2344.87  67.99
 -2  4 -5 2147.59  67.29
 -2  4 -5 2042.50  67.69
 -2  4 -5 2112.89  66.99
 -2  4 -5 2122.09  66.79
  2 -4  5 1947.41  73.29
  2 -4  5 2158.18  69.39
  2 -4  5 2133.59  69.99
  2 -4  5 2114.99  67.79
  2 -4  5 2215.88  68.59
  2 -4  5 2098.59  67.19
 -3  4 -5 939.81  30.10
 -3  4 -5 900.41  28.60
 -3  4 -5 869.11  29.20
 -3  4 -5 942.01  28.70
 -3  4 -5 912.61  28.80
 -3  4 -5 874.31  28.70
  3 -4  5 820.22  35.30
  3 -4  5 838.02  33.60
  3 -4  5 883.21  28.80
  3 -4  5 873.21  41.70
  3 -4  5 823.42  32.40
  3 -4  5 901.31  36.90
  3 -4  5 861.61  29.70
 -4  4 -5 222.88  8.30
 -4  4 -5 215.88  8.40
 -4  4 -5 226.78  8.30
  4 -4  5 216.88  11.40
  4 -4  5 226.68  11.70
  4 -4  5 221.18  8.10
  4 -4  5 229.28  8.70
  4 -4  5 239.18  14.20
  4  3 -5 2249.57  71.39
  4  3 -5 2266.07  83.99
  4  3 -5 2214.28  79.89
  4  3 -5 2390.96  83.19
  4  3 -5 2370.46  80.89
  4  3 -5 2225.38  75.19
  4  3 -5 2306.57  72.19
  4  3 -5 2279.17  72.09
  3  3 -5 141.39  14.30
  3  3 -5 142.99  16.50
  3  3 -5 138.39  9.60
  3  3 -5 148.69  7.10
  3  3 -5 146.79  8.00
  3  3 -5 140.39  13.60
  3  3 -5 141.59  7.60
  3  3 -5 143.09  6.00
  3  3 -5 141.69  15.80
  3  3 -5 140.89  9.40
  3  3 -5 139.29  10.80
  3  3 -5 143.39  9.30
  3  3 -5 144.89  12.30
  3  3 -5 144.29  14.70
  3  3 -5 145.09  12.60
  2  3 -5 965.40  33.10
  2  3 -5 1000.20  36.90
  2  3 -5 993.60  31.40
 -2 -3  5 962.90  30.80
 -2 -3  5 904.11  35.10
 -2 -3  5 902.31  30.60
 -2 -3  5 948.81  32.10
 -2 -3  5 979.00  31.30
  1  3 -5 1559.04  57.59
  1  3 -5 1777.92  55.49
 -1 -3  5 1701.13  54.09
 -1 -3  5 1737.83  54.89
 -1 -3  5 1878.81  59.49
 -1 -3  5 1692.33  54.09
  0  3 -5 4965.10 152.88
  0  3 -5 4710.13 150.58
 -1  3 -5 7502.05 240.88
  1 -3  5 7352.56 241.28
  1 -3  5 8205.28 238.68
 -2  3 -5  8.50  1.60
 -2  3 -5  10.70  2.10
 -2  3 -5  9.60  1.50
 -2  3 -5  8.30  2.00
 -2  3 -5  12.10  2.80
  2 -3  5  12.40  3.30
  2 -3  5  10.00  3.00
  2 -3  5  7.40  3.40
  2 -3  5  7.70  2.50
  2 -3  5  14.00  2.10
  2 -3  5  9.00  4.90
 -3  3 -5  18.70  2.30
 -3  3 -5  16.80  2.80
 -3  3 -5  22.20  4.40
 -3  3 -5  18.80  2.80
 -3  3 -5  14.30  2.30
  3 -3  5  23.00  2.50
  3 -3  5  17.60  8.80
  3 -3  5  21.10  5.70
  3 -3  5  16.20  7.80
  3 -3  5  12.80  7.20
  3 -3  5  17.00  5.90
  3 -3  5  15.60  6.00
  3 -3  5  16.80  2.70
 -4  3 -5 627.84  20.80
 -4  3 -5 627.04  21.40
 -4  3 -5 613.24  20.70
 -4  3 -5 642.34  20.70
  4 -3  5 624.54  24.20
  4 -3  5 643.64  20.60
  4 -3  5 631.54  24.30
  4 -3  5 598.24  27.70
  4 -3  5 658.03  21.10
  4  2 -5 185.18  14.20
  4  2 -5 178.88  9.80
  4  2 -5 172.08  11.40
  4  2 -5 174.48  11.00
  4  2 -5 170.78  12.30
  4  2 -5 169.28  14.30
  4  2 -5 180.58  15.20
  4  2 -5 173.08  7.80
  4  2 -5 175.08  7.10
  3  2 -5  7.90  6.10
  3  2 -5  15.10  5.20
  3  2 -5  13.40  7.20
  3  2 -5  25.00  4.50
  3  2 -5  13.60  6.10
  3  2 -5  19.00  9.30
  3  2 -5  16.50  7.90
  3  2 -5  14.90  2.70
  3  2 -5  13.00  7.30
  3  2 -5  18.60  5.20
  3  2 -5  19.30  5.20
  3  2 -5  13.80  3.70
  3  2 -5  18.10  8.20
  3  2 -5  13.70  6.10
  3  2 -5  17.00  3.50
  2  2 -5 3887.61 122.39
  2  2 -5 3940.11 126.59
  2  2 -5 3741.33 120.69
 -2 -2  5 4055.29 120.59
 -2 -2  5 3727.63 121.09
 -2 -2  5 3790.52 119.79
 -2 -2  5 3812.72 124.19
  0  2 -5 678.73  21.40
  0  2 -5 721.03  22.30
  0  2 -5 675.03  22.40
  0  2 -5 675.73  24.20
  0  2 -5 690.83  21.80
  0 -2  5 695.23  22.80
  0 -2  5 678.03  22.00
  0 -2  5 664.03  24.00
  0 -2  5 684.83  22.00
 -1  2 -5 3606.34 118.89
 -1  2 -5 3800.02 115.99
 -1  2 -5 3858.81 116.19
  1 -2  5 3788.52 117.09
  1 -2  5 3683.03 115.99
  1 -2  5 3951.90 116.29
  1 -2  5 3710.93 116.49
  1 -2  5 3464.15 118.99
 -2  2 -5 637.84  20.40
 -2  2 -5 635.54  20.50
 -2  2 -5 622.44  20.60
 -2  2 -5 635.64  21.40
  2 -2  5 651.33  20.80
  2 -2  5 619.94  21.10
  2 -2  5 634.34  23.00
  2 -2  5 650.93  22.60
  2 -2  5 558.34  30.90
 -3  2 -5 1273.77  39.80
 -3  2 -5 1177.08  39.00
 -3  2 -5 1266.97  38.50
 -3  2 -5 1219.28  38.70
 -3  2 -5 1197.58  38.50
  3 -2  5 1100.09  44.70
  3 -2  5 1169.78  42.60
  3 -2  5 1302.27  43.00
  3 -2  5 1231.98  39.50
  3 -2  5 1188.68  44.80
  3 -2  5 1156.38  45.50
  3 -2  5 1186.18  42.00
  3 -2  5 1109.79  50.19
  3 -2  5 1207.18  38.60
 -4  2 -5 133.09  6.10
 -4  2 -5 139.89  6.20
 -4  2 -5 142.69  7.90
  4 -2  5 135.69  10.80
  4 -2  5 153.08  8.80
  4 -2  5 155.98  8.00
  4 -2  5 128.19  8.80
  4 -2  5 155.28  6.10
  4  1 -5  19.10  4.60
  4  1 -5  17.30  2.60
  4  1 -5  17.40  8.10
  4  1 -5  27.90  3.90
  4  1 -5  22.50  4.40
  4  1 -5  14.80  5.70
  4  1 -5  16.70  6.90
  4  1 -5  18.50  5.00
  3  1 -5 2984.60  94.59
  3  1 -5 2887.01  93.89
  3  1 -5 2968.10  93.69
  3  1 -5 3053.69 108.59
  3  1 -5 3063.39 109.69
  3  1 -5 3007.60 103.29
  3  1 -5 3119.59 104.39
  3  1 -5 2968.00 102.59
  3  1 -5 3087.69 102.59
  3  1 -5 3022.90  97.39
  3  1 -5 2986.30  99.59
  3  1 -5 2940.71  93.49
  3  1 -5 2867.11 107.79
  3  1 -5 2933.91  95.09
  3  1 -5 2561.34  97.89
  2  1 -5 1474.65  48.90
  2  1 -5 1507.95  52.69
  2  1 -5 1523.45  47.60
 -2 -1  5 1489.25  47.10
 -2 -1  5 1458.95  50.39
 -2 -1  5 1422.26  47.80
  1  1 -5 2512.75  75.79
  1  1 -5 2404.16  75.39
  1  1 -5 2461.35  78.39
  1  1 -5 2410.56  78.89
 -1 -1  5 2256.77  77.79
 -1 -1  5 2382.06  75.29
 -1 -1  5 2596.34  76.19
 -1 -1  5 2326.47  75.39
  0  1 -5 1191.78  36.90
  0  1 -5 1203.68  39.80
  0  1 -5 1178.38  38.80
  0  1 -5 1184.08  37.30
  0  1 -5 1183.28  37.80
  0 -1  5 1152.08  37.30
  0 -1  5 1200.88  39.70
  0 -1  5 1177.78  37.30
  0 -1  5 1170.08  37.60
  0 -1  5 1201.18  38.10
 -1  1 -5 1391.96  47.70
 -1  1 -5 1435.86  44.30
 -1  1 -5 1425.66  44.30
 -1  1 -5 1386.76  45.00
  1 -1  5 1352.86  44.20
  1 -1  5 1439.16  45.30
  1 -1  5 1426.06  44.20
  1 -1  5 1434.86  45.60
 -2  1 -5 2593.44  75.39
 -2  1 -5 2372.96  75.69
 -2  1 -5 2344.87  75.49
 -2  1 -5 2427.96  75.69
 -2  1 -5 2428.46  76.59
  2 -1  5 2381.56  76.49
  2 -1  5 2390.26  76.19
  2 -1  5 2480.35  78.19
  2 -1  5 2449.55  77.79
  2 -1  5 2271.37  86.19
  2 -1  5 2417.86  75.89
 -3  1 -5 737.13  25.10
 -3  1 -5 756.12  25.40
 -3  1 -5 739.53  24.50
 -3  1 -5 781.72  24.30
 -3  1 -5 730.43  24.30
  3 -1  5 754.02  25.10
  3 -1  5 721.53  28.10
  3 -1  5 760.12  29.00
  3 -1  5 752.02  24.40
  3 -1  5 727.03  31.20
  3 -1  5 710.03  27.50
  3 -1  5 728.33  29.90
  3 -1  5 681.83  34.90
 -4  1 -5 188.58  7.70
 -4  1 -5 188.98  7.90
  4 -1  5 169.18  12.10
  4 -1  5 217.58  10.30
  4 -1  5 211.58  9.80
  4 -1  5 203.08  7.60
  4  0 -5  25.90  8.10
  4  0 -5  20.50  6.00
  4  0 -5  25.30  6.50
  4  0 -5  25.30  5.40
  4  0 -5  30.20  8.10
  4  0 -5  25.20  3.20
  4  0 -5  30.00  3.70
  4  0 -5  28.10  3.00
  3  0 -5 2345.67  71.99
  3  0 -5 2318.17  79.49
  3  0 -5 2179.88  84.29
  3  0 -5 2296.77  73.09
  3  0 -5 2266.57  85.99
  3  0 -5 2230.68  72.59
  3  0 -5 2139.49  73.79
  3  0 -5 2239.08  79.19
  3  0 -5 2197.48  71.29
  3  0 -5 2184.08  70.79
  3  0 -5 2111.59  81.39
 -3  0  5 2168.38  71.19
  2  0 -5 2723.03  85.49
  2  0 -5 2806.82  90.69
 -2  0  5 2784.22  85.09
 -2  0  5 2551.34  85.49
 -2  0  5 2585.14  84.29
 -2  0  5 2785.72  88.19
  1  0 -5 215.28  8.20
  1  0 -5 234.18  7.80
  1  0 -5 222.88  10.50
  1  0 -5 222.68  10.30
 -1  0  5 227.28  9.80
 -1  0  5 216.28  7.70
 -1  0  5 229.58  8.10
 -1  0  5 219.68  7.40
 -1  0  5 226.88  8.30
  0  0 -5 5178.98 163.48
 -1  0 -5 1728.83  53.69
 -1  0 -5 1733.93  53.49
 -1  0 -5 1717.43  53.79
 -1  0 -5 1668.33  54.29
  1  0  5 1565.04  54.59
  1  0  5 1924.01  53.99
  1  0  5 1709.93  54.89
  1  0  5 1671.93  54.59
 -2  0 -5 5892.21 187.88
 -2  0 -5 6127.19 187.88
  2  0  5 6256.77 189.88
  2  0  5 6069.19 189.98
  2  0  5 5940.81 190.08
  2  0  5 6176.98 187.88
  2  0  5 5783.92 191.88
  2  0  5 6007.90 188.38
  2  0  5 6121.19 188.38
  2  0  5 6076.99 198.78
 -3  0 -5 596.94  20.40
 -3  0 -5 658.23  20.20
 -3  0 -5 592.54  20.30
 -3  0 -5 626.54  21.30
 -3  0 -5 593.34  21.30
  3  0  5 617.54  20.30
  3  0  5 589.24  24.90
  3  0  5 589.64  23.90
  3  0  5 598.24  21.00
  3  0  5 600.74  25.00
  3  0  5 566.84  30.00
  3  0  5 622.84  20.80
  3  0  5 592.24  26.80
 -4  0 -5  48.40  4.00
 -4  0 -5  52.89  4.30
  4  0  5  58.29  5.30
  4  0  5  56.29  3.30
  4  0  5  50.09  6.40
  4  0  5  48.90  5.20
  4 -1 -5 2339.17  72.89
  4 -1 -5 2263.47  85.29
  4 -1 -5 2453.65  79.79
  4 -1 -5 2258.67  75.29
  4 -1 -5 2367.46  73.69
  4 -1 -5 2276.47  80.99
  4 -1 -5 2229.08  83.49
  4 -1 -5 2295.47  72.89
  3 -1 -5 105.29  12.70
  3 -1 -5  92.99  13.50
  3 -1 -5  88.29  10.80
  3 -1 -5 101.89  5.90
  3 -1 -5  99.79  6.10
  3 -1 -5 108.49  7.50
  3 -1 -5 106.29  7.40
  3 -1 -5 106.19  6.20
  3 -1 -5  91.39  10.60
  3 -1 -5 100.39  11.10
  3 -1 -5 100.49  13.90
 -3  1  5 103.69  6.60
 -3  1  5 100.89  5.10
  2 -1 -5 503.35  21.30
  2 -1 -5 515.95  17.30
 -2  1  5 485.75  17.30
 -2  1  5 474.05  16.60
 -2  1  5 468.15  16.10
 -2  1  5 500.15  19.30
  1 -1 -5  19.20  1.60
  1 -1 -5  22.00  1.80
  1 -1 -5  19.60  1.70
  1 -1 -5  17.00  3.30
 -1  1  5  19.10  2.80
 -1  1  5  16.70  1.50
  0 -1 -5 9999.00 310.77
 -1 -1 -5 3401.16 106.89
 -1 -1 -5 3394.56 106.29
 -1 -1 -5 3445.16 106.19
  1  1  5 3147.69 107.19
  1  1  5 3400.16 107.29
  1  1  5 3674.83 107.09
 -2 -1 -5  55.09  2.90
 -2 -1 -5  56.19  3.40
 -2 -1 -5  56.29  2.90
 -2 -1 -5  51.49  3.60
 -2 -1 -5  50.79  3.50
  2  1  5  55.89  3.50
  2  1  5  55.49  11.50
  2  1  5  55.79  4.60
  2  1  5  56.19  4.90
  2  1  5  48.40  5.40
  2  1  5  52.59  4.10
  2  1  5  55.69  7.60
  2  1  5  50.89  4.30
 -3 -1 -5 133.29  9.50
 -3 -1 -5 128.69  6.50
 -3 -1 -5 132.19  7.10
 -3 -1 -5 137.39  5.80
 -3 -1 -5 131.79  6.70
 -3 -1 -5 130.29  6.30
  3  1  5 127.79  11.60
  3  1  5 126.59  6.00
  3  1  5 118.69  9.60
  3  1  5 127.59  6.80
  3  1  5 134.79  9.50
  3  1  5 122.69  9.60
  3  1  5 133.49  5.70
  3  1  5 126.89  21.40
  3  1  5 123.39  12.80
 -4 -1 -5  32.20  3.60
  4  1  5  28.60  4.40
  4  1  5  41.90  4.50
  4  1  5  36.20  2.60
  4  1  5  33.00  5.00
  4 -2 -5  82.19  10.50
  4 -2 -5  79.89  4.70
  4 -2 -5  79.49  10.80
  4 -2 -5  85.99  7.80
  4 -2 -5  77.19  6.80
  4 -2 -5  75.19  4.80
  4 -2 -5  78.89  9.20
  4 -2 -5  83.09  4.60
  3 -2 -5 143.89  8.70
  3 -2 -5 143.09  13.30
  3 -2 -5 133.79  11.70
  3 -2 -5 132.29  6.90
  3 -2 -5 133.79  6.60
  3 -2 -5 127.29  14.90
  3 -2 -5 136.79  15.20
  3 -2 -5 125.59  7.10
  3 -2 -5 135.39  12.00
  3 -2 -5 132.39  13.80
 -3  2  5 124.99  5.40
 -3  2  5 129.09  7.20
 -3  2  5 130.99  6.10
  2 -2 -5 174.58  7.30
  2 -2 -5 151.48  9.60
 -2  2  5 156.08  7.30
 -2  2  5 151.98  5.80
 -2  2  5 153.78  6.50
  1 -2 -5 4995.90 152.58
  1 -2 -5 4783.62 155.78
  1 -2 -5 4946.51 155.78
  0 -2 -5  5.40  2.80
  0 -2 -5  3.30  0.90
  0 -2 -5  4.10  0.70
  0 -2 -5  4.20  1.50
  0  2  5  4.00  0.90
  0  2  5  6.60  1.30
 -1 -2 -5 182.78  6.60
 -1 -2 -5 170.68  7.00
 -1 -2 -5 167.68  6.80
 -1 -2 -5 178.18  7.10
 -1 -2 -5 173.58  7.80
 -1 -2 -5 179.18  6.20
  1  2  5 168.18  7.60
  1  2  5 171.58  7.40
  1  2  5 182.18  7.80
 -2 -2 -5 484.05  15.80
 -2 -2 -5 478.35  16.90
 -2 -2 -5 477.25  15.90
 -2 -2 -5 498.15  17.00
 -2 -2 -5 476.95  16.30
  2  2  5 487.95  16.60
  2  2  5 464.75  16.10
  2  2  5 489.25  18.00
  2  2  5 474.45  17.00
  2  2  5 433.56  20.00
  2  2  5 457.45  24.90
  2  2  5 482.55  36.80
  2  2  5 459.05  18.30
 -3 -2 -5 1092.19  35.70
 -3 -2 -5 1147.99  35.50
 -3 -2 -5 1123.29  36.70
  3  2  5 1039.60  35.90
  3  2  5 1182.68  57.69
  3  2  5 1093.69  39.20
  3  2  5 1009.20  39.70
  3  2  5 1072.49  44.60
  3  2  5 1068.19  35.50
 -4 -2 -5 817.42  28.80
  4  2  5 939.01  30.30
  4  2  5 927.51  33.10
  4  2  5 961.10  28.60
  4  2  5 818.92  30.80
  4 -3 -5  13.90  4.70
  4 -3 -5  13.50  6.40
  4 -3 -5  20.00  3.00
  4 -3 -5  15.80  2.90
  3 -3 -5 1063.89  45.90
  3 -3 -5 1038.90  42.40
  3 -3 -5 1091.99  34.80
  3 -3 -5 1039.00  46.00
  3 -3 -5 1113.29  43.70
  3 -3 -5 1056.99  35.40
  3 -3 -5 1070.09  36.00
  3 -3 -5 1010.40  47.40
  3 -3 -5 1056.49  36.80
 -3  3  5 1094.39  35.00
 -3  3  5 1054.79  33.90
 -3  3  5 1024.40  35.30
  2 -3 -5 506.25  21.50
  2 -3 -5 516.05  17.80
  2 -3 -5 471.15  17.10
  2 -3 -5 461.85  18.30
  2 -3 -5 491.85  32.70
 -2  3  5 521.85  17.10
 -2  3  5 493.75  16.20
 -2  3  5 472.35  16.60
 -2  3  5 497.85  17.10
  1 -3 -5 2530.15  87.09
  1 -3 -5 2640.74  81.19
  1 -3 -5 2403.76  80.89
  1 -3 -5 2643.04  84.39
  1 -3 -5 2717.43  81.69
 -1  3  5 2629.94  81.19
 -1  3  5 2472.95  81.29
 -1  3  5 2604.64  80.49
  0 -3 -5 2039.00  64.99
  0 -3 -5 2083.39  66.09
  0 -3 -5 2071.49  65.19
  0 -3 -5 2182.48  65.89
  0  3  5 2046.30  65.49
  0  3  5 2007.70  64.59
  0  3  5 2041.60  64.79
 -1 -3 -5 574.04  19.20
 -1 -3 -5 572.24  19.00
 -1 -3 -5 557.64  19.80
 -1 -3 -5 599.44  18.90
 -1 -3 -5 563.74  18.60
 -1 -3 -5 599.64  19.80
  1  3  5 599.34  19.70
  1  3  5 512.15  21.10
  1  3  5 593.94  20.20
 -2 -3 -5 1341.17  41.60
 -2 -3 -5 1253.47  41.40
 -2 -3 -5 1316.07  41.30
 -2 -3 -5 1401.36  42.60
 -2 -3 -5 1317.67  41.10
 -2 -3 -5 1287.57  41.60
  2  3  5 1277.77  41.80
  2  3  5 1249.47  41.40
  2  3  5 1317.47  43.20
  2  3  5 1233.48  49.90
  2  3  5 1248.78  43.80
  2  3  5 1248.08  45.20
  2  3  5 1257.27  65.39
 -3 -3 -5 222.78  9.00
 -3 -3 -5 235.18  8.70
  3  3  5 215.38  11.60
  3  3  5 207.68  9.10
  3  3  5 216.18  15.10
  3  3  5 225.68  8.60
  3  3  5 231.58  25.40
  3  3  5 203.18  11.90
  4  3  5 622.34  23.10
  4  3  5 572.94  21.50
  4  3  5 634.44  19.70
  4  3  5 616.64  19.90
  4 -4 -5 303.37  14.80
  4 -4 -5 282.37  11.00
  4 -4 -5 277.97  17.60
  4 -4 -5 291.17  10.80
  4 -4 -5 279.67  17.20
 -4  4  5 239.98  11.10
  3 -4 -5 2818.62  99.79
  3 -4 -5 2755.72 103.19
  3 -4 -5 2706.43 102.19
  3 -4 -5 2846.42  91.69
  3 -4 -5 2735.73  90.59
  3 -4 -5 2992.70  99.29
  3 -4 -5 2917.31  90.29
  3 -4 -5 2862.01  89.19
 -3  4  5 2837.12  90.09
 -3  4  5 2748.93  88.79
 -3  4  5 2905.51  89.89
 -3  4  5 2830.72  88.59
  2 -4 -5 2165.58  72.79
  2 -4 -5 2372.16  73.19
  2 -4 -5 2294.17  76.79
  2 -4 -5 2271.07  71.39
  2 -4 -5 2155.08  83.99
  2 -4 -5 2273.07  72.69
  2 -4 -5 2319.67  72.59
 -2  4  5 2188.38  70.89
 -2  4  5 2263.27  72.09
 -2  4  5 2232.78  70.69
 -2  4  5 2286.27  71.59
  1 -4 -5 117.79  5.70
  1 -4 -5 114.09  7.30
  1 -4 -5 123.79  6.20
 -1  4  5 122.19  4.70
 -1  4  5 122.89  5.50
 -1  4  5 119.09  5.10
 -1  4  5 126.59  5.10
 -1  4  5 126.29  5.40
  0 -4 -5 2241.08  76.29
  0 -4 -5 2360.56  75.59
  0 -4 -5 2455.05  75.39
  0 -4 -5 2457.25  76.59
  0 -4 -5 2460.35  75.19
  0 -4 -5 2469.05  76.09
  0 -4 -5 2397.26  75.69
  0  4  5 2346.57  74.79
  0  4  5 2444.26  74.89
  0  4  5 2351.36  75.19
  0  4  5 2383.06  75.79
  0  4  5 2410.96  75.09
 -1 -4 -5 2004.50  63.39
 -1 -4 -5 2101.69  63.49
 -1 -4 -5 1950.01  63.99
 -1 -4 -5 2074.19  62.89
 -1 -4 -5 2044.20  64.29
 -1 -4 -5 1967.40  63.19
  1  4  5 1955.50  64.49
  1  4  5 2029.20  63.89
  1  4  5 1900.51  65.09
 -2 -4 -5 1933.31  62.09
 -2 -4 -5 1958.60  61.89
 -2 -4 -5 2008.20  62.49
 -2 -4 -5 2040.60  63.29
 -2 -4 -5 1986.70  62.19
 -2 -4 -5 1993.10  61.79
 -2 -4 -5 1977.10  61.99
  2  4  5 1931.41  70.49
  2  4  5 1991.30  64.69
  2  4  5 1963.20  61.89
  2  4  5 1746.83  86.49
  2  4  5 1954.50  65.89
  2  4  5 2035.20  62.29
  2  4  5 1830.52  64.49
 -3 -4 -5 1379.46  42.70
 -3 -4 -5 1400.96  42.60
 -3 -4 -5 1310.67  42.40
 -3 -4 -5 1350.46  43.90
  3  4  5 1278.47  42.80
  3  4  5 1288.27  46.10
  3  4  5 1365.16  42.30
  3  4  5 1293.27  45.70
  3  4  5 1240.98  65.19
  3  4  5 1276.67  49.00
  4 -5 -5 903.21  30.70
  4 -5 -5 1070.09  35.90
  4 -5 -5 971.80  30.90
  4 -5 -5 973.40  37.30
  4 -5 -5 934.01  39.30
 -4  5  5 799.02  29.80
 -4  5  5 868.11  30.00
  3 -5 -5 1137.99  47.30
  3 -5 -5 1206.58  42.20
  3 -5 -5 1214.28  38.80
  3 -5 -5 1126.79  52.79
  3 -5 -5 1177.88  39.90
  3 -5 -5 1169.38  50.29
  3 -5 -5 1323.07  49.00
  3 -5 -5 1177.48  40.30
 -3  5  5 1181.68  40.00
 -3  5  5 1226.18  39.70
 -3  5  5 1177.68  38.50
 -3  5  5 1264.67  38.40
  2 -5 -5 223.48  10.50
  2 -5 -5 215.38  12.40
  2 -5 -5 201.38  8.50
  2 -5 -5 212.38  17.90
  2 -5 -5 194.28  19.80
  2 -5 -5 216.08  9.90
  2 -5 -5 214.08  11.10
  2 -5 -5 197.88  10.10
 -2  5  5 215.68  8.80
 -2  5  5 206.08  8.00
 -2  5  5 201.28  9.70
 -2  5  5 216.78  8.50
 -2  5  5 226.18  7.80
  1 -5 -5 478.25  19.00
  1 -5 -5 494.45  17.80
  1 -5 -5 451.05  16.70
 -1  5  5 468.85  16.70
 -1  5  5 480.45  16.90
 -1  5  5 487.85  16.20
 -1  5  5 467.25  15.70
 -1  5  5 496.15  16.00
  0 -5 -5 1306.27  41.60
  0 -5 -5 1369.66  43.30
  0 -5 -5 1312.47  42.40
  0 -5 -5 1258.47  42.90
  0 -5 -5 1323.27  42.20
  0 -5 -5 1301.67  42.10
  0  5  5 1317.37  42.40
  0  5  5 1292.37  41.70
  0  5  5 1280.47  41.30
  0  5  5 1306.27  42.30
  0  5  5 1312.77  41.20
  0  5  5 1266.27  41.20
 -1 -5 -5 4870.31 143.79
 -1 -5 -5 4546.04 144.29
 -1 -5 -5 4506.25 143.09
 -1 -5 -5 4772.32 143.09
 -1 -5 -5 4505.65 142.69
 -1 -5 -5 4479.45 143.19
 -1 -5 -5 4526.05 142.99
 -1 -5 -5 4454.55 143.79
  1  5  5 4532.75 145.59
  1  5  5 4759.32 143.59
  1  5  5 4431.96 144.49
 -2 -5 -5 351.86  12.70
 -2 -5 -5 368.46  13.70
 -2 -5 -5 325.67  13.40
 -2 -5 -5 354.66  12.60
 -2 -5 -5 350.86  12.70
 -2 -5 -5 346.57  12.80
  2  5  5 302.57  30.90
  2  5  5 357.16  12.80
  2  5  5 313.67  16.90
  2  5  5 338.27  15.30
 -3 -5 -5 130.19  7.50
 -3 -5 -5 147.99  6.40
 -3 -5 -5 139.49  6.40
 -3 -5 -5 149.88  7.50
 -3 -5 -5 147.19  6.60
  3  5  5 136.59  5.70
  3  5  5 130.29  8.50
  3  5  5 131.99  6.20
  3  5  5 123.89  19.30
  4 -6 -5  93.19  7.10
  4 -6 -5  85.49  4.50
  4 -6 -5  87.69  4.70
  4 -6 -5  80.39  9.30
 -4  6  5  80.99  4.50
  3 -6 -5 1505.85  47.10
  3 -6 -5 1424.06  48.40
  3 -6 -5 1424.36  57.49
  3 -6 -5 1417.66  48.20
  3 -6 -5 1602.44  57.09
  3 -6 -5 1335.77  62.09
 -3  6  5 1514.15  48.30
 -3  6  5 1456.85  46.70
 -3  6  5 1521.95  46.70
  2 -6 -5 295.47  25.20
  2 -6 -5 325.27  13.20
  2 -6 -5 334.77  21.50
  2 -6 -5 332.07  14.30
  2 -6 -5 315.67  11.90
  2 -6 -5 315.27  13.60
  2 -6 -5 355.36  15.10
  2 -6 -5 361.26  15.10
 -2  6  5 326.87  11.60
 -2  6  5 318.07  11.60
 -2  6  5 312.97  12.30
 -2  6  5 331.47  12.30
 -2  6  5 314.57  11.40
 -2  6  5 340.07  12.70
  1 -6 -5 1470.65  50.69
  1 -6 -5 1616.84  52.19
  1 -6 -5 1709.13  52.69
 -1  6  5 1556.64  49.70
 -1  6  5 1588.24  50.19
 -1  6  5 1569.84  49.80
 -1  6  5 1557.44  50.99
 -1  6  5 1545.85  50.39
 -1  6  5 1562.84  49.90
  0 -6 -5 945.01  30.90
  0 -6 -5 930.21  30.50
  0 -6 -5 945.81  30.70
  0 -6 -5 983.50  31.20
  0 -6 -5 948.31  32.20
  0  6  5 931.21  29.90
  0  6  5 932.11  30.70
  0  6  5 971.60  31.40
  0  6  5 820.82  30.00
 -1 -6 -5  48.20  3.90
 -1 -6 -5  49.30  4.80
 -1 -6 -5  48.50  4.30
 -1 -6 -5  54.39  3.70
 -1 -6 -5  55.19  4.10
 -1 -6 -5  50.79  5.00
 -1 -6 -5  52.29  3.40
 -1 -6 -5  49.80  3.80
  1  6  5  50.89  4.40
  1  6  5  45.60  7.60
  1  6  5  50.39  4.60
  1  6  5  46.80  5.10
 -2 -6 -5 798.22  26.70
 -2 -6 -5 800.92  27.10
 -2 -6 -5 804.42  26.60
 -2 -6 -5 824.12  26.80
 -2 -6 -5 802.12  27.00
 -2 -6 -5 800.82  27.00
  2  6  5 797.72  26.20
  2  6  5 718.43  46.90
  2  6  5 763.72  29.80
  2  6  5 823.52  30.00
  2  6  5 843.02  26.80
  2  6  5 825.52  26.80
 -3 -6 -5 219.88  8.60
 -3 -6 -5 220.08  8.50
 -3 -6 -5 208.08  8.80
 -3 -6 -5 199.18  10.20
  3  6  5 214.18  8.40
  3  6  5 232.28  7.90
  3  6  5 197.78  20.60
  3  6  5 214.28  10.50
  4 -7 -5 114.59  8.60
  4 -7 -5 113.59  5.20
  4 -7 -5 120.19  10.10
  4 -7 -5 120.29  5.20
 -4  7  5 113.59  4.90
 -4  7  5 112.49  5.00
  3 -7 -5 836.22  45.00
  3 -7 -5 935.91  32.20
  3 -7 -5 923.71  32.20
  3 -7 -5 1046.40  40.50
 -3  7  5 996.70  32.50
 -3  7  5 945.31  30.70
 -3  7  5 1008.40  30.90
 -3  7  5 985.00  30.90
 -3  7  5 904.31  31.30
  2 -7 -5 1401.26  47.50
  2 -7 -5 1504.35  56.49
  2 -7 -5 1505.85  49.99
  2 -7 -5 1279.87  65.39
  2 -7 -5 1489.85  48.40
  2 -7 -5 1440.56  47.50
 -2  7  5 1342.37  45.60
 -2  7  5 1389.76  45.20
 -2  7  5 1479.65  46.30
 -2  7  5 1467.95  46.90
 -2  7  5 1354.06  46.60
 -2  7  5 1385.76  45.40
 -2  7  5 1427.96  45.40
  1 -7 -5 2114.39  73.09
  1 -7 -5 2176.78  73.29
  1 -7 -5 2344.67  74.79
  1 -7 -5 2258.17  72.99
  1 -7 -5 2540.55  75.79
 -1  7  5 2233.98  72.29
 -1  7  5 2332.67  72.29
 -1  7  5 2298.07  72.79
 -1  7  5 2290.67  72.19
 -1  7  5 2279.17  72.09
 -1  7  5 2417.96  73.59
 -1  7  5 2312.57  72.79
  0 -7 -5 1836.02  58.19
  0 -7 -5 1848.12  58.19
  0 -7 -5 1774.12  59.09
  0 -7 -5 1906.71  58.59
  0 -7 -5 1664.73  59.69
  0 -7 -5 1835.62  58.39
  0  7  5 1768.02  57.69
  0  7  5 1787.82  57.29
  0  7  5 1845.52  57.79
  0  7  5 1904.01  59.39
  0  7  5 1933.61  59.19
  0  7  5 1833.52  58.09
 -1 -7 -5  89.09  5.20
 -1 -7 -5  94.49  7.70
 -1 -7 -5  86.79  5.10
 -1 -7 -5  92.59  5.00
 -1 -7 -5  87.49  4.90
 -1 -7 -5  96.19  5.40
 -1 -7 -5  87.29  6.30
 -1 -7 -5  87.99  5.90
  1  7  5  99.29  6.60
  1  7  5  85.89  9.30
  1  7  5  90.19  5.40
  1  7  5  87.59  8.10
  1  7  5  92.69  5.80
 -2 -7 -5 841.52  29.30
 -2 -7 -5 814.22  27.60
 -2 -7 -5 797.52  27.60
 -2 -7 -5 813.12  27.00
 -2 -7 -5 848.42  27.50
 -2 -7 -5 801.62  27.10
  2  7  5 799.62  29.80
  2  7  5 801.72  26.50
  2  7  5 718.43  46.10
  2  7  5 848.92  27.20
  2  7  5 813.52  27.10
  2  7  5 884.51  32.20
 -3 -7 -5 653.83  21.80
 -3 -7 -5 661.23  21.40
  3  7  5 652.43  20.90
  3  7  5 638.84  23.00
  3  7  5 623.04  34.80
  3  7  5 650.63  21.40
  3 -8 -5 213.48  19.40
  3 -8 -5 251.17  17.30
  3 -8 -5 223.38  9.60
 -3  8  5 250.57  8.80
 -3  8  5 240.08  10.30
 -3  8  5 220.98  9.10
 -3  8  5 229.48  8.50
 -3  8  5 249.48  8.80
  2 -8 -5 3964.20 126.69
  2 -8 -5 3823.12 124.79
  2 -8 -5 3981.50 124.69
  2 -8 -5 4032.50 128.79
  2 -8 -5 4067.29 125.89
  2 -8 -5 3899.41 143.19
  2 -8 -5 4061.59 134.39
 -2  8  5 3863.21 123.09
 -2  8  5 3963.70 125.19
 -2  8  5 3917.51 123.39
 -2  8  5 3814.42 124.29
 -2  8  5 3951.60 123.19
 -2  8  5 3996.00 123.69
  1 -8 -5 180.68  8.60
  1 -8 -5 184.68  8.80
  1 -8 -5 179.78  9.00
  1 -8 -5 190.98  10.50
 -1  8  5 186.58  7.50
 -1  8  5 190.88  8.00
 -1  8  5 192.98  10.70
 -1  8  5 186.48  8.50
 -1  8  5 193.18  7.10
 -1  8  5 186.58  7.20
  0 -8 -5 277.97  10.90
  0 -8 -5 269.87  10.80
  0 -8 -5 279.97  11.20
  0 -8 -5 302.27  10.80
  0 -8 -5 281.27  11.90
  0 -8 -5 297.17  14.00
  0  8  5 271.87  11.20
  0  8  5 281.07  10.40
  0  8  5 285.07  10.70
  0  8  5 277.37  12.60
  0  8  5 284.17  11.70
  0  8  5 287.57  12.10
  0  8  5 275.77  9.70
 -1 -8 -5 650.53  22.10
 -1 -8 -5 603.64  21.60
 -1 -8 -5 649.83  23.90
 -1 -8 -5 621.94  22.10
 -1 -8 -5 649.14  21.80
 -1 -8 -5 636.04  22.30
 -1 -8 -5 621.84  22.60
  1  8  5 643.34  21.60
  1  8  5 660.23  24.30
  1  8  5 614.84  25.30
  1  8  5 675.73  22.40
 -2 -8 -5 1469.75  47.70
 -2 -8 -5 1382.36  45.10
 -2 -8 -5 1440.66  45.80
 -2 -8 -5 1422.16  45.20
 -2 -8 -5 1394.86  47.50
  2  8  5 1334.07  65.49
  2  8  5 1331.67  44.40
  2  8  5 1412.56  45.00
  2  8  5 1361.06  47.40
  2  8  5 1490.85  49.60
  2  8  5 1396.26  45.10
 -3 -8 -5 667.83  21.50
 -3 -8 -5 652.63  21.20
 -3 -8 -5 652.13  22.10
 -3 -8 -5 675.43  21.90
  3  8  5 654.73  32.30
  3  8  5 655.73  22.40
  3  8  5 647.54  21.30
  3  8  5 643.44  20.90
  3 -9 -5 394.96  14.20
  3 -9 -5 404.16  24.80
  3 -9 -5 386.76  14.30
  3 -9 -5 409.56  19.50
 -3  9  5 400.46  14.10
 -3  9  5 407.36  13.60
 -3  9  5 371.46  15.30
 -3  9  5 406.56  13.30
 -3  9  5 402.16  13.50
 -3  9  5 376.26  13.60
  2 -9 -5  3.70  3.60
  2 -9 -5  -0.10  5.90
  2 -9 -5  3.30  2.40
  2 -9 -5  4.70  6.50
  2 -9 -5  1.50  3.10
 -2  9  5  3.80  2.20
 -2  9  5  1.80  1.30
 -2  9  5  2.90  1.60
 -2  9  5  -0.40  1.80
 -2  9  5  1.60  1.10
 -2  9  5  5.00  1.60
  1 -9 -5  64.29  5.90
  1 -9 -5  60.19  7.00
  1 -9 -5  59.69  4.90
  1 -9 -5  66.69  6.90
  1 -9 -5  61.79  7.20
 -1  9  5  63.89  4.20
 -1  9  5  64.19  3.30
 -1  9  5  83.39  7.20
 -1  9  5  71.09  3.70
 -1  9  5  64.79  5.50
 -1  9  5  67.69  3.90
  0 -9 -5 205.98  8.60
  0 -9 -5 195.58  8.20
  0 -9 -5 207.68  9.40
  0 -9 -5 204.98  8.50
  0 -9 -5 191.28  11.70
  0 -9 -5 196.78  9.70
  0 -9 -5 208.78  8.80
  0  9  5 202.58  10.70
  0  9  5 211.18  9.30
  0  9  5 206.48  8.10
  0  9  5 211.38  11.30
  0  9  5 196.58  8.90
  0  9  5 201.58  8.20
 -1 -9 -5 3935.01 122.59
 -1 -9 -5 3998.10 122.79
 -1 -9 -5 3975.30 125.69
 -1 -9 -5 3920.31 122.69
 -1 -9 -5 3836.92 123.49
 -1 -9 -5 3996.90 123.29
 -1 -9 -5 3804.82 123.39
 -1 -9 -5 4043.80 123.19
 -1 -9 -5 3663.53 123.59
  1  9  5 3801.72 125.79
  1  9  5 3850.31 122.39
  1  9  5 3882.91 128.49
  1  9  5 4159.08 123.29
 -2 -9 -5 389.06  13.90
 -2 -9 -5 364.96  15.00
 -2 -9 -5 370.66  16.40
 -2 -9 -5 403.56  14.50
 -2 -9 -5 429.06  14.50
  2  9  5 425.06  17.50
  2  9  5 399.26  13.20
  2  9  5 372.86  27.60
  2  9  5 398.96  14.80
  2  9  5 387.76  14.40
  3 -10 -5 448.56  23.80
  3 -10 -5 469.25  20.10
  3 -10 -5 431.96  15.60
 -3 10  5 458.05  15.00
 -3 10  5 460.05  15.20
 -3 10  5 468.85  15.20
 -3 10  5 458.95  15.40
 -3 10  5 459.45  15.60
  2 -10 -5  62.29  5.80
  2 -10 -5  55.69  4.50
  2 -10 -5  58.19  10.00
  2 -10 -5  55.89  11.00
 -2 10  5  63.39  3.80
 -2 10  5  51.99  5.50
 -2 10  5  57.49  3.60
 -2 10  5  60.09  3.30
 -2 10  5  50.39  3.80
 -2 10  5  61.29  3.90
 -2 10  5  56.19  3.00
  1 -10 -5 1991.70  63.89
  1 -10 -5 1983.50  63.89
  1 -10 -5 2046.50  66.09
 -1 10  5 2011.70  63.29
 -1 10  5 1998.60  62.59
 -1 10  5 1976.00  64.49
 -1 10  5 2015.60  63.89
 -1 10  5 1970.80  62.89
 -1 10  5 1976.40  63.09
  0 -10 -5 1320.77  44.60
  0 -10 -5 1329.87  43.00
  0 -10 -5 1327.47  44.00
  0 -10 -5 1324.97  43.00
  0 -10 -5 1338.67  42.50
  0 -10 -5 1340.27  45.70
  0 10  5 1279.17  47.00
  0 10  5 1333.97  42.50
  0 10  5 1313.47  43.10
  0 10  5 1353.76  42.50
  0 10  5 1318.37  43.50
 -1 -10 -5 698.23  23.60
 -1 -10 -5 706.73  23.80
 -1 -10 -5 704.93  27.00
 -1 -10 -5 710.13  23.60
 -1 -10 -5 724.23  24.30
  1 10  5 721.53  24.10
  1 10  5 684.23  23.30
  1 10  5 701.13  39.50
 -2 -10 -5 230.58  8.50
 -2 -10 -5 227.08  8.50
 -2 -10 -5 237.18  8.60
 -2 -10 -5 226.08  9.40
  2 10  5 249.18  11.60
  2 10  5 214.58  8.00
  2 10  5 222.18  18.20
  2 10  5 220.08  8.30
  3 -11 -5 735.03  30.10
  3 -11 -5 697.23  24.20
  3 -11 -5 751.62  27.20
 -3 11  5 730.43  23.40
 -3 11  5 770.52  23.70
 -3 11  5 737.73  24.00
 -3 11  5 750.72  23.60
  2 -11 -5 310.87  17.00
  2 -11 -5 312.27  11.60
 -2 11  5 311.67  10.80
 -2 11  5 305.37  11.20
  1 -11 -5 176.68  9.60
  1 -11 -5 176.48  8.40
  1 -11 -5 184.38  7.70
  1 -11 -5 173.48  8.10
 -1 11  5 177.58  7.60
 -1 11  5 171.08  8.60
 -1 11  5 181.48  6.40
 -1 11  5 185.68  7.30
 -1 11  5 176.08  7.10
  0 -11 -5 1649.13  55.09
  0 -11 -5 1586.74  52.59
  0 -11 -5 1702.53  53.79
  0 -11 -5 1650.13  51.89
  0 11  5 1664.13  53.19
  0 11  5 1614.74  52.79
  0 11  5 1638.94  51.99
 -1 -11 -5  41.80  3.40
 -1 -11 -5  27.00  5.40
 -1 -11 -5  39.40  3.10
 -1 -11 -5  41.50  4.30
 -1 -11 -5  38.90  2.90
 -1 -11 -5  40.50  3.70
  1 11  5  34.10  11.10
  1 11  5  37.00  3.30
 -2 -11 -5 1081.29  35.20
 -2 -11 -5 1103.29  34.90
 -2 -11 -5 1095.89  35.30
 -2 -11 -5 1084.89  35.80
 -2 -11 -5 1104.09  35.00
  2 11  5 1100.29  45.70
  2 11  5 1128.89  37.70
  2 -12 -5 851.81  29.10
  2 -12 -5 859.21  36.10
  2 -12 -5 879.31  33.20
 -2 12  5 870.21  27.60
 -2 12  5 833.82  27.40
 -2 12  5 862.61  27.10
 -2 12  5 855.21  28.10
  1 -12 -5 278.67  14.60
  1 -12 -5 290.17  11.00
 -1 12  5 308.37  11.60
 -1 12  5 294.77  11.40
 -1 12  5 303.37  10.80
  0 -12 -5 822.22  28.10
  0 -12 -5 826.72  29.40
  0 -12 -5 873.91  29.70
  0 12  5 818.42  26.60
  0 12  5 834.12  29.00
  0 12  5 835.32  27.60
  0 12  5 811.12  38.90
 -1 -12 -5  4.40  1.80
 -1 -12 -5  5.20  1.40
 -1 -12 -5  2.80  2.70
 -1 -12 -5  4.20  2.30
  1 12  5  3.70  3.30
  1 12  5  2.50  4.50
  1 12  5  6.70  1.30
  2 -13 -5 415.16  18.90
  2 -13 -5 405.06  14.30
  2 -13 -5 378.56  16.50
 -2 13  5 416.86  13.30
 -2 13  5 416.06  13.40
 -2 13  5 415.06  13.90
  1 -13 -5  4.80  4.10
  1 -13 -5  5.50  2.10
 -1 13  5  2.50  1.70
 -1 13  5  8.60  2.20
  0 -13 -5 245.58  9.70
  0 -13 -5 226.58  8.50
  0 -13 -5 210.58  10.00
  0 -13 -5 231.78  8.60
  0 13  5 232.58  8.70
 -1 -13 -5 1983.30  61.79
 -1 -13 -5 1957.50  61.49
 -1 -13 -5 1932.01  62.09
  1 13  5 1893.91  68.19
  1 13  5 2036.10  63.59
  1 13  5 1974.00  61.59
  0 15 -6 693.93  26.90
  0 15 -6 680.13  22.70
  0 -15  6 709.93  22.50
  0 -15  6 699.83  22.90
 -1 15 -6 294.37  10.60
  1 -15  6 334.67  13.90
  1 -15  6 291.07  10.50
  1 -15  6 282.37  13.60
  1 14 -6 1420.66  49.90
  1 14 -6 1334.87  43.60
  1 14 -6 1362.26  43.90
 -1 -14  6 1408.46  44.30
 -1 -14  6 1365.26  44.00
 -1 -14  6 1388.86  43.60
 -1 -14  6 1387.36  43.80
  0 14 -6 977.50  38.30
  0 14 -6 1016.90  33.00
  0 -14  6 1035.20  33.30
  0 -14  6 1002.70  32.60
  0 -14  6 1028.20  32.00
 -1 14 -6 382.76  12.50
 -1 14 -6 376.56  13.20
 -1 14 -6 371.16  13.40
  1 -14  6 385.76  13.40
  1 -14  6 382.56  14.40
  1 -14  6 352.26  17.60
  1 -14  6 402.96  13.00
 -2 14 -6 737.53  23.60
 -2 14 -6 749.73  23.60
 -2 14 -6 711.33  23.90
  2 -14  6 789.82  27.30
  2 -14  6 727.53  24.70
  2 13 -6 2080.29  66.29
  2 13 -6 2200.18  71.59
  2 13 -6 1985.30  67.09
 -2 -13  6 2150.78  66.29
 -2 -13  6 2051.29  66.09
 -2 -13  6 2158.88  65.89
  1 13 -6  52.29  3.20
  1 13 -6  51.39  7.30
 -1 -13  6  63.89  3.40
 -1 -13  6  59.49  5.40
 -1 -13  6  56.69  4.90
 -1 -13  6  53.79  3.80
 -1 -13  6  52.99  4.10
  0 13 -6 698.83  23.90
  0 -13  6 692.13  23.00
  0 -13  6 716.33  23.50
  0 -13  6 716.73  24.60
  0 -13  6 707.33  24.20
 -1 13 -6  31.60  3.60
 -1 13 -6  30.40  3.20
 -1 13 -6  33.40  2.40
  1 -13  6  29.00  4.70
  1 -13  6  33.60  3.30
  1 -13  6  38.20  4.10
 -2 13 -6 1332.57  41.90
 -2 13 -6 1303.07  42.40
 -2 13 -6 1343.17  42.00
  2 -13  6 1312.97  47.50
  2 -13  6 1401.46  47.60
  2 -13  6 1278.97  43.40
  2 12 -6 164.38  8.90
  2 12 -6 167.38  11.60
  2 12 -6 183.38  7.30
  2 12 -6 169.18  6.30
 -2 -12  6 166.18  7.30
 -2 -12  6 175.78  6.70
 -2 -12  6 165.28  7.50
 -2 -12  6 171.18  7.10
  1 12 -6 125.49  5.90
  1 12 -6 122.09  11.50
 -1 -12  6 119.59  5.40
 -1 -12  6 134.19  7.30
 -1 -12  6 126.39  6.40
 -1 -12  6 124.69  6.60
 -1 -12  6 116.99  8.60
 -1 -12  6 130.59  6.20
  0 12 -6 292.07  11.30
  0 -12  6 305.17  11.30
  0 -12  6 291.67  11.80
  0 -12  6 274.07  14.40
  0 -12  6 293.47  12.00
  0 -12  6 294.37  10.50
 -1 12 -6 1652.33  52.79
 -1 12 -6 1617.04  52.19
 -1 12 -6 1612.04  51.39
 -1 12 -6 1578.74  51.49
  1 -12  6 1669.53  52.19
  1 -12  6 1641.84  52.79
  1 -12  6 1621.44  54.09
 -2 12 -6  8.90  1.70
 -2 12 -6  5.70  2.00
 -2 12 -6  7.70  1.70
 -2 12 -6  4.90  1.10
  2 -12  6  5.90  5.00
  2 -12  6  6.60  2.40
  2 11 -6 358.86  12.90
  2 11 -6 335.57  14.90
  2 11 -6 347.47  11.70
  2 11 -6 320.67  27.20
 -2 -11  6 353.96  12.70
 -2 -11  6 346.97  12.70
 -2 -11  6 345.07  12.90
 -2 -11  6 317.67  14.60
 -2 -11  6 357.36  12.30
  1 11 -6 1309.17  43.40
  1 11 -6 1363.66  53.29
  1 11 -6 1335.47  47.40
  1 11 -6 1402.16  44.30
 -1 -11  6 1276.77  46.20
 -1 -11  6 1344.97  44.00
 -1 -11  6 1402.06  47.20
 -1 -11  6 1419.46  44.70
 -1 -11  6 1464.45  45.00
 -1 -11  6 1379.96  44.70
  0 11 -6 1379.26  44.60
  0 11 -6 1311.57  46.00
  0 11 -6 1317.77  43.40
  0 11 -6 1364.86  44.30
  0 -11  6 1327.17  45.40
  0 -11  6 1348.67  45.10
  0 -11  6 1392.86  44.50
  0 -11  6 1405.26  44.60
  0 -11  6 1358.56  43.80
  0 -11  6 1399.36  47.30
  0 -11  6 1428.16  45.00
 -1 11 -6 688.63  24.00
 -1 11 -6 692.73  22.20
 -1 11 -6 682.83  22.60
 -1 11 -6 674.83  23.20
 -1 11 -6 674.93  22.70
  1 -11  6 697.53  25.50
  1 -11  6 697.33  24.00
  1 -11  6 706.03  23.40
 -2 11 -6  74.09  3.80
 -2 11 -6  66.79  3.30
 -2 11 -6  69.49  3.70
 -2 11 -6  68.69  4.00
  2 -11  6  68.89  5.70
  2 -11  6  66.09  16.00
 -3 11 -6 915.11  30.10
 -3 11 -6 919.61  29.80
 -3 11 -6 938.51  29.90
 -3 11 -6 919.11  29.90
  3 -11  6 945.41  30.40
  3 -11  6 987.80  30.70
  3 -11  6 970.60  35.20
  3 10 -6 522.25  19.50
  3 10 -6 542.75  17.20
  3 10 -6 528.75  23.00
 -3 -10  6 522.05  17.90
 -3 -10  6 529.15  17.60
  2 10 -6 1949.80  60.89
  2 10 -6 1935.31  61.99
  2 10 -6 1907.31  64.79
  2 10 -6 1847.02  71.59
 -2 -10  6 1950.60  61.79
 -2 -10  6 1931.01  61.29
 -2 -10  6 1887.61  61.89
 -2 -10  6 1981.00  64.09
 -2 -10  6 2002.20  61.89
  1 10 -6 1390.86  44.90
  1 10 -6 1342.17  48.80
  1 10 -6 1395.66  49.10
  1 10 -6 1456.65  45.70
  1 10 -6 1378.26  54.69
  1 10 -6 1491.85  57.59
 -1 -10  6 1479.15  46.40
 -1 -10  6 1374.86  46.20
 -1 -10  6 1457.15  46.00
 -1 -10  6 1370.06  46.70
 -1 -10  6 1394.56  45.40
 -1 -10  6 1429.96  48.30
 -1 -10  6 1421.36  46.00
  0 10 -6 3501.35 111.29
  0 10 -6 3671.03 111.69
  0 10 -6 3773.72 116.89
  0 10 -6 3405.16 112.39
  0 -10  6 3377.46 111.89
  0 -10  6 3530.35 113.99
  0 -10  6 3587.94 114.09
  0 -10  6 3473.65 111.39
  0 -10  6 3521.05 111.39
  0 -10  6 3660.23 111.99
  0 -10  6 3459.25 110.79
  0 -10  6 3515.85 112.09
 -1 10 -6  25.30  4.30
 -1 10 -6  21.00  5.00
 -1 10 -6  17.40  2.70
 -1 10 -6  15.50  2.20
 -1 10 -6  17.60  2.50
  1 -10  6  21.30  4.50
  1 -10  6  19.50  5.70
  1 -10  6  18.90  3.30
  1 -10  6  27.00  6.00
  1 -10  6  19.40  3.20
 -2 10 -6 2216.88  68.79
 -2 10 -6 2149.08  68.99
 -2 10 -6 2246.98  68.79
 -2 10 -6 2187.18  68.59
 -2 10 -6 2103.19  70.59
 -2 10 -6 2168.08  68.39
  2 -10  6 2225.18  70.89
  2 -10  6 2125.19  77.89
 -3 10 -6 189.18  7.20
 -3 10 -6 196.78  6.90
 -3 10 -6 185.88  7.70
 -3 10 -6 196.78  7.00
 -3 10 -6 187.28  7.00
 -3 10 -6 191.98  7.60
  3 -10  6 190.68  7.70
  3 -10  6 199.98  8.30
  3 -10  6 166.98  11.10
  3 -10  6 210.08  13.00
  3  9 -6 366.66  13.00
  3  9 -6 372.56  12.00
  3  9 -6 349.47  18.90
  3  9 -6 322.77  18.00
  3  9 -6 370.86  15.00
  3  9 -6 359.96  19.50
 -3 -9  6 361.06  12.90
 -3 -9  6 313.87  13.90
  2  9 -6 2691.83  87.19
  2  9 -6 2642.04  85.89
  2  9 -6 2709.53  90.19
  2  9 -6 2525.55  97.29
  2  9 -6 2910.41  99.09
 -2 -9  6 2746.53  86.49
 -2 -9  6 2853.81  86.79
 -2 -9  6 2793.12  86.99
 -2 -9  6 2813.22  88.89
  1  9 -6 450.65  27.00
  1  9 -6 424.26  19.40
  1  9 -6 419.26  14.70
  1  9 -6 412.96  17.80
 -1 -9  6 429.26  16.10
 -1 -9  6 422.16  16.10
 -1 -9  6 446.86  16.20
 -1 -9  6 429.26  15.40
 -1 -9  6 441.76  17.30
 -1 -9  6 425.96  15.20
 -1 -9  6 436.56  15.60
  0  9 -6  3.80  2.20
  0  9 -6  7.80  3.20
  0  9 -6  3.90  3.10
  0  9 -6  12.20  2.00
  0 -9  6  8.50  2.30
  0 -9  6  9.70  2.90
  0 -9  6  7.80  2.30
  0 -9  6  9.10  2.80
  0 -9  6  7.50  2.70
  0 -9  6  -0.70  10.30
  0 -9  6  8.00  2.10
  0 -9  6  6.60  1.80
 -1  9 -6  63.99  3.50
 -1  9 -6  61.09  5.60
 -1  9 -6  60.99  3.80
 -1  9 -6  62.39  3.70
  1 -9  6  67.19  7.10
  1 -9  6  63.99  4.60
  1 -9  6  65.59  6.90
  1 -9  6  64.49  5.60
  1 -9  6  56.79  9.90
  1 -9  6  60.19  4.30
  1 -9  6  65.59  6.00
 -2  9 -6 1297.77  44.20
 -2  9 -6 1353.96  42.40
 -2  9 -6 1391.96  42.80
 -2  9 -6 1241.18  44.20
 -2  9 -6 1249.77  43.00
 -2  9 -6 1341.97  42.20
 -2  9 -6 1353.76  42.60
 -2  9 -6 1364.16  42.50
  2 -9  6 1387.26  44.80
  2 -9  6 1312.37  51.89
  2 -9  6 1329.37  48.90
  2 -9  6 1287.17  47.60
 -3  9 -6 1202.48  38.40
 -3  9 -6 1218.58  38.20
 -3  9 -6 1199.18  38.10
 -3  9 -6 1195.38  38.40
 -3  9 -6 1200.68  38.50
  3 -9  6 1219.78  46.20
  3 -9  6 1152.68  43.80
  3 -9  6 1171.48  39.00
  3 -9  6 1230.68  39.50
  3  8 -6 171.78  19.60
  3  8 -6 209.88  8.70
  3  8 -6 206.68  15.70
  3  8 -6 204.58  9.10
  3  8 -6 227.88  11.20
 -3 -8  6 215.08  8.50
 -3 -8  6 217.28  8.90
 -3 -8  6 181.68  9.80
  2  8 -6 878.31  40.20
  2  8 -6 751.32  36.60
  2  8 -6 801.12  30.50
  2  8 -6 792.22  39.50
  2  8 -6 812.62  26.30
  2  8 -6 793.32  30.40
  2  8 -6 786.72  27.50
 -2 -8  6 767.52  27.90
 -2 -8  6 828.42  26.90
 -2 -8  6 844.42  28.80
 -2 -8  6 796.72  27.00
  1  8 -6  79.09  8.70
  1  8 -6  71.69  10.70
  1  8 -6  73.49  5.80
  1  8 -6  65.39  15.10
  1  8 -6  79.19  4.90
 -1 -8  6  76.79  4.80
 -1 -8  6  66.59  6.00
 -1 -8  6  72.79  5.20
 -1 -8  6  65.69  6.50
 -1 -8  6  69.49  4.70
 -1 -8  6  72.59  4.20
 -1 -8  6  72.99  4.50
  0  8 -6 1311.07  42.10
  0  8 -6 1315.57  41.80
  0  8 -6 1320.57  45.10
  0  8 -6 1276.87  41.50
  0  8 -6 1202.58  41.00
  0  8 -6 1255.97  40.80
  0  8 -6 1320.67  42.70
  0 -8  6 1288.17  43.40
  0 -8  6 1273.57  41.50
  0 -8  6 1291.07  41.80
  0 -8  6 1287.47  41.40
  0 -8  6 1226.68  41.00
  0 -8  6 1278.57  42.10
  0 -8  6 1299.87  42.10
 -1  8 -6 3663.23 117.39
 -1  8 -6 3758.22 118.59
 -1  8 -6 3730.23 117.39
 -1  8 -6 3750.02 117.39
 -1  8 -6 3789.92 118.49
 -1  8 -6 3815.62 117.79
 -1  8 -6 3769.22 117.09
  1 -8  6 3639.74 117.89
  1 -8  6 3773.72 119.79
  1 -8  6 3632.54 118.49
  1 -8  6 3754.72 120.79
  1 -8  6 3672.43 117.29
  1 -8  6 4076.09 120.19
  1 -8  6 3831.32 118.59
 -2  8 -6 426.06  14.70
 -2  8 -6 435.66  14.40
 -2  8 -6 407.86  16.20
 -2  8 -6 417.16  15.80
 -2  8 -6 410.76  14.80
 -2  8 -6 422.26  14.10
 -2  8 -6 422.66  14.40
 -2  8 -6 419.26  14.50
  2 -8  6 385.26  17.80
  2 -8  6 396.26  23.50
  2 -8  6 414.86  19.80
  2 -8  6 428.26  16.60
 -3  8 -6  17.80  2.50
 -3  8 -6  16.20  4.00
 -3  8 -6  18.70  2.00
 -3  8 -6  16.70  2.10
  3 -8  6  15.90  7.20
  3 -8  6  13.80  2.80
  3 -8  6  14.20  6.10
  3 -8  6  14.70  3.30
  3 -8  6  12.90  5.10
  3  7 -6 943.11  39.60
  3  7 -6 890.21  40.70
  3  7 -6 815.82  38.30
  3  7 -6 784.42  29.20
  3  7 -6 863.31  31.90
  3  7 -6 899.71  28.10
 -3 -7  6 874.81  28.50
 -3 -7  6 852.31  29.70
  2  7 -6  29.10  6.70
  2  7 -6  35.40  10.00
  2  7 -6  29.10  4.60
  2  7 -6  35.00  5.30
  2  7 -6  36.10  2.90
 -2 -7  6  36.10  5.50
 -2 -7  6  28.00  4.00
 -2 -7  6  34.00  3.70
 -2 -7  6  30.50  4.80
  1  7 -6 4984.80 165.98
  1  7 -6 5132.29 163.88
  1  7 -6 5065.49 159.88
  1  7 -6 5317.37 157.78
  1  7 -6 5108.19 157.18
 -1 -7  6 4897.21 157.88
 -1 -7  6 4737.03 158.58
 -1 -7  6 5037.00 157.68
 -1 -7  6 5176.38 158.28
 -1 -7  6 5106.39 157.78
 -1 -7  6 5015.40 160.08
  0  7 -6 1391.56  47.20
  0  7 -6 1344.47  44.40
  0  7 -6 1391.06  44.80
  0 -7  6 1318.97  44.30
  0 -7  6 1437.36  46.00
  0 -7  6 1322.27  43.80
  0 -7  6 1350.86  45.50
  0 -7  6 1473.35  45.70
  0 -7  6 1402.76  44.20
  0 -7  6 1310.07  43.90
  0 -7  6 1309.47  48.30
 -1  7 -6 1374.06  44.10
 -1  7 -6 1395.86  44.60
 -1  7 -6 1372.86  43.70
 -1  7 -6 1389.66  43.60
 -1  7 -6 1413.46  45.50
 -1  7 -6 1383.36  43.60
 -1  7 -6 1381.56  45.00
 -1  7 -6 1413.76  43.80
  1 -7  6 1405.96  45.00
  1 -7  6 1358.76  45.50
  1 -7  6 1316.87  44.20
  1 -7  6 1428.46  46.30
  1 -7  6 1407.86  46.60
  1 -7  6 1248.28  43.60
  1 -7  6 1370.46  44.70
 -2  7 -6 792.92  26.00
 -2  7 -6 797.22  25.80
 -2  7 -6 777.72  26.90
 -2  7 -6 780.42  25.90
 -2  7 -6 783.42  25.70
 -2  7 -6 763.32  25.90
 -2  7 -6 809.52  27.30
  2 -7  6 785.12  30.20
  2 -7  6 755.32  29.80
  2 -7  6 803.92  28.90
 -3  7 -6 247.58  10.60
 -3  7 -6 242.48  9.20
 -3  7 -6 247.68  9.00
 -3  7 -6 256.07  9.20
 -3  7 -6 256.17  9.30
  3 -7  6 241.38  15.60
  3 -7  6 228.08  9.00
  3 -7  6 235.38  15.80
  3 -7  6 276.67  19.10
  3 -7  6 246.58  10.40
  3 -7  6 249.38  10.20
  4  6 -6 184.08  11.10
  4  6 -6 229.58  12.00
  4  6 -6 204.88  9.20
  3  6 -6 846.62  32.30
  3  6 -6 883.11  41.70
  3  6 -6 850.21  39.00
  3  6 -6 959.30  42.20
  3  6 -6 847.62  29.80
  3  6 -6 896.71  28.40
 -3 -6  6 834.32  29.80
 -3 -6  6 897.31  28.90
  2  6 -6 429.26  29.60
  2  6 -6 476.55  23.00
  2  6 -6 403.86  26.80
  2  6 -6 409.76  23.80
  2  6 -6 418.06  18.40
  2  6 -6 408.96  14.50
  2  6 -6 433.86  15.80
  2  6 -6 407.46  17.40
  2  6 -6 392.66  16.20
  2  6 -6 433.86  26.30
 -2 -6  6 452.05  15.60
 -2 -6  6 424.06  16.00
 -2 -6  6 414.36  14.70
 -2 -6  6 406.36  15.20
  1  6 -6 2246.08  68.89
  1  6 -6 2070.99  72.39
 -1 -6  6 2124.59  66.89
 -1 -6  6 2025.70  71.99
 -1 -6  6 2107.09  66.99
 -1 -6  6 2161.48  68.39
 -1 -6  6 2082.29  66.99
  0  6 -6 3515.95 114.49
  0 -6  6 3543.65 113.99
  0 -6  6 3750.02 115.69
  0 -6  6 3694.23 114.29
  0 -6  6 3701.13 114.39
  0 -6  6 3704.33 114.59
  0 -6  6 3617.54 118.09
 -1  6 -6 276.07  10.20
 -1  6 -6 261.47  9.50
 -1  6 -6 270.57  9.80
 -1  6 -6 281.67  10.60
 -1  6 -6 260.07  9.60
 -1  6 -6 300.17  9.50
 -1  6 -6 257.57  10.40
  1 -6  6 255.67  10.80
  1 -6  6 268.77  11.60
  1 -6  6 278.77  10.40
 -2  6 -6 1102.99  35.40
 -2  6 -6 1114.89  36.40
 -2  6 -6 1102.89  35.50
 -2  6 -6 1116.39  35.60
 -2  6 -6 1096.59  35.80
 -2  6 -6 1121.19  35.50
 -2  6 -6 1131.69  36.90
  2 -6  6 1080.89  39.30
  2 -6  6 1121.59  37.50
  2 -6  6 1042.00  35.50
 -3  6 -6  12.70  2.10
 -3  6 -6  10.00  2.20
 -3  6 -6  8.20  1.90
 -3  6 -6  6.70  2.20
 -3  6 -6  10.10  2.30
  3 -6  6  7.50  2.90
  3 -6  6  13.60  6.70
  3 -6  6  8.70  1.70
  3 -6  6  8.60  4.60
  3 -6  6  13.30  7.40
  3 -6  6  8.30  2.20
 -4  6 -6 249.88  9.40
 -4  6 -6 258.07  9.90
 -4  6 -6 250.97  9.20
  4 -6  6 267.57  9.40
  4 -6  6 282.57  13.10
  4 -6  6 260.07  11.80
  4  5 -6  0.30  1.10
  4  5 -6  0.40  3.70
  4  5 -6  1.00  2.80
  4  5 -6  2.00  2.30
  4  5 -6  2.60  2.60
  3  5 -6 285.17  11.80
  3  5 -6 316.07  23.30
  3  5 -6 284.27  12.20
  3  5 -6 290.77  19.20
  3  5 -6 280.57  13.90
  3  5 -6 292.87  10.30
  3  5 -6 291.07  21.40
  3  5 -6 285.27  19.10
 -3 -5  6 258.97  11.60
 -3 -5  6 290.77  10.90
  2  5 -6 4304.67 134.29
  2  5 -6 4520.85 147.59
  2  5 -6 4158.68 135.29
  2  5 -6 3981.00 133.09
  2  5 -6 4346.27 152.38
  2  5 -6 4797.32 143.59
  2  5 -6 4185.78 133.29
  2  5 -6 4141.69 137.19
  2  5 -6 4164.48 143.19
  2  5 -6 4354.46 136.79
  2  5 -6 4208.08 148.49
 -2 -5  6 4367.46 134.89
 -2 -5  6 4226.68 133.79
 -2 -5  6 4139.29 133.49
  1  5 -6 2614.84  79.49
  1  5 -6 2342.97  82.69
 -1 -5  6 2537.55  78.99
 -1 -5  6 2416.86  77.59
 -1 -5  6 2476.65  81.99
 -1 -5  6 2399.76  77.79
 -1 -5  6 2515.65  77.79
  0  5 -6 235.38  8.10
  0  5 -6 240.78  9.00
  0  5 -6 236.08  9.10
  0 -5  6 252.67  8.80
  0 -5  6 224.48  8.90
  0 -5  6 241.78  9.80
  0 -5  6 226.88  8.60
  0 -5  6 229.68  8.90
  0 -5  6 245.18  11.70
 -1  5 -6  75.99  3.50
 -1  5 -6  79.39  3.80
 -1  5 -6  81.79  4.20
 -1  5 -6  82.69  3.50
 -1  5 -6  77.39  4.30
  1 -5  6  77.79  4.20
  1 -5  6  82.39  5.20
  1 -5  6  73.39  4.50
  1 -5  6  84.39  7.40
 -2  5 -6 1351.56  43.70
 -2  5 -6 1345.67  42.30
 -2  5 -6 1333.07  42.40
 -2  5 -6 1348.97  42.50
 -2  5 -6 1340.47  42.50
 -2  5 -6 1339.97  42.50
 -2  5 -6 1350.16  43.20
  2 -5  6 1311.47  42.50
  2 -5  6 1225.48  49.00
  2 -5  6 1316.37  46.90
  2 -5  6 1355.06  45.10
  2 -5  6 1352.36  44.30
 -3  5 -6 2198.98  68.69
 -3  5 -6 2242.88  68.89
 -3  5 -6 2263.97  70.79
 -3  5 -6 2195.38  68.69
 -3  5 -6 2250.37  69.19
  3 -5  6 2265.67  69.59
  3 -5  6 2087.49  75.69
  3 -5  6 2143.79  69.89
  3 -5  6 2074.99  68.79
  3 -5  6 2055.79  75.79
  3 -5  6 2232.68  84.19
 -4  5 -6 396.86  14.10
 -4  5 -6 383.26  13.30
 -4  5 -6 395.46  13.50
  4 -5  6 391.16  16.20
  4 -5  6 427.96  18.80
  4 -5  6 407.16  13.70
  4  4 -6 1434.26  48.30
  4  4 -6 1598.74  54.99
  4  4 -6 1468.75  54.79
  4  4 -6 1540.15  47.70
  4  4 -6 1468.65  50.59
  4  4 -6 1610.14  57.89
  3  4 -6 1445.36  46.50
  3  4 -6 1409.36  56.19
  3  4 -6 1470.35  63.09
  3  4 -6 1489.45  61.69
  3  4 -6 1446.16  47.10
  3  4 -6 1427.66  50.09
  3  4 -6 1407.36  51.99
  3  4 -6 1499.75  58.99
  3  4 -6 1441.26  45.80
  3  4 -6 1426.36  48.10
 -3 -4  6 1390.86  46.70
  2  4 -6 258.17  20.70
  2  4 -6 251.57  11.30
  2  4 -6 232.48  10.10
  2  4 -6 241.18  17.20
  2  4 -6 255.87  23.30
  2  4 -6 243.68  9.10
  2  4 -6 244.88  12.80
  2  4 -6 249.58  15.30
  2  4 -6 239.68  10.80
  2  4 -6 246.68  20.10
 -2 -4  6 241.98  11.20
 -2 -4  6 259.07  9.60
 -2 -4  6 253.87  9.00
  1  4 -6 2300.57  73.89
  1  4 -6 2257.57  77.09
 -1 -4  6 2331.87  76.29
 -1 -4  6 2417.86  73.59
 -1 -4  6 2256.37  72.59
 -1 -4  6 2293.77  72.29
 -1 -4  6 2286.37  72.39
  0  4 -6 1301.07  41.70
  0  4 -6 1256.77  41.90
  0  4 -6 1315.27  41.60
  0  4 -6 1313.67  40.80
  0 -4  6 1340.47  44.50
  0 -4  6 1338.07  41.40
  0 -4  6 1271.67  40.80
  0 -4  6 1222.38  41.40
  0 -4  6 1341.47  42.50
  0 -4  6 1281.47  41.20
 -1  4 -6 5818.62 177.68
  1 -4  6 5626.24 181.78
 -2  4 -6 2034.10  64.89
 -2  4 -6 2131.69  67.69
 -2  4 -6 2069.89  64.89
 -2  4 -6 2062.39  65.09
 -2  4 -6 2119.09  66.29
 -2  4 -6 2022.30  64.99
 -2  4 -6 2112.19  64.99
  2 -4  6 2027.80  65.09
  2 -4  6 2101.39  67.49
  2 -4  6 1885.21  71.09
  2 -4  6 2053.99  68.09
  2 -4  6 2139.69  66.69
 -3  4 -6 124.99  5.80
 -3  4 -6 130.19  5.60
 -3  4 -6 126.19  5.90
 -3  4 -6 129.69  5.60
 -3  4 -6 132.19  6.70
 -3  4 -6 136.59  5.70
  3 -4  6 120.69  12.10
  3 -4  6 126.39  6.70
  3 -4  6 125.09  5.60
  3 -4  6 135.79  6.60
  3 -4  6 122.49  15.40
  3 -4  6 127.09  10.40
 -4  4 -6 1091.29  34.70
 -4  4 -6 1074.29  34.50
 -4  4 -6 1057.59  35.10
  4 -4  6 1077.19  37.50
  4 -4  6 1117.69  34.90
  4 -4  6 1098.59  41.40
  4  3 -6  35.60  2.80
  4  3 -6  35.10  2.60
  4  3 -6  37.50  4.40
  4  3 -6  28.90  4.50
  4  3 -6  40.10  7.30
  4  3 -6  27.60  5.50
  4  3 -6  37.50  8.70
  3  3 -6 762.22  37.30
  3  3 -6 774.82  32.00
  3  3 -6 743.33  28.50
  3  3 -6 715.33  39.50
  3  3 -6 768.62  25.40
  3  3 -6 764.42  38.60
  3  3 -6 745.53  32.10
  3  3 -6 706.83  34.70
  3  3 -6 757.62  24.30
  3  3 -6 735.53  25.50
  3  3 -6 721.43  33.40
  3  3 -6 746.73  26.60
 -3 -3  6 727.63  25.00
  2  3 -6 196.88  8.70
  2  3 -6 216.58  11.60
  2  3 -6 204.68  13.20
  2  3 -6 203.88  9.60
  2  3 -6 202.18  21.10
  2  3 -6 197.68  9.40
  2  3 -6 211.98  18.70
  2  3 -6 201.38  17.70
  2  3 -6 201.08  7.70
  2  3 -6 203.18  15.70
 -2 -3  6 203.48  7.50
 -2 -3  6 206.78  8.50
  1  3 -6 2622.64  90.89
  1  3 -6 2798.22  88.09
 -1 -3  6 2825.72  87.69
 -1 -3  6 2781.92  86.69
 -1 -3  6 2780.62  86.59
 -1 -3  6 2825.82  90.39
  0  3 -6 1432.76  46.10
  0  3 -6 1474.15  48.50
  0  3 -6 1460.25  45.50
  0  3 -6 1496.45  46.80
  0  3 -6 1494.15  46.90
  0 -3  6 1448.46  46.30
  0 -3  6 1439.06  46.70
  0 -3  6 1487.25  47.40
 -1  3 -6 225.08  8.30
 -1  3 -6 233.58  8.10
 -1  3 -6 228.08  8.10
 -1  3 -6 241.38  9.00
 -1  3 -6 251.37  8.60
  1 -3  6 230.18  8.70
  1 -3  6 235.98  9.70
  1 -3  6 222.18  9.00
  1 -3  6 231.88  11.90
 -2  3 -6 2480.45  79.09
 -2  3 -6 2498.95  78.09
 -2  3 -6 2501.65  78.09
 -2  3 -6 2504.95  78.09
 -2  3 -6 2462.65  77.89
 -2  3 -6 2491.05  77.99
  2 -3  6 2394.56  84.19
  2 -3  6 2557.54  79.49
  2 -3  6 2483.25  82.39
  2 -3  6 2526.65  80.29
  2 -3  6 2471.85  78.09
  2 -3  6 2453.45  80.79
 -3  3 -6 311.87  12.30
 -3  3 -6 316.17  11.20
 -3  3 -6 320.07  11.10
 -3  3 -6 303.77  11.20
 -3  3 -6 315.37  11.30
  3 -3  6 312.07  12.00
  3 -3  6 277.77  21.60
  3 -3  6 295.27  11.10
  3 -3  6 297.67  16.40
  3 -3  6 328.67  15.30
 -4  3 -6 247.18  10.10
 -4  3 -6 244.28  10.10
 -4  3 -6 251.97  9.10
 -4  3 -6 253.27  9.00
  4 -3  6 267.77  9.20
  4 -3  6 236.98  14.20
  4 -3  6 267.27  11.60
  4  2 -6 1610.14  50.09
  4  2 -6 1676.13  60.89
  4  2 -6 1534.55  52.59
  4  2 -6 1584.34  55.09
  4  2 -6 1557.44  56.39
  4  2 -6 1542.85  50.09
  4  2 -6 1476.25  60.89
  3  2 -6  8.80  2.50
  3  2 -6  3.40  3.60
  3  2 -6  6.20  3.40
  3  2 -6  7.70  4.80
  3  2 -6  5.20  1.60
  3  2 -6  9.50  4.30
  3  2 -6  9.80  6.90
  3  2 -6  11.80  7.40
  3  2 -6  5.80  7.10
  3  2 -6  5.80  2.60
  3  2 -6  4.20  5.10
  2  2 -6 1010.00  35.10
  2  2 -6 927.81  46.70
  2  2 -6 1052.39  40.20
  2  2 -6 1032.30  47.20
  2  2 -6 1164.38  40.20
  2  2 -6 1031.60  34.10
  2  2 -6 1042.80  33.80
  2  2 -6 1025.80  42.30
  2  2 -6 1049.40  35.60
  2  2 -6 1007.10  39.00
  2  2 -6 1007.70  45.70
  2  2 -6 1054.09  33.50
 -2 -2  6 1064.29  36.40
 -2 -2  6 1107.19  33.20
 -2 -2  6 990.30  38.30
 -2 -2  6 1058.79  34.10
  1  2 -6 1278.77  41.20
  1  2 -6 1320.27  40.10
  1  2 -6 1224.78  43.80
 -1 -2  6 1260.07  40.70
 -1 -2  6 1235.98  39.80
 -1 -2  6 1216.88  39.70
 -1 -2  6 1267.47  43.10
  0  2 -6 3638.84 112.79
  0  2 -6 3499.85 114.69
  0  2 -6 3633.44 111.59
  0  2 -6 3645.14 112.09
  0 -2  6 3666.73 113.19
  0 -2  6 3630.54 112.19
  0 -2  6 3612.84 112.29
  0 -2  6 3559.14 115.19
  0 -2  6 3545.05 112.69
 -1  2 -6 1255.07  39.70
 -1  2 -6 1261.07  40.00
 -1  2 -6 1243.28  39.90
 -1  2 -6 1255.87  39.30
 -1  2 -6 1246.78  40.50
  1 -2  6 1231.58  43.50
  1 -2  6 1259.97  41.20
  1 -2  6 1290.87  40.30
  1 -2  6 1265.27  40.60
 -2  2 -6 232.18  8.70
 -2  2 -6 235.08  8.70
 -2  2 -6 238.38  8.50
 -2  2 -6 222.68  8.90
 -2  2 -6 244.48  9.10
 -2  2 -6 245.68  8.30
 -2  2 -6 258.07  9.60
  2 -2  6 235.38  10.40
  2 -2  6 228.48  8.80
  2 -2  6 231.38  14.30
  2 -2  6 242.78  11.00
  2 -2  6 232.08  9.70
  2 -2  6 238.38  10.30
  2 -2  6 225.68  14.50
 -3  2 -6 829.72  28.10
 -3  2 -6 840.52  26.80
 -3  2 -6 808.32  27.00
 -3  2 -6 783.52  26.80
  3 -2  6 860.21  31.50
  3 -2  6 807.32  27.50
  3 -2  6 805.82  26.80
  3 -2  6 806.42  32.30
 -4  2 -6 1205.48  39.60
  4 -2  6 1222.58  41.80
  4 -2  6 1267.57  39.70
  4 -2  6 1142.99  45.80
  4 -2  6 1378.76  41.70
  4  1 -6  23.50  5.20
  4  1 -6  26.60  8.60
  4  1 -6  31.30  6.00
  4  1 -6  33.00  3.90
  4  1 -6  29.60  8.10
  4  1 -6  27.60  5.40
  4  1 -6  33.20  2.80
  3  1 -6  64.19  12.10
  3  1 -6  58.29  11.30
  3  1 -6  67.29  4.80
  3  1 -6  53.89  7.00
  3  1 -6  58.99  12.80
  3  1 -6  64.09  3.70
  3  1 -6  58.59  6.30
  3  1 -6  62.39  5.10
  3  1 -6  56.59  9.70
  3  1 -6  59.59  4.70
  3  1 -6  62.99  11.80
  3  1 -6  64.79  9.20
  3  1 -6  58.59  7.80
  3  1 -6  56.79  10.00
 -3 -1  6  55.59  7.50
 -3 -1  6  55.59  4.20
  2  1 -6 5824.82 192.18
  2  1 -6 5816.42 190.08
  2  1 -6 5483.55 177.08
  2  1 -6 5661.83 191.98
  2  1 -6 5662.63 176.08
  2  1 -6 5657.33 182.88
 -2 -1  6 5645.74 176.28
 -2 -1  6 5706.63 180.38
 -2 -1  6 5611.24 176.78
 -2 -1  6 5379.26 175.18
  1  1 -6 6423.46 202.88
  1  1 -6 6417.26 199.28
 -1 -1  6 6365.96 202.08
  0  1 -6 957.80  29.90
  0  1 -6 899.51  30.50
  0  1 -6 955.40  31.00
  0  1 -6 948.31  32.30
  0  1 -6 931.41  30.40
  0 -1  6 998.70  33.40
  0 -1  6 969.40  30.70
  0 -1  6 965.60  30.40
  0 -1  6 946.51  30.40
  0 -1  6 973.60  31.30
 -1  1 -6  90.79  4.60
 -1  1 -6 106.49  3.80
 -1  1 -6 108.19  4.20
 -1  1 -6  98.79  4.50
 -1  1 -6 109.19  4.80
  1 -1  6 101.19  4.90
  1 -1  6 107.59  5.30
 -2  1 -6 185.18  7.30
 -2  1 -6 160.48  7.30
 -2  1 -6 181.18  6.30
 -2  1 -6 171.28  6.80
 -2  1 -6 179.78  6.80
 -2  1 -6 171.28  6.50
 -2  1 -6 176.28  7.40
  2 -1  6 173.38  8.20
  2 -1  6 169.38  7.70
  2 -1  6 155.28  12.20
  2 -1  6 153.58  15.80
  2 -1  6 182.48  8.90
  2 -1  6 165.88  6.80
  2 -1  6 157.28  12.00
  2 -1  6 167.58  8.50
 -3  1 -6 6743.33 209.28
 -3  1 -6 7032.50 208.08
 -3  1 -6 6854.01 207.98
 -3  1 -6 6821.22 208.18
  3 -1  6 6657.03 213.38
  3 -1  6 6653.13 208.48
  3 -1  6 5765.62 219.18
  3 -1  6 6574.34 207.98
  3 -1  6 7085.89 213.58
 -4  1 -6  87.19  4.60
 -4  1 -6  83.79  4.50
  4 -1  6  99.59  6.30
  4 -1  6  92.89  4.20
  4 -1  6  96.19  6.20
  4 -1  6  84.09  7.70
  4  0 -6 522.95  27.80
  4  0 -6 560.74  29.80
  4  0 -6 537.85  19.00
  4  0 -6 572.64  23.30
  4  0 -6 587.84  25.20
  4  0 -6 591.84  19.50
  3  0 -6 3274.37  96.89
  3  0 -6 3161.68 112.29
  3  0 -6 3132.29  97.89
  3  0 -6 3065.79 104.89
  3  0 -6 3211.48 102.39
  3  0 -6 3006.50  96.79
  3  0 -6 3104.59 106.69
  3  0 -6 2944.21 110.79
  3  0 -6 3129.79  97.59
  3  0 -6 3090.49 106.89
  3  0 -6 2978.20 113.29
  3  0 -6 2958.30  99.59
  3  0 -6 3163.18 104.19
  3  0 -6 2954.40  99.89
 -3  0  6 2979.50  96.49
 -3  0  6 2897.01  97.39
  2  0 -6  94.39  4.80
  2  0 -6  85.39  5.60
  2  0 -6  86.79  7.70
  2  0 -6  83.09  12.90
  2  0 -6  85.39  14.90
 -2  0  6  91.99  8.90
 -2  0  6  86.09  4.60
 -2  0  6  88.79  3.90
  1  0 -6  73.09  3.10
  1  0 -6  74.29  3.00
  1  0 -6  64.19  5.40
  1  0 -6  58.09  3.90
 -1  0  6  75.29  3.80
 -1  0  6  73.99  3.60
 -1  0  6  70.79  2.90
 -1  0  6  70.79  3.20
  0  0 -6 538.15  17.50
  0  0 -6 556.64  18.70
  0  0 -6 526.75  18.00
  0  0 -6 521.35  18.00
  0  0 -6 555.24  19.80
  0  0  6 560.24  18.70
  0  0  6 548.75  18.00
  0  0  6 547.05  17.80
  0  0  6 562.54  20.70
  0  0  6 564.64  17.90
  0  0  6 568.84  18.00
 -1  0 -6 6687.83 207.58
 -2  0 -6 1154.18  37.60
 -2  0 -6 1227.08  37.30
 -2  0 -6 1161.18  37.70
 -2  0 -6 1199.48  37.50
 -2  0 -6 1198.28  37.70
 -2  0 -6 1122.39  37.70
 -2  0 -6 1233.98  38.70
  2  0  6 1102.89  43.20
  2  0  6 1106.29  47.70
  2  0  6 1208.78  39.90
  2  0  6 1229.28  38.60
  2  0  6 1033.20  42.00
  2  0  6 1215.68  39.60
  2  0  6 1172.08  37.70
  2  0  6 1171.68  40.00
  2  0  6 1212.08  38.20
 -3  0 -6  7.40  1.90
 -3  0 -6  7.10  3.00
 -3  0 -6  9.40  2.80
 -3  0 -6  12.10  2.50
 -3  0 -6  9.70  2.30
  3  0  6  11.70  4.20
  3  0  6  11.30  5.00
  3  0  6  9.60  2.90
  3  0  6  8.10  5.40
 -4  0 -6  60.39  4.10
 -4  0 -6  69.69  4.00
  4  0  6  75.59  3.40
  4  0  6  70.79  5.40
  4  0  6  70.39  5.70
  4  0  6  65.49  6.40
  4 -1 -6 591.44  31.10
  4 -1 -6 641.64  27.20
  4 -1 -6 623.44  21.20
  4 -1 -6 631.24  24.90
  4 -1 -6 617.14  20.30
  4 -1 -6 598.64  20.50
  4 -1 -6 566.04  28.60
  3 -1 -6 1130.39  46.70
  3 -1 -6 1110.59  49.90
  3 -1 -6 1181.08  39.40
  3 -1 -6 1124.59  52.69
  3 -1 -6 1206.18  38.30
  3 -1 -6 1191.18  45.30
  3 -1 -6 1190.48  45.50
  3 -1 -6 1196.88  48.20
  3 -1 -6 1168.18  41.20
  3 -1 -6 1161.18  39.00
  3 -1 -6 1172.68  38.00
 -3  1  6 1140.39  37.90
 -3  1  6 1170.98  37.00
 -3  1  6 1095.99  38.70
  2 -1 -6  80.59  6.00
  2 -1 -6  70.69  7.00
  2 -1 -6  84.19  4.70
  2 -1 -6  70.99  14.30
 -2  1  6  77.69  3.60
 -2  1  6  78.79  4.30
  1 -1 -6 158.78  7.30
  1 -1 -6 176.48  6.30
  1 -1 -6 190.18  6.40
  1 -1 -6 164.28  9.10
 -1  1  6 161.88  6.20
 -1  1  6 168.58  6.90
 -1  1  6 173.98  6.70
  0 -1 -6 2706.43  81.49
  0 -1 -6 2722.43  82.69
  0 -1 -6 2609.34  82.09
  0 -1 -6 2674.43  81.89
  0 -1 -6 2622.24  83.69
  0  1  6 2316.07  85.69
  0  1  6 2717.23  81.89
  0  1  6 2606.84  82.49
  0  1  6 2607.64  81.69
  0  1  6 2603.14  81.69
 -1 -1 -6 616.44  20.00
 -1 -1 -6 581.84  20.30
 -1 -1 -6 593.84  19.30
 -1 -1 -6 570.64  19.10
 -1 -1 -6 566.14  19.30
 -1 -1 -6 604.74  18.80
 -1 -1 -6 584.34  19.80
  1  1  6 522.85  20.10
  1  1  6 614.14  20.20
 -2 -1 -6 1401.76  44.20
 -2 -1 -6 1394.16  44.70
 -2 -1 -6 1409.36  43.60
 -2 -1 -6 1339.37  44.00
 -2 -1 -6 1366.06  44.10
 -2 -1 -6 1361.26  43.90
 -2 -1 -6 1414.66  43.90
 -2 -1 -6 1405.66  45.00
  2  1  6 1311.37  53.79
  2  1  6 1411.76  44.40
  2  1  6 1210.78  48.10
  2  1  6 1290.27  46.40
  2  1  6 1428.86  44.80
  2  1  6 1449.95  68.19
  2  1  6 1427.66  46.10
 -3 -1 -6  8.80  2.30
 -3 -1 -6  10.80  3.80
 -3 -1 -6  9.50  2.10
 -3 -1 -6  7.90  2.40
 -3 -1 -6  9.10  2.50
  3  1  6  6.00  1.60
  3  1  6  9.50  4.60
  3  1  6  10.50  5.40
  3  1  6  8.80  2.70
  3  1  6  15.30  5.70
 -4 -1 -6 537.75  18.60
 -4 -1 -6 539.05  18.70
  4  1  6 577.04  22.50
  4  1  6 598.64  18.50
  4  1  6 586.04  20.60
  4 -2 -6 1274.97  41.60
  4 -2 -6 1249.18  40.60
  4 -2 -6 1269.27  40.70
  4 -2 -6 1360.16  45.70
  4 -2 -6 1183.18  51.29
  4 -2 -6 1214.98  48.80
  4 -2 -6 1319.77  48.40
  3 -2 -6  1.20  4.20
  3 -2 -6  2.20  5.70
  3 -2 -6  5.40  6.50
  3 -2 -6  2.30  5.90
  3 -2 -6  1.90  2.40
  3 -2 -6  5.30  5.50
  3 -2 -6  -0.30  5.10
  3 -2 -6  2.60  3.70
  3 -2 -6  7.90  2.70
 -3  2  6  2.90  1.70
 -3  2  6  1.90  1.70
 -3  2  6  3.50  3.60
  2 -2 -6 189.78  11.70
  2 -2 -6 192.78  17.50
  2 -2 -6 205.98  8.40
  2 -2 -6 213.18  8.70
  2 -2 -6 195.48  19.10
 -2  2  6 185.58  7.90
 -2  2  6 205.58  7.20
 -2  2  6 202.08  8.10
  1 -2 -6 1938.81  61.69
  1 -2 -6 1796.22  62.49
  1 -2 -6 1975.90  61.69
  1 -2 -6 2039.50  65.29
 -1  2  6 1963.10  61.59
 -1  2  6 2075.89  65.99
 -1  2  6 1916.21  61.59
 -1  2  6 1968.20  62.29
 -1  2  6 1953.20  62.09
  0 -2 -6 6087.39 188.28
  0 -2 -6 6146.19 187.38
  0 -2 -6 6015.30 186.28
  0 -2 -6 5743.43 187.18
 -1 -2 -6 3367.76 102.29
 -1 -2 -6 3157.98 101.29
 -1 -2 -6 3288.57 100.79
 -1 -2 -6 3254.17 101.09
 -1 -2 -6 3207.38 101.29
 -1 -2 -6 3226.18 101.89
  1  2  6 3051.19 102.49
  1  2  6 3350.26 102.69
  1  2  6 3222.98 101.99
 -2 -2 -6 899.81  30.10
 -2 -2 -6 905.61  29.40
 -2 -2 -6 906.91  29.80
 -2 -2 -6 902.61  29.60
 -2 -2 -6 881.21  29.60
 -2 -2 -6 901.61  29.30
 -2 -2 -6 931.61  30.60
  2  2  6 792.12  33.30
  2  2  6 960.90  54.39
  2  2  6 926.41  29.70
  2  2  6 938.01  30.20
  2  2  6 891.11  39.00
  2  2  6 937.81  31.50
  2  2  6 844.62  32.20
 -3 -2 -6  57.39  4.20
 -3 -2 -6  55.59  4.40
 -3 -2 -6  62.09  4.00
 -3 -2 -6  68.19  4.80
  3  2  6  58.59  9.20
  3  2  6  74.99  17.50
  3  2  6  63.09  3.80
  3  2  6  58.59  6.90
  3  2  6  58.59  4.70
  3  2  6  57.79  7.00
  4 -3 -6  45.90  5.90
  4 -3 -6  46.20  8.60
  4 -3 -6  43.70  3.70
  4 -3 -6  43.00  3.80
  4 -3 -6  51.59  3.60
  4 -3 -6  48.60  7.70
  3 -3 -6 122.39  7.30
  3 -3 -6 107.79  12.40
  3 -3 -6 112.49  14.60
  3 -3 -6 131.79  7.00
  3 -3 -6 120.39  9.70
  3 -3 -6 117.89  13.70
  3 -3 -6 127.99  13.90
 -3  3  6 127.59  6.10
 -3  3  6 111.49  6.50
 -3  3  6 115.29  7.70
 -3  3  6 124.29  5.30
  2 -3 -6 4490.25 141.99
  2 -3 -6 4734.23 146.89
  2 -3 -6 4285.97 154.88
  2 -3 -6 4357.06 146.19
  2 -3 -6 4755.92 141.49
  2 -3 -6 4431.46 140.99
  2 -3 -6 4549.44 140.09
  2 -3 -6 4607.24 152.78
 -2  3  6 4330.87 139.49
 -2  3  6 4353.06 139.69
 -2  3  6 4431.56 140.39
  1 -3 -6 4475.95 161.28
  1 -3 -6 5503.85 161.78
  1 -3 -6 5262.87 164.98
 -1  3  6 5317.57 160.88
 -1  3  6 5346.86 161.88
 -1  3  6 5178.58 161.08
  0 -3 -6 450.75  15.70
  0 -3 -6 489.65  15.50
  0 -3 -6 453.95  16.00
  0 -3 -6 460.25  16.00
  0 -3 -6 447.86  16.80
  0 -3 -6 472.35  16.70
  0 -3 -6 463.15  17.10
  0  3  6 466.85  15.40
  0  3  6 481.35  15.50
  0  3  6 463.15  16.30
  0  3  6 466.15  15.30
 -1 -3 -6 526.35  18.50
 -1 -3 -6 541.45  17.30
 -1 -3 -6 518.75  17.90
 -1 -3 -6 510.85  17.50
 -1 -3 -6 509.85  18.50
 -1 -3 -6 503.25  17.80
  1  3  6 521.15  19.00
  1  3  6 541.35  18.30
  1  3  6 557.84  19.50
 -2 -3 -6  28.70  2.70
 -2 -3 -6  27.00  3.00
 -2 -3 -6  27.50  4.00
 -2 -3 -6  29.30  4.50
 -2 -3 -6  32.70  3.10
 -2 -3 -6  29.70  3.00
  2  3  6  29.80  18.90
  2  3  6  27.00  4.30
  2  3  6  28.90  4.60
  2  3  6  23.20  6.10
  2  3  6  26.60  5.60
  2  3  6  30.20  10.50
  2  3  6  29.80  3.30
 -3 -3 -6 1783.82  54.89
 -3 -3 -6 1786.42  55.09
 -3 -3 -6 1730.03  54.69
 -3 -3 -6 1710.33  56.19
  3  3  6 1726.53  62.49
  3  3  6 1539.65  58.39
  3  3  6 1937.11  79.39
  3  3  6 1723.53  54.59
  3  3  6 1534.45  54.99
  4 -4 -6 452.25  16.60
  4 -4 -6 513.15  23.80
  4 -4 -6 447.26  22.90
  4 -4 -6 459.55  17.00
  4 -4 -6 512.05  20.00
  3 -4 -6 991.30  46.30
  3 -4 -6 1146.69  40.10
  3 -4 -6 1048.90  35.40
  3 -4 -6 1029.50  43.30
  3 -4 -6 1003.40  35.90
  3 -4 -6 1066.19  34.00
  3 -4 -6 1106.19  42.30
  3 -4 -6 1040.30  46.80
 -3  4  6 994.90  35.70
 -3  4  6 978.20  33.60
 -3  4  6 1025.00  34.70
 -3  4  6 1055.99  33.40
  2 -4 -6 1075.39  39.30
  2 -4 -6 1151.48  37.50
  2 -4 -6 1177.78  38.60
  2 -4 -6 1179.58  39.10
  2 -4 -6 1054.79  49.90
  2 -4 -6 1160.38  43.10
  2 -4 -6 1164.88  50.39
 -2  4  6 1158.78  36.90
 -2  4  6 1231.38  38.30
 -2  4  6 1197.28  37.80
 -2  4  6 1161.58  37.10
  1 -4 -6  23.00  4.10
  1 -4 -6  25.70  2.90
  1 -4 -6  25.50  3.20
 -1  4  6  25.40  3.00
 -1  4  6  26.80  2.40
 -1  4  6  28.90  2.00
 -1  4  6  27.20  2.60
  0 -4 -6 836.92  27.70
  0 -4 -6 840.82  27.80
  0 -4 -6 903.31  29.10
  0 -4 -6 799.92  28.70
  0 -4 -6 881.21  27.40
  0 -4 -6 854.21  28.10
  0  4  6 861.11  27.50
  0  4  6 818.82  27.20
  0  4  6 837.42  28.20
  0  4  6 828.12  27.10
 -1 -4 -6 2623.64  83.69
 -1 -4 -6 2641.44  83.39
 -1 -4 -6 2597.64  82.29
 -1 -4 -6 2585.64  82.39
 -1 -4 -6 2636.64  82.19
 -1 -4 -6 2666.73  82.79
 -1 -4 -6 2570.64  82.39
  1  4  6 2547.05  83.19
  1  4  6 2742.03  84.89
  1  4  6 2496.45  83.99
  1  4  6 2611.44  82.99
  1  4  6 2729.23  83.29
 -2 -4 -6 1572.04  49.10
 -2 -4 -6 1623.74  50.39
 -2 -4 -6 1573.24  48.80
 -2 -4 -6 1508.95  49.80
 -2 -4 -6 1546.15  49.60
  2  4  6 1592.04  50.79
  2  4  6 1326.27  73.09
  2  4  6 1513.35  52.79
  2  4  6 1453.25  51.89
  2  4  6 1549.54  49.40
  2  4  6 1490.65  57.29
 -3 -4 -6 210.18  9.80
 -3 -4 -6 229.58  8.80
 -3 -4 -6 232.88  8.70
 -3 -4 -6 240.98  8.90
  3  4  6 197.48  8.70
  3  4  6 237.18  29.50
  3  4  6 196.68  11.20
  3  4  6 213.28  8.20
  4 -5 -6  14.90  2.70
  4 -5 -6  10.80  5.50
  4 -5 -6  11.10  5.20
  4 -5 -6  10.20  2.10
  4 -5 -6  14.90  5.90
 -4  5  6  10.00  2.40
  3 -5 -6 558.94  27.70
  3 -5 -6 576.04  22.00
  3 -5 -6 614.74  33.30
  3 -5 -6 588.74  20.10
  3 -5 -6 557.04  30.20
  3 -5 -6 641.94  28.30
  3 -5 -6 589.34  21.60
 -3  5  6 611.04  19.80
 -3  5  6 606.44  21.20
  2 -5 -6 1364.06  51.29
  2 -5 -6 1543.05  61.89
  2 -5 -6 1361.66  59.09
  2 -5 -6 1431.66  45.70
  2 -5 -6 1372.56  47.80
  2 -5 -6 1484.25  47.40
  2 -5 -6 1499.35  47.70
 -2  5  6 1372.76  46.00
 -2  5  6 1355.26  45.30
 -2  5  6 1397.46  45.40
 -2  5  6 1445.96  46.20
 -2  5  6 1457.35  46.70
 -2  5  6 1435.86  45.30
  1 -5 -6 1794.42  58.79
  1 -5 -6 1828.82  59.79
  1 -5 -6 1975.40  59.89
  1 -5 -6 1631.84  59.69
  1 -5 -6 1848.72  61.59
 -1  5  6 1837.32  57.79
 -1  5  6 1851.81  58.89
 -1  5  6 1857.31  59.19
 -1  5  6 1862.41  59.29
 -1  5  6 1905.11  58.29
 -1  5  6 1814.52  57.89
 -1  5  6 1814.92  57.89
  0 -5 -6 938.71  29.20
  0 -5 -6 856.61  30.60
  0 -5 -6 899.21  29.90
  0 -5 -6 921.81  29.60
  0 -5 -6 888.51  29.40
  0 -5 -6 904.81  31.00
  0  5  6 878.01  29.40
  0  5  6 911.41  30.10
  0  5  6 881.01  28.80
  0  5  6 882.51  28.70
 -1 -5 -6 440.66  15.20
 -1 -5 -6 440.46  15.10
 -1 -5 -6 456.65  15.10
 -1 -5 -6 447.46  15.80
 -1 -5 -6 417.66  16.90
 -1 -5 -6 418.46  15.10
 -1 -5 -6 436.36  16.40
 -1 -5 -6 441.56  15.40
  1  5  6 441.46  17.60
  1  5  6 427.66  16.70
  1  5  6 402.76  15.20
  1  5  6 438.06  16.00
 -2 -5 -6 1235.08  39.90
 -2 -5 -6 1266.77  40.30
 -2 -5 -6 1292.97  39.90
 -2 -5 -6 1264.67  41.60
 -2 -5 -6 1222.28  40.10
 -2 -5 -6 1297.67  40.20
  2  5  6 1217.08  39.60
  2  5  6 1126.29  63.39
  2  5  6 1227.78  43.60
  2  5  6 1271.77  40.30
  2  5  6 1240.78  40.20
  2  5  6 1143.59  43.10
 -3 -5 -6 1175.18  37.10
 -3 -5 -6 1199.88  37.50
 -3 -5 -6 1092.99  38.90
 -3 -5 -6 1147.29  37.30
  3  5  6 1132.09  39.90
  3  5  6 1149.89  41.40
  3  5  6 1125.19  37.20
  3  5  6 1144.69  36.70
  3  5  6 1182.78  56.19
  4 -6 -6 1221.58  44.00
  4 -6 -6 1050.09  36.50
  4 -6 -6 1142.79  36.60
  4 -6 -6 1209.68  39.20
 -4  6  6 1054.49  36.00
  3 -6 -6 145.29  7.70
  3 -6 -6 160.48  6.60
  3 -6 -6 156.48  17.00
  3 -6 -6 156.08  13.10
  3 -6 -6 144.69  14.50
  3 -6 -6 154.18  8.20
 -3  6  6 162.98  6.30
 -3  6  6 155.48  6.40
 -3  6  6 143.19  6.30
  2 -6 -6 377.86  15.50
  2 -6 -6 359.36  17.30
  2 -6 -6 355.56  16.10
 -2  6  6 359.96  12.80
 -2  6  6 377.16  14.10
 -2  6  6 355.06  13.60
 -2  6  6 356.16  12.80
 -2  6  6 376.06  12.70
 -2  6  6 380.06  13.80
  1 -6 -6 1414.56  47.00
  1 -6 -6 1394.16  45.70
  1 -6 -6 1481.45  47.20
  1 -6 -6 1352.26  45.70
  1 -6 -6 1386.56  45.50
 -1  6  6 1347.97  45.60
 -1  6  6 1421.36  45.10
 -1  6  6 1409.76  44.60
 -1  6  6 1400.66  44.50
 -1  6  6 1402.16  45.30
 -1  6  6 1445.06  44.80
  0 -6 -6 2100.89  66.59
  0 -6 -6 2084.59  66.49
  0 -6 -6 2085.39  66.79
  0 -6 -6 2081.69  67.39
  0 -6 -6 2087.59  66.69
  0 -6 -6 2220.78  67.09
  0 -6 -6 2076.69  67.59
  0 -6 -6 2144.19  68.89
  0  6  6 2095.59  66.19
  0  6  6 2140.09  67.49
  0  6  6 2160.78  66.69
  0  6  6 2065.09  67.09
  0  6  6 2066.79  67.69
  0  6  6 2061.19  65.79
  0  6  6 2069.59  65.99
 -1 -6 -6 2507.15  80.09
 -1 -6 -6 2494.75  79.69
 -1 -6 -6 2527.05  80.29
 -1 -6 -6 2473.45  80.79
 -1 -6 -6 2475.45  79.49
 -1 -6 -6 2516.35  79.39
 -1 -6 -6 2560.14  79.49
 -1 -6 -6 2577.54  79.89
 -1 -6 -6 2570.24  81.59
  1  6  6 2452.35  82.39
  1  6  6 2471.75  81.49
  1  6  6 2409.66  79.19
  1  6  6 2584.64  82.89
  1  6  6 2621.44  80.19
 -2 -6 -6 303.47  11.20
 -2 -6 -6 298.47  11.20
 -2 -6 -6 312.07  11.50
 -2 -6 -6 308.07  11.80
 -2 -6 -6 306.27  13.00
 -2 -6 -6 308.07  11.70
  2  6  6 291.77  11.30
  2  6  6 292.57  14.10
  2  6  6 288.77  10.70
  2  6  6 303.87  11.40
  2  6  6 278.47  27.40
 -3 -6 -6  47.10  3.40
 -3 -6 -6  46.10  4.10
 -3 -6 -6  48.90  3.40
  3  6  6  50.29  4.80
  3  6  6  49.80  3.30
  3  6  6  47.00  2.90
  3  6  6  50.59  9.90
  3 -7 -6  6.30  2.70
  3 -7 -6  0.40  5.70
 -3  7  6  2.80  2.20
 -3  7  6  3.00  1.50
 -3  7  6  0.30  1.40
 -3  7  6  0.00  3.50
  2 -7 -6 182.68  9.60
  2 -7 -6 203.58  10.40
  2 -7 -6 187.58  11.40
  2 -7 -6 187.98  19.50
  2 -7 -6 181.88  9.10
 -2  7  6 186.88  7.50
 -2  7  6 190.88  8.20
 -2  7  6 200.58  9.00
 -2  7  6 206.48  7.50
 -2  7  6 186.68  7.50
 -2  7  6 194.48  8.80
  1 -7 -6 5040.20 153.48
  1 -7 -6 5009.40 155.08
  1 -7 -6 5084.09 155.78
  1 -7 -6 4848.61 153.08
 -1  7  6 4891.31 154.28
 -1  7  6 4770.62 152.48
 -1  7  6 4994.00 154.18
 -1  7  6 4696.83 152.28
 -1  7  6 4778.12 152.48
 -1  7  6 5021.90 153.08
 -1  7  6 4982.20 153.18
 -1  7  6 4872.71 153.38
 -1  7  6 4695.03 152.48
  0 -7 -6 165.38  7.20
  0 -7 -6 160.68  7.30
  0 -7 -6 161.88  8.30
  0 -7 -6 159.28  10.40
  0 -7 -6 173.28  7.70
  0 -7 -6 168.48  7.40
  0  7  6 160.38  6.20
  0  7  6 171.28  7.40
  0  7  6 163.58  6.90
  0  7  6 172.38  8.40
  0  7  6 168.28  8.30
 -1 -7 -6  75.59  8.60
 -1 -7 -6  66.89  5.50
 -1 -7 -6  69.49  4.50
 -1 -7 -6  69.79  5.50
 -1 -7 -6  68.19  5.40
 -1 -7 -6  72.89  4.60
 -1 -7 -6  66.09  4.20
  1  7  6  73.19  6.80
  1  7  6  70.49  5.00
  1  7  6  69.39  8.70
  1  7  6  68.59  7.70
 -2 -7 -6 162.58  7.10
 -2 -7 -6 166.98  7.00
 -2 -7 -6 172.28  7.40
 -2 -7 -6 165.48  7.90
 -2 -7 -6 162.98  8.90
  2  7  6 158.08  9.30
  2  7  6 158.38  6.50
  2  7  6 162.78  7.10
  2  7  6 167.98  7.10
  2  7  6 155.08  20.00
 -3 -7 -6 959.10  30.10
 -3 -7 -6 897.71  30.50
 -3 -7 -6 940.31  30.50
  3  7  6 942.01  30.10
  3  7  6 925.31  31.40
  3  7  6 935.41  29.60
  3  7  6 957.30  42.50
  3 -8 -6 1368.06  47.40
  3 -8 -6 1507.15  52.19
  3 -8 -6 1408.86  46.60
 -3  8  6 1430.36  47.40
 -3  8  6 1473.65  45.50
 -3  8  6 1379.16  45.80
 -3  8  6 1484.45  45.80
 -3  8  6 1467.55  45.80
  2 -8 -6  74.79  5.90
  2 -8 -6  81.19  13.80
  2 -8 -6  70.59  6.60
  2 -8 -6  84.09  5.50
 -2  8  6  92.09  9.60
 -2  8  6  79.99  4.10
 -2  8  6  71.39  4.10
 -2  8  6  70.99  3.70
 -2  8  6  70.19  4.60
 -2  8  6  68.99  4.00
 -2  8  6  76.19  5.10
  1 -8 -6 538.65  19.90
  1 -8 -6 547.35  21.60
  1 -8 -6 550.84  19.00
  1 -8 -6 534.95  20.80
 -1  8  6 504.85  20.50
 -1  8  6 516.05  19.60
 -1  8  6 546.65  17.80
 -1  8  6 531.75  18.00
 -1  8  6 557.44  18.00
 -1  8  6 527.55  18.70
 -1  8  6 530.65  17.90
 -1  8  6 545.55  18.50
  0 -8 -6 530.35  20.00
  0 -8 -6 553.44  18.80
  0 -8 -6 524.75  18.90
  0 -8 -6 555.24  18.60
  0 -8 -6 495.75  20.00
  0 -8 -6 577.54  27.80
  0 -8 -6 523.65  19.10
  0  8  6 528.85  18.20
  0  8  6 539.55  18.90
  0  8  6 562.44  21.00
  0  8  6 534.45  20.40
  0  8  6 508.65  17.40
  0  8  6 540.45  21.00
 -1 -8 -6 175.68  8.50
 -1 -8 -6 168.08  9.30
 -1 -8 -6 177.88  7.40
 -1 -8 -6 177.08  7.60
 -1 -8 -6 177.68  9.30
 -1 -8 -6 188.48  8.10
 -1 -8 -6 164.28  9.30
 -1 -8 -6 180.48  8.10
  1  8  6 185.08  7.60
  1  8  6 180.08  8.10
  1  8  6 176.78  10.90
  1  8  6 185.08  12.50
 -2 -8 -6 2732.03  83.09
 -2 -8 -6 2607.64  82.59
 -2 -8 -6 2575.44  85.09
 -2 -8 -6 2684.43  82.59
 -2 -8 -6 2767.12  83.09
  2  8  6 2654.03 104.39
  2  8  6 2274.57  86.69
  2  8  6 2604.54  82.49
  2  8  6 2647.44  81.79
  2  8  6 2645.34  82.49
  3 -9 -6 464.05  20.10
  3 -9 -6 463.05  16.20
  3 -9 -6 502.65  26.00
  3 -9 -6 440.36  16.30
 -3  9  6 473.85  15.70
 -3  9  6 466.95  15.50
 -3  9  6 478.25  15.80
 -3  9  6 456.25  15.70
 -3  9  6 484.95  16.20
  2 -9 -6 1387.36  47.80
  2 -9 -6 1468.35  49.00
  2 -9 -6 1407.76  47.60
  2 -9 -6 1586.24  62.69
 -2  9  6 1469.45  46.60
 -2  9  6 1435.46  46.30
 -2  9  6 1514.65  46.60
 -2  9  6 1434.96  46.40
 -2  9  6 1493.45  48.70
 -2  9  6 1433.66  46.80
  1 -9 -6 109.99  5.90
  1 -9 -6 113.89  9.10
  1 -9 -6 121.39  6.80
  1 -9 -6 102.59  7.00
  1 -9 -6 106.79  7.80
  1 -9 -6 101.39  9.60
 -1  9  6 111.49  7.60
 -1  9  6 110.69  5.00
 -1  9  6 109.99  5.40
 -1  9  6 104.59  4.90
 -1  9  6 108.09  4.50
  0 -9 -6 2001.20  62.89
  0 -9 -6 2014.50  62.99
  0 -9 -6 1869.91  63.69
  0 -9 -6 2035.70  63.89
  0 -9 -6 1994.80  65.59
  0 -9 -6 2002.40  62.49
  0  9  6 1997.50  63.69
  0  9  6 1979.20  62.49
  0  9  6 1943.61  62.89
  0  9  6 1982.40  62.59
  0  9  6 1947.91  65.59
  0  9  6 1919.61  66.19
 -1 -9 -6 164.48  7.90
 -1 -9 -6 173.88  7.80
 -1 -9 -6 161.08  7.50
 -1 -9 -6 163.28  7.00
 -1 -9 -6 153.58  10.30
 -1 -9 -6 159.58  6.80
 -1 -9 -6 163.28  6.90
  1  9  6 159.18  7.00
  1  9  6 163.48  7.40
 -2 -9 -6 1710.43  53.79
 -2 -9 -6 1695.93  53.29
 -2 -9 -6 1653.33  53.09
 -2 -9 -6 1655.63  53.79
 -2 -9 -6 1698.43  53.29
  2  9  6 1706.23  55.89
  2  9  6 1688.93  70.09
  2  9  6 1660.53  52.99
  2  9  6 1627.74  53.09
  3 -10 -6 457.75  16.20
  3 -10 -6 508.75  23.50
 -3 10  6 488.35  16.20
 -3 10  6 470.55  15.90
 -3 10  6 491.35  15.60
 -3 10  6 480.45  16.50
 -3 10  6 476.55  15.80
  2 -10 -6 460.15  17.70
  2 -10 -6 478.75  26.40
  2 -10 -6 442.56  16.20
 -2 10  6 413.86  17.50
 -2 10  6 468.15  15.60
 -2 10  6 473.65  15.40
 -2 10  6 455.75  15.70
 -2 10  6 462.55  15.20
  1 -10 -6  70.69  4.50
  1 -10 -6  56.69  6.00
  1 -10 -6  68.09  5.60
 -1 10  6  64.99  6.00
 -1 10  6  65.59  3.10
 -1 10  6  63.09  4.30
 -1 10  6  63.59  3.70
 -1 10  6  68.49  3.90
  0 -10 -6 954.40  31.00
  0 -10 -6 979.50  34.40
  0 -10 -6 961.70  31.70
  0 -10 -6 994.10  32.70
  0 -10 -6 950.90  31.60
  0 10  6 943.61  31.70
  0 10  6 970.20  31.20
  0 10  6 957.60  31.20
  0 10  6 951.30  32.30
 -1 -10 -6 1649.63  53.09
 -1 -10 -6 1732.23  53.49
 -1 -10 -6 1657.03  52.99
 -1 -10 -6 1679.13  53.79
 -1 -10 -6 1640.24  53.19
 -1 -10 -6 1673.03  54.19
  1 10  6 1705.43  56.69
  1 10  6 1674.23  53.59
  1 10  6 1660.53  70.59
  1 10  6 1604.14  53.19
 -2 -10 -6  69.29  5.40
 -2 -10 -6  68.99  3.50
 -2 -10 -6  74.59  3.50
 -2 -10 -6  66.29  4.60
 -2 -10 -6  61.59  3.40
  2 10  6  65.89  3.40
  2 10  6  64.39  9.20
  2 10  6  57.99  3.00
  2 -11 -6 180.28  8.50
  2 -11 -6 188.08  7.80
  2 -11 -6 196.98  14.60
 -2 11  6 191.18  7.00
 -2 11  6 185.48  8.50
 -2 11  6 192.58  7.70
 -2 11  6 196.08  6.70
 -2 11  6 192.08  7.20
  1 -11 -6 1430.56  45.40
  1 -11 -6 1393.66  47.20
 -1 11  6 1368.16  44.70
 -1 11  6 1433.06  48.50
 -1 11  6 1379.26  44.80
 -1 11  6 1441.46  44.90
 -1 11  6 1398.26  45.30
  0 -11 -6 640.74  22.30
  0 -11 -6 621.84  21.20
  0 11  6 650.93  22.00
  0 11  6 615.54  21.80
 -1 -11 -6  16.80  2.40
 -1 -11 -6  20.90  2.60
  1 11  6  15.20  2.20
  1 11  6  15.90  4.50
  1 11  6  17.00  7.20
  2 -12 -6 565.54  19.70
  2 -12 -6 579.14  25.50
 -2 12  6 565.74  19.10
 -2 12  6 571.94  18.10
 -2 12  6 579.44  18.60
  1 -12 -6 888.91  30.40
 -1 12  6 889.11  28.40
 -1 12  6 890.41  29.00
 -1 12  6 869.91  29.20
  0 -12 -6 593.24  18.90
  0 -12 -6 555.34  20.50
  0 -12 -6 573.14  22.40
  0 -12 -6 584.24  18.90
  0 12  6 563.24  19.10
  0 12  6 560.44  28.90
  0 12  6 551.14  19.00
  0 12  6 503.05  18.10
 -1 -12 -6  85.59  3.60
 -1 -12 -6  82.49  3.90
 -1 -12 -6  82.19  4.00
 -1 -12 -6  79.59  5.20
  1 12  6  97.99  10.10
  1 12  6  85.49  5.90
  1 12  6  77.39  3.70
  1 -13 -6 246.88  10.40
  1 -13 -6 292.87  15.60
 -1 13  6 259.57  9.00
 -1 13  6 264.67  9.60
  0 -13 -6 1521.85  47.70
  0 13  6 1518.55  49.80
  0 13  6 1481.25  47.90
  0 15 -7 1973.20  63.39
  0 15 -7 1993.90  67.29
  0 -15  7 2036.50  63.09
  0 -15  7 2068.49  63.59
  1 14 -7 1452.35  44.80
  1 14 -7 1458.05  50.09
  1 14 -7 1374.66  44.50
 -1 -14  7 1375.16  44.80
 -1 -14  7 1405.06  45.10
 -1 -14  7 1389.26  44.70
 -1 -14  7 1431.56  44.40
  0 14 -7 139.29  5.70
  0 14 -7 133.79  9.20
  0 -14  7 134.89  5.60
  0 -14  7 132.59  6.00
 -1 14 -7  25.60  2.00
 -1 14 -7  24.20  2.60
  1 -14  7  27.20  2.60
  1 -14  7  25.00  3.50
  1 -14  7  18.20  2.20
  1 13 -7 963.50  31.60
  1 13 -7 986.20  38.30
  1 13 -7 966.70  31.80
 -1 -13  7 956.30  32.20
 -1 -13  7 987.80  31.70
 -1 -13  7 1014.10  32.30
 -1 -13  7 988.80  31.50
 -1 -13  7 980.40  32.00
  0 13 -7 128.49  10.90
  0 -13  7 146.39  6.30
  0 -13  7 152.98  5.70
 -1 13 -7 443.16  15.70
 -1 13 -7 445.76  16.00
 -1 13 -7 468.35  15.30
 -1 13 -7 450.05  15.00
  1 -13  7 450.05  16.00
  1 -13  7 469.85  15.60
  1 -13  7 449.26  17.10
 -2 13 -7 224.18  8.30
 -2 13 -7 226.68  7.80
 -2 13 -7 228.38  8.00
  2 -13  7 218.68  9.00
  2 -13  7 238.78  12.20
  2 12 -7 1646.44  55.29
  2 12 -7 1704.13  53.49
  2 12 -7 1699.93  59.89
 -2 -12  7 1726.03  53.19
 -2 -12  7 1727.63  53.69
 -2 -12  7 1642.54  53.69
 -2 -12  7 1651.73  53.49
  1 12 -7 249.38  9.80
  1 12 -7 268.77  16.30
 -1 -12  7 274.77  10.40
 -1 -12  7 276.07  10.20
 -1 -12  7 243.38  12.80
 -1 -12  7 253.07  9.50
 -1 -12  7 258.07  10.60
  0 12 -7 380.36  14.30
  0 -12  7 394.86  13.40
  0 -12  7 397.66  19.10
  0 -12  7 407.76  14.10
  0 -12  7 379.56  13.80
  0 -12  7 377.36  14.60
 -1 12 -7 1252.37  40.70
 -1 12 -7 1232.48  40.10
 -1 12 -7 1249.28  39.40
 -1 12 -7 1223.38  39.40
  1 -12  7 1212.58  41.90
  1 -12  7 1250.07  40.60
  1 -12  7 1246.58  40.00
 -2 12 -7 332.57  11.10
 -2 12 -7 321.67  10.70
 -2 12 -7 315.77  11.50
 -2 12 -7 322.77  11.10
  2 -12  7 347.07  16.90
  2 -12  7 302.57  12.40
  2 11 -7  41.20  5.90
  2 11 -7  36.50  2.60
  2 11 -7  30.20  6.70
 -2 -11  7  42.00  3.70
 -2 -11  7  41.40  3.20
 -2 -11  7  43.00  3.50
 -2 -11  7  31.40  4.50
 -2 -11  7  32.10  6.00
  1 11 -7 1457.35  46.70
  1 11 -7 1496.85  57.29
  1 11 -7 1410.96  54.89
  1 11 -7 1350.96  45.70
 -1 -11  7 1451.05  49.50
 -1 -11  7 1476.15  47.30
 -1 -11  7 1490.15  47.00
 -1 -11  7 1483.55  47.00
 -1 -11  7 1416.06  46.30
  0 11 -7 1719.43  54.49
  0 -11  7 1660.83  54.89
  0 -11  7 1709.73  54.39
  0 -11  7 1694.43  53.59
  0 -11  7 1684.23  54.29
  0 -11  7 1708.53  54.79
  0 -11  7 1650.33  56.49
  0 -11  7 1674.73  53.99
 -1 11 -7 3284.87 102.49
 -1 11 -7 3200.98 103.19
 -1 11 -7 3286.07 103.79
 -1 11 -7 3261.57 102.49
  1 -11  7 3296.17 103.09
  1 -11  7 3308.17 105.19
  1 -11  7 3318.67 103.79
 -2 11 -7 176.58  6.90
 -2 11 -7 187.18  7.10
 -2 11 -7 179.88  6.80
 -2 11 -7 172.48  8.20
  2 -11  7 174.48  8.80
 -3 11 -7  72.29  3.20
 -3 11 -7  67.99  4.90
 -3 11 -7  64.19  3.00
 -3 11 -7  70.99  2.90
 -3 11 -7  65.49  4.70
  3 -11  7  80.89  6.50
  3 -11  7  63.89  3.70
  3 -11  7  72.49  3.80
  3 10 -7  44.40  5.50
  3 10 -7  46.70  2.30
  3 10 -7  45.80  4.40
 -3 -10  7  47.90  4.10
 -3 -10  7  47.50  3.80
  2 10 -7 1066.69  34.50
  2 10 -7 1077.79  35.50
  2 10 -7 1046.50  38.40
  2 10 -7 1040.90  43.80
 -2 -10  7 1096.29  36.50
 -2 -10  7 1108.79  35.50
 -2 -10  7 1131.59  35.50
 -2 -10  7 1062.39  34.90
 -2 -10  7 1083.69  37.50
  1 10 -7 1809.42  65.69
  1 10 -7 1903.51  61.29
  1 10 -7 1915.31  70.99
  1 10 -7 2081.39  74.99
  1 10 -7 1964.10  62.09
 -1 -10  7 1932.71  61.79
 -1 -10  7 1985.70  62.49
 -1 -10  7 1956.00  62.69
 -1 -10  7 1959.10  62.49
 -1 -10  7 1922.71  63.29
 -1 -10  7 1985.60  64.89
  0 10 -7  88.29  9.70
  0 10 -7 107.49  7.70
  0 10 -7  93.49  5.50
  0 10 -7 103.49  5.40
  0 10 -7  86.79  4.80
  0 -10  7 105.59  5.70
  0 -10  7  89.49  7.40
  0 -10  7 103.79  5.50
  0 -10  7  94.79  4.70
  0 -10  7  99.19  6.30
  0 -10  7 105.59  7.30
  0 -10  7  78.69  10.60
  0 -10  7 102.69  6.00
 -1 10 -7 1498.55  48.00
 -1 10 -7 1537.55  49.40
 -1 10 -7 1501.55  50.19
 -1 10 -7 1520.05  48.70
 -1 10 -7 1528.65  47.60
 -1 10 -7 1496.25  48.00
  1 -10  7 1506.85  52.69
  1 -10  7 1491.15  50.09
  1 -10  7 1489.35  49.30
  1 -10  7 1508.05  48.60
  1 -10  7 1541.85  50.79
 -2 10 -7 283.47  10.00
 -2 10 -7 272.07  9.60
 -2 10 -7 277.37  10.40
 -2 10 -7 274.17  10.30
 -2 10 -7 272.17  10.00
 -2 10 -7 275.27  9.80
  2 -10  7 267.67  11.80
 -3 10 -7 1311.37  41.80
 -3 10 -7 1300.87  41.80
 -3 10 -7 1322.57  41.80
 -3 10 -7 1289.37  42.10
  3 -10  7 1342.07  47.40
  3 -10  7 1378.56  42.70
  3 -10  7 1340.17  42.30
  3  9 -7 1121.99  35.50
  3  9 -7 1127.39  36.20
  3  9 -7 1144.89  38.20
  3  9 -7 1195.68  42.30
  3  9 -7 1084.59  42.50
 -3 -9  7 1068.29  36.10
 -3 -9  7 1098.79  36.10
  2  9 -7  11.40  2.00
  2  9 -7  7.80  2.30
  2  9 -7  10.80  4.70
  2  9 -7  19.60  10.10
 -2 -9  7  10.00  2.40
 -2 -9  7  13.80  2.70
  1  9 -7 2917.61  89.79
  1  9 -7 2938.41 103.69
  1  9 -7 2980.90  97.69
  1  9 -7 2778.12  92.59
  1  9 -7 2754.22  88.89
  1  9 -7 2724.43  98.29
 -1 -9  7 2887.01  89.89
 -1 -9  7 2759.32  89.89
 -1 -9  7 2826.72  92.09
 -1 -9  7 2908.01  90.29
 -1 -9  7 2829.72  90.39
 -1 -9  7 2777.42  89.39
  0  9 -7  28.90  4.50
  0  9 -7  26.00  3.90
  0  9 -7  27.20  3.30
  0  9 -7  32.60  3.60
  0  9 -7  33.30  4.10
  0  9 -7  29.90  5.80
  0 -9  7  21.40  6.80
  0 -9  7  27.30  4.60
  0 -9  7  31.00  3.00
  0 -9  7  30.60  4.40
  0 -9  7  26.70  3.40
  0 -9  7  26.60  4.80
  0 -9  7  33.10  3.50
 -1  9 -7 780.12  26.10
 -1  9 -7 806.02  25.80
 -1  9 -7 807.82  26.60
 -1  9 -7 817.82  27.90
 -1  9 -7 794.72  27.50
 -1  9 -7 798.12  26.10
 -1  9 -7 794.42  26.00
  1 -9  7 833.42  30.30
  1 -9  7 791.32  26.70
  1 -9  7 778.82  27.80
  1 -9  7 819.62  28.90
  1 -9  7 769.02  27.40
 -2  9 -7 2785.72  87.19
 -2  9 -7 2695.43  86.59
 -2  9 -7 2877.11  91.89
 -2  9 -7 2795.42  86.79
 -2  9 -7 2705.03  86.89
  2 -9  7 2740.33  88.89
 -3  9 -7 289.17  10.80
 -3  9 -7 302.17  10.30
 -3  9 -7 298.97  10.30
 -3  9 -7 299.97  10.50
 -3  9 -7 294.57  10.20
  3 -9  7 296.77  11.40
  3 -9  7 295.07  10.90
  3 -9  7 308.17  16.20
  3 -9  7 292.07  15.70
  3  8 -7 2261.97  79.89
  3  8 -7 2217.78  72.59
  3  8 -7 2420.86  79.79
  3  8 -7 2127.59  70.29
  3  8 -7 2086.69  77.99
  3  8 -7 2244.38  69.39
 -3 -8  7 2224.18  70.09
 -3 -8  7 2120.69  69.79
  2  8 -7 1358.06  49.00
  2  8 -7 1386.96  46.40
  2  8 -7 1436.66  45.30
  2  8 -7 1533.25  61.09
  2  8 -7 1419.06  51.39
  2  8 -7 1338.77  55.39
 -2 -8  7 1454.95  47.90
 -2 -8  7 1475.15  46.10
 -2 -8  7 1393.36  46.10
 -2 -8  7 1433.86  47.70
 -2 -8  7 1431.26  46.00
  1  8 -7  37.10  9.20
  1  8 -7  39.90  4.20
  1  8 -7  36.40  5.20
  1  8 -7  38.00  9.00
  1  8 -7  43.70  12.90
  1  8 -7  38.40  3.10
 -1 -8  7  44.30  4.40
 -1 -8  7  35.90  5.50
 -1 -8  7  35.50  3.60
 -1 -8  7  39.50  3.30
 -1 -8  7  44.40  4.20
 -1 -8  7  40.80  3.60
  0  8 -7 1699.93  56.79
  0  8 -7 1874.91  61.89
  0  8 -7 1760.12  56.59
  0  8 -7 1807.22  58.19
  0  8 -7 1814.72  57.59
  0  8 -7 1776.12  57.39
  0 -8  7 1735.43  57.69
  0 -8  7 1827.72  57.89
  0 -8  7 1859.91  59.59
  0 -8  7 1767.12  56.89
  0 -8  7 1769.12  57.39
  0 -8  7 1805.22  57.29
  0 -8  7 1819.82  57.79
 -1  8 -7 1428.86  46.20
 -1  8 -7 1422.96  46.20
 -1  8 -7 1421.56  45.30
 -1  8 -7 1393.46  44.80
 -1  8 -7 1422.06  44.60
 -1  8 -7 1429.16  44.80
 -1  8 -7 1425.86  44.90
  1 -8  7 1445.06  47.40
  1 -8  7 1410.86  48.20
  1 -8  7 1359.26  45.30
  1 -8  7 1404.56  46.10
  1 -8  7 1370.16  44.60
  1 -8  7 1365.26  46.10
 -2  8 -7 1737.53  54.89
 -2  8 -7 1716.73  56.49
 -2  8 -7 1631.14  56.49
 -2  8 -7 1750.82  54.59
 -2  8 -7 1762.12  55.09
 -2  8 -7 1660.43  55.19
 -2  8 -7 1809.82  54.79
 -2  8 -7 1773.32  54.89
  2 -8  7 1745.83  56.89
  2 -8  7 1680.13  59.99
 -3  8 -7 690.33  22.50
 -3  8 -7 674.23  22.50
 -3  8 -7 605.34  24.40
 -3  8 -7 686.53  22.30
 -3  8 -7 703.93  22.20
 -3  8 -7 699.33  22.30
  3 -8  7 739.03  30.70
  3 -8  7 672.43  28.60
  3 -8  7 685.33  23.40
  3 -8  7 672.53  22.90
  3  7 -7 275.67  17.70
  3  7 -7 303.47  25.60
  3  7 -7 297.37  10.00
  3  7 -7 285.37  15.00
 -3 -7  7 260.67  11.90
  2  7 -7  7.80  4.60
  2  7 -7  11.90  9.00
  2  7 -7  6.10  8.30
  2  7 -7  5.30  2.30
  2  7 -7  5.00  7.20
  2  7 -7  2.50  1.40
  2  7 -7  6.60  3.60
 -2 -7  7  3.10  4.00
 -2 -7  7  3.00  2.30
 -2 -7  7  4.60  2.00
 -2 -7  7  4.90  2.00
  1  7 -7 411.56  20.30
  1  7 -7 420.06  14.40
  1  7 -7 434.56  15.20
  1  7 -7 412.76  22.30
  1  7 -7 427.96  16.80
 -1 -7  7 437.16  15.00
 -1 -7  7 420.46  16.00
 -1 -7  7 414.06  15.10
 -1 -7  7 413.26  14.90
 -1 -7  7 431.66  15.30
 -1 -7  7 439.66  16.60
  0  7 -7 3314.47 104.79
  0  7 -7 3185.58 104.99
  0  7 -7 3467.15 105.79
  0  7 -7 3361.16 105.49
  0  7 -7 3682.03 110.79
  0  7 -7 3442.96 109.49
  0  7 -7 3302.97 106.19
  0 -7  7 3197.98 105.39
  0 -7  7 3252.67 104.99
  0 -7  7 3321.57 105.39
  0 -7  7 3387.06 105.99
  0 -7  7 3369.56 105.89
  0 -7  7 3369.26 105.79
 -1  7 -7 3404.56 105.69
 -1  7 -7 3284.97 104.29
 -1  7 -7 3388.86 104.19
 -1  7 -7 3317.17 104.29
 -1  7 -7 3321.47 104.49
 -1  7 -7 3343.37 104.79
 -1  7 -7 3437.56 105.59
 -1  7 -7 3301.67 104.39
  1 -7  7 3419.36 105.59
  1 -7  7 3219.28 104.19
  1 -7  7 3258.17 104.79
  1 -7  7 3484.15 106.79
  1 -7  7 3325.17 105.39
  1 -7  7 3249.07 107.29
 -2  7 -7  56.49  3.40
 -2  7 -7  54.49  7.00
 -2  7 -7  49.40  4.70
 -2  7 -7  53.09  3.50
 -2  7 -7  53.29  3.10
 -2  7 -7  59.99  3.50
 -2  7 -7  52.99  4.20
 -2  7 -7  49.60  4.20
  2 -7  7  64.59  5.80
  2 -7  7  55.79  8.10
  2 -7  7  55.39  10.10
 -3  7 -7  60.49  3.40
 -3  7 -7  47.30  4.10
 -3  7 -7  59.89  3.10
 -3  7 -7  57.99  3.80
 -3  7 -7  61.69  3.60
 -3  7 -7  54.29  5.00
  3 -7  7  56.09  7.30
  3 -7  7  53.59  5.30
  3 -7  7  55.39  4.10
  3  6 -7 1115.49  48.50
  3  6 -7 1033.30  36.70
  3  6 -7 1042.60  32.90
  3  6 -7 1033.00  45.70
  3  6 -7 1067.49  42.90
  3  6 -7 985.60  34.10
  3  6 -7 994.40  42.20
 -3 -6  7 980.60  34.40
 -3 -6  7 979.20  33.20
  2  6 -7 1924.61  65.99
  2  6 -7 1596.64  54.19
  2  6 -7 1799.32  67.89
  2  6 -7 1603.74  58.39
  2  6 -7 1546.35  55.29
  2  6 -7 1661.63  67.79
  2  6 -7 1747.13  57.89
 -2 -6  7 1697.83  54.79
 -2 -6  7 1710.13  54.49
 -2 -6  7 1702.13  55.19
 -2 -6  7 1816.02  56.29
  1  6 -7 4792.32 144.19
  1  6 -7 4465.75 150.28
  1  6 -7 4570.94 145.99
  1  6 -7 4561.24 151.78
  1  6 -7 4570.74 143.49
 -1 -6  7 4559.34 144.19
 -1 -6  7 4881.71 145.09
 -1 -6  7 4500.05 143.99
  0  6 -7 1741.73  54.39
  0  6 -7 1809.62  55.69
  0  6 -7 1675.53  56.79
  0  6 -7 1664.93  54.09
  0 -6  7 1659.33  55.19
  0 -6  7 1721.43  53.79
  0 -6  7 1633.64  53.39
  0 -6  7 1638.84  58.49
  0 -6  7 1589.54  53.49
 -1  6 -7 118.99  5.00
 -1  6 -7 117.79  5.70
 -1  6 -7 121.79  5.00
 -1  6 -7 113.49  6.10
 -1  6 -7 115.99  5.00
 -1  6 -7 116.19  7.70
 -1  6 -7 121.09  5.30
 -1  6 -7 114.19  5.40
 -1  6 -7 120.19  5.90
  1 -6  7 123.39  7.00
  1 -6  7 125.09  5.90
  1 -6  7 104.19  5.50
  1 -6  7 119.59  7.40
  1 -6  7 121.49  8.20
  1 -6  7 118.19  6.50
  1 -6  7 118.99  7.00
 -2  6 -7 128.69  6.60
 -2  6 -7 127.49  6.80
 -2  6 -7 122.69  5.40
 -2  6 -7 144.79  5.70
 -2  6 -7 130.19  8.10
 -2  6 -7 133.39  6.10
 -2  6 -7 133.89  5.70
  2 -6  7 128.59  6.10
  2 -6  7 134.39  8.00
  2 -6  7 123.49  8.70
  2 -6  7 130.19  9.50
 -3  6 -7 935.71  30.50
 -3  6 -7 945.11  30.40
 -3  6 -7 943.81  30.70
 -3  6 -7 945.31  32.20
 -3  6 -7 942.71  30.50
 -3  6 -7 970.70  30.90
  3 -6  7 953.20  31.60
  3 -6  7 901.91  30.50
  3 -6  7 879.51  36.40
  3 -6  7 1022.20  44.50
  3 -6  7 962.70  31.40
  4  5 -7  12.20  5.80
  4  5 -7  10.20  2.50
  4  5 -7  13.90  3.10
  4  5 -7  14.00  4.00
  3  5 -7 2395.06  84.39
  3  5 -7 2323.47  75.89
  3  5 -7 2251.77  71.69
  3  5 -7 2297.07  86.69
  3  5 -7 2270.17  72.89
  3  5 -7 2375.46  90.69
  3  5 -7 2204.68  81.59
 -3 -5  7 2283.07  71.99
 -3 -5  7 2145.69  72.89
  2  5 -7 1193.28  39.70
  2  5 -7 1193.28  49.50
  2  5 -7 1091.99  56.29
  2  5 -7 1305.27  53.39
  2  5 -7 1181.48  42.60
  2  5 -7 1218.88  48.30
  2  5 -7 1206.58  38.80
  2  5 -7 1196.88  52.19
  2  5 -7 1251.17  42.30
 -2 -5  7 1282.37  40.70
 -2 -5  7 1185.08  39.10
 -2 -5  7 1178.08  39.40
 -2 -5  7 1296.97  41.30
  1  5 -7 675.83  28.10
  1  5 -7 712.13  24.90
 -1 -5  7 694.03  23.50
 -1 -5  7 704.13  24.60
 -1 -5  7 742.73  23.50
 -1 -5  7 705.63  23.30
  0  5 -7 1622.84  54.19
  0  5 -7 1621.24  51.69
  0  5 -7 1575.84  51.09
  0 -5  7 1665.03  52.69
  0 -5  7 1577.54  51.19
  0 -5  7 1592.24  51.09
  0 -5  7 1587.14  55.59
  0 -5  7 1628.44  51.29
 -1  5 -7 1165.88  38.00
 -1  5 -7 1142.59  36.80
 -1  5 -7 1148.69  36.80
 -1  5 -7 1185.18  36.80
 -1  5 -7 1166.48  37.00
 -1  5 -7 1167.18  37.60
 -1  5 -7 1145.09  36.90
 -1  5 -7 1133.79  36.70
  1 -5  7 1146.89  37.60
  1 -5  7 1178.58  39.10
  1 -5  7 1100.29  37.20
  1 -5  7 1160.48  42.50
  1 -5  7 1176.48  38.10
  1 -5  7 1139.39  39.00
 -2  5 -7 2913.31  89.99
 -2  5 -7 2858.71  89.99
 -2  5 -7 2841.82  90.09
 -2  5 -7 2787.72  90.09
 -2  5 -7 2900.91  89.89
 -2  5 -7 2934.61  91.59
  2 -5  7 2718.73  96.69
  2 -5  7 3014.30  91.99
  2 -5  7 2906.61  92.89
  2 -5  7 2850.51  93.59
  2 -5  7 2837.62  89.99
 -3  5 -7 346.37  12.00
 -3  5 -7 335.47  12.00
 -3  5 -7 358.06  12.20
 -3  5 -7 363.66  12.30
 -3  5 -7 347.47  11.90
 -3  5 -7 339.27  13.50
  3 -5  7 339.27  12.00
  3 -5  7 327.07  17.20
  3 -5  7 349.27  12.80
  3 -5  7 314.67  23.30
  3 -5  7 326.37  12.70
  4  4 -7  85.39  5.00
  4  4 -7  95.49  5.90
  4  4 -7  92.29  10.10
  4  4 -7  85.39  7.30
  4  4 -7 100.99  8.60
  3  4 -7 796.12  25.30
  3  4 -7 761.82  34.00
  3  4 -7 788.92  38.80
  3  4 -7 751.22  41.90
  3  4 -7 777.72  26.10
  3  4 -7 828.82  38.40
  3  4 -7 792.62  26.50
  3  4 -7 781.22  29.30
 -3 -4  7 764.42  25.60
 -3 -4  7 729.33  26.70
  2  4 -7 2649.93  93.09
  2  4 -7 2395.86  80.39
  2  4 -7 2443.26  90.89
  2  4 -7 2156.08  94.19
  2  4 -7 2417.66  76.59
  2  4 -7 2361.46  86.69
  2  4 -7 2527.35  79.99
  2  4 -7 2470.55  86.09
 -2 -4  7 2419.66  76.89
 -2 -4  7 2581.84  78.39
  1  4 -7 175.58  8.00
  1  4 -7 188.48  10.70
 -1 -4  7 166.88  7.20
 -1 -4  7 182.48  8.00
 -1 -4  7 174.78  11.30
 -1 -4  7 183.28  7.00
 -1 -4  7 175.78  6.80
  0  4 -7 1180.28  37.90
  0  4 -7 1162.18  40.10
  0 -4  7 1188.58  37.60
  0 -4  7 1117.09  37.50
  0 -4  7 1172.48  41.40
  0 -4  7 1196.18  37.40
  0 -4  7 1167.28  38.70
 -1  4 -7 203.08  7.80
 -1  4 -7 199.78  8.40
 -1  4 -7 210.08  7.60
 -1  4 -7 205.28  7.50
 -1  4 -7 208.98  8.30
  1 -4  7 208.48  9.40
  1 -4  7 201.08  8.60
  1 -4  7 209.68  8.30
  1 -4  7 213.48  12.80
 -2  4 -7 321.47  11.40
 -2  4 -7 316.37  11.60
 -2  4 -7 333.67  12.60
 -2  4 -7 324.17  11.40
 -2  4 -7 328.67  11.60
 -2  4 -7 326.17  11.60
 -2  4 -7 325.47  11.10
  2 -4  7 314.57  17.30
  2 -4  7 307.77  13.60
  2 -4  7 321.07  14.40
  2 -4  7 315.17  11.60
  2 -4  7 346.57  17.10
  2 -4  7 325.57  13.40
 -3  4 -7 563.34  19.10
 -3  4 -7 578.94  20.60
 -3  4 -7 568.84  18.90
 -3  4 -7 580.94  19.10
 -3  4 -7 602.84  19.50
 -3  4 -7 605.74  19.30
  3 -4  7 545.05  19.10
  3 -4  7 503.25  30.90
  3 -4  7 591.54  19.70
  3 -4  7 573.94  19.90
  3 -4  7 565.64  24.60
  4  3 -7 1610.74  55.99
  4  3 -7 1803.62  59.89
  4  3 -7 1517.25  50.69
  4  3 -7 1387.26  59.59
  4  3 -7 1649.63  50.39
  3  3 -7 2312.97  85.39
  3  3 -7 2194.38  73.19
  3  3 -7 2219.58  69.99
  3  3 -7 2172.78  69.99
  3  3 -7 2164.98  78.39
  3  3 -7 2276.57  85.09
  3  3 -7 2072.39  87.29
  3  3 -7 2219.08  68.99
 -3 -3  7 2100.99  69.89
 -3 -3  7 2199.48  69.09
  2  3 -7  15.70  5.00
  2  3 -7  30.00  9.60
  2  3 -7  29.40  14.90
  2  3 -7  24.70  3.50
  2  3 -7  23.40  3.80
  2  3 -7  27.70  12.60
  2  3 -7  23.30  5.30
  2  3 -7  22.00  6.10
 -2 -3  7  19.50  3.00
 -2 -3  7  20.50  2.30
  1  3 -7  11.60  2.20
 -1 -3  7  15.90  2.90
 -1 -3  7  10.00  2.30
 -1 -3  7  12.70  1.80
  0  3 -7 1659.43  53.29
  0  3 -7 1769.92  53.99
  0  3 -7 1761.92  56.99
  0 -3  7 1738.53  57.99
  0 -3  7 1690.53  54.29
  0 -3  7 1624.04  54.99
  0 -3  7 1750.02  55.39
  0 -3  7 1722.73  54.29
 -1  3 -7 2632.14  82.69
 -1  3 -7 2694.73  83.19
 -1  3 -7 2662.03  84.29
 -1  3 -7 2678.13  83.29
 -1  3 -7 2729.23  83.39
  1 -3  7 2654.53  83.79
  1 -3  7 2680.83  85.19
  1 -3  7 2433.86  85.39
  1 -3  7 2768.82  88.69
 -2  3 -7 740.23  24.80
 -2  3 -7 728.83  23.70
 -2  3 -7 723.43  23.50
 -2  3 -7 722.03  23.50
 -2  3 -7 705.43  23.70
 -2  3 -7 699.13  23.40
 -2  3 -7 725.13  23.60
  2 -3  7 700.03  29.60
  2 -3  7 706.63  25.60
  2 -3  7 731.53  23.70
  2 -3  7 648.14  29.10
  2 -3  7 755.42  25.20
  2 -3  7 746.63  29.20
 -3  3 -7  25.70  2.70
 -3  3 -7  22.40  3.50
 -3  3 -7  23.30  2.90
 -3  3 -7  22.90  3.40
 -3  3 -7  21.80  2.80
  3 -3  7  23.70  2.30
  3 -3  7  25.60  6.00
  3 -3  7  24.90  3.20
  3 -3  7  27.90  10.40
  3 -3  7  22.90  4.10
  3 -3  7  27.60  7.10
 -4  3 -7  17.10  2.50
 -4  3 -7  15.50  2.20
  4 -3  7  21.20  3.90
  4 -3  7  24.60  4.80
  4 -3  7  20.10  2.00
  4  2 -7  14.30  7.40
  4  2 -7  20.90  5.80
  4  2 -7  20.50  4.50
  4  2 -7  20.10  2.30
  4  2 -7  26.60  7.20
  3  2 -7 242.68  8.70
  3  2 -7 231.78  12.00
  3  2 -7 269.37  10.20
  3  2 -7 232.18  21.40
  3  2 -7 238.08  15.70
  3  2 -7 246.38  19.40
  3  2 -7 255.97  21.30
  3  2 -7 239.48  15.70
  3  2 -7 193.68  20.20
  3  2 -7 246.28  9.90
 -3 -2  7 219.88  9.50
 -3 -2  7 238.18  9.10
  2  2 -7 118.79  17.10
  2  2 -7 108.39  7.10
  2  2 -7 110.39  5.00
  2  2 -7 103.89  12.60
  2  2 -7 115.09  8.70
  2  2 -7 107.59  13.80
  2  2 -7 109.19  10.00
  2  2 -7 113.39  6.60
  2  2 -7 110.89  16.40
  2  2 -7 119.49  6.10
 -2 -2  7 115.19  4.90
  1  2 -7 6370.26 189.88
  1  2 -7 6066.79 194.28
 -1 -2  7 6030.30 189.08
 -1 -2  7 5982.00 189.48
 -1 -2  7 6014.30 193.68
  0  2 -7 6451.95 197.28
  0  2 -7 6312.27 197.08
  0  2 -7 6115.39 197.18
  0 -2  7 6391.26 196.38
  0 -2  7 6428.26 200.48
  0 -2  7 6225.18 196.28
 -1  2 -7 947.51  31.30
 -1  2 -7 962.10  29.90
 -1  2 -7 940.81  30.50
 -1  2 -7 950.40  30.40
 -1  2 -7 963.90  30.40
  1 -2  7 904.21  31.10
  1 -2  7 958.20  31.90
 -2  2 -7 853.71  30.90
 -2  2 -7 935.51  31.10
 -2  2 -7 890.11  29.90
 -2  2 -7 923.81  29.90
 -2  2 -7 938.11  30.20
 -2  2 -7 919.91  30.00
 -2  2 -7 945.41  30.00
  2 -2  7 968.00  31.50
  2 -2  7 966.30  34.00
  2 -2  7 939.91  30.10
  2 -2  7 936.31  32.00
  2 -2  7 889.21  35.80
  2 -2  7 924.71  30.70
 -3  2 -7  11.30  2.40
 -3  2 -7  6.90  2.40
 -3  2 -7  6.10  2.10
 -3  2 -7  6.10  1.90
 -3  2 -7  9.70  2.00
  3 -2  7  6.00  4.90
  3 -2  7  9.00  5.70
  3 -2  7  5.30  2.60
  3 -2  7  3.50  1.60
 -4  2 -7 3112.79  98.29
 -4  2 -7 3115.39  98.09
  4 -2  7 3209.18 103.89
  4 -2  7 3193.38  98.19
  4 -2  7 3126.49  99.49
  4  1 -7 160.78  6.80
  4  1 -7 161.18  14.30
  4  1 -7 139.49  13.30
  4  1 -7 157.98  10.00
  4  1 -7 164.18  10.40
  4  1 -7 159.58  6.60
  3  1 -7 616.54  28.00
  3  1 -7 644.94  36.60
  3  1 -7 624.64  24.00
  3  1 -7 631.74  20.10
  3  1 -7 631.44  28.50
  3  1 -7 641.24  21.70
  3  1 -7 569.04  33.10
  3  1 -7 576.44  31.40
  3  1 -7 635.64  21.10
 -3 -1  7 521.55  22.70
 -3 -1  7 605.14  20.90
 -3 -1  7 606.84  20.20
  2  1 -7 2153.38  67.39
  2  1 -7 2113.99  75.29
  2  1 -7 2172.98  85.89
  2  1 -7 2151.48  75.39
  2  1 -7 2138.89  70.89
  2  1 -7 1984.70  81.19
  2  1 -7 2238.28  69.09
  2  1 -7 2244.18  68.29
  2  1 -7 2157.08  80.99
 -2 -1  7 2194.98  74.59
 -2 -1  7 2064.39  69.79
 -2 -1  7 2152.28  67.49
  1  1 -7 289.47  13.50
  1  1 -7 268.47  11.00
 -1 -1  7 290.97  10.00
 -1 -1  7 291.07  13.60
 -1 -1  7 294.27  10.90
 -1 -1  7 281.17  9.80
 -1 -1  7 301.77  10.70
 -1 -1  7 282.77  10.40
  0  1 -7 1452.65  46.00
  0  1 -7 1420.76  44.60
  0  1 -7 1455.25  47.70
  0  1 -7 1367.16  46.00
  0  1 -7 1460.05  45.30
  0  1 -7 1392.06  45.10
  0 -1  7 1440.06  46.20
  0 -1  7 1435.96  45.20
  0 -1  7 1432.66  45.50
  0 -1  7 1458.65  45.30
  0 -1  7 1416.06  48.70
  0 -1  7 1451.15  45.10
  0 -1  7 1365.86  45.20
 -1  1 -7  30.10  2.70
 -1  1 -7  28.00  3.20
 -1  1 -7  32.20  2.50
  1 -1  7  33.10  3.30
 -2  1 -7 1188.18  36.80
 -2  1 -7 1135.39  36.90
 -2  1 -7 1189.08  38.10
 -2  1 -7 1158.78  36.80
 -2  1 -7 1151.98  36.80
  2 -1  7 1076.79  47.70
  2 -1  7 1059.99  42.50
  2 -1  7 1160.88  37.90
  2 -1  7 1176.28  39.60
  2 -1  7 1151.38  37.30
  2 -1  7 1129.79  38.70
 -3  1 -7 107.39  5.30
 -3  1 -7 117.79  6.40
 -3  1 -7 108.79  5.10
 -3  1 -7 101.89  5.20
 -3  1 -7 102.29  5.20
 -3  1 -7 101.39  6.00
  3 -1  7 103.89  9.40
  3 -1  7  94.39  11.90
  3 -1  7 104.69  5.30
  3 -1  7  99.19  8.50
  4  0 -7  60.29  3.80
  4  0 -7  54.19  8.80
  4  0 -7  64.19  4.10
  4  0 -7  70.29  7.40
  4  0 -7  53.59  9.70
  3  0 -7 593.84  35.90
  3  0 -7 618.54  23.90
  3  0 -7 619.34  21.70
  3  0 -7 615.24  20.80
  3  0 -7 637.84  29.30
  3  0 -7 579.24  32.40
  3  0 -7 545.05  30.20
  3  0 -7 636.34  21.10
  3  0 -7 638.74  27.90
 -3  0  7 594.64  20.80
 -3  0  7 598.44  19.90
 -3  0  7 559.24  22.30
  2  0 -7 2883.61  97.99
  2  0 -7 3172.08  91.89
  2  0 -7 2825.12  93.59
  2  0 -7 2850.21  90.29
  2  0 -7 2906.91  90.99
  2  0 -7 3013.80  92.19
  2  0 -7 2883.11  98.09
  2  0 -7 2732.13 103.39
  2  0 -7 2788.82 108.69
 -2  0  7 2955.70  90.29
 -2  0  7 2763.62  90.99
  1  0 -7 366.16  15.70
  1  0 -7 314.07  14.90
  1  0 -7 310.87  13.10
 -1  0  7 341.27  12.20
 -1  0  7 359.26  15.70
 -1  0  7 372.46  13.00
 -1  0  7 370.56  11.90
 -1  0  7 374.96  12.70
  0  0 -7  38.70  2.70
  0  0 -7  47.40  3.70
  0  0 -7  30.20  3.90
  0  0 -7  38.80  3.80
  0  0 -7  36.00  3.00
  0  0 -7  38.10  2.00
  0  0  7  40.40  2.40
  0  0  7  39.60  2.50
  0  0  7  37.50  2.70
  0  0  7  42.30  2.90
  0  0  7  39.80  3.10
  0  0  7  43.00  5.00
 -1  0 -7 1182.48  38.90
 -1  0 -7 1169.28  37.20
 -1  0 -7 1131.89  37.10
 -1  0 -7 1124.99  36.90
 -1  0 -7 1146.29  37.60
 -1  0 -7 1188.18  36.50
 -1  0 -7 1150.78  37.90
  1  0  7 1122.19  38.40
  1  0  7 1204.98  38.30
 -2  0 -7 1838.22  58.89
 -2  0 -7 1847.12  58.49
 -2  0 -7 1832.42  57.69
 -2  0 -7 1843.32  57.59
 -2  0 -7 1823.22  57.79
 -2  0 -7 1839.02  57.99
 -2  0 -7 1839.32  57.59
 -2  0 -7 1832.72  57.29
  2  0  7 1708.03  68.09
  2  0  7 1874.41  58.59
  2  0  7 1821.72  58.09
  2  0  7 1705.73  60.59
 -3  0 -7 2121.99  67.99
 -3  0 -7 2255.77  68.39
 -3  0 -7 2299.67  68.69
 -3  0 -7 2278.37  68.49
 -3  0 -7 2266.07  69.99
 -3  0 -7 2284.97  69.29
  3  0  7 2055.99  71.59
  3  0  7 1960.20  68.89
  3  0  7 2185.38  68.49
  3  0  7 2169.48  79.09
  3  0  7 1898.31  73.09
  4 -1 -7 990.30  32.90
  4 -1 -7 1009.10  32.20
  4 -1 -7 972.10  40.10
  4 -1 -7 900.31  42.90
  4 -1 -7 1080.99  38.50
  4 -1 -7 1030.60  32.00
  3 -1 -7 1626.94  70.89
  3 -1 -7 1653.53  60.09
  3 -1 -7 1792.42  53.99
  3 -1 -7 1743.13  63.79
  3 -1 -7 1564.14  65.29
  3 -1 -7 1542.65  63.19
  3 -1 -7 1726.33  54.89
  3 -1 -7 1742.63  53.49
 -3  1  7 1662.83  53.69
 -3  1  7 1545.15  54.39
 -3  1  7 1703.13  52.59
  2 -1 -7 781.92  42.60
  2 -1 -7 836.52  28.90
  2 -1 -7 811.42  33.20
  2 -1 -7 793.62  33.90
  2 -1 -7 807.72  39.40
  2 -1 -7 858.91  37.90
  2 -1 -7 850.41  29.00
  2 -1 -7 831.02  27.50
 -2  1  7 820.12  27.10
 -2  1  7 873.31  28.00
 -2  1  7 836.72  26.70
  1 -1 -7  60.09  5.50
  1 -1 -7  60.29  4.80
  1 -1 -7  73.69  6.90
 -1  1  7  63.69  6.30
 -1  1  7  62.59  3.80
 -1  1  7  62.89  3.80
 -1  1  7  63.99  3.60
 -1  1  7  62.09  3.00
  0 -1 -7 847.62  27.90
  0 -1 -7 820.72  28.80
  0 -1 -7 894.61  27.40
  0 -1 -7 865.21  28.20
  0 -1 -7 846.42  31.40
  0 -1 -7 856.21  28.80
  0  1  7 827.32  27.70
  0  1  7 904.61  28.80
  0  1  7 884.31  27.90
  0  1  7 856.91  27.60
  0  1  7 876.01  31.80
 -1 -1 -7 5396.56 164.98
 -1 -1 -7 5320.87 165.58
 -1 -1 -7 5281.27 165.28
 -1 -1 -7 5360.66 166.08
 -1 -1 -7 5293.77 165.48
 -1 -1 -7 5411.66 167.18
  1  1  7 5108.09 166.88
  1  1  7 5335.27 166.48
 -2 -1 -7 3653.63 114.39
 -2 -1 -7 3678.33 114.99
 -2 -1 -7 3665.63 115.89
 -2 -1 -7 3561.24 115.29
 -2 -1 -7 3689.53 114.29
 -2 -1 -7 3620.44 114.79
 -2 -1 -7 3682.73 114.59
 -2 -1 -7 3591.04 114.49
  2  1  7 3771.82 114.89
  2  1  7 3667.63 125.59
  2  1  7 3823.62 115.39
  2  1  7 3666.63 116.89
  2  1  7 3096.19 118.89
  2  1  7 4083.89 142.69
 -3 -1 -7 381.96  13.30
 -3 -1 -7 407.36  14.80
 -3 -1 -7 394.86  13.40
 -3 -1 -7 363.76  13.10
 -3 -1 -7 385.46  14.70
 -3 -1 -7 407.06  13.60
  3  1  7 320.87  17.30
  3  1  7 380.06  21.10
  3  1  7 322.67  13.80
  3  1  7 367.16  13.20
  4 -2 -7 445.16  16.80
  4 -2 -7 473.45  22.50
  4 -2 -7 503.25  21.90
  4 -2 -7 437.06  24.80
  4 -2 -7 477.25  16.00
  4 -2 -7 498.95  16.10
  3 -2 -7 296.87  12.80
  3 -2 -7 274.97  22.60
  3 -2 -7 295.97  11.10
  3 -2 -7 275.47  20.00
  3 -2 -7 298.07  11.90
  3 -2 -7 311.57  19.90
  3 -2 -7 291.87  16.50
 -3  2  7 281.97  12.80
 -3  2  7 284.67  11.40
 -3  2  7 287.77  10.30
  2 -2 -7  27.60  5.10
  2 -2 -7  30.60  5.40
  2 -2 -7  18.90  3.70
  2 -2 -7  28.00  14.30
  2 -2 -7  24.00  11.60
  2 -2 -7  20.40  5.40
  2 -2 -7  29.00  13.00
 -2  2  7  26.30  2.10
 -2  2  7  23.80  2.80
  1 -2 -7 3638.04 129.59
  1 -2 -7 4462.95 128.79
  1 -2 -7 4141.29 132.89
 -1  2  7 4124.89 128.49
 -1  2  7 4096.39 129.29
 -1  2  7 4137.99 128.39
 -1  2  7 4130.29 129.59
 -1  2  7 4258.87 133.19
  0 -2 -7 1618.34  50.69
  0 -2 -7 1622.94  51.09
  0 -2 -7 1628.54  52.99
  0 -2 -7 1615.54  51.69
  0 -2 -7 1562.64  51.79
  0 -2 -7 1644.84  50.39
  0 -2 -7 1581.14  50.79
  0  2  7 1590.04  50.39
  0  2  7 1493.65  50.99
  0  2  7 1620.54  51.49
 -1 -2 -7 1315.57  42.80
 -1 -2 -7 1263.07  41.80
 -1 -2 -7 1312.57  41.90
 -1 -2 -7 1263.47  41.60
 -1 -2 -7 1271.57  42.50
 -1 -2 -7 1383.36  41.30
 -1 -2 -7 1286.67  41.60
 -1 -2 -7 1279.47  41.70
  1  2  7 1393.06  43.50
  1  2  7 1286.37  42.70
  1  2  7 1281.17  42.50
 -2 -2 -7  68.19  5.50
 -2 -2 -7  66.59  4.30
 -2 -2 -7  68.19  4.40
 -2 -2 -7  66.49  4.50
 -2 -2 -7  64.29  3.80
 -2 -2 -7  60.59  4.00
 -2 -2 -7  62.49  4.40
 -2 -2 -7  62.29  4.90
  2  2  7  73.39  6.20
  2  2  7  67.99  4.50
  2  2  7  65.69  12.10
  2  2  7  54.39  7.60
  2  2  7  74.19  22.10
 -3 -2 -7  59.19  3.80
 -3 -2 -7  62.29  3.80
 -3 -2 -7  50.89  4.70
 -3 -2 -7  60.09  4.40
 -3 -2 -7  62.69  3.80
  3  2  7  57.69  8.70
  3  2  7  52.09  6.70
  3  2  7  55.19  4.40
  3  2  7  59.09  3.50
  4 -3 -7  86.39  5.10
  4 -3 -7  92.29  10.20
  4 -3 -7 101.39  4.60
  4 -3 -7 111.49  9.30
  4 -3 -7 103.09  5.00
  3 -3 -7 1528.35  51.69
  3 -3 -7 1621.44  49.60
  3 -3 -7 1418.06  63.39
  3 -3 -7 1609.34  61.29
  3 -3 -7 1559.24  59.99
  3 -3 -7 1603.64  50.89
 -3  3  7 1560.74  48.90
 -3  3  7 1513.15  50.09
 -3  3  7 1456.75  49.00
  2 -3 -7  21.00  5.90
  2 -3 -7  28.00  4.90
  2 -3 -7  22.00  3.70
  2 -3 -7  17.30  4.00
  2 -3 -7  23.40  11.20
  2 -3 -7  20.50  11.90
 -2  3  7  24.80  2.10
 -2  3  7  29.80  2.80
 -2  3  7  28.40  2.80
  1 -3 -7 2206.38  69.29
  1 -3 -7 2182.68  72.89
 -1  3  7 2204.48  69.69
 -1  3  7 2110.49  68.69
 -1  3  7 2259.97  69.89
 -1  3  7 2161.98  68.59
  0 -3 -7 2472.85  78.49
  0 -3 -7 2472.85  77.79
  0 -3 -7 2510.65  76.99
  0 -3 -7 2517.25  77.49
  0 -3 -7 2424.96  79.19
  0 -3 -7 2478.05  77.29
  0  3  7 2474.25  78.09
  0  3  7 2445.26  77.29
  0  3  7 2382.56  76.79
  0  3  7 2381.36  76.89
 -1 -3 -7 146.59  6.70
 -1 -3 -7 140.19  6.00
 -1 -3 -7 136.49  6.30
 -1 -3 -7 141.39  6.30
 -1 -3 -7 143.99  7.10
 -1 -3 -7 134.29  6.30
 -1 -3 -7 146.19  5.90
 -1 -3 -7 144.59  8.40
  1  3  7 143.49  7.40
  1  3  7 142.59  7.60
  1  3  7 150.58  7.60
  1  3  7 166.78  7.10
 -2 -3 -7 2101.69  67.59
 -2 -3 -7 2096.79  66.59
 -2 -3 -7 2141.19  66.99
 -2 -3 -7 2127.39  66.59
 -2 -3 -7 2102.19  67.49
 -2 -3 -7 2129.69  66.79
 -2 -3 -7 2189.98  66.59
 -2 -3 -7 2161.98  68.19
  2  3  7 2041.70  75.49
  2  3  7 2060.09  66.49
  2  3  7 2223.68  67.29
  2  3  7 2091.19  68.59
  2  3  7 1901.21  69.99
  2  3  7 1947.41  70.69
  2  3  7 2239.58  95.49
 -3 -3 -7 300.97  10.70
 -3 -3 -7 303.37  10.90
 -3 -3 -7 292.47  10.60
 -3 -3 -7 279.97  12.20
 -3 -3 -7 299.37  10.90
  3  3  7 320.77  24.20
  3  3  7 282.17  16.00
  3  3  7 258.77  13.60
  4 -4 -7  44.30  3.40
  4 -4 -7  40.60  3.40
  4 -4 -7  48.60  6.70
  4 -4 -7  43.90  7.10
  3 -4 -7  15.10  2.70
  3 -4 -7  17.80  9.80
  3 -4 -7  19.40  8.50
  3 -4 -7  22.10  9.10
  3 -4 -7  13.30  3.30
  3 -4 -7  12.80  3.10
 -3  4  7  16.00  3.10
 -3  4  7  15.60  2.50
 -3  4  7  16.90  3.00
  2 -4 -7 3706.43 130.79
  2 -4 -7 4391.26 143.29
  2 -4 -7 4357.76 130.49
  2 -4 -7 4166.48 128.69
  2 -4 -7 4032.50 136.39
  2 -4 -7 3914.41 143.39
 -2  4  7 4033.20 128.19
 -2  4  7 4328.77 129.39
 -2  4  7 4267.17 129.89
 -2  4  7 4030.60 128.89
 -2  4  7 4097.19 128.29
 -2  4  7 4025.00 128.39
  1 -4 -7 1338.97  46.70
  1 -4 -7 1160.98  44.40
  1 -4 -7 1351.66  44.40
  1 -4 -7 1425.96  43.50
 -1  4  7 1323.17  42.40
 -1  4  7 1376.86  42.40
 -1  4  7 1341.77  43.80
 -1  4  7 1345.67  43.60
 -1  4  7 1358.66  43.30
  0 -4 -7 747.43  24.70
  0 -4 -7 766.22  25.30
  0 -4 -7 749.73  24.90
  0 -4 -7 726.63  26.00
  0 -4 -7 710.73  25.50
  0 -4 -7 790.92  24.60
  0 -4 -7 810.52  25.60
  0  4  7 738.33  25.00
  0  4  7 704.03  24.70
  0  4  7 744.83  25.20
  0  4  7 750.42  25.50
  0  4  7 734.33  24.20
  0  4  7 741.93  24.10
  0  4  7 723.13  24.00
 -1 -4 -7 856.01  27.50
 -1 -4 -7 830.82  27.60
 -1 -4 -7 810.22  27.60
 -1 -4 -7 840.02  28.90
 -1 -4 -7 868.51  29.20
 -1 -4 -7 838.52  27.90
 -1 -4 -7 858.51  27.80
 -1 -4 -7 875.31  28.30
  1  4  7 839.42  29.50
  1  4  7 895.71  28.70
  1  4  7 805.42  28.50
  1  4  7 790.22  27.90
 -2 -4 -7 402.96  14.10
 -2 -4 -7 382.96  16.30
 -2 -4 -7 417.76  14.10
 -2 -4 -7 424.76  14.40
 -2 -4 -7 422.46  15.70
 -2 -4 -7 396.56  15.70
 -2 -4 -7 398.16  14.60
 -2 -4 -7 389.96  14.40
  2  4  7 410.36  17.60
  2  4  7 378.06  18.30
  2  4  7 383.96  13.80
  2  4  7 411.76  14.60
  2  4  7 339.47  28.90
  2  4  7 420.96  34.70
  2  4  7 376.96  17.60
 -3 -4 -7 1751.82  56.29
 -3 -4 -7 1823.82  56.89
 -3 -4 -7 1767.32  56.79
 -3 -4 -7 1790.12  56.49
 -3 -4 -7 1829.02  56.89
  3  4  7 1728.53  59.59
  3  4  7 1741.93  56.79
  3  4  7 1717.23  60.89
  3  4  7 1761.02  56.19
  3  4  7 1922.31  74.39
  4 -5 -7 1265.77  42.20
  4 -5 -7 1125.09  39.80
  4 -5 -7 1117.39  35.90
  4 -5 -7 1103.39  36.10
 -4  5  7 964.30  35.40
  3 -5 -7 1792.82  56.39
  3 -5 -7 1631.34  57.79
  3 -5 -7 1990.10  71.49
  3 -5 -7 1734.73  58.59
  3 -5 -7 1642.14  66.99
 -3  5  7 1734.83  55.99
 -3  5  7 1825.82  57.69
 -3  5  7 1810.52  56.09
 -3  5  7 1793.02  56.19
  2 -5 -7  22.00  10.90
  2 -5 -7  14.80  5.30
 -2  5  7  16.60  2.40
 -2  5  7  23.00  2.80
 -2  5  7  19.30  2.90
 -2  5  7  12.70  3.00
  1 -5 -7 103.39  7.70
  1 -5 -7 108.99  8.20
  1 -5 -7 114.39  7.70
  1 -5 -7 111.59  8.70
  1 -5 -7 100.89  8.00
  1 -5 -7 107.09  8.20
 -1  5  7 115.79  5.30
 -1  5  7 115.39  6.00
 -1  5  7 113.39  6.40
 -1  5  7 111.29  4.90
 -1  5  7 105.19  6.00
 -1  5  7 117.79  4.80
 -1  5  7 111.79  4.90
  0 -5 -7 1711.73  53.39
  0 -5 -7 1623.24  53.99
  0 -5 -7 1652.23  52.89
  0 -5 -7 1631.64  54.59
  0 -5 -7 1770.42  54.09
  0 -5 -7 1703.63  53.09
  0 -5 -7 1682.93  55.09
  0 -5 -7 1636.54  52.99
  0  5  7 1650.23  54.09
  0  5  7 1654.63  52.39
  0  5  7 1655.53  52.59
  0  5  7 1644.64  52.69
  0  5  7 1635.24  54.19
  0  5  7 1675.83  53.29
  0  5  7 1650.83  53.59
 -1 -5 -7 1627.64  52.39
 -1 -5 -7 1676.83  52.49
 -1 -5 -7 1647.34  52.39
 -1 -5 -7 1618.84  53.69
 -1 -5 -7 1623.04  53.09
 -1 -5 -7 1621.24  52.59
  1  5  7 1608.14  52.89
  1  5  7 1548.65  52.19
  1  5  7 1611.14  54.59
  1  5  7 1718.43  53.39
  1  5  7 1758.82  55.79
 -2 -5 -7 943.31  30.50
 -2 -5 -7 919.71  31.90
 -2 -5 -7 901.91  30.10
 -2 -5 -7 943.11  30.10
 -2 -5 -7 911.21  30.60
  2  5  7 904.91  33.70
  2  5  7 855.41  29.60
  2  5  7 945.21  53.19
  2  5  7 938.61  30.50
 -3 -5 -7  86.39  4.70
 -3 -5 -7  91.09  5.30
 -3 -5 -7  93.19  4.50
 -3 -5 -7  83.79  4.50
 -3 -5 -7  89.99  5.10
  3  5  7  86.49  6.10
  3  5  7  87.39  11.90
  3  5  7  87.99  4.00
  3  5  7  88.39  4.50
  3 -6 -7 806.52  37.60
  3 -6 -7 698.53  26.00
  3 -6 -7 747.23  35.70
  3 -6 -7 743.53  24.30
  3 -6 -7 670.73  25.60
 -3  6  7 713.83  25.50
 -3  6  7 747.63  24.20
 -3  6  7 738.93  24.00
 -3  6  7 756.82  24.10
  2 -6 -7 332.37  14.70
  2 -6 -7 355.96  15.00
  2 -6 -7 375.86  25.10
  2 -6 -7 337.07  12.60
 -2  6  7 366.46  12.50
 -2  6  7 341.87  13.50
 -2  6  7 353.76  13.70
 -2  6  7 341.67  13.00
 -2  6  7 361.56  12.40
 -2  6  7 353.06  12.30
  1 -6 -7 1157.68  37.40
  1 -6 -7 1087.79  36.80
  1 -6 -7 1149.78  37.10
  1 -6 -7 1179.48  38.70
 -1  6  7 1128.59  37.60
 -1  6  7 1115.59  36.70
 -1  6  7 1098.99  36.60
 -1  6  7 1092.99  37.00
 -1  6  7 1125.49  36.00
 -1  6  7 1128.79  36.20
 -1  6  7 1115.69  36.10
  0 -6 -7 2110.19  68.99
  0 -6 -7 2088.29  67.79
  0 -6 -7 2119.89  66.59
  0 -6 -7 2072.69  66.99
  0 -6 -7 2130.89  66.99
  0 -6 -7 2096.99  67.89
  0  6  7 2093.29  65.89
  0  6  7 2085.99  67.69
  0  6  7 2077.29  67.29
  0  6  7 2167.38  66.89
  0  6  7 2113.39  66.39
  0  6  7 2116.29  68.29
 -1 -6 -7  53.59  3.80
 -1 -6 -7  58.89  4.10
 -1 -6 -7  54.69  5.00
 -1 -6 -7  54.79  4.00
 -1 -6 -7  59.89  6.40
 -1 -6 -7  51.39  5.90
 -1 -6 -7  58.79  5.10
 -1 -6 -7  54.29  4.70
 -1 -6 -7  58.39  7.20
  1  6  7  50.89  4.60
  1  6  7  61.19  7.90
  1  6  7  55.69  6.00
 -2 -6 -7 488.25  16.10
 -2 -6 -7 465.45  16.60
 -2 -6 -7 470.95  16.50
 -2 -6 -7 486.25  16.60
 -2 -6 -7 451.55  16.10
 -2 -6 -7 453.95  18.20
  2  6  7 461.15  16.20
  2  6  7 430.66  15.50
  2  6  7 471.65  16.30
  2  6  7 454.15  33.60
  2  6  7 447.06  18.90
 -3 -6 -7  7.10  2.20
 -3 -6 -7  9.40  1.70
 -3 -6 -7  5.30  2.60
 -3 -6 -7  10.00  2.10
  3  6  7  8.60  3.00
  3  6  7  8.90  4.70
  3  6  7  7.70  1.60
  3  6  7  9.90  1.80
  3 -7 -7 389.66  15.00
  3 -7 -7 370.06  15.20
 -3  7  7 407.46  13.40
 -3  7  7 417.26  13.60
 -3  7  7 405.56  13.60
 -3  7  7 390.46  13.90
 -3  7  7 377.56  15.10
  2 -7 -7 1164.28  50.39
  2 -7 -7 1006.20  36.20
  2 -7 -7 1122.69  37.20
  2 -7 -7 997.80  36.50
 -2  7  7 1097.09  34.80
 -2  7  7 1059.99  35.00
 -2  7  7 1053.69  34.40
 -2  7  7 1078.99  34.60
 -2  7  7 1103.49  34.50
 -2  7  7 1048.50  35.90
 -2  7  7 1085.69  36.40
  1 -7 -7 108.49  8.00
  1 -7 -7 119.09  7.00
  1 -7 -7 138.89  8.20
  1 -7 -7 111.59  6.80
 -1  7  7 132.49  5.20
 -1  7  7 105.19  6.30
 -1  7  7 105.29  6.90
 -1  7  7 119.39  4.90
 -1  7  7 112.69  6.20
 -1  7  7 117.69  5.40
 -1  7  7 108.19  6.00
 -1  7  7 115.89  7.70
 -1  7  7 114.69  5.10
  0 -7 -7 1887.11  59.19
  0 -7 -7 1931.11  62.19
  0 -7 -7 1732.23  59.99
  0 -7 -7 1865.91  59.89
  0  7  7 1842.42  58.39
  0  7  7 1929.71  61.19
  0  7  7 1878.01  61.29
 -1 -7 -7 1411.16  45.70
 -1 -7 -7 1352.36  45.40
 -1 -7 -7 1389.36  47.40
 -1 -7 -7 1395.16  44.80
 -1 -7 -7 1469.25  45.00
 -1 -7 -7 1341.17  47.10
 -1 -7 -7 1412.56  45.40
  1  7  7 1387.86  44.60
  1  7  7 1410.66  48.00
  1  7  7 1324.17  48.80
  1  7  7 1354.86  47.60
  1  7  7 1463.75  45.70
 -2 -7 -7  89.99  4.50
 -2 -7 -7  85.69  4.70
 -2 -7 -7  90.59  5.40
 -2 -7 -7  83.39  4.70
 -2 -7 -7  89.59  5.10
 -2 -7 -7  82.29  6.70
  2  7  7  87.29  15.50
  2  7  7  80.49  6.70
  2  7  7  89.49  4.70
  2  7  7  86.49  4.60
 -3 -7 -7 360.26  12.60
 -3 -7 -7 370.76  12.30
  3 -8 -7 279.37  11.30
  3 -8 -7 288.17  11.30
  3 -8 -7 330.87  20.00
 -3  8  7 300.27  10.40
 -3  8  7 288.37  10.60
 -3  8  7 310.17  10.30
 -3  8  7 306.27  10.60
  2 -8 -7 1979.90  68.29
  2 -8 -7 2279.57  82.79
  2 -8 -7 2145.89  69.19
  2 -8 -7 1966.40  68.09
 -2  8  7 2160.18  66.89
 -2  8  7 2117.39  66.69
 -2  8  7 2092.99  67.19
 -2  8  7 2208.18  66.99
 -2  8  7 2126.09  66.69
  1 -8 -7 1235.78  38.40
  1 -8 -7 1172.98  39.50
  1 -8 -7 1192.98  38.20
  1 -8 -7 1131.69  40.20
 -1  8  7 1171.08  37.30
 -1  8  7 1162.38  37.60
 -1  8  7 1142.69  39.40
 -1  8  7 1185.58  37.60
 -1  8  7 1179.68  38.00
 -1  8  7 1134.69  37.40
  0 -8 -7  85.09  4.40
  0 -8 -7  85.59  4.70
  0 -8 -7  76.09  6.80
  0 -8 -7  83.49  5.70
  0 -8 -7  72.09  4.70
  0 -8 -7  79.39  7.60
  0  8  7  71.39  5.50
  0  8  7  75.79  7.20
  0  8  7  73.49  4.50
  0  8  7  71.49  5.50
  0  8  7  74.49  4.20
  0  8  7  79.19  7.90
 -1 -8 -7 315.27  12.60
 -1 -8 -7 338.07  12.60
 -1 -8 -7 329.27  11.80
 -1 -8 -7 292.67  16.00
 -1 -8 -7 330.97  12.00
  1  8  7 327.57  11.80
  1  8  7 328.77  12.50
 -2 -8 -7  75.99  4.70
 -2 -8 -7  70.29  3.90
 -2 -8 -7  71.99  4.20
 -2 -8 -7  65.49  3.90
 -2 -8 -7  67.49  5.20
  2  8  7  60.49  3.50
  2  8  7  66.19  11.80
  2  8  7  71.59  4.00
  2  8  7  68.79  6.00
  3 -9 -7 838.22  28.90
  3 -9 -7 855.01  29.20
  3 -9 -7 969.60  37.70
 -3  9  7 897.61  29.10
 -3  9  7 889.41  28.80
 -3  9  7 918.71  28.50
 -3  9  7 887.51  28.70
 -3  9  7 917.21  28.70
  2 -9 -7 182.68  8.40
  2 -9 -7 212.08  16.80
  2 -9 -7 191.38  9.60
  2 -9 -7 183.98  8.90
 -2  9  7 195.08  7.40
 -2  9  7 183.88  9.50
 -2  9  7 196.28  7.10
 -2  9  7 200.88  7.40
 -2  9  7 205.28  7.60
 -2  9  7 193.58  7.70
  1 -9 -7  3.20  2.90
  1 -9 -7  0.60  2.90
  1 -9 -7  1.60  2.20
  1 -9 -7  8.30  3.00
 -1  9  7  3.90  1.20
 -1  9  7  6.10  3.50
 -1  9  7  6.90  1.70
 -1  9  7  4.10  1.60
  0 -9 -7  67.29  4.30
  0 -9 -7  77.09  7.30
  0 -9 -7  68.79  4.40
  0  9  7  68.09  4.20
  0  9  7  69.59  5.00
  0  9  7  68.89  3.90
 -1 -9 -7 1692.43  52.99
 -1 -9 -7 1603.34  53.29
 -1 -9 -7 1598.54  52.59
 -1 -9 -7 1614.24  52.39
 -1 -9 -7 1635.24  52.49
 -1 -9 -7 1657.33  53.09
  1  9  7 1601.74  52.29
  1  9  7 1701.23  55.89
  1  9  7 1693.33  53.19
  1  9  7 1675.53  70.99
 -2 -9 -7 912.81  29.60
 -2 -9 -7 876.51  29.90
 -2 -9 -7 913.31  29.20
 -2 -9 -7 926.61  29.30
 -2 -9 -7 915.61  29.20
  2  9  7 888.31  28.90
  2  9  7 896.01  29.10
  2  9  7 924.71  42.30
  3 -10 -7 139.09  9.70
  3 -10 -7 135.19  5.40
 -3 10  7 134.49  4.80
 -3 10  7 138.19  5.10
 -3 10  7 136.09  5.40
 -3 10  7 132.29  5.10
  2 -10 -7 337.77  13.80
  2 -10 -7 346.77  12.90
  2 -10 -7 354.06  13.70
  2 -10 -7 364.86  21.00
 -2 10  7 360.36  11.80
 -2 10  7 358.36  12.70
 -2 10  7 345.77  12.40
 -2 10  7 347.77  12.00
 -2 10  7 351.96  12.30
 -2 10  7 353.16  12.10
  1 -10 -7 100.59  5.10
  1 -10 -7  93.39  7.50
  1 -10 -7 109.09  7.10
 -1 10  7 107.99  4.10
 -1 10  7 100.89  5.20
 -1 10  7 100.09  4.60
 -1 10  7  94.09  6.60
 -1 10  7  94.69  4.80
  0 -10 -7 1063.89  35.10
  0 -10 -7 1097.09  37.70
  0 -10 -7 1065.09  35.10
  0 10  7 1087.39  34.80
  0 10  7 1058.69  35.70
  0 10  7 1111.39  34.70
 -1 -10 -7 646.94  21.00
 -1 -10 -7 633.24  22.00
 -1 -10 -7 636.14  21.40
 -1 -10 -7 642.54  21.30
 -1 -10 -7 628.24  21.20
  1 10  7 647.04  24.00
  1 10  7 633.24  21.00
  1 10  7 634.34  21.60
  1 10  7 639.04  34.80
 -2 -10 -7 355.46  11.50
 -2 -10 -7 339.37  11.90
 -2 -10 -7 343.87  11.50
 -2 -10 -7 335.17  12.30
  2 10  7 349.67  19.80
  2 10  7 331.87  11.40
  2 -11 -7 619.14  20.90
  2 -11 -7 648.44  28.30
  2 -11 -7 631.84  21.80
 -2 11  7 624.84  20.40
 -2 11  7 639.94  20.60
 -2 11  7 631.44  21.00
 -2 11  7 638.64  20.20
  1 -11 -7 262.07  10.20
  1 -11 -7 259.67  11.50
 -1 11  7 252.97  10.40
 -1 11  7 276.37  9.60
 -1 11  7 282.87  9.60
 -1 11  7 271.07  10.10
  0 -11 -7 1501.85  46.70
  0 -11 -7 1412.96  48.30
  0 -11 -7 1459.85  46.50
  0 11  7 1481.75  47.00
  0 11  7 1425.46  45.90
 -1 -11 -7 1213.18  39.40
 -1 -11 -7 1233.78  39.50
 -1 -11 -7 1218.28  40.20
  1 11  7 1257.07  41.60
  1 11  7 1264.07  39.70
  1 11  7 1249.38  51.39
  2 -12 -7 796.72  25.80
  2 -12 -7 774.12  30.60
 -2 12  7 802.12  25.00
 -2 12  7 767.12  25.30
  1 -12 -7 934.81  31.40
 -1 12  7 906.41  30.40
 -1 12  7 947.61  30.20
 -1 12  7 941.91  29.70
  0 -12 -7  13.60  2.20
  0 -12 -7  10.80  2.80
  0 12  7  12.40  2.00
  0 12  7  12.10  6.80
  1 14 -8 610.64  24.10
  1 14 -8 625.74  20.40
  1 14 -8 605.54  19.90
 -1 -14  8 647.64  20.70
 -1 -14  8 624.34  20.20
 -1 -14  8 637.44  20.00
  0 14 -8 1582.14  55.79
  0 14 -8 1630.04  51.59
  0 -14  8 1623.64  51.69
  0 -14  8 1652.23  51.19
 -1 14 -8  50.29  5.50
 -1 14 -8  47.60  3.10
  1 -14  8  48.20  4.00
  1 -14  8  57.89  6.10
  1 13 -8 1265.57  45.90
  1 13 -8 1227.38  39.80
  1 13 -8 1272.67  40.00
 -1 -13  8 1252.27  39.70
 -1 -13  8 1238.98  39.80
 -1 -13  8 1186.08  40.40
 -1 -13  8 1270.77  40.40
 -1 -13  8 1286.67  40.10
  0 13 -8  10.00  6.00
  0 13 -8  4.90  1.50
  0 13 -8  6.50  2.90
  0 -13  8  3.90  1.70
  0 -13  8  8.60  1.90
 -1 13 -8  33.10  2.10
 -1 13 -8  26.70  2.90
  1 -13  8  31.40  3.40
  1 -13  8  35.60  2.80
  1 -13  8  29.40  3.90
 -2 13 -8 1096.79  35.40
 -2 13 -8 1128.29  35.50
  2 -13  8 1148.19  39.50
  2 -13  8 1128.69  36.50
  2 12 -8 248.98  13.30
  2 12 -8 250.37  9.30
 -2 -12  8 248.68  9.70
 -2 -12  8 265.47  9.00
 -2 -12  8 261.47  9.50
 -2 -12  8 264.17  9.00
 -2 -12  8 247.38  9.80
  1 12 -8 419.66  14.20
  1 12 -8 364.16  13.20
  1 12 -8 394.26  21.50
  1 12 -8 367.36  19.30
 -1 -12  8 363.36  13.10
 -1 -12  8 362.66  13.80
 -1 -12  8 372.26  13.50
 -1 -12  8 363.96  13.00
 -1 -12  8 368.96  13.70
  0 12 -8 726.93  31.10
  0 12 -8 745.23  25.40
  0 -12  8 768.82  24.50
  0 -12  8 770.12  25.10
  0 -12  8 751.52  25.00
  0 -12  8 764.02  25.80
 -1 12 -8 1686.63  52.59
 -1 12 -8 1736.03  52.19
 -1 12 -8 1662.73  53.89
  1 -12  8 1432.46  53.19
  1 -12  8 1720.23  55.39
  1 -12  8 1661.13  53.19
 -2 12 -8 478.25  16.00
 -2 12 -8 474.45  15.90
  2 -12  8 500.65  21.00
  2 -12  8 481.95  17.20
  2 11 -8  87.59  10.90
  2 11 -8  67.39  7.40
  2 11 -8  79.69  4.40
  2 11 -8  73.19  3.50
 -2 -11  8  81.99  4.10
 -2 -11  8  77.69  4.70
 -2 -11  8  77.89  4.30
 -2 -11  8  64.09  5.10
  1 11 -8 1509.75  48.80
  1 11 -8 1515.95  48.70
  1 11 -8 1575.74  59.49
  1 11 -8 1479.75  56.49
 -1 -11  8 1480.95  49.30
 -1 -11  8 1490.95  51.49
 -1 -11  8 1562.94  49.10
 -1 -11  8 1551.54  49.10
 -1 -11  8 1490.25  48.40
  0 11 -8 536.05  18.80
  0 -11  8 534.25  19.10
  0 -11  8 524.55  18.20
  0 -11  8 520.95  17.80
  0 -11  8 528.65  22.10
  0 -11  8 544.75  18.50
 -1 11 -8 158.98  7.00
 -1 11 -8 159.38  6.40
 -1 11 -8 159.38  7.80
 -1 11 -8 169.58  6.60
  1 -11  8 157.18  7.80
  1 -11  8 158.08  8.90
  1 -11  8 166.78  6.90
 -2 11 -8 2088.39  65.49
 -2 11 -8 1989.90  65.89
 -2 11 -8 2084.19  65.19
 -2 11 -8 2126.69  65.49
  2 -11  8 2101.69  67.29
  2 -11  8 2124.79  72.19
  2 10 -8 329.37  14.70
  2 10 -8 323.97  12.40
  2 10 -8 318.87  12.60
  2 10 -8 342.17  21.00
  2 10 -8 360.66  20.80
 -2 -10  8 342.67  12.40
 -2 -10  8 330.27  12.80
 -2 -10  8 321.47  14.30
 -2 -10  8 335.77  12.40
 -2 -10  8 346.07  12.00
  1 10 -8 253.67  9.90
  1 10 -8 252.77  16.30
  1 10 -8 265.97  19.40
 -1 -10  8 248.98  12.00
 -1 -10  8 256.27  10.70
 -1 -10  8 240.78  9.50
 -1 -10  8 257.47  10.20
 -1 -10  8 245.38  10.20
  0 10 -8 3416.16 114.99
  0 10 -8 3483.25 107.79
  0 10 -8 3365.86 108.69
  0 -10  8 3488.95 109.09
  0 -10  8 3505.75 110.89
  0 -10  8 3549.34 108.49
  0 -10  8 3418.96 108.19
  0 -10  8 3532.55 108.49
  0 -10  8 3366.86 109.39
  0 -10  8 3311.77 107.79
 -1 10 -8 417.26  14.10
 -1 10 -8 411.66  14.00
 -1 10 -8 409.46  14.70
 -1 10 -8 413.96  15.50
  1 -10  8 404.36  14.60
  1 -10  8 409.96  15.40
  1 -10  8 399.26  16.60
 -2 10 -8  18.30  2.00
 -2 10 -8  21.00  2.80
 -2 10 -8  24.50  2.80
 -2 10 -8  21.60  2.30
 -2 10 -8  19.80  2.30
  2 -10  8  19.20  4.30
  2 -10  8  18.60  6.80
  2 -10  8  20.20  5.90
 -3 10 -8 992.70  32.70
 -3 10 -8 996.90  32.20
 -3 10 -8 1023.00  32.00
 -3 10 -8 1026.20  32.00
 -3 10 -8 1024.40  32.10
  3 -10  8 992.30  35.90
  3 -10  8 1032.40  32.60
  3  9 -8 176.38  8.40
  3  9 -8 168.28  10.70
  3  9 -8 180.58  6.40
  3  9 -8 194.58  12.40
  3  9 -8 187.88  7.30
 -3 -9  8 175.98  7.60
  2  9 -8 3436.96 113.89
  2  9 -8 3524.55 120.69
  2  9 -8 3414.76 110.69
  2  9 -8 3451.85 111.59
  2  9 -8 3745.03 125.49
 -2 -9  8 3638.34 111.69
 -2 -9  8 3400.66 111.79
 -2 -9  8 3601.14 111.19
 -2 -9  8 3638.74 111.59
 -2 -9  8 3639.94 113.79
  1  9 -8 1347.87  52.79
  1  9 -8 1337.97  52.49
  1  9 -8 1355.26  43.80
  1  9 -8 1305.07  47.80
  1  9 -8 1414.46  44.80
  1  9 -8 1429.16  58.09
 -1 -9  8 1395.96  45.30
 -1 -9  8 1415.56  47.10
 -1 -9  8 1393.76  44.90
 -1 -9  8 1436.66  44.90
 -1 -9  8 1349.36  44.30
 -1 -9  8 1376.46  45.70
  0  9 -8  66.59  8.10
  0  9 -8  75.59  4.30
  0  9 -8  73.19  5.00
  0  9 -8  71.39  4.80
  0 -9  8  82.69  5.80
  0 -9  8  69.19  6.20
  0 -9  8  80.29  4.10
  0 -9  8  79.69  5.80
  0 -9  8  75.29  4.70
  0 -9  8  69.29  4.40
  0 -9  8  63.69  6.30
 -1  9 -8  8.60  1.90
 -1  9 -8  7.60  1.70
 -1  9 -8  11.00  2.90
 -1  9 -8  9.70  4.70
 -1  9 -8  14.50  2.40
 -1  9 -8  10.00  2.40
  1 -9  8  6.10  3.40
  1 -9  8  10.20  5.10
  1 -9  8  5.40  2.70
  1 -9  8  11.80  3.80
 -2  9 -8 500.75  16.80
 -2  9 -8 482.65  17.00
 -2  9 -8 498.05  16.60
 -2  9 -8 507.05  16.90
 -2  9 -8 492.45  17.20
 -2  9 -8 500.05  16.70
  2 -9  8 501.05  18.80
 -3  9 -8 1846.42  58.89
 -3  9 -8 1841.42  58.79
 -3  9 -8 1854.01  58.79
  3 -9  8 1800.72  63.49
  3 -9  8 1859.71  59.59
  3 -9  8 2037.00  65.09
  3 -9  8 1899.41  59.29
  3  8 -8 2454.85  78.09
  3  8 -8 2437.86  75.49
  3  8 -8 2388.76  82.99
  3  8 -8 2402.26  76.19
  3  8 -8 2578.24  85.59
 -3 -8  8 2307.87  76.19
 -3 -8  8 2316.97  75.79
  2  8 -8 135.19  9.30
  2  8 -8 153.58  6.90
  2  8 -8 138.69  12.60
  2  8 -8 137.09  5.70
  2  8 -8 148.79  16.40
 -2 -8  8 139.39  6.60
 -2 -8  8 147.59  6.60
 -2 -8  8 136.79  7.90
  1  8 -8 1478.85  60.69
  1  8 -8 1442.06  45.70
  1  8 -8 1403.96  54.29
  1  8 -8 1492.95  54.19
  1  8 -8 1460.75  46.40
  1  8 -8 1391.66  48.80
 -1 -8  8 1419.66  46.90
 -1 -8  8 1478.95  46.90
 -1 -8  8 1369.66  47.30
 -1 -8  8 1417.16  46.00
 -1 -8  8 1404.76  46.40
 -1 -8  8 1445.66  48.50
  0  8 -8 2899.91  90.99
  0  8 -8 3045.80  96.09
  0  8 -8 2828.32  89.89
  0  8 -8 2853.91  90.19
  0 -8  8 2950.70  93.59
  0 -8  8 2807.42  91.19
  0 -8  8 2789.42  90.39
  0 -8  8 2855.81  90.79
  0 -8  8 2855.61  90.69
  0 -8  8 2894.81  91.29
  0 -8  8 2725.13  90.09
  0 -8  8 2972.40  93.09
 -1  8 -8 2868.61  89.09
 -1  8 -8 2745.23  85.19
 -1  8 -8 2670.03  87.09
 -1  8 -8 2729.03  85.49
 -1  8 -8 2740.73  85.39
 -1  8 -8 2697.53  85.99
 -1  8 -8 2726.43  85.39
  1 -8  8 2749.12  86.69
  1 -8  8 2749.62  87.99
  1 -8  8 2661.23  86.79
  1 -8  8 2670.63  85.89
  1 -8  8 2667.33  89.09
 -2  8 -8 1026.30  33.70
 -2  8 -8 1036.80  33.30
 -2  8 -8 1031.50  33.50
 -2  8 -8 1019.20  33.20
 -2  8 -8 1027.80  33.20
  2 -8  8 1061.19  35.50
 -3  8 -8  71.59  4.60
 -3  8 -8  71.19  3.40
 -3  8 -8  78.29  3.80
 -3  8 -8  72.19  3.70
 -3  8 -8  78.09  3.60
  3 -8  8  73.09  4.00
  3 -8  8  75.19  4.40
  3 -8  8  78.69  7.40
  3 -8  8  75.19  8.70
  3  7 -8 487.05  18.90
  3  7 -8 466.85  16.90
  3  7 -8 495.05  15.90
  3  7 -8 456.55  22.70
  3  7 -8 508.85  27.10
 -3 -7  8 479.55  16.80
 -3 -7  8 443.56  16.30
  2  7 -8 1311.37  51.59
  2  7 -8 1271.77  54.19
  2  7 -8 1326.87  43.10
  2  7 -8 1280.47  45.70
  2  7 -8 1315.47  46.50
  2  7 -8 1315.77  42.10
  2  7 -8 1376.36  60.49
  2  7 -8 1246.78  53.99
 -2 -7  8 1383.36  44.80
 -2 -7  8 1307.77  42.90
 -2 -7  8 1401.86  42.90
  1  7 -8 3474.55 114.39
  1  7 -8 3462.05 115.29
  1  7 -8 3534.45 107.19
  1  7 -8 3419.96 106.29
  1  7 -8 3118.99 111.09
 -1 -7  8 3309.97 106.99
 -1 -7  8 3497.05 107.69
 -1 -7  8 3495.75 109.09
 -1 -7  8 3339.87 106.69
 -1 -7  8 3485.25 107.39
 -1 -7  8 3301.47 107.09
  0  7 -8 1187.58  42.00
  0  7 -8 1142.29  36.90
  0  7 -8 1086.29  37.00
  0  7 -8 1222.58  38.00
  0 -7  8 1183.48  37.40
  0 -7  8 1156.68  38.20
  0 -7  8 1166.08  39.50
  0 -7  8 1191.08  37.90
  0 -7  8 1143.59  37.40
  0 -7  8 1068.09  42.00
  0 -7  8 1118.29  37.00
  0 -7  8 1157.28  37.60
 -1  7 -8 2440.36  76.59
 -1  7 -8 2402.16  74.89
 -1  7 -8 2381.56  75.09
 -1  7 -8 2422.36  75.69
 -1  7 -8 2472.35  75.19
 -1  7 -8 2423.96  76.59
 -1  7 -8 2349.67  75.29
 -1  7 -8 2427.56  75.29
  1 -7  8 2360.16  78.29
  1 -7  8 2210.88  74.69
  1 -7  8 2372.06  76.29
  1 -7  8 2431.96  77.49
  1 -7  8 2341.37  75.79
  1 -7  8 2415.56  76.39
 -2  7 -8 1152.88  37.00
 -2  7 -8 1143.29  36.60
 -2  7 -8 1078.19  37.40
 -2  7 -8 1134.99  38.50
 -2  7 -8 1163.98  36.70
 -2  7 -8 1208.38  36.80
 -2  7 -8 1158.78  36.90
 -2  7 -8 1142.89  37.10
  2 -7  8 1094.49  41.40
  2 -7  8 1185.68  38.80
  2 -7  8 1112.09  43.50
 -3  7 -8 114.89  5.10
 -3  7 -8 117.49  5.10
 -3  7 -8 121.79  5.00
 -3  7 -8 124.89  5.50
 -3  7 -8 112.49  4.80
  3 -7  8 122.69  5.90
  3 -7  8 115.49  9.20
  3 -7  8 109.29  5.30
  3 -7  8 124.79  12.10
  3  6 -8  90.49  10.00
  3  6 -8 109.79  11.70
  3  6 -8  99.69  5.60
  3  6 -8 110.29  10.10
  3  6 -8 104.09  14.50
  3  6 -8 106.99  4.50
  2  6 -8 1359.26  48.70
  2  6 -8 1410.86  45.20
  2  6 -8 1310.57  63.09
  2  6 -8 1431.96  54.69
  2  6 -8 1506.05  59.19
  2  6 -8 1479.75  46.20
  2  6 -8 1446.86  49.20
  2  6 -8 1358.76  56.79
  2  6 -8 1349.27  57.79
 -2 -6  8 1469.95  47.50
 -2 -6  8 1418.76  45.90
 -2 -6  8 1489.65  45.80
  1  6 -8 1155.38  36.70
  1  6 -8 1199.38  50.79
  1  6 -8 1112.09  44.90
  1  6 -8 1186.68  37.60
  1  6 -8 1118.29  37.30
  1  6 -8 1121.99  43.30
  1  6 -8 1136.59  39.10
 -1 -6  8 1174.68  37.30
 -1 -6  8 1107.39  37.10
 -1 -6  8 1135.49  38.10
 -1 -6  8 1123.79  37.40
 -1 -6  8 1172.18  37.50
 -1 -6  8 1182.48  39.10
  0  6 -8 5059.39 157.58
  0  6 -8 4924.51 152.38
  0  6 -8 4935.21 153.38
  0  6 -8 4815.62 152.58
  0 -6  8 4845.52 152.78
  0 -6  8 4851.91 153.28
  0 -6  8 4845.42 152.58
  0 -6  8 4900.41 152.88
  0 -6  8 5053.89 153.68
  0 -6  8 4818.82 152.98
  0 -6  8 4835.32 154.78
 -1  6 -8 1500.65  47.20
 -1  6 -8 1538.55  48.60
 -1  6 -8 1484.15  47.30
 -1  6 -8 1483.25  47.40
 -1  6 -8 1461.65  48.80
 -1  6 -8 1495.95  47.50
 -1  6 -8 1492.65  47.30
 -1  6 -8 1482.45  47.80
 -1  6 -8 1461.65  47.30
  1 -6  8 1495.35  50.19
  1 -6  8 1567.34  48.50
  1 -6  8 1550.54  47.80
  1 -6  8 1440.26  48.00
  1 -6  8 1378.56  46.90
  1 -6  8 1515.75  49.60
  1 -6  8 1472.45  48.50
 -2  6 -8 559.34  20.20
 -2  6 -8 537.55  19.30
 -2  6 -8 546.35  18.50
 -2  6 -8 561.94  18.90
 -2  6 -8 544.85  18.60
 -2  6 -8 570.84  18.80
 -2  6 -8 562.14  18.60
 -2  6 -8 583.34  18.80
  2 -6  8 530.25  24.70
  2 -6  8 582.44  20.80
  2 -6  8 549.74  23.00
 -3  6 -8 551.34  18.10
 -3  6 -8 548.45  18.60
 -3  6 -8 543.65  18.20
 -3  6 -8 516.95  20.00
 -3  6 -8 548.35  18.10
 -3  6 -8 548.25  18.50
  3 -6  8 542.85  23.20
  3 -6  8 524.85  18.50
  3 -6  8 591.04  30.10
  3  5 -8 211.18  10.80
  3  5 -8 218.58  16.80
  3  5 -8 200.08  14.20
  3  5 -8 211.68  7.60
  3  5 -8 182.48  19.60
  3  5 -8 208.58  8.70
 -3 -5  8 190.98  9.10
 -3 -5  8 202.28  8.10
  2  5 -8 755.42  36.10
  2  5 -8 758.02  24.40
  2  5 -8 758.12  27.90
  2  5 -8 751.02  25.20
  2  5 -8 732.23  43.00
  2  5 -8 707.43  28.80
  2  5 -8 659.93  34.30
 -2 -5  8 757.52  25.10
 -2 -5  8 752.02  24.80
 -2 -5  8 815.92  26.60
  1  5 -8 5043.80 152.78
  1  5 -8 4914.71 160.78
  1  5 -8 4732.63 158.68
  1  5 -8 4825.12 151.98
  1  5 -8 4887.81 154.38
  1  5 -8 4968.70 152.58
 -1 -5  8 4928.71 152.58
 -1 -5  8 4912.71 154.28
 -1 -5  8 4720.03 152.48
 -1 -5  8 5057.39 153.28
 -1 -5  8 4754.32 152.58
  0  5 -8  27.40  3.90
  0  5 -8  34.90  4.50
  0  5 -8  25.00  3.80
  0  5 -8  33.70  4.90
  0 -5  8  31.50  3.50
  0 -5  8  31.20  5.30
  0 -5  8  37.00  3.70
  0 -5  8  35.90  3.20
  0 -5  8  40.30  4.00
  0 -5  8  37.00  3.20
  0 -5  8  35.10  2.80
  0 -5  8  28.30  3.00
 -1  5 -8  52.39  3.10
 -1  5 -8  46.20  2.70
 -1  5 -8  50.39  4.30
 -1  5 -8  45.70  4.10
 -1  5 -8  51.59  3.50
 -1  5 -8  47.20  3.30
 -1  5 -8  42.90  3.30
 -1  5 -8  48.00  3.20
 -1  5 -8  43.10  3.30
 -1  5 -8  36.10  6.20
  1 -5  8  45.00  3.70
  1 -5  8  40.80  5.60
  1 -5  8  36.90  6.10
  1 -5  8  45.90  4.80
  1 -5  8  40.60  4.20
  1 -5  8  42.30  3.70
  1 -5  8  49.40  3.90
 -2  5 -8 142.59  6.20
 -2  5 -8 158.48  7.40
 -2  5 -8 150.28  6.40
 -2  5 -8 144.49  6.10
 -2  5 -8 150.18  6.30
 -2  5 -8 147.19  7.00
 -2  5 -8 146.69  6.10
 -2  5 -8 145.99  6.20
  2 -5  8 137.89  11.30
  2 -5  8 151.18  9.90
  2 -5  8 145.19  8.00
 -3  5 -8 953.20  30.10
 -3  5 -8 868.11  30.50
 -3  5 -8 972.50  29.70
 -3  5 -8 904.11  31.60
 -3  5 -8 924.41  29.70
 -3  5 -8 936.91  30.00
  3 -5  8 915.21  42.50
  3 -5  8 901.81  31.10
  3 -5  8 900.91  30.40
  4  4 -8  29.10  6.80
  4  4 -8  26.60  6.50
  4  4 -8  23.90  4.00
  3  4 -8 2542.55  89.89
  3  4 -8 2759.52  96.79
  3  4 -8 2592.64  81.19
  3  4 -8 2577.84  82.19
  3  4 -8 2571.24  84.79
 -3 -4  8 2592.64  81.39
 -3 -4  8 2498.65  82.39
  2  4 -8 1762.92  63.29
  2  4 -8 1639.44  57.49
  2  4 -8 1518.15  71.49
  2  4 -8 1732.73  57.39
  2  4 -8 1685.73  53.89
  2  4 -8 1892.81  71.99
  2  4 -8 1662.23  67.09
  2  4 -8 1617.54  64.49
  2  4 -8 1702.93  54.69
 -2 -4  8 1845.52  55.99
 -2 -4  8 1687.83  54.49
 -2 -4  8 1705.13  54.29
  1  4 -8 974.90  31.40
  1  4 -8 997.20  33.30
  1  4 -8 994.40  32.30
  1  4 -8 942.81  32.00
  1  4 -8 963.20  37.00
 -1 -4  8 993.90  33.20
 -1 -4  8 1026.90  31.80
 -1 -4  8 952.20  31.90
 -1 -4  8 947.61  31.60
  0  4 -8 289.97  13.10
  0  4 -8 290.97  10.40
  0  4 -8 274.87  11.40
  0 -4  8 297.87  11.50
  0 -4  8 287.17  11.80
  0 -4  8 291.37  15.40
  0 -4  8 287.87  10.70
  0 -4  8 302.47  10.80
 -1  4 -8 1660.23  51.09
 -1  4 -8 1606.04  50.79
 -1  4 -8 1578.04  50.29
 -1  4 -8 1604.84  52.19
 -1  4 -8 1632.24  50.89
 -1  4 -8 1609.34  50.89
 -1  4 -8 1645.84  51.09
 -1  4 -8 1599.74  50.89
  1 -4  8 1640.84  51.69
  1 -4  8 1599.74  51.19
  1 -4  8 1555.04  51.79
  1 -4  8 1637.74  53.19
  1 -4  8 1558.44  51.49
  1 -4  8 1600.94  52.89
  1 -4  8 1566.14  57.99
 -2  4 -8 1593.24  52.89
 -2  4 -8 1637.14  53.99
 -2  4 -8 1654.63  52.99
 -2  4 -8 1636.44  52.39
 -2  4 -8 1620.14  52.19
 -2  4 -8 1676.13  52.39
 -2  4 -8 1688.23  52.49
 -2  4 -8 1695.23  52.79
  2 -4  8 1676.93  56.19
  2 -4  8 1617.24  63.29
  2 -4  8 1700.63  54.19
 -3  4 -8 396.16  13.50
 -3  4 -8 379.76  13.10
 -3  4 -8 391.46  13.40
 -3  4 -8 365.16  14.70
 -3  4 -8 370.56  13.70
 -3  4 -8 405.06  13.40
  3 -4  8 355.06  23.60
  3 -4  8 378.36  13.70
  3 -4  8 367.26  17.60
  4  3 -8 703.63  33.50
  4  3 -8 869.61  33.60
  4  3 -8 843.22  25.80
  4  3 -8 789.52  26.10
  4  3 -8 814.32  30.00
  3  3 -8 696.13  30.90
  3  3 -8 789.32  38.90
  3  3 -8 702.63  26.70
  3  3 -8 707.83  24.20
  3  3 -8 650.63  38.60
  3  3 -8 748.43  23.30
  3  3 -8 736.53  24.30
 -3 -3  8 676.03  25.00
 -3 -3  8 708.03  23.50
  2  3 -8 1624.34  56.39
  2  3 -8 1526.05  69.39
  2  3 -8 1813.62  72.19
  2  3 -8 1603.64  62.69
  2  3 -8 1682.43  53.69
  2  3 -8 1684.93  61.79
  2  3 -8 1729.23  54.39
  2  3 -8 1660.83  52.79
 -2 -3  8 1705.23  53.19
 -2 -3  8 1725.43  54.59
 -2 -3  8 1637.84  53.49
  1  3 -8 1205.38  37.50
  1  3 -8 1166.18  42.80
 -1 -3  8 1186.78  37.60
 -1 -3  8 1168.18  37.90
 -1 -3  8 1153.98  37.60
 -1 -3  8 1160.08  45.90
 -1 -3  8 1164.88  38.90
  0  3 -8 3582.04 111.19
  0  3 -8 3515.85 111.99
  0  3 -8 3646.24 114.79
  0 -3  8 3593.64 116.39
  0 -3  8 3570.74 112.09
  0 -3  8 3598.24 111.19
  0 -3  8 3510.35 111.39
  0 -3  8 3592.44 112.69
  0 -3  8 3421.76 111.19
 -1  3 -8 2717.63  86.29
 -1  3 -8 2769.52  84.49
 -1  3 -8 2670.73  84.99
 -1  3 -8 2736.83  85.09
 -1  3 -8 2772.62  85.19
 -1  3 -8 2744.03  84.99
 -1  3 -8 2761.52  84.99
  1 -3  8 2625.04  85.59
  1 -3  8 2715.73  85.89
  1 -3  8 2775.32  86.89
  1 -3  8 2697.93  86.99
  1 -3  8 2566.94  91.29
 -2  3 -8 1400.26  47.30
 -2  3 -8 1469.15  46.50
 -2  3 -8 1403.86  46.80
 -2  3 -8 1441.96  46.70
 -2  3 -8 1516.75  47.80
 -2  3 -8 1435.56  45.80
 -2  3 -8 1383.26  46.50
  2 -3  8 1440.66  52.29
  2 -3  8 1514.25  47.90
  2 -3  8 1464.05  49.50
 -3  3 -8 840.62  26.90
 -3  3 -8 859.41  27.20
 -3  3 -8 810.12  26.70
 -3  3 -8 860.31  28.00
 -3  3 -8 855.71  27.10
 -3  3 -8 797.92  28.40
  3 -3  8 803.82  31.50
  3 -3  8 775.92  37.70
  3 -3  8 821.32  27.30
  3 -3  8 801.32  29.40
  4  2 -8 889.91  37.20
  4  2 -8 886.81  32.30
  4  2 -8 880.91  28.30
  4  2 -8 905.31  28.10
  4  2 -8 792.42  36.20
  3  2 -8 105.39  5.80
  3  2 -8 100.39  7.40
  3  2 -8  85.99  14.20
  3  2 -8  98.79  10.00
  3  2 -8 101.09  5.40
  3  2 -8 120.39  15.80
  3  2 -8 111.99  4.60
 -3 -2  8  92.59  6.00
 -3 -2  8 101.79  5.10
  2  2 -8 492.75  17.10
  2  2 -8 481.55  16.20
  2  2 -8 510.95  33.00
  2  2 -8 470.05  23.80
  2  2 -8 471.35  30.00
  2  2 -8 507.65  18.00
  2  2 -8 459.55  19.50
 -2 -2  8 508.15  17.70
 -2 -2  8 460.45  16.80
 -2 -2  8 479.55  16.40
  1  2 -8 1107.49  41.20
  1  2 -8 1250.87  43.70
  1  2 -8 1266.37  39.70
 -1 -2  8 1189.38  38.60
 -1 -2  8 1255.27  40.00
 -1 -2  8 1197.48  38.80
 -1 -2  8 1170.88  43.70
 -1 -2  8 1207.38  39.60
 -1 -2  8 1220.68  38.50
  0  2 -8 1843.42  58.49
  0  2 -8 1838.42  59.29
  0  2 -8 1872.51  61.59
  0 -2  8 1868.21  59.69
  0 -2  8 1848.42  63.19
  0 -2  8 1804.42  58.19
  0 -2  8 1855.51  58.49
  0 -2  8 1856.31  58.99
 -1  2 -8 1693.93  52.09
 -1  2 -8 1394.86  53.09
 -1  2 -8 1652.73  52.99
 -1  2 -8 1646.84  51.29
 -1  2 -8 1633.84  51.79
 -1  2 -8 1679.63  51.89
 -1  2 -8 1659.93  52.09
 -1  2 -8 1661.33  54.69
 -1  2 -8 1686.53  51.89
 -1  2 -8 1642.74  51.99
  1 -2  8 1640.04  53.39
  1 -2  8 1615.74  52.39
  1 -2  8 1669.63  53.59
 -2  2 -8 441.16  15.10
 -2  2 -8 443.06  15.50
 -2  2 -8 451.65  14.70
 -2  2 -8 436.06  15.20
 -2  2 -8 454.45  16.30
 -2  2 -8 440.96  15.10
  2 -2  8 432.96  18.00
  2 -2  8 408.86  20.80
  2 -2  8 423.46  18.00
  2 -2  8 394.66  18.20
  2 -2  8 438.76  28.50
 -3  2 -8  47.10  3.20
 -3  2 -8  45.50  3.20
 -3  2 -8  46.00  4.50
 -3  2 -8  41.40  3.60
 -3  2 -8  44.40  3.30
 -3  2 -8  37.00  4.30
  3 -2  8  44.80  3.40
  3 -2  8  48.60  7.40
  3 -2  8  39.50  9.10
  3 -2  8  41.30  9.30
  4  1 -8 208.78  11.60
  4  1 -8 198.88  15.50
  4  1 -8 231.98  8.30
  4  1 -8 228.38  8.20
  4  1 -8 217.68  14.70
  3  1 -8  1.30  5.60
  3  1 -8  2.80  3.30
  3  1 -8  5.00  1.90
  3  1 -8  4.00  2.20
  3  1 -8  1.10  7.00
  3  1 -8  5.30  3.90
  3  1 -8  0.70  5.40
 -3 -1  8  0.80  2.00
  2  1 -8 885.71  28.10
  2  1 -8 899.51  28.90
  2  1 -8 840.22  41.50
  2  1 -8 915.81  30.00
  2  1 -8 822.82  40.20
  2  1 -8 823.42  31.30
  2  1 -8 850.21  35.80
  2  1 -8 916.01  31.20
  2  1 -8 796.42  45.50
 -2 -1  8 860.51  28.60
 -2 -1  8 891.41  28.30
 -2 -1  8 939.61  29.60
  1  1 -8 3003.30  96.09
  1  1 -8 2809.92  91.89
  1  1 -8 2808.72  93.29
 -1 -1  8 3010.80  96.29
 -1 -1  8 2837.62  90.89
 -1 -1  8 2918.41  92.09
 -1 -1  8 2849.91  90.49
 -1 -1  8 2963.50  91.79
 -1 -1  8 2887.71  90.69
  0  1 -8 431.06  17.30
  0  1 -8 426.16  15.60
  0  1 -8 473.05  17.20
  0  1 -8 402.76  14.00
  0  1 -8 432.36  14.90
  0 -1  8 438.56  15.70
  0 -1  8 434.86  14.70
  0 -1  8 402.76  14.80
  0 -1  8 426.86  14.50
  0 -1  8 438.36  14.90
  0 -1  8 426.26  19.10
 -1  1 -8 301.97  11.40
 -1  1 -8 314.77  11.20
 -1  1 -8 313.47  13.10
 -1  1 -8 320.67  10.90
 -1  1 -8 311.27  12.00
 -1  1 -8 298.27  11.00
 -1  1 -8 310.97  13.00
 -1  1 -8 307.67  10.40
 -1  1 -8 303.07  10.90
  1 -1  8 311.07  12.90
  1 -1  8 277.37  11.30
  1 -1  8 316.17  12.40
 -2  1 -8 770.12  28.10
 -2  1 -8 769.82  26.40
 -2  1 -8 787.02  26.10
 -2  1 -8 774.42  25.60
 -2  1 -8 810.32  27.30
 -2  1 -8 785.92  26.80
  2 -1  8 789.82  28.70
  2 -1  8 800.12  39.90
  2 -1  8 801.52  27.60
 -3  1 -8 1332.67  42.60
 -3  1 -8 1287.67  43.20
 -3  1 -8 1353.86  42.00
 -3  1 -8 1318.47  41.80
 -3  1 -8 1295.37  41.60
  3 -1  8 1282.17  46.50
  3 -1  8 1293.97  45.20
  3 -1  8 1220.18  51.09
  3 -1  8 1308.97  41.80
  4  0 -8  11.20  1.90
  4  0 -8  10.60  5.30
  4  0 -8  14.60  6.20
  4  0 -8  13.40  2.30
  3  0 -8 1721.93  55.69
  3  0 -8 1646.84  74.69
  3  0 -8 1771.82  55.59
  3  0 -8 1645.14  67.89
  3  0 -8 1758.92  56.69
  3  0 -8 1834.72  64.19
  3  0 -8 1760.92  62.39
 -3  0  8 1719.73  54.79
 -3  0  8 1753.52  55.99
  2  0 -8 1293.07  51.19
  2  0 -8 998.20  53.89
  2  0 -8 1126.99  37.20
  2  0 -8 1102.29  52.79
  2  0 -8 1141.39  38.10
  2  0 -8 1182.48  38.70
  2  0 -8 1110.09  43.80
 -2  0  8 1176.68  36.60
 -2  0  8 1103.19  36.90
 -2  0  8 1193.18  38.00
  1  0 -8 3022.60  96.99
  1  0 -8 3034.90 100.49
  1  0 -8 3010.10  97.99
 -1  0  8 3058.49  96.79
 -1  0  8 3100.39 100.79
 -1  0  8 3066.19  95.69
 -1  0  8 3183.88  96.59
 -1  0  8 2960.70  95.49
  0  0 -8 434.86  15.40
  0  0 -8 448.46  17.60
  0  0 -8 453.35  14.70
  0  0 -8 426.96  16.20
  0  0 -8 462.85  15.60
  0  0  8 429.96  14.90
  0  0  8 459.15  15.40
  0  0  8 448.76  16.20
  0  0  8 443.46  15.10
  0  0  8 470.65  20.10
 -1  0 -8 294.07  10.90
 -1  0 -8 303.27  13.10
 -1  0 -8 300.67  10.90
 -1  0 -8 310.17  11.20
 -1  0 -8 311.07  10.40
 -1  0 -8 329.27  10.90
 -1  0 -8 293.77  11.80
  1  0  8 318.07  12.50
  1  0  8 283.47  11.30
  1  0  8 287.37  12.30
  1  0  8 315.97  12.50
  1  0  8 298.07  12.00
 -2  0 -8 2479.85  76.39
 -2  0 -8 2518.55  78.09
 -2  0 -8 2401.06  77.09
 -2  0 -8 2447.96  76.49
 -2  0 -8 2404.46  76.19
 -2  0 -8 2418.66  77.39
 -2  0 -8 2530.55  77.69
 -2  0 -8 2429.06  76.79
  2  0  8 2329.97  79.39
  2  0  8 2411.46  79.09
  2  0  8 2182.58  79.99
  2  0  8 2414.86  87.59
  2  0  8 2578.04  77.59
 -3  0 -8 1713.73  55.59
 -3  0 -8 1768.52  54.99
 -3  0 -8 1699.23  53.69
 -3  0 -8 1762.22  54.29
 -3  0 -8 1750.02  54.09
 -3  0 -8 1746.83  53.99
  3  0  8 1698.03  63.19
  3  0  8 1619.44  53.89
  3  0  8 1634.14  54.89
  3  0  8 1581.44  58.49
  4 -1 -8  55.79  3.30
  4 -1 -8  54.09  3.50
  4 -1 -8  45.40  8.50
  4 -1 -8  53.09  7.40
  4 -1 -8  53.59  6.40
  3 -1 -8 1161.48  58.19
  3 -1 -8 1322.87  41.90
  3 -1 -8 1293.67  43.00
  3 -1 -8 1298.37  41.40
  3 -1 -8 1221.28  52.29
  3 -1 -8 1259.57  47.30
  3 -1 -8 1366.06  50.89
 -3  1  8 1286.97  40.70
 -3  1  8 1235.78  41.90
 -3  1  8 1303.67  42.00
  2 -1 -8 2123.89  75.49
  2 -1 -8 1814.32  81.69
  2 -1 -8 2005.70  76.79
  2 -1 -8 1987.00  70.89
  2 -1 -8 2083.49  65.39
  2 -1 -8 2068.09  66.19
  2 -1 -8 2038.70  64.29
 -2  1  8 1984.60  63.89
 -2  1  8 1997.90  63.69
 -2  1  8 2113.19  65.09
  1 -1 -8  25.30  4.60
  1 -1 -8  26.40  4.50
 -1  1  8  26.00  2.00
 -1  1  8  26.20  2.60
 -1  1  8  20.80  3.40
 -1  1  8  25.20  2.90
  0 -1 -8 1967.50  61.89
  0 -1 -8 1957.10  65.09
  0 -1 -8 1995.80  62.69
  0 -1 -8 1957.70  62.39
  0 -1 -8 1974.00  63.39
  0  1  8 1956.80  61.99
  0  1  8 1972.10  63.29
  0  1  8 1966.90  62.09
  0  1  8 1997.40  62.49
 -1 -1 -8 330.87  11.50
 -1 -1 -8 337.67  12.10
 -1 -1 -8 332.47  12.90
 -1 -1 -8 337.87  11.90
 -1 -1 -8 343.27  12.30
 -1 -1 -8 341.27  11.90
 -1 -1 -8 341.57  13.10
  1  1  8 356.56  13.60
  1  1  8 315.57  13.00
  1  1  8 340.87  13.10
  1  1  8 332.37  13.30
  1  1  8 302.57  12.80
 -2 -1 -8 2338.07  70.79
 -2 -1 -8 2274.57  70.39
 -2 -1 -8 2203.78  71.29
 -2 -1 -8 2241.88  72.19
 -2 -1 -8 2288.37  70.89
 -2 -1 -8 2254.97  70.39
 -2 -1 -8 2250.07  70.59
 -2 -1 -8 2245.68  71.59
  2  1  8 2243.18  81.19
  2  1  8 2197.08  70.69
  2  1  8 2193.88  72.99
  2  1  8 2084.79  74.49
  2  1  8 2055.89  75.39
  2  1  8 2379.46  71.49
 -3 -1 -8 336.97  11.90
 -3 -1 -8 353.06  13.60
 -3 -1 -8 350.96  12.30
 -3 -1 -8 351.86  12.30
 -3 -1 -8 359.56  12.10
 -3 -1 -8 327.77  13.50
  3  1  8 301.27  13.10
  3  1  8 349.87  12.90
  3  1  8 339.07  16.90
  4 -2 -8 1382.76  56.39
  4 -2 -8 1458.65  48.70
  4 -2 -8 1561.14  47.90
  4 -2 -8 1616.94  52.89
  4 -2 -8 1548.25  48.20
  3 -2 -8  22.50  8.40
  3 -2 -8  21.70  4.30
  3 -2 -8  19.30  9.20
  3 -2 -8  24.90  4.00
  3 -2 -8  26.10  10.10
  3 -2 -8  23.70  3.10
 -3  2  8  24.30  4.20
 -3  2  8  24.00  2.70
 -3  2  8  20.00  3.50
  2 -2 -8 1743.13  55.99
  2 -2 -8 1763.82  54.69
  2 -2 -8 1688.93  61.59
  2 -2 -8 1678.23  56.89
  2 -2 -8 1804.62  66.19
  2 -2 -8 1707.73  66.79
  2 -2 -8 1549.74  70.89
 -2  2  8 1702.53  54.39
 -2  2  8 1692.63  54.09
 -2  2  8 1791.52  55.69
  1 -2 -8 459.05  15.80
  1 -2 -8 416.56  18.10
  1 -2 -8 383.16  15.60
 -1  2  8 406.86  19.60
 -1  2  8 412.76  13.80
 -1  2  8 394.76  14.10
 -1  2  8 412.36  15.10
 -1  2  8 404.26  14.10
 -1  2  8 395.26  15.20
  0 -2 -8 4889.51 147.09
  0 -2 -8 4881.91 150.18
  0 -2 -8 4806.22 146.69
  0 -2 -8 4572.54 148.09
  0 -2 -8 4662.03 147.49
  0  2  8 4643.14 146.49
  0  2  8 4652.73 147.19
  0  2  8 4648.23 147.59
  0  2  8 4694.03 147.99
  0  2  8 4666.53 146.59
  0  2  8 4716.93 146.69
 -1 -2 -8 3360.06 107.49
 -1 -2 -8 3419.46 107.29
 -1 -2 -8 3385.96 108.39
 -1 -2 -8 3378.56 110.79
 -1 -2 -8 3446.86 107.09
 -1 -2 -8 3444.76 107.29
 -1 -2 -8 3468.85 107.69
 -1 -2 -8 3487.65 107.99
  1  2  8 3553.74 108.49
  1  2  8 3411.06 107.69
  1  2  8 3370.26 108.09
  1  2  8 3429.76 109.39
 -2 -2 -8  91.39  4.80
 -2 -2 -8  91.69  4.60
 -2 -2 -8  82.79  5.40
 -2 -2 -8  79.99  5.20
 -2 -2 -8  82.59  7.20
 -2 -2 -8  83.49  4.50
 -2 -2 -8  84.69  5.80
  2  2  8  82.49  8.60
  2  2  8  84.89  5.30
  2  2  8  77.69  11.40
  2  2  8  77.79  4.60
  2  2  8  97.19  20.90
  2  2  8  72.79  7.80
  2  2  8  67.79  10.20
 -3 -2 -8 422.06  14.60
 -3 -2 -8 441.16  15.10
 -3 -2 -8 404.96  16.40
 -3 -2 -8 451.65  14.90
  3  2  8 422.56  20.30
  3  2  8 443.16  14.70
  3  2  8 436.46  18.50
  3  2  8 439.46  15.40
  4 -3 -8  24.30  6.20
  4 -3 -8  28.60  5.20
  4 -3 -8  24.10  2.80
  4 -3 -8  28.00  2.70
  4 -3 -8  26.90  2.40
  3 -3 -8 101.49  11.60
  3 -3 -8  95.59  4.90
  3 -3 -8  86.29  6.80
  3 -3 -8  99.29  6.30
  3 -3 -8  91.59  13.10
  3 -3 -8  91.59  12.70
 -3  3  8 102.19  4.90
 -3  3  8  94.59  5.60
 -3  3  8  96.59  4.60
  2 -3 -8 700.33  33.70
  2 -3 -8 599.84  24.70
  2 -3 -8 691.73  22.50
  2 -3 -8 661.63  28.90
  2 -3 -8 605.94  36.00
  2 -3 -8 669.83  24.30
 -2  3  8 723.83  23.20
 -2  3  8 673.43  23.60
 -2  3  8 651.03  22.10
 -2  3  8 640.54  23.10
 -2  3  8 667.53  22.10
 -2  3  8 713.13  23.50
 -2  3  8 667.23  21.90
  1 -3 -8 5483.75 167.08
  1 -3 -8 5406.76 167.68
  1 -3 -8 5383.26 170.58
 -1  3  8 5218.28 166.08
 -1  3  8 5189.18 165.38
 -1  3  8 5506.35 166.18
 -1  3  8 5241.08 165.28
 -1  3  8 5126.89 165.48
  0 -3 -8 1617.64  53.09
  0 -3 -8 1675.03  53.49
  0 -3 -8 1690.73  54.09
  0 -3 -8 1704.83  53.19
  0 -3 -8 1681.23  53.19
  0 -3 -8 1754.12  55.09
  0 -3 -8 1668.63  54.09
  0  3  8 1685.43  54.69
  0  3  8 1721.03  52.99
  0  3  8 1734.93  53.89
  0  3  8 1722.93  53.79
  0  3  8 1502.65  54.19
  0  3  8 1678.33  52.89
  0  3  8 1638.84  52.69
 -1 -3 -8 251.07  9.30
 -1 -3 -8 245.38  9.40
 -1 -3 -8 239.48  9.40
 -1 -3 -8 243.08  10.60
 -1 -3 -8 245.18  9.60
 -1 -3 -8 246.78  10.60
 -1 -3 -8 250.07  10.30
 -1 -3 -8 248.48  9.40
  1  3  8 247.78  10.60
  1  3  8 268.27  10.40
  1  3  8 244.78  10.50
  1  3  8 252.87  12.10
 -2 -3 -8 255.17  9.50
 -2 -3 -8 234.08  10.30
 -2 -3 -8 256.77  9.80
 -2 -3 -8 251.77  10.90
 -2 -3 -8 255.07  9.90
 -2 -3 -8 244.08  11.00
 -2 -3 -8 253.97  9.60
 -2 -3 -8 245.48  12.10
  2  3  8 241.48  9.40
  2  3  8 278.97  27.70
  2  3  8 243.38  14.90
  2  3  8 238.18  16.80
  2  3  8 242.88  13.20
  2  3  8 266.47  10.30
 -3 -3 -8 740.03  25.10
 -3 -3 -8 786.72  25.70
 -3 -3 -8 800.92  25.70
 -3 -3 -8 779.72  25.30
  3  3  8 754.62  25.00
  3  3  8 766.82  25.60
  3  3  8 833.62  37.50
  3  3  8 749.53  29.70
  3  3  8 769.02  28.40
  4 -4 -8  3.50  4.10
  4 -4 -8  2.90  1.40
  4 -4 -8  2.80  1.80
  3 -4 -8 1166.68  51.99
  3 -4 -8 1224.38  47.60
  3 -4 -8 1070.99  42.30
  3 -4 -8 1310.47  40.50
  3 -4 -8 1405.86  52.09
  3 -4 -8 1125.19  41.70
 -3  4  8 1335.97  40.20
 -3  4  8 1337.67  40.30
 -3  4  8 1299.47  41.60
 -3  4  8 1280.07  40.10
  2 -4 -8 1007.70  40.90
  2 -4 -8 1100.99  46.70
  2 -4 -8 934.51  52.59
  2 -4 -8 1026.30  34.20
  2 -4 -8 1094.69  36.30
 -2  4  8 1103.29  34.20
 -2  4  8 1101.89  35.10
 -2  4  8 1092.49  35.50
 -2  4  8 1011.70  34.90
 -2  4  8 1052.69  34.10
  1 -4 -8  47.80  5.90
  1 -4 -8  55.79  5.50
  1 -4 -8  52.49  6.40
  1 -4 -8  37.90  14.40
  1 -4 -8  41.00  7.00
 -1  4  8  48.30  3.50
 -1  4  8  49.00  4.60
 -1  4  8  49.70  3.10
 -1  4  8  48.20  3.80
 -1  4  8  43.40  2.80
 -1  4  8  50.49  3.10
 -1  4  8  47.20  4.70
  0 -4 -8 2562.34  79.69
  0 -4 -8 2563.24  81.49
  0 -4 -8 2553.14  79.99
  0 -4 -8 2493.65  79.49
  0 -4 -8 2610.94  80.79
  0 -4 -8 2600.84  79.79
  0 -4 -8 2484.05  80.59
  0  4  8 2479.05  80.29
  0  4  8 2561.84  80.89
  0  4  8 2400.26  79.49
  0  4  8 2572.84  79.99
  0  4  8 2484.35  79.09
 -1 -4 -8 1773.02  57.89
 -1 -4 -8 1778.42  56.49
 -1 -4 -8 1759.52  56.39
 -1 -4 -8 1756.42  56.19
 -1 -4 -8 1769.52  56.09
 -1 -4 -8 1763.82  57.09
 -1 -4 -8 1766.32  57.49
 -1 -4 -8 1766.22  56.09
  1  4  8 1767.52  58.49
  1  4  8 1750.22  56.99
  1  4  8 1811.02  57.19
  1  4  8 1704.93  56.19
 -2 -4 -8 1398.46  45.40
 -2 -4 -8 1390.96  46.80
 -2 -4 -8 1399.36  44.80
 -2 -4 -8 1408.46  45.20
 -2 -4 -8 1343.67  44.80
  2  4  8 1404.56  45.30
  2  4  8 1332.97  44.50
  2  4  8 1402.96  48.90
  2  4  8 1516.65  69.39
 -3 -4 -8 177.98  7.20
 -3 -4 -8 192.28  8.00
 -3 -4 -8 197.18  7.80
 -3 -4 -8 196.18  7.40
 -3 -4 -8 194.68  7.60
  3  4  8 197.98  7.60
  3  4  8 203.78  9.70
  3  4  8 201.08  15.80
  3  4  8 185.78  7.00
  3 -5 -8  24.00  3.90
  3 -5 -8  19.20  2.60
  3 -5 -8  17.00  4.20
  3 -5 -8  19.60  7.90
 -3  5  8  22.60  2.50
 -3  5  8  20.00  3.50
 -3  5  8  18.30  2.40
 -3  5  8  27.80  3.90
 -3  5  8  20.00  3.30
  2 -5 -8 3055.79  96.39
  2 -5 -8 2986.40  94.39
  2 -5 -8 2795.42 107.69
  2 -5 -8 2951.30  96.99
  2 -5 -8 3260.57 108.99
  2 -5 -8 2894.71 101.69
 -2  5  8 3056.19  95.99
 -2  5  8 3009.90  95.29
 -2  5  8 3055.59  94.19
 -2  5  8 3023.60  94.79
 -2  5  8 3019.70  94.09
 -2  5  8 2967.60  94.29
  1 -5 -8 781.12  27.90
  1 -5 -8 856.41  27.00
  1 -5 -8 754.92  27.70
 -1  5  8 764.82  26.30
 -1  5  8 795.72  27.20
 -1  5  8 806.52  25.70
 -1  5  8 767.82  26.50
 -1  5  8 781.02  25.60
 -1  5  8 756.32  27.90
 -1  5  8 783.82  25.50
  0 -5 -8 1663.53  55.99
  0 -5 -8 1642.14  56.59
  0 -5 -8 1706.93  54.19
  0 -5 -8 1728.83  53.99
  0 -5 -8 1653.33  55.19
  0 -5 -8 1745.23  56.29
  0 -5 -8 1675.43  55.89
  0  5  8 1757.82  55.39
  0  5  8 1699.03  57.09
  0  5  8 1702.03  53.39
  0  5  8 1737.23  54.49
  0  5  8 1728.33  54.89
  0  5  8 1686.33  53.79
  0  5  8 1671.03  53.59
 -1 -5 -8 326.77  12.80
 -1 -5 -8 326.47  13.00
 -1 -5 -8 345.17  12.20
 -1 -5 -8 341.47  14.20
 -1 -5 -8 338.07  14.10
 -1 -5 -8 340.57  12.30
 -1 -5 -8 326.07  13.70
 -1 -5 -8 339.57  12.60
  1  5  8 332.37  14.80
  1  5  8 353.36  13.30
 -2 -5 -8 252.87  9.80
 -2 -5 -8 259.57  10.40
 -2 -5 -8 265.47  9.90
 -2 -5 -8 261.27  10.30
 -2 -5 -8 261.67  10.20
 -2 -5 -8 252.87  11.80
  2  5  8 267.07  10.20
  2  5  8 286.97  26.00
  2  5  8 255.17  12.80
  2  5  8 257.87  10.10
 -3 -5 -8 395.36  14.40
 -3 -5 -8 419.86  15.10
 -3 -5 -8 435.36  14.80
 -3 -5 -8 440.66  14.90
 -3 -5 -8 442.86  14.40
  3  5  8 419.46  14.00
  3  5  8 436.96  14.50
  3  5  8 444.66  23.10
  3  5  8 440.56  16.20
  3 -6 -8 1659.23  56.09
  3 -6 -8 1815.42  66.99
 -3  6  8 1598.64  54.49
 -3  6  8 1752.02  53.79
 -3  6  8 1722.03  53.99
 -3  6  8 1636.74  55.39
 -3  6  8 1728.63  53.99
 -3  6  8 1753.12  53.89
  2 -6 -8 430.46  15.40
  2 -6 -8 468.25  26.80
  2 -6 -8 427.06  17.40
  2 -6 -8 439.66  17.60
 -2  6  8 430.56  15.80
 -2  6  8 449.76  15.40
 -2  6  8 482.05  15.40
 -2  6  8 435.56  15.10
 -2  6  8 437.76  16.70
 -2  6  8 450.95  17.60
  1 -6 -8 128.09  7.30
  1 -6 -8 132.99  8.50
  1 -6 -8 113.69  7.30
  1 -6 -8 128.19  8.10
 -1  6  8 128.99  7.70
 -1  6  8 118.29  6.30
 -1  6  8 116.69  6.50
 -1  6  8 126.29  5.40
 -1  6  8 136.39  6.60
 -1  6  8 122.59  5.40
 -1  6  8 125.39  5.30
  0 -6 -8 1443.56  48.30
  0 -6 -8 1510.35  51.59
  0 -6 -8 1480.05  47.20
  0 -6 -8 1333.37  47.90
  0 -6 -8 1454.45  46.60
  0  6  8 1461.85  45.90
  0  6  8 1524.45  49.50
  0  6  8 1446.46  48.60
 -1 -6 -8 2453.95  78.59
 -1 -6 -8 2441.66  79.19
 -1 -6 -8 2545.95  79.19
 -1 -6 -8 2592.24  78.79
 -1 -6 -8 2392.76  80.29
 -1 -6 -8 2577.14  79.19
 -1 -6 -8 2488.85  81.29
 -1 -6 -8 2534.65  79.59
  1  6  8 2427.26  81.49
  1  6  8 2469.15  78.39
  1  6  8 2513.05  79.49
  1  6  8 2464.45  81.69
 -2 -6 -8 687.53  23.30
 -2 -6 -8 714.93  23.40
 -2 -6 -8 711.63  23.80
 -2 -6 -8 657.03  25.60
 -2 -6 -8 709.43  23.80
 -2 -6 -8 706.03  23.90
  2  6  8 699.23  23.50
  2  6  8 693.63  26.10
  2  6  8 719.63  23.60
  2  6  8 742.13  41.60
  3 -7 -8  4.80  2.10
  3 -7 -8  4.90  4.40
  3 -7 -8  5.50  2.20
 -3  7  8  6.50  1.30
 -3  7  8  6.90  2.00
 -3  7  8  6.00  1.60
 -3  7  8  4.80  1.30
  2 -7 -8 512.45  19.70
  2 -7 -8 552.84  29.30
  2 -7 -8 529.65  20.10
  2 -7 -8 492.45  19.30
 -2  7  8 554.74  18.00
 -2  7  8 519.05  18.30
 -2  7  8 553.44  18.00
 -2  7  8 537.35  17.80
 -2  7  8 536.85  17.70
  1 -7 -8 4781.32 153.18
  1 -7 -8 5145.29 151.28
  1 -7 -8 4764.32 152.08
 -1  7  8 4617.74 150.38
 -1  7  8 4795.92 152.68
 -1  7  8 4968.00 151.28
 -1  7  8 4655.83 150.58
 -1  7  8 4792.62 151.48
 -1  7  8 5189.48 153.68
 -1  7  8 4677.03 150.58
 -1  7  8 4815.12 150.68
  0 -7 -8 522.65  19.20
  0 -7 -8 530.55  18.20
  0 -7 -8 529.15  18.10
  0 -7 -8 522.25  20.60
  0 -7 -8 507.35  19.20
  0 -7 -8 537.35  17.70
  0  7  8 526.35  18.10
  0  7  8 515.05  20.50
  0  7  8 534.65  19.20
  0  7  8 529.95  17.70
 -1 -7 -8  4.30  4.60
 -1 -7 -8  4.70  2.80
 -1 -7 -8  4.10  2.10
 -1 -7 -8  4.70  1.60
 -1 -7 -8  4.90  1.60
  1  7  8  5.10  4.00
  1  7  8  1.40  1.90
  1  7  8  4.10  2.10
 -2 -7 -8  44.30  3.20
 -2 -7 -8  48.30  3.10
 -2 -7 -8  44.80  3.30
 -2 -7 -8  47.50  4.30
  2  7  8  46.10  10.70
  2  7  8  50.19  3.40
  2  7  8  41.80  3.00
  2  7  8  45.90  5.10
  3 -8 -8 174.68  7.40
  3 -8 -8 196.68  13.20
  3 -8 -8 174.98  7.40
 -3  8  8 185.18  7.10
 -3  8  8 196.18  6.60
 -3  8  8 179.38  6.70
 -3  8  8 173.18  6.80
  2 -8 -8 1377.46  47.10
  2 -8 -8 1462.75  47.80
  2 -8 -8 1484.25  57.89
  2 -8 -8 1378.26  46.80
 -2  8  8 1428.56  46.00
 -2  8  8 1426.16  45.40
 -2  8  8 1471.95  45.70
 -2  8  8 1428.46  45.60
 -2  8  8 1481.15  45.70
 -2  8  8 1418.16  47.60
  1 -8 -8  15.30  3.50
 -1  8  8  10.70  2.50
 -1  8  8  15.80  2.30
 -1  8  8  11.20  1.70
 -1  8  8  17.60  4.10
 -1  8  8  18.00  2.80
  0 -8 -8 407.56  14.40
  0 -8 -8 387.16  16.80
  0 -8 -8 395.26  13.90
  0 -8 -8 407.86  14.50
  0 -8 -8 401.56  15.60
  0  8  8 405.26  14.10
  0  8  8 415.56  15.40
  0  8  8 451.85  14.50
 -1 -8 -8 274.67  11.30
 -1 -8 -8 268.07  10.00
 -1 -8 -8 268.57  10.20
 -1 -8 -8 272.77  10.10
 -1 -8 -8 274.17  11.00
 -1 -8 -8 270.27  10.40
  1  8  8 269.07  10.10
  1  8  8 275.87  10.80
 -2 -8 -8 936.91  31.50
 -2 -8 -8 976.20  30.80
 -2 -8 -8 953.40  31.20
 -2 -8 -8 983.80  30.80
 -2 -8 -8 957.30  31.20
  2  8  8 930.61  32.00
  2  8  8 938.51  30.70
  2  8  8 986.50  44.30
  2  8  8 950.00  30.60
  3 -9 -8  13.00  4.40
  3 -9 -8  10.20  2.00
  3 -9 -8  11.10  2.00
 -3  9  8  8.40  1.80
 -3  9  8  10.90  1.30
 -3  9  8  10.30  1.70
 -3  9  8  9.50  1.40
  2 -9 -8 878.61  30.30
  2 -9 -8 881.41  29.40
  2 -9 -8 863.51  29.50
  2 -9 -8 940.31  40.40
 -2  9  8 887.51  28.70
 -2  9  8 870.91  28.40
 -2  9  8 869.31  28.30
 -2  9  8 867.21  28.60
 -2  9  8 896.21  28.40
  1 -9 -8 317.57  11.50
  1 -9 -8 303.87  12.30
  1 -9 -8 307.37  13.50
 -1  9  8 317.17  11.10
 -1  9  8 310.37  12.70
 -1  9  8 314.97  10.50
 -1  9  8 314.07  11.40
  0 -9 -8  4.90  2.00
  0 -9 -8  14.80  4.10
  0 -9 -8  8.40  1.90
  0  9  8  7.30  1.70
  0  9  8  5.10  1.70
  0  9  8  3.10  2.20
 -1 -9 -8 308.37  11.60
 -1 -9 -8 326.87  11.70
 -1 -9 -8 314.47  11.10
 -1 -9 -8 309.67  12.20
 -1 -9 -8 314.07  12.20
  1  9  8 329.47  34.60
  1  9  8 309.37  11.20
 -2 -9 -8 201.88  7.30
 -2 -9 -8 206.68  7.20
 -2 -9 -8 202.68  7.20
 -2 -9 -8 208.18  7.80
 -2 -9 -8 201.18  8.20
  2  9  8 204.48  14.60
  2  9  8 181.78  7.10
  2  9  8 200.78  7.10
  2 -10 -8  33.70  3.30
  2 -10 -8  40.10  4.00
  2 -10 -8  29.80  3.30
  2 -10 -8  33.80  6.80
 -2 10  8  31.70  2.50
 -2 10  8  34.90  2.90
 -2 10  8  33.90  2.00
 -2 10  8  28.80  2.30
 -2 10  8  32.30  2.70
  1 -10 -8  13.10  3.00
 -1 10  8  16.30  2.80
 -1 10  8  15.70  2.70
 -1 10  8  13.00  1.70
  0 -10 -8  26.50  2.80
  0 -10 -8  23.00  4.90
  0 10  8  32.20  2.60
  0 10  8  31.20  3.50
  0 10  8  34.70  3.40
 -1 -10 -8 2103.29  64.99
 -1 -10 -8 2025.30  65.99
 -1 -10 -8 2079.79  65.39
 -1 -10 -8 2109.69  65.39
  1 10  8 2089.09  79.29
  1 10  8 2055.69  65.69
  2 -11 -8  10.50  2.40
  2 -11 -8  11.80  4.70
  2 -11 -8  13.10  2.50
 -2 11  8  13.60  2.00
 -2 11  8  12.10  1.20
 -2 11  8  9.70  1.40
  1 -11 -8 2407.06  74.29
  1 -11 -8 2222.78  72.59
 -1 11  8 2302.37  72.69
 -1 11  8 2306.67  72.39
 -1 11  8 2355.86  72.39
 -1 11  8 2275.37  73.09
  0 -11 -8 361.86  11.90
  0 -11 -8 344.67  11.90
  0 -11 -8 333.37  13.30
  0 11  8 332.47  11.30
  0 11  8 334.67  12.10
 -1 -11 -8  79.29  3.70
 -1 -11 -8  85.49  3.70
  1 11  8  83.99  3.60
  1 11  8  76.29  8.80
  1 -12 -8 155.28  6.90
  1 -12 -8 174.78  11.00
 -1 12  8 164.18  5.70
 -1 12  8 151.28  6.50
 -1 12  8 158.18  6.50
  0 -12 -8 728.33  22.60
  0 -12 -8 713.33  23.80
  0 -12 -8 679.63  23.00
  0 12  8 651.63  30.00
  0 12  8 742.03  24.20
  0 12  8 698.73  22.90
  0 14 -9 468.85  23.90
  0 14 -9 508.25  16.50
  0 14 -9 487.45  16.60
  0 -14  9 514.25  16.80
  0 -14  9 519.65  16.40
  1 13 -9 1090.89  39.90
  1 13 -9 1127.69  35.50
  1 13 -9 1101.69  35.20
 -1 -13  9 1112.49  35.50
 -1 -13  9 1113.99  35.10
 -1 -13  9 1122.79  35.80
 -1 -13  9 1089.99  35.30
  0 13 -9 1184.88  43.90
  0 13 -9 1149.29  37.70
  0 13 -9 1151.58  42.00
  0 -13  9 1145.19  37.80
  0 -13  9 1175.68  37.30
  0 -13  9 1184.68  36.50
 -1 13 -9 354.16  11.40
 -1 13 -9 319.67  15.50
 -1 13 -9 325.57  11.90
 -1 13 -9 320.87  10.90
  1 -13  9 330.17  11.70
  1 -13  9 341.37  11.50
  1 -13  9 324.77  12.50
  2 12 -9 2034.00  67.79
  2 12 -9 2018.90  63.39
 -2 -12  9 2002.20  63.39
 -2 -12  9 1982.20  63.09
 -2 -12  9 2012.80  63.49
 -2 -12  9 2066.69  63.19
  1 12 -9  41.80  6.20
  1 12 -9  45.50  2.90
  1 12 -9  43.20  9.40
  1 12 -9  50.89  3.60
 -1 -12  9  47.60  3.70
 -1 -12  9  47.60  4.60
 -1 -12  9  48.40  2.90
 -1 -12  9  48.10  3.00
  0 12 -9 562.64  26.70
  0 12 -9 534.65  23.90
  0 -12  9 569.94  21.80
  0 -12  9 574.64  18.30
  0 -12  9 553.94  19.20
 -1 12 -9 194.38  7.10
 -1 12 -9 197.58  6.70
 -1 12 -9 179.38  7.70
 -1 12 -9 170.68  11.00
  1 -12  9 187.18  7.20
  1 -12  9 174.88  7.50
  1 -12  9 174.08  8.50
 -2 12 -9 993.60  32.10
 -2 12 -9 1016.70  32.00
  2 -12  9 1045.20  36.40
  2 -12  9 996.30  33.10
  2 11 -9  5.00  1.70
  2 11 -9  7.40  5.00
  2 11 -9  3.40  2.60
 -2 -11  9  3.70  2.40
 -2 -11  9  7.40  2.00
 -2 -11  9  5.10  2.30
 -2 -11  9  2.00  1.60
  1 11 -9  4.30  1.70
  1 11 -9  2.50  4.50
  1 11 -9  3.20  1.70
 -1 -11  9  2.60  1.50
 -1 -11  9  4.10  1.80
 -1 -11  9  4.90  1.40
 -1 -11  9  2.90  2.10
 -1 -11  9  1.00  3.90
  0 11 -9 1336.47  50.99
  0 11 -9 1390.46  45.40
  0 -11  9 1422.66  45.70
  0 -11  9 1428.86  44.80
  0 -11  9 1379.36  44.80
  0 -11  9 1417.86  44.40
 -1 11 -9 2947.71  92.39
 -1 11 -9 2970.90  92.59
 -1 11 -9 2937.51  93.89
  1 -11  9 2927.71  92.89
  1 -11  9 2948.61  93.49
  1 -11  9 3010.60  94.79
 -2 11 -9 262.57  9.00
 -2 11 -9 254.47  9.10
  2 -11  9 248.18  10.20
  2 -11  9 256.17  15.10
  2 -11  9 268.87  13.70
  2 10 -9 163.88  6.80
  2 10 -9 170.88  13.80
  2 10 -9 145.59  11.00
 -2 -10  9 131.49  10.20
 -2 -10  9 155.28  6.30
 -2 -10  9 158.38  6.80
 -2 -10  9 154.68  7.40
 -2 -10  9 161.08  6.40
 -2 -10  9 157.88  6.80
  1 10 -9 3016.40 102.89
  1 10 -9 3040.00  94.99
  1 10 -9 2900.21  94.69
  1 10 -9 3087.09 107.59
 -1 -10  9 2914.51  94.39
 -1 -10  9 3057.59  97.59
 -1 -10  9 3044.80  94.99
 -1 -10  9 2977.10  95.39
 -1 -10  9 3056.49  95.09
 -1 -10  9 2999.00  94.59
  0 10 -9 1025.50  33.40
  0 10 -9 1004.40  32.60
  0 10 -9 977.80  39.30
  0 -10  9 988.30  32.80
  0 -10  9 977.80  33.10
  0 -10  9 1019.80  32.40
  0 -10  9 1013.90  35.70
  0 -10  9 1016.60  33.70
 -1 10 -9  6.70  2.60
 -1 10 -9  6.30  1.70
  1 -10  9  4.90  2.80
  1 -10  9  14.00  3.70
  1 -10  9  5.40  1.80
  1 -10  9  6.90  2.50
 -2 10 -9 805.02  25.90
 -2 10 -9 774.22  26.90
 -2 10 -9 814.02  26.30
 -2 10 -9 809.72  26.20
  2 -10  9 785.12  27.80
  2 -10  9 882.71  34.60
  2 -10  9 811.22  31.90
  3  9 -9 693.83  22.10
  3  9 -9 684.93  26.10
 -3 -9  9 664.73  21.90
 -3 -9  9 667.93  22.20
  2  9 -9 1529.45  49.99
  2  9 -9 1581.54  62.19
  2  9 -9 1525.15  57.39
  2  9 -9 1498.85  49.10
 -2 -9  9 1545.55  50.29
 -2 -9  9 1582.94  52.19
 -2 -9  9 1588.44  50.09
 -2 -9  9 1595.34  49.60
 -2 -9  9 1570.74  49.99
  1  9 -9 252.67  19.40
  1  9 -9 228.38  9.40
  1  9 -9 238.28  15.90
  1  9 -9 237.98  9.60
 -1 -9  9 231.58  9.10
 -1 -9  9 230.08  11.40
 -1 -9  9 245.98  9.10
 -1 -9  9 232.18  9.60
 -1 -9  9 254.27  9.70
 -1 -9  9 232.88  10.20
  0  9 -9 3402.66 113.69
  0  9 -9 3401.66 106.59
  0  9 -9 3310.57 113.79
  0  9 -9 3366.76 107.49
  0  9 -9 3420.46 106.19
  0 -9  9 3369.86 106.49
  0 -9  9 3460.75 109.49
  0 -9  9 3397.16 106.89
  0 -9  9 3293.97 109.99
  0 -9  9 3460.55 107.09
  0 -9  9 3455.15 106.99
  0 -9  9 3384.96 108.09
  0 -9  9 3503.25 107.79
 -1  9 -9 1202.98  38.20
 -1  9 -9 1195.78  38.60
 -1  9 -9 1240.48  40.20
 -1  9 -9 1183.08  38.70
  1 -9  9 1245.48  39.30
  1 -9  9 1188.08  39.10
  1 -9  9 1195.68  41.10
  1 -9  9 1204.98  39.80
 -2  9 -9 729.13  24.10
 -2  9 -9 743.63  24.10
 -2  9 -9 750.82  25.00
 -2  9 -9 721.43  23.80
 -2  9 -9 742.13  24.20
  2 -9  9 774.42  40.20
  2 -9  9 729.93  25.90
  2 -9  9 709.03  29.80
 -3  9 -9  12.70  2.00
 -3  9 -9  15.20  2.60
 -3  9 -9  13.30  1.50
 -3  9 -9  14.30  2.70
 -3  9 -9  14.20  1.50
  3 -9  9  18.00  6.10
  3 -9  9  12.90  2.10
  3 -9  9  10.00  2.00
  3 -9  9  14.40  4.00
  3  8 -9 274.67  13.90
  3  8 -9 265.37  11.10
  3  8 -9 301.07  16.80
  3  8 -9 266.77  9.90
 -3 -8  9 251.57  10.00
 -3 -8  9 258.97  10.00
  2  8 -9 2707.73  86.69
  2  8 -9 2831.72 103.09
  2  8 -9 2723.53  87.59
  2  8 -9 2708.33  95.59
 -2 -8  9 2876.91  87.59
 -2 -8  9 2851.01  87.69
 -2 -8  9 2732.83  86.99
 -2 -8  9 2860.11  89.69
 -2 -8  9 2742.83  87.09
 -2 -8  9 2673.53  87.79
  1  8 -9 202.78  18.20
  1  8 -9 199.28  15.00
  1  8 -9 211.28  8.70
  1  8 -9 206.88  8.40
  1  8 -9 190.48  15.30
 -1 -8  9 203.18  8.50
 -1 -8  9 199.08  10.00
 -1 -8  9 202.58  8.40
 -1 -8  9 197.78  8.00
 -1 -8  9 199.08  10.30
 -1 -8  9 194.78  8.10
 -1 -8  9 199.68  9.30
  0  8 -9 2267.47  70.89
  0  8 -9 2286.47  71.69
  0  8 -9 2214.38  70.49
  0  8 -9 2277.97  77.19
  0 -8  9 2234.28  71.99
  0 -8  9 2174.98  73.69
  0 -8  9 2213.38  70.99
  0 -8  9 2236.28  71.19
  0 -8  9 2210.08  73.49
  0 -8  9 2254.57  70.69
  0 -8  9 2291.97  71.99
 -1  8 -9  8.00  3.10
 -1  8 -9  3.60  3.90
 -1  8 -9  5.30  1.50
 -1  8 -9  2.60  2.90
  1 -8  9  10.30  3.70
  1 -8  9  5.60  2.50
  1 -8  9  7.30  4.90
  1 -8  9  3.00  2.50
  1 -8  9  0.70  3.10
 -2  8 -9 2131.99  67.29
 -2  8 -9 2188.28  67.59
 -2  8 -9 2162.28  67.39
 -2  8 -9 2129.19  67.69
 -2  8 -9 2180.08  67.49
  2 -8  9 2151.28  69.29
  2 -8  9 2037.20  73.59
 -3  8 -9 1511.05  48.70
 -3  8 -9 1529.75  48.40
 -3  8 -9 1524.45  48.50
 -3  8 -9 1537.45  49.40
 -3  8 -9 1572.84  48.50
  3 -8  9 1533.15  48.70
  3 -8  9 1455.25  51.99
  3 -8  9 1715.33  55.99
  3 -8  9 1488.25  48.90
  3  7 -9 476.25  18.00
  3  7 -9 486.15  15.70
  3  7 -9 463.95  21.30
  3  7 -9 491.75  26.00
  3  7 -9 468.65  16.50
 -3 -7  9 477.85  16.30
  2  7 -9  4.80  7.10
  2  7 -9  1.40  1.10
  2  7 -9  0.90  7.70
  2  7 -9  1.40  4.00
 -2 -7  9  4.20  2.70
 -2 -7  9  3.20  2.10
 -2 -7  9  0.60  1.80
 -2 -7  9  1.50  2.20
  1  7 -9 1026.70  33.60
  1  7 -9 1048.00  47.50
  1  7 -9 1068.89  33.90
  1  7 -9 987.20  35.90
  1  7 -9 1011.90  40.90
 -1 -7  9 1067.89  35.80
 -1 -7  9 984.50  34.20
 -1 -7  9 1005.90  33.70
 -1 -7  9 1016.10  33.70
 -1 -7  9 1007.90  33.20
 -1 -7  9 1019.30  33.30
 -1 -7  9 1020.60  34.50
  0  7 -9 265.77  9.70
  0  7 -9 260.37  10.00
  0  7 -9 260.17  10.80
  0  7 -9 272.37  14.30
  0 -7  9 268.07  11.90
  0 -7  9 260.37  12.20
  0 -7  9 267.17  10.20
  0 -7  9 274.37  10.20
  0 -7  9 254.87  9.70
  0 -7  9 264.57  10.10
  0 -7  9 261.17  10.90
  0 -7  9 252.37  11.20
  0 -7  9 258.27  14.50
 -1  7 -9 5817.32 179.28
 -1  7 -9 5577.34 179.48
 -1  7 -9 5810.32 179.48
 -1  7 -9 5848.92 179.68
 -1  7 -9 6012.10 181.08
 -1  7 -9 5811.42 180.38
 -1  7 -9 5696.63 185.08
  1 -7  9 5656.63 180.08
  1 -7  9 5593.94 179.88
  1 -7  9 5602.14 180.88
  1 -7  9 5931.71 180.68
  1 -7  9 5926.01 181.98
  1 -7  9 5734.83 183.18
 -2  7 -9 1269.67  39.50
 -2  7 -9 1254.37  39.40
 -2  7 -9 1172.78  41.40
 -2  7 -9 1230.18  39.40
 -2  7 -9 1227.48  39.70
 -2  7 -9 1254.97  39.70
  2 -7  9 1262.67  41.30
  2 -7  9 1180.48  45.30
 -3  7 -9  20.60  3.70
 -3  7 -9  20.10  2.20
 -3  7 -9  20.30  2.90
 -3  7 -9  17.60  2.00
 -3  7 -9  19.50  2.00
 -3  7 -9  19.30  2.60
  3 -7  9  18.40  5.10
  3 -7  9  20.00  6.30
  3 -7  9  20.60  2.70
  3  6 -9 137.19  15.20
  3  6 -9 144.09  6.50
  3  6 -9 137.19  5.40
  3  6 -9 144.09  12.40
  3  6 -9 136.99  8.10
  3  6 -9 125.89  10.20
 -3 -6  9 132.69  6.20
 -3 -6  9 133.99  6.60
  2  6 -9 1374.46  43.00
  2  6 -9 1313.07  60.99
  2  6 -9 1468.45  57.59
  2  6 -9 1304.57  46.30
  2  6 -9 1380.66  51.99
  2  6 -9 1275.27  47.00
  2  6 -9 1365.56  43.80
  2  6 -9 1231.28  55.59
 -2 -6  9 1288.17  43.30
 -2 -6  9 1423.96  43.70
 -2 -6  9 1415.76  45.60
 -2 -6  9 1344.87  43.80
  1  6 -9 200.58  13.60
  1  6 -9 228.58  9.30
  1  6 -9 218.78  20.00
  1  6 -9 216.18  9.00
  1  6 -9 203.68  16.60
 -1 -6  9 233.68  9.50
 -1 -6  9 225.08  8.60
 -1 -6  9 208.38  8.70
 -1 -6  9 210.68  9.90
 -1 -6  9 204.08  10.00
 -1 -6  9 209.78  8.50
  0  6 -9 2923.21  92.99
  0  6 -9 3048.60  93.99
  0  6 -9 2962.20  92.69
  0 -6  9 2950.80  95.69
  0 -6  9 2972.00  93.89
  0 -6  9 2966.70  93.19
  0 -6  9 2932.51  95.09
  0 -6  9 3021.10  95.39
  0 -6  9 2951.10  93.09
  0 -6  9 2953.50  93.29
  0 -6  9 2910.91  92.89
 -1  6 -9 138.89  7.10
 -1  6 -9 135.19  6.90
 -1  6 -9 144.49  6.20
 -1  6 -9 138.29  5.80
 -1  6 -9 148.19  6.70
 -1  6 -9 143.29  6.90
 -1  6 -9 135.69  8.30
  1 -6  9 134.29  6.70
  1 -6  9 142.39  7.40
  1 -6  9 136.89  7.70
  1 -6  9 151.38  9.30
  1 -6  9 146.19  7.40
  1 -6  9 133.49  8.70
 -2  6 -9 309.87  11.30
 -2  6 -9 294.37  12.80
 -2  6 -9 309.97  11.00
 -2  6 -9 305.07  11.00
 -2  6 -9 311.77  11.00
 -2  6 -9 314.67  11.30
  2 -6  9 299.47  16.30
  2 -6  9 319.87  12.90
 -3  6 -9 156.58  6.30
 -3  6 -9 157.68  6.80
 -3  6 -9 156.28  7.10
 -3  6 -9 159.78  6.40
 -3  6 -9 162.28  6.10
 -3  6 -9 162.68  6.20
  3 -6  9 162.08  6.70
  3 -6  9 149.39  6.30
  3 -6  9 161.78  13.00
  3 -6  9 163.28  9.90
  3  5 -9 210.18  7.60
  3  5 -9 211.58  8.40
  3  5 -9 186.88  18.10
  3  5 -9 185.88  18.60
  3  5 -9 225.28  10.70
 -3 -5  9 216.78  8.70
 -3 -5  9 196.28  9.30
  2  5 -9 797.72  30.00
  2  5 -9 738.13  42.40
  2  5 -9 714.33  37.20
  2  5 -9 807.12  26.30
  2  5 -9 859.41  41.30
  2  5 -9 775.92  29.70
  2  5 -9 806.42  34.80
  2  5 -9 799.12  27.00
 -2 -5  9 838.82  27.20
 -2 -5  9 831.72  28.50
 -2 -5  9 909.91  27.00
  1  5 -9 964.20  31.20
  1  5 -9 925.21  32.50
  1  5 -9 961.30  30.80
 -1 -5  9 886.61  30.40
 -1 -5  9 913.61  30.50
 -1 -5  9 924.71  31.60
 -1 -5  9 940.71  30.60
 -1 -5  9 929.21  30.90
 -1 -5  9 924.11  30.80
 -1 -5  9 976.30  32.40
  0  5 -9 3464.45 109.59
  0  5 -9 3511.15 110.49
  0  5 -9 3526.25 109.29
  0  5 -9 3682.83 110.59
  0  5 -9 3525.55 114.49
  0 -5  9 3454.25 109.69
  0 -5  9 3494.75 112.09
  0 -5  9 3417.16 109.39
  0 -5  9 3338.87 113.39
  0 -5  9 3512.95 109.69
  0 -5  9 3508.85 109.69
  0 -5  9 3599.64 110.59
  0 -5  9 3426.86 111.19
  0 -5  9 3538.95 110.19
 -1  5 -9 363.36  13.00
 -1  5 -9 370.16  12.80
 -1  5 -9 354.36  16.60
 -1  5 -9 376.86  13.10
 -1  5 -9 366.36  14.80
 -1  5 -9 369.06  13.10
 -1  5 -9 366.46  13.80
 -1  5 -9 366.96  12.90
  1 -5  9 386.96  15.40
  1 -5  9 366.46  13.60
  1 -5  9 378.16  14.00
  1 -5  9 370.16  14.20
  1 -5  9 369.06  13.30
 -2  5 -9 947.41  30.50
 -2  5 -9 978.70  30.20
 -2  5 -9 865.21  30.10
 -2  5 -9 958.40  30.40
 -2  5 -9 901.11  31.10
 -2  5 -9 932.71  32.00
 -2  5 -9 935.41  30.10
 -2  5 -9 918.01  30.10
  2 -5  9 903.21  34.60
  2 -5  9 959.90  31.90
  2 -5  9 924.51  36.00
 -3  5 -9 395.06  14.40
 -3  5 -9 400.16  13.40
 -3  5 -9 401.36  13.50
 -3  5 -9 387.76  13.70
 -3  5 -9 390.16  13.70
 -3  5 -9 401.26  13.30
  3 -5  9 393.46  13.90
  3 -5  9 383.86  22.10
  3 -5  9 393.56  17.20
  3 -5  9 384.46  13.50
  3  4 -9 1526.65  67.99
  3  4 -9 1682.93  52.69
  3  4 -9 1626.94  59.19
  3  4 -9 1772.92  66.79
  3  4 -9 1581.14  54.79
  3  4 -9 1686.43  51.89
 -3 -4  9 1713.73  52.59
 -3 -4  9 1552.04  53.19
 -3 -4  9 1642.34  52.09
  2  4 -9 2357.76  97.09
  2  4 -9 2593.04  88.39
  2  4 -9 2778.62  99.19
  2  4 -9 2519.25  79.99
  2  4 -9 2463.05  90.99
  2  4 -9 2474.15  79.19
  2  4 -9 2340.47  82.89
 -2 -4  9 2558.04  79.69
 -2 -4  9 2607.94  81.49
 -2 -4  9 2566.74  79.99
  1  4 -9 4126.39 135.89
  1  4 -9 4258.97 129.49
  1  4 -9 4269.17 129.89
 -1 -4  9 3990.20 129.29
 -1 -4  9 4106.49 129.39
 -1 -4  9 4255.67 130.19
 -1 -4  9 3932.41 129.39
 -1 -4  9 4193.58 131.19
 -1 -4  9 4088.79 129.19
  0  4 -9 420.96  15.00
  0  4 -9 424.56  18.50
  0  4 -9 435.06  15.30
  0  4 -9 427.46  16.00
  0  4 -9 438.46  16.00
  0  4 -9 434.86  14.80
  0 -4  9 423.56  15.00
  0 -4  9 424.96  14.70
  0 -4  9 431.76  16.60
  0 -4  9 447.86  14.90
  0 -4  9 436.66  15.30
  0 -4  9 427.46  16.20
  0 -4  9 438.56  15.10
  0 -4  9 430.26  16.00
 -1  4 -9 521.85  17.80
 -1  4 -9 524.45  21.40
 -1  4 -9 534.75  18.20
 -1  4 -9 538.85  19.80
 -1  4 -9 529.15  18.70
 -1  4 -9 532.35  18.00
 -1  4 -9 507.05  19.60
 -1  4 -9 514.55  17.80
 -1  4 -9 526.75  17.90
 -1  4 -9 535.55  17.70
  1 -4  9 533.15  19.90
  1 -4  9 535.55  20.20
  1 -4  9 544.05  18.50
  1 -4  9 532.85  19.00
 -2  4 -9 1061.99  35.00
 -2  4 -9 1110.79  35.50
 -2  4 -9 1021.40  35.00
 -2  4 -9 1075.49  36.80
 -2  4 -9 1106.19  35.40
 -2  4 -9 1092.49  35.10
 -2  4 -9 1071.99  35.10
 -2  4 -9 1057.89  36.00
 -2  4 -9 1119.89  36.30
  2 -4  9 1166.98  40.30
  2 -4  9 1059.19  39.10
  2 -4  9 1165.38  36.90
  2 -4  9 1073.69  40.90
  2 -4  9 1080.69  35.80
 -3  4 -9 1447.76  46.30
 -3  4 -9 1281.47  47.10
 -3  4 -9 1475.25  45.70
 -3  4 -9 1445.16  45.20
 -3  4 -9 1462.25  45.30
 -3  4 -9 1423.56  45.50
  3 -4  9 1454.15  45.40
  3 -4  9 1444.36  45.70
  3 -4  9 1407.56  48.90
  3 -4  9 1418.76  55.79
  3  3 -9 1042.60  33.50
  3  3 -9 991.40  39.50
  3  3 -9 980.40  47.70
  3  3 -9 1083.79  49.10
  3  3 -9 1012.60  33.40
  3  3 -9 1005.50  35.80
 -3 -3  9 992.90  34.00
 -3 -3  9 1026.20  32.80
  2  3 -9 403.96  22.90
  2  3 -9 416.66  29.20
  2  3 -9 362.96  17.20
  2  3 -9 424.76  14.70
  2  3 -9 402.76  13.80
  2  3 -9 402.06  15.50
  2  3 -9 391.66  27.50
 -2 -3  9 413.86  14.50
 -2 -3  9 384.56  15.00
 -2 -3  9 435.16  15.70
  1  3 -9  15.10  4.70
  1  3 -9  18.10  8.40
  1  3 -9  19.60  2.90
  1  3 -9  19.70  3.90
 -1 -3  9  13.20  2.60
 -1 -3  9  12.70  2.10
 -1 -3  9  15.40  2.40
 -1 -3  9  15.60  3.50
 -1 -3  9  22.30  3.80
  0  3 -9 992.30  32.70
  0  3 -9 993.40  33.40
  0  3 -9 994.70  36.30
  0  3 -9 982.00  32.50
  0  3 -9 1000.50  32.20
  0  3 -9 962.90  33.40
  0 -3  9 1005.20  33.30
  0 -3  9 1037.10  32.80
  0 -3  9 1065.39  33.70
  0 -3  9 1004.50  32.20
  0 -3  9 1000.20  34.00
  0 -3  9 1023.30  32.40
  0 -3  9 954.20  32.40
 -1  3 -9 3276.97 102.69
 -1  3 -9 3232.08 102.69
 -1  3 -9 3229.08 102.59
 -1  3 -9 3243.78 102.19
 -1  3 -9 3337.57 102.59
 -1  3 -9 3338.17 102.89
 -1  3 -9 3336.37 106.69
 -1  3 -9 3281.47 103.09
 -1  3 -9 3227.08 104.29
 -1  3 -9 3232.38 103.59
  1 -3  9 3303.67 103.29
  1 -3  9 3320.77 104.39
  1 -3  9 3267.17 103.49
  1 -3  9 3303.17 104.89
 -2  3 -9 784.82  24.80
 -2  3 -9 772.62  24.90
 -2  3 -9 768.42  25.80
 -2  3 -9 741.83  25.70
 -2  3 -9 726.33  24.60
 -2  3 -9 752.22  24.70
 -2  3 -9 735.93  26.20
 -2  3 -9 733.23  24.60
 -2  3 -9 748.33  25.00
  2 -3  9 701.03  35.00
  2 -3  9 754.52  25.30
  2 -3  9 791.42  30.30
  2 -3  9 714.83  28.40
  2 -3  9 783.22  26.30
 -3  3 -9  26.90  4.60
 -3  3 -9  28.90  3.70
 -3  3 -9  24.60  4.80
 -3  3 -9  28.70  2.50
 -3  3 -9  28.00  2.60
 -3  3 -9  23.00  2.40
  3 -3  9  37.80  6.20
  3 -3  9  26.90  2.80
  3 -3  9  30.60  3.00
  3 -3  9  32.60  7.80
  4  2 -9 370.26  12.50
  4  2 -9 371.96  19.10
  4  2 -9 382.26  12.40
  4  2 -9 358.26  18.20
  3  2 -9 1214.98  56.89
  3  2 -9 1213.58  39.10
  3  2 -9 1212.48  39.50
  3  2 -9 1203.98  45.40
  3  2 -9 1128.79  51.99
 -3 -2  9 1136.39  39.50
 -3 -2  9 1225.78  38.50
 -3 -2  9 1292.57  39.40
  2  2 -9  71.89  5.90
  2  2 -9  65.29  11.60
  2  2 -9  58.59  7.40
  2  2 -9  59.69  9.60
  2  2 -9  64.89  18.70
  2  2 -9  73.29  6.60
 -2 -2  9  67.39  3.80
 -2 -2  9  73.99  4.40
 -2 -2  9  69.09  4.60
  1  2 -9 1923.61  58.59
  1  2 -9 1802.32  60.19
  1  2 -9 1792.92  57.99
  1  2 -9 1885.61  63.59
  1  2 -9 1697.63  68.89
 -1 -2  9 1728.43  57.59
 -1 -2  9 1892.21  59.29
 -1 -2  9 1801.72  57.79
 -1 -2  9 1852.81  57.69
 -1 -2  9 1820.82  58.49
  0  2 -9 1917.91  61.39
  0  2 -9 1992.80  65.69
  0  2 -9 1942.81  61.99
  0  2 -9 1968.80  62.69
  0  2 -9 1900.61  61.69
  0  2 -9 1922.71  62.59
  0 -2  9 1905.21  61.49
  0 -2  9 1937.41  61.39
  0 -2  9 1975.00  62.39
  0 -2  9 1937.71  61.69
  0 -2  9 1983.80  61.89
  0 -2  9 1989.30  61.99
  0 -2  9 1937.81  63.09
  0 -2  9 1987.30  62.49
 -1  2 -9 159.78  6.90
 -1  2 -9 148.89  6.40
 -1  2 -9 150.18  6.70
 -1  2 -9 155.18  7.20
 -1  2 -9 152.38  6.50
 -1  2 -9 140.09  8.80
 -1  2 -9 169.08  9.60
 -1  2 -9 145.99  6.30
 -1  2 -9 157.08  6.30
 -1  2 -9 154.98  5.90
  1 -2  9 151.48  6.90
  1 -2  9 156.48  8.40
  1 -2  9 142.69  8.10
  1 -2  9 167.98  8.40
  1 -2  9 149.19  7.80
 -2  2 -9 722.73  23.50
 -2  2 -9 693.13  24.30
 -2  2 -9 697.33  23.20
 -2  2 -9 683.43  24.80
 -2  2 -9 675.23  24.30
 -2  2 -9 666.43  23.20
 -2  2 -9 703.43  23.60
 -2  2 -9 708.43  23.30
 -2  2 -9 708.03  23.20
  2 -2  9 715.83  24.50
  2 -2  9 691.43  26.70
  2 -2  9 751.12  23.90
  2 -2  9 726.93  34.50
 -3  2 -9 384.56  13.00
 -3  2 -9 354.96  14.90
 -3  2 -9 379.66  14.30
 -3  2 -9 390.26  13.50
 -3  2 -9 402.26  13.30
  3 -2  9 357.46  20.50
  3 -2  9 373.16  13.00
  3 -2  9 378.26  13.40
  3 -2  9 416.16  17.00
  4  1 -9 696.73  21.50
  4  1 -9 661.23  27.30
  4  1 -9 625.54  29.30
  3  1 -9  67.09  4.20
  3  1 -9  60.79  13.60
  3  1 -9  66.99  8.30
  3  1 -9  61.69  11.30
  3  1 -9  68.19  4.90
 -3 -1  9  61.59  4.80
 -3 -1  9  68.79  3.90
 -3 -1  9  68.09  4.70
  2  1 -9 1485.65  56.69
  2  1 -9 1515.25  58.29
  2  1 -9 1650.93  50.99
  2  1 -9 1616.14  51.49
  2  1 -9 1511.15  63.49
  2  1 -9 1597.64  51.19
 -2 -1  9 1606.24  51.29
 -2 -1  9 1541.55  49.80
 -2 -1  9 1558.44  49.99
  1  1 -9 1089.39  37.40
  1  1 -9 968.50  45.40
  1  1 -9 1088.49  35.60
  1  1 -9 1083.99  36.40
  1  1 -9 1072.19  40.00
  1  1 -9 1109.39  36.20
 -1 -1  9 1034.60  34.60
 -1 -1  9 1058.69  34.80
 -1 -1  9 1094.39  34.60
 -1 -1  9 1154.78  36.90
 -1 -1  9 1048.60  34.90
 -1 -1  9 1093.09  35.60
  0  1 -9 4045.80 127.49
  0  1 -9 4036.80 126.79
  0  1 -9 4248.08 128.19
  0  1 -9 4021.70 128.09
  0  1 -9 4101.69 130.99
  0 -1  9 4104.19 127.39
  0 -1  9 4035.80 127.59
  0 -1  9 4028.70 126.69
  0 -1  9 4022.50 128.39
  0 -1  9 3979.00 126.89
  0 -1  9 4251.77 127.79
  0 -1  9 3950.60 126.79
 -1  1 -9 586.24  22.80
 -1  1 -9 581.94  19.50
 -1  1 -9 588.64  21.80
 -1  1 -9 569.84  20.40
 -1  1 -9 590.84  19.70
 -1  1 -9 613.74  20.00
 -1  1 -9 566.54  19.00
 -1  1 -9 581.24  19.30
 -1  1 -9 565.74  21.70
 -1  1 -9 571.04  19.40
 -1  1 -9 574.84  19.60
  1 -1  9 591.84  21.10
  1 -1  9 556.94  19.90
  1 -1  9 560.84  20.20
  1 -1  9 608.64  21.40
  1 -1  9 590.14  21.30
  1 -1  9 549.85  20.30
 -2  1 -9 416.26  15.50
 -2  1 -9 405.16  14.70
 -2  1 -9 404.86  15.80
 -2  1 -9 415.26  14.40
 -2  1 -9 415.86  14.40
 -2  1 -9 429.36  14.70
 -2  1 -9 416.56  14.70
 -2  1 -9 417.96  15.90
  2 -1  9 411.66  23.80
  2 -1  9 429.06  15.60
  2 -1  9 425.76  14.90
  2 -1  9 405.16  18.00
 -3  1 -9 445.56  15.50
 -3  1 -9 449.06  16.40
 -3  1 -9 456.35  15.50
 -3  1 -9 463.75  15.20
 -3  1 -9 403.06  16.90
 -3  1 -9 435.76  14.90
  3 -1  9 441.96  15.20
  3 -1  9 433.56  22.20
  3 -1  9 490.15  19.30
  4  0 -9 207.68  7.40
  4  0 -9 198.78  11.90
  4  0 -9 187.58  13.80
  4  0 -9 213.48  7.60
  3  0 -9 186.48  20.50
  3  0 -9 233.38  8.90
  3  0 -9 225.98  13.60
  3  0 -9 211.58  17.20
  3  0 -9 225.78  9.90
 -3  0  9 234.48  8.40
 -3  0  9 231.58  8.80
 -3  0  9 220.38  9.40
  2  0 -9 3005.60  95.19
  2  0 -9 3022.00  92.29
  2  0 -9 2813.52 104.09
  2  0 -9 2834.72  99.49
 -2  0  9 2877.11  90.89
 -2  0  9 2880.61  92.39
 -2  0  9 2859.21  91.09
  1  0 -9 2970.90 100.09
  1  0 -9 3231.98  98.69
  1  0 -9 3192.58  98.09
  1  0 -9 3113.99 102.69
 -1  0  9 3058.79  96.89
 -1  0  9 3019.70  97.29
 -1  0  9 3057.89  97.19
 -1  0  9 3172.88  98.69
 -1  0  9 3030.80  96.99
 -1  0  9 3129.79  97.79
  0  0 -9  70.39  5.90
  0  0 -9  60.99  4.10
  0  0 -9  60.49  5.70
  0  0 -9  62.19  4.30
  0  0 -9  60.89  4.40
  0  0  9  71.09  3.50
  0  0  9  62.09  3.30
  0  0  9  60.19  4.70
  0  0  9  60.89  4.60
  0  0  9  57.99  4.20
  0  0  9  59.79  3.60
  0  0  9  61.99  5.40
 -1  0 -9  64.29  4.90
 -1  0 -9  71.69  4.00
 -1  0 -9  69.29  4.00
 -1  0 -9  73.99  3.80
 -1  0 -9  67.09  8.10
 -1  0 -9  77.49  4.70
 -1  0 -9  70.69  4.90
 -1  0 -9  66.69  4.00
 -1  0 -9  76.99  4.20
  1  0  9  76.59  5.50
  1  0  9  67.69  5.70
  1  0  9  63.39  5.50
  1  0  9  67.69  5.70
  1  0  9  73.49  4.50
 -2  0 -9 1020.50  36.00
 -2  0 -9 1099.89  35.10
 -2  0 -9 1082.99  34.90
 -2  0 -9 1104.49  34.80
 -2  0 -9 1044.00  34.90
 -2  0 -9 1094.59  36.10
 -2  0 -9 1077.79  35.30
 -2  0 -9 1066.39  36.60
  2  0  9 1126.79  43.10
  2  0  9 1102.49  35.90
  2  0  9 1052.19  40.00
  2  0  9 1073.69  44.90
  2  0  9 1071.79  35.10
 -3  0 -9 1812.42  57.69
 -3  0 -9 1839.92  58.89
 -3  0 -9 1813.22  58.19
 -3  0 -9 1832.82  57.89
 -3  0 -9 1793.02  58.19
  3  0  9 1878.81  61.99
  3  0  9 1799.22  65.29
  3  0  9 1784.02  57.79
  3  0  9 1958.20  58.39
  4 -1 -9 843.72  35.50
  4 -1 -9 862.81  27.60
  4 -1 -9 907.31  28.10
  4 -1 -9 839.52  36.40
  3 -1 -9 1968.30  61.29
  3 -1 -9 2087.89  61.89
  3 -1 -9 1875.51  68.79
  3 -1 -9 1861.11  71.29
  3 -1 -9 2022.70  63.09
  3 -1 -9 1688.63  78.09
 -3  1  9 1928.91  60.69
 -3  1  9 2006.00  62.19
 -3  1  9 1903.71  60.89
  2 -1 -9  14.40  7.20
  2 -1 -9  19.30  10.40
  2 -1 -9  23.30  4.40
  2 -1 -9  17.90  9.50
  2 -1 -9  13.40  5.00
 -2  1  9  18.50  2.90
 -2  1  9  13.90  2.20
 -2  1  9  13.40  4.00
 -2  1  9  15.40  2.60
  1 -1 -9  77.69  5.70
  1 -1 -9  62.39  7.10
  1 -1 -9  69.19  6.00
 -1  1  9  65.19  5.60
 -1  1  9  57.59  5.20
 -1  1  9  61.09  3.70
 -1  1  9  63.59  3.60
 -1  1  9  61.69  3.30
 -1  1  9  66.39  4.40
  0 -1 -9  41.60  3.70
  0 -1 -9  53.09  4.10
  0 -1 -9  42.60  3.60
  0 -1 -9  55.99  5.20
  0 -1 -9  38.40  4.50
  0 -1 -9  44.60  5.60
  0 -1 -9  44.60  3.70
  0 -1 -9  39.60  5.40
  0  1  9  49.80  4.80
  0  1  9  50.09  3.80
  0  1  9  48.50  4.30
  0  1  9  40.50  6.20
  0  1  9  42.00  2.80
  0  1  9  41.40  2.90
 -1 -1 -9 5232.18 167.28
 -1 -1 -9 5407.76 166.48
 -1 -1 -9 5297.87 165.58
 -1 -1 -9 5230.68 165.68
 -1 -1 -9 5261.77 165.78
 -1 -1 -9 5320.37 165.98
 -1 -1 -9 5307.57 166.98
 -1 -1 -9 5454.75 167.78
 -1 -1 -9 5281.97 165.58
  1  1  9 5211.08 166.38
  1  1  9 5383.96 165.98
  1  1  9 5427.36 166.88
 -2 -1 -9 1361.56  44.80
 -2 -1 -9 1337.77  43.10
 -2 -1 -9 1292.07  44.50
 -2 -1 -9 1306.67  44.00
 -2 -1 -9 1302.77  43.20
 -2 -1 -9 1372.16  42.80
 -2 -1 -9 1381.96  43.50
 -2 -1 -9 1322.27  42.90
  2  1  9 1382.86  43.80
  2  1  9 1341.37  52.59
  2  1  9 1314.67  47.70
  2  1  9 1310.67  42.80
 -3 -1 -9 280.77  10.00
 -3 -1 -9 302.07  12.60
 -3 -1 -9 273.77  10.20
 -3 -1 -9 269.97  9.80
 -3 -1 -9 278.27  10.40
  3  1  9 289.97  10.60
  3  1  9 287.97  13.20
  3  1  9 274.47  9.90
  3  1  9 269.87  14.80
  4 -2 -9 121.69  9.80
  4 -2 -9 123.29  5.30
  4 -2 -9 124.79  4.80
  3 -2 -9 567.34  26.40
  3 -2 -9 561.54  19.30
  3 -2 -9 552.34  18.40
  3 -2 -9 509.05  26.50
  3 -2 -9 473.85  30.50
  3 -2 -9 544.45  20.40
 -3  2  9 557.14  18.00
 -3  2  9 542.05  19.30
 -3  2  9 545.45  18.20
  2 -2 -9 257.67  12.10
  2 -2 -9 250.97  11.50
  2 -2 -9 224.38  15.40
  2 -2 -9 244.98  9.80
  2 -2 -9 228.48  21.90
 -2  2  9 280.97  10.70
 -2  2  9 263.27  10.20
 -2  2  9 270.77  9.40
 -2  2  9 257.57  9.60
  1 -2 -9 1593.94  53.39
  1 -2 -9 1597.84  53.19
  1 -2 -9 1613.74  56.69
  1 -2 -9 1663.33  52.99
 -1  2  9 1570.64  51.09
 -1  2  9 1610.84  52.79
 -1  2  9 1653.33  51.29
 -1  2  9 1634.24  51.39
 -1  2  9 1611.44  52.09
  0 -2 -9 4155.38 127.29
  0 -2 -9 4220.08 129.09
  0 -2 -9 4182.08 127.39
  0 -2 -9 4094.49 127.39
  0 -2 -9 3971.40 128.99
  0 -2 -9 3978.70 128.39
  0 -2 -9 4077.29 128.29
  0  2  9 4145.59 127.99
  0  2  9 4057.39 128.09
  0  2  9 3935.71 127.19
  0  2  9 3999.10 127.19
  0  2  9 4169.28 128.99
  0  2  9 4077.99 127.79
  0  2  9 4086.19 126.99
 -1 -2 -9 1529.55  49.70
 -1 -2 -9 1475.45  47.80
 -1 -2 -9 1525.35  48.30
 -1 -2 -9 1489.55  49.30
 -1 -2 -9 1481.35  47.90
 -1 -2 -9 1516.25  48.90
 -1 -2 -9 1484.75  48.10
 -1 -2 -9 1474.65  50.69
 -1 -2 -9 1532.85  47.90
  1  2  9 1470.65  48.30
  1  2  9 1508.05  50.29
  1  2  9 1544.35  49.20
  1  2  9 1490.05  48.80
 -2 -2 -9 1717.43  54.69
 -2 -2 -9 1711.53  56.59
 -2 -2 -9 1766.82  54.69
 -2 -2 -9 1716.73  55.09
 -2 -2 -9 1704.63  55.99
 -2 -2 -9 1741.93  54.99
  2  2  9 1603.54  62.49
  2  2  9 1618.94  54.39
  2  2  9 1907.91  77.79
  2  2  9 1761.32  55.49
  2  2  9 1663.03  58.99
 -3 -2 -9  98.19  4.40
 -3 -2 -9  91.79  4.30
 -3 -2 -9 101.89  5.20
 -3 -2 -9  91.19  4.50
  3  2  9 102.99  6.80
  3  2  9  90.69  7.70
  3  2  9  96.29  4.30
  3  2  9  95.59  5.00
  3 -3 -9  56.29  15.20
  3 -3 -9  43.00  10.00
  3 -3 -9  47.60  3.40
  3 -3 -9  42.90  5.10
  3 -3 -9  58.69  4.70
  3 -3 -9  47.90  8.80
 -3  3  9  46.30  4.40
 -3  3  9  50.69  3.20
 -3  3  9  52.79  3.50
 -3  3  9  58.19  4.00
  2 -3 -9 992.20  42.00
  2 -3 -9 880.21  45.10
  2 -3 -9 978.60  32.80
  2 -3 -9 923.51  33.50
  2 -3 -9 966.40  31.20
  2 -3 -9 886.41  38.30
 -2  3  9 942.01  31.00
 -2  3  9 1003.60  30.90
 -2  3  9 1005.70  32.50
 -2  3  9 934.31  30.70
 -2  3  9 942.11  31.50
 -2  3  9 989.40  32.20
 -2  3  9 916.11  31.50
  1 -3 -9  2.20  7.70
  1 -3 -9  5.50  4.20
  1 -3 -9  7.50  3.80
 -1  3  9  5.40  1.40
 -1  3  9  8.80  1.60
 -1  3  9  8.80  2.00
 -1  3  9  4.70  1.70
  0 -3 -9  13.00  3.20
  0 -3 -9  17.40  3.10
  0 -3 -9  15.40  2.40
  0 -3 -9  17.00  3.30
  0 -3 -9  13.70  2.20
  0 -3 -9  11.90  2.80
  0 -3 -9  17.50  3.90
  0  3  9  11.40  3.50
  0  3  9  12.30  2.40
  0  3  9  13.60  2.60
  0  3  9  12.70  2.10
  0  3  9  13.10  2.80
 -1 -3 -9 4058.09 127.89
 -1 -3 -9 4054.89 126.49
 -1 -3 -9 4144.19 126.79
 -1 -3 -9 4010.30 127.49
 -1 -3 -9 3938.81 126.29
 -1 -3 -9 4057.69 126.69
 -1 -3 -9 4101.89 128.39
 -1 -3 -9 4078.09 126.29
  1  3  9 4148.69 127.59
  1  3  9 4034.20 128.89
  1  3  9 3916.91 127.59
  1  3  9 3959.70 126.59
 -2 -3 -9 1310.07  41.60
 -2 -3 -9 1290.87  41.50
 -2 -3 -9 1333.17  42.60
 -2 -3 -9 1249.28  41.00
 -2 -3 -9 1219.98  41.00
 -2 -3 -9 1230.08  43.30
  2  3  9 1409.46  62.99
  2  3  9 1209.18  48.20
  2  3  9 1237.38  44.90
  2  3  9 1291.77  41.70
 -3 -3 -9 530.15  17.80
 -3 -3 -9 535.15  17.70
 -3 -3 -9 513.75  17.20
 -3 -3 -9 539.25  17.40
 -3 -3 -9 514.85  17.90
  3  3  9 549.25  17.60
  3  3  9 538.95  19.70
  3  3  9 482.55  22.80
  3  3  9 518.85  17.00
  3 -4 -9  3.70  2.70
  3 -4 -9  2.00  6.00
  3 -4 -9  5.60  5.50
  3 -4 -9  0.40  2.30
  3 -4 -9  2.70  1.40
 -3  4  9  4.30  1.50
 -3  4  9  5.20  1.90
 -3  4  9  5.10  1.60
  2 -4 -9 237.08  11.40
  2 -4 -9 204.38  16.30
  2 -4 -9 211.18  19.30
  2 -4 -9 235.88  11.00
  2 -4 -9 245.68  18.00
  2 -4 -9 228.38  9.00
 -2  4  9 228.28  10.40
 -2  4  9 242.48  8.70
 -2  4  9 246.18  10.10
 -2  4  9 233.78  9.60
 -2  4  9 224.88  8.80
 -2  4  9 227.38  9.80
 -2  4  9 238.48  8.60
  1 -4 -9 3431.36 108.89
  1 -4 -9 3525.35 108.69
  1 -4 -9 3165.88 120.09
 -1  4  9 3277.47 106.69
 -1  4  9 3483.75 107.39
 -1  4  9 3528.55 107.39
 -1  4  9 3395.16 106.59
 -1  4  9 3524.35 108.49
 -1  4  9 3358.46 106.39
 -1  4  9 3410.06 107.39
  0 -4 -9 279.87  11.80
  0 -4 -9 272.07  10.10
  0 -4 -9 271.97  12.10
  0 -4 -9 267.27  11.30
  0 -4 -9 269.67  10.30
  0 -4 -9 277.67  12.60
  0 -4 -9 285.37  10.80
  0  4  9 264.97  11.70
  0  4  9 270.87  10.70
  0  4  9 270.77  10.90
  0  4  9 276.17  9.60
  0  4  9 277.87  11.80
  0  4  9 264.67  9.80
 -1 -4 -9 243.48  9.30
 -1 -4 -9 252.77  9.40
 -1 -4 -9 241.18  10.10
 -1 -4 -9 238.08  10.30
 -1 -4 -9 243.38  10.90
 -1 -4 -9 248.88  9.80
 -1 -4 -9 247.08  9.80
 -1 -4 -9 244.78  11.90
  1  4  9 247.28  12.20
  1  4  9 246.28  10.30
  1  4  9 236.48  9.90
  1  4  9 244.08  10.30
 -2 -4 -9  49.60  3.50
 -2 -4 -9  50.69  3.90
 -2 -4 -9  49.00  3.30
 -2 -4 -9  49.20  3.50
 -2 -4 -9  54.09  3.90
 -2 -4 -9  56.99  6.80
  2  4  9  52.99  5.90
  2  4  9  55.39  14.30
  2  4  9  53.69  3.80
 -3 -4 -9 865.41  27.80
 -3 -4 -9 875.41  28.10
 -3 -4 -9 825.62  27.60
 -3 -4 -9 894.71  28.10
  3  4  9 877.81  29.60
  3  4  9 874.91  27.90
  3 -5 -9 1577.74  49.50
  3 -5 -9 1584.34  50.79
  3 -5 -9 1469.25  57.59
  3 -5 -9 1598.24  51.49
  3 -5 -9 1633.54  58.39
 -3  5  9 1549.34  49.20
 -3  5  9 1592.74  49.50
 -3  5  9 1506.65  49.50
 -3  5  9 1584.44  49.10
 -3  5  9 1504.65  50.89
  2 -5 -9 1814.02  58.89
  2 -5 -9 1825.42  58.29
  2 -5 -9 1873.11  68.59
  2 -5 -9 1641.84  68.49
  2 -5 -9 1732.53  56.29
 -2  5  9 1786.42  56.39
 -2  5  9 1747.63  56.79
 -2  5  9 1780.02  56.19
 -2  5  9 1799.02  56.29
 -2  5  9 1774.92  58.09
  1 -5 -9 167.68  10.90
  1 -5 -9 175.58  9.00
 -1  5  9 151.48  6.20
 -1  5  9 153.68  6.50
 -1  5  9 152.68  7.20
 -1  5  9 152.38  7.70
 -1  5  9 175.68  6.60
 -1  5  9 154.48  7.40
 -1  5  9 151.18  7.70
  0 -5 -9 228.98  10.30
  0 -5 -9 234.68  9.40
  0 -5 -9 245.98  10.40
  0 -5 -9 240.38  9.20
  0 -5 -9 242.98  11.80
  0 -5 -9 241.58  11.60
  0  5  9 242.68  8.50
  0  5  9 240.48  9.00
  0  5  9 242.58  9.70
  0  5  9 234.48  10.70
  0  5  9 243.98  11.40
  0  5  9 243.38  10.10
 -1 -5 -9 2487.05  77.79
 -1 -5 -9 2540.05  78.29
 -1 -5 -9 2545.85  78.29
 -1 -5 -9 2379.06  78.29
 -1 -5 -9 2512.45  79.69
 -1 -5 -9 2368.76  79.49
 -1 -5 -9 2345.07  80.39
 -1 -5 -9 2508.55  78.69
 -1 -5 -9 2484.55  77.89
  1  5  9 2549.15  78.79
  1  5  9 2408.26  80.89
 -2 -5 -9 2238.08  73.69
 -2 -5 -9 2213.18  75.69
 -2 -5 -9 2364.46  73.59
 -2 -5 -9 2374.46  73.19
 -2 -5 -9 2300.67  73.59
 -2 -5 -9 2206.38  73.09
  2  5  9 2302.87  73.49
  2  5  9 2685.23 113.39
  2  5  9 2259.27  76.19
  2  5  9 2268.27  73.29
  3 -6 -9 171.18  12.40
  3 -6 -9 162.08  7.40
  3 -6 -9 165.88  7.70
 -3  6  9 168.48  6.50
 -3  6  9 147.79  6.70
 -3  6  9 169.28  6.40
 -3  6  9 170.98  6.20
 -3  6  9 167.48  6.50
  2 -6 -9 225.98  10.40
  2 -6 -9 219.78  10.50
  2 -6 -9 222.38  16.80
 -2  6  9 222.78  8.20
 -2  6  9 209.28  9.80
 -2  6  9 232.48  8.50
 -2  6  9 227.98  8.40
 -2  6  9 219.08  8.90
  1 -6 -9  89.29  6.70
  1 -6 -9  90.49  10.00
 -1  6  9  95.09  4.50
 -1  6  9  84.69  6.00
 -1  6  9  94.19  5.50
 -1  6  9  96.49  4.50
 -1  6  9  96.89  4.20
 -1  6  9  95.99  4.60
  0 -6 -9 5324.07 160.78
  0 -6 -9 5199.28 161.48
  0 -6 -9 5294.77 163.28
  0 -6 -9 5080.39 160.78
  0 -6 -9 4924.11 162.58
  0 -6 -9 5227.18 160.28
  0 -6 -9 5098.49 161.98
  0  6  9 5140.69 159.88
  0  6  9 5026.20 163.18
  0  6  9 5078.49 160.48
  0  6  9 5289.97 161.98
  0  6  9 5190.98 161.68
  0  6  9 5156.18 160.98
 -1 -6 -9 368.76  13.70
 -1 -6 -9 368.26  14.10
 -1 -6 -9 382.66  13.40
 -1 -6 -9 386.76  13.20
  1  6  9 358.46  15.80
  1  6  9 376.76  14.10
 -2 -6 -9 207.08  8.50
 -2 -6 -9 202.98  7.80
 -2 -6 -9 200.68  8.70
 -2 -6 -9 210.48  7.80
 -2 -6 -9 199.58  8.00
  2  6  9 209.08  8.00
  2  6  9 212.88  10.10
  2  6  9 193.58  7.80
  2  6  9 209.38  18.30
  3 -7 -9 172.18  7.30
  3 -7 -9 171.48  7.20
  3 -7 -9 176.48  11.70
 -3  7  9 179.48  6.20
 -3  7  9 175.38  6.70
 -3  7  9 171.68  6.40
 -3  7  9 156.08  6.60
  2 -7 -9  22.30  7.80
  2 -7 -9  18.20  3.80
  2 -7 -9  16.30  3.30
  2 -7 -9  24.40  4.60
 -2  7  9  27.00  2.10
 -2  7  9  23.20  3.10
 -2  7  9  21.00  2.50
 -2  7  9  20.40  2.30
 -2  7  9  20.80  4.10
 -2  7  9  26.80  2.40
  1 -7 -9 1351.26  44.30
 -1  7  9 1341.57  42.20
 -1  7  9 1327.57  41.70
 -1  7  9 1221.88  43.30
 -1  7  9 1317.57  41.40
 -1  7  9 1274.97  41.70
 -1  7  9 1303.57  42.50
  0 -7 -9 157.78  7.90
  0 -7 -9 164.18  6.90
  0 -7 -9 173.18  7.10
  0 -7 -9 152.28  9.30
  0  7  9 160.48  8.00
  0  7  9 161.88  6.60
  0  7  9 180.38  7.10
 -1 -7 -9 723.43  23.90
 -1 -7 -9 724.83  25.00
 -1 -7 -9 723.93  24.10
 -1 -7 -9 756.92  24.40
  1  7  9 737.13  24.90
  1  7  9 699.53  26.40
 -2 -7 -9 349.67  12.50
 -2 -7 -9 344.77  12.30
 -2 -7 -9 326.17  13.00
 -2 -7 -9 355.26  11.90
 -2 -7 -9 350.36  12.00
  2  7  9 344.87  12.00
  2  7  9 362.36  22.30
  2  7  9 339.57  11.80
  2  7  9 347.77  13.50
  3 -8 -9  11.40  4.30
  3 -8 -9  11.50  2.40
  3 -8 -9  13.40  2.10
 -3  8  9  12.50  1.40
 -3  8  9  15.20  1.80
  2 -8 -9 248.48  16.30
  2 -8 -9 221.68  10.10
  2 -8 -9 240.08  9.80
  2 -8 -9 243.68  9.80
 -2  8  9 240.88  8.50
 -2  8  9 243.38  8.50
 -2  8  9 236.68  8.60
 -2  8  9 200.48  11.40
 -2  8  9 235.68  8.70
 -2  8  9 238.38  8.80
  1 -8 -9 2365.76  72.39
  1 -8 -9 2303.77  74.59
 -1  8  9 2212.98  73.39
 -1  8  9 2291.47  72.09
 -1  8  9 2353.36  72.49
 -1  8  9 2240.18  71.89
 -1  8  9 2290.47  71.69
  0 -8 -9  94.49  5.60
  0 -8 -9  92.99  7.20
  0 -8 -9  83.29  4.70
  0 -8 -9  91.29  4.80
  0  8  9  98.89  4.40
  0  8  9  85.79  5.50
  0  8  9  87.69  4.60
 -1 -8 -9  17.50  2.30
 -1 -8 -9  15.20  2.30
 -1 -8 -9  12.10  2.50
  1  8  9  15.80  2.80
 -2 -8 -9  6.90  2.40
 -2 -8 -9  5.10  1.30
 -2 -8 -9  5.40  1.20
 -2 -8 -9  6.60  1.20
  2  8  9  4.00  1.20
  2  8  9  3.50  3.40
  2  8  9  3.30  1.20
  2 -9 -9 887.51  29.40
  2 -9 -9 868.81  29.20
  2 -9 -9 913.41  29.90
  2 -9 -9 917.11  36.60
 -2  9  9 892.31  28.40
 -2  9  9 823.62  28.70
 -2  9  9 908.11  28.30
 -2  9  9 892.71  28.70
 -2  9  9 912.61  28.50
  1 -9 -9  8.80  2.50
  1 -9 -9  7.00  3.40
 -1  9  9  5.70  2.20
 -1  9  9  5.30  1.50
 -1  9  9  8.30  2.80
 -1  9  9  2.40  1.40
  0 -9 -9 199.48  7.90
  0 -9 -9 189.18  9.80
  0 -9 -9 210.38  7.80
  0  9  9 192.78  9.00
  0  9  9 204.28  7.50
 -1 -9 -9  88.29  3.80
 -1 -9 -9  90.29  4.10
 -1 -9 -9  85.19  4.00
  1  9  9  82.89  4.30
  1  9  9  74.69  4.00
  1  9  9  86.39  10.80
  2 -10 -9  89.59  4.80
  2 -10 -9  81.79  4.40
  2 -10 -9  90.99  8.20
  2 -10 -9  88.79  4.30
 -2 10  9  87.39  3.30
 -2 10  9  85.29  3.70
 -2 10  9  90.59  4.10
 -2 10  9  89.29  3.80
  1 -10 -9  92.99  5.50
  1 -10 -9  98.59  5.30
 -1 10  9 107.59  4.90
 -1 10  9  99.09  4.20
 -1 10  9 104.89  4.40
 -1 10  9  91.19  5.40
  0 -10 -9 2118.89  69.19
  0 -10 -9 2194.08  67.49
  0 10  9 2133.69  67.99
  0 10  9 2140.19  67.09
 -1 -10 -9  52.69  2.70
 -1 -10 -9  45.90  2.50
  1 10  9  41.80  2.50
  1 10  9  44.80  7.00
  1 -11 -9  12.30  4.90
  1 -11 -9  8.50  2.30
  1 -11 -9  7.70  1.80
 -1 11  9  8.50  1.40
 -1 11  9  13.80  3.20
  0 -11 -9 657.83  20.80
  0 -11 -9 609.24  20.90
  0 -11 -9 619.24  22.20
  0 11  9 661.13  29.40
  0 11  9 650.93  21.20
  0 11  9 659.03  22.40
  1 13 -10 2203.58  69.39
  1 13 -10 2153.58  72.79
 -1 -13 10 2178.38  69.19
 -1 -13 10 2294.77  69.69
 -1 -13 10 2248.18  68.99
  0 13 -10 128.89  10.10
  0 13 -10 132.79  5.30
  0 13 -10 115.59  5.10
  0 -13 10 123.19  5.00
  0 -13 10 128.89  5.30
  0 -13 10 116.39  5.30
 -1 13 -10  10.60  2.10
  1 -13 10  8.10  1.90
  1 -13 10  8.00  2.00
  1 12 -10 301.07  14.90
  1 12 -10 324.57  11.30
  1 12 -10 314.57  11.00
  1 12 -10 354.96  18.20
 -1 -12 10 320.37  10.90
 -1 -12 10 326.47  11.60
 -1 -12 10 322.47  11.10
 -1 -12 10 304.27  14.00
 -1 -12 10 296.47  12.70
  0 12 -10  62.29  8.40
  0 12 -10  52.89  7.00
  0 12 -10  58.69  3.80
  0 12 -10  52.89  3.40
  0 -12 10  61.49  3.70
  0 -12 10  56.09  3.80
  0 -12 10  63.99  3.40
  0 -12 10  64.59  3.00
 -1 12 -10 1593.64  49.99
 -1 12 -10 1578.14  51.09
 -1 12 -10 1609.24  50.29
  1 -12 10 1602.04  50.49
  1 -12 10 1601.14  50.59
  1 -12 10 1584.44  51.69
  2 11 -10 1478.35  47.60
  2 11 -10 1482.95  51.79
  2 11 -10 1571.04  54.79
 -2 -11 10 1482.75  47.20
 -2 -11 10 1500.45  47.70
 -2 -11 10 1528.45  47.40
 -2 -11 10 1488.05  47.70
  1 11 -10 126.89  9.70
  1 11 -10 128.19  5.70
  1 11 -10 138.69  6.00
  1 11 -10 143.69  12.90
 -1 -11 10 138.79  5.80
 -1 -11 10 140.19  6.00
 -1 -11 10 130.69  6.40
 -1 -11 10 126.49  6.40
 -1 -11 10 137.99  5.50
  0 11 -10 1052.29  34.70
  0 11 -10 1023.30  39.10
  0 11 -10 1036.70  34.50
  0 -11 10 1072.09  34.70
  0 -11 10 1046.40  33.90
 -1 11 -10 252.47  9.10
 -1 11 -10 243.78  9.90
 -1 11 -10 266.77  8.80
  1 -11 10 252.47  9.30
  1 -11 10 244.98  9.60
  1 -11 10 236.28  10.50
 -2 11 -10  64.39  3.30
 -2 11 -10  66.99  2.80
  2 -11 10  62.29  6.00
  2 -11 10  60.19  8.20
  2 -11 10  60.29  3.60
  2 10 -10 148.99  6.20
  2 10 -10 140.79  9.80
  2 10 -10 150.48  12.60
 -2 -10 10 148.89  6.20
 -2 -10 10 145.29  6.40
 -2 -10 10 130.89  6.60
 -2 -10 10 145.49  5.90
 -2 -10 10 147.49  6.00
  1 10 -10 291.77  19.70
  1 10 -10 299.27  11.00
  1 10 -10 289.27  11.10
  1 10 -10 308.47  20.00
 -1 -10 10 306.07  11.80
 -1 -10 10 300.17  11.20
 -1 -10 10 278.97  13.50
 -1 -10 10 295.47  10.70
 -1 -10 10 293.57  10.60
 -1 -10 10 306.37  11.20
  0 10 -10 1242.98  39.90
  0 10 -10 1192.48  46.00
  0 10 -10 1243.18  40.70
  0 -10 10 1215.68  40.00
  0 -10 10 1297.77  45.00
  0 -10 10 1210.58  39.50
  0 -10 10 1248.28  40.90
  0 -10 10 1286.07  40.10
 -1 10 -10 2810.12  88.49
 -1 10 -10 2778.12  87.29
 -1 10 -10 2706.23  86.99
  1 -10 10 2707.63  87.59
  1 -10 10 2800.32  88.09
  1 -10 10 2700.93  89.19
  1 -10 10 2976.30  87.69
 -2 10 -10  11.20  1.50
 -2 10 -10  14.40  2.20
 -2 10 -10  14.80  4.70
 -2 10 -10  12.70  2.00
  2 -10 10  13.00  5.10
  2 -10 10  13.50  6.10
  2 -10 10  11.60  2.50
  2  9 -10 1208.88  45.40
  2  9 -10 1284.27  50.69
  2  9 -10 1205.48  39.30
 -2 -9 10 1264.17  39.10
 -2 -9 10 1222.98  39.50
 -2 -9 10 1206.38  39.60
 -2 -9 10 1141.09  41.30
 -2 -9 10 1189.48  39.40
 -2 -9 10 1258.17  39.00
  1  9 -10 4532.45 141.49
  1  9 -10 4640.24 155.18
  1  9 -10 4533.75 141.29
  1  9 -10 4436.86 148.39
 -1 -9 10 4486.35 140.99
 -1 -9 10 4512.65 141.49
 -1 -9 10 4551.14 143.89
 -1 -9 10 4444.96 140.99
 -1 -9 10 4657.63 141.99
 -1 -9 10 4367.76 141.29
  0  9 -10  71.69  4.80
  0  9 -10  67.49  4.40
  0 -9 10  80.49  8.60
  0 -9 10  75.09  5.30
  0 -9 10  72.59  4.20
  0 -9 10  73.59  3.70
 -1  9 -10 306.07  10.80
 -1  9 -10 305.27  11.00
 -1  9 -10 303.37  12.20
  1 -9 10 297.57  11.20
  1 -9 10 306.77  12.00
  1 -9 10 302.17  13.10
  1 -9 10 310.27  11.40
 -2  9 -10  12.60  1.80
 -2  9 -10  9.50  1.80
 -2  9 -10  12.70  3.00
  2 -9 10  10.00  2.40
  2 -9 10  16.10  6.80
  2 -9 10  15.80  5.60
  3  8 -10 1804.22  56.09
  3  8 -10 1851.01  63.09
  3  8 -10 1757.12  59.69
 -3 -8 10 1703.33  55.99
 -3 -8 10 1777.42  55.79
  2  8 -10 471.45  23.90
  2  8 -10 461.25  27.30
  2  8 -10 455.45  16.10
 -2 -8 10 476.45  16.20
 -2 -8 10 489.65  16.40
 -2 -8 10 455.45  16.80
 -2 -8 10 412.46  17.10
 -2 -8 10 464.55  18.00
  1  8 -10 547.15  18.70
  1  8 -10 537.95  30.00
  1  8 -10 565.64  19.00
  1  8 -10 529.45  25.30
 -1 -8 10 531.15  18.30
 -1 -8 10 552.14  18.80
 -1 -8 10 539.65  19.40
 -1 -8 10 524.25  20.60
 -1 -8 10 534.65  18.80
 -1 -8 10 521.75  18.20
  0  8 -10 626.44  21.30
  0  8 -10 602.04  27.50
  0  8 -10 633.24  21.30
  0  8 -10 636.14  22.00
  0  8 -10 622.14  20.80
  0 -8 10 613.04  25.10
  0 -8 10 620.94  24.30
  0 -8 10 644.24  21.50
  0 -8 10 643.24  21.30
  0 -8 10 640.94  22.90
  0 -8 10 630.14  22.20
  0 -8 10 621.34  21.30
  0 -8 10 651.53  20.90
 -1  8 -10  26.30  2.60
 -1  8 -10  26.50  4.30
 -1  8 -10  14.70  2.60
 -1  8 -10  17.50  2.40
  1 -8 10  21.30  5.00
  1 -8 10  18.70  2.60
  1 -8 10  31.00  4.30
  1 -8 10  23.60  3.20
 -2  8 -10 2768.72  87.19
 -2  8 -10 2736.13  87.29
 -2  8 -10 2799.82  88.09
 -2  8 -10 2849.61  87.39
 -2  8 -10 2768.62  87.29
  2 -8 10 2762.12  93.29
  2 -8 10 2817.92  88.79
  3  7 -10 961.90  35.20
  3  7 -10 1020.30  40.30
  3  7 -10 976.70  31.10
 -3 -7 10 939.71  30.90
 -3 -7 10 899.51  30.80
  2  7 -10 940.41  31.70
  2  7 -10 964.40  38.80
  2  7 -10 953.20  45.70
 -2 -7 10 995.50  33.70
 -2 -7 10 924.31  32.20
 -2 -7 10 985.00  31.90
 -2 -7 10 968.80  31.40
 -2 -7 10 981.40  31.70
  1  7 -10 1278.57  51.99
  1  7 -10 1234.58  39.00
  1  7 -10 1106.99  46.10
  1  7 -10 1223.08  51.99
  1  7 -10 1132.39  45.60
  1  7 -10 1209.08  38.60
 -1 -7 10 1213.28  38.70
 -1 -7 10 1116.49  39.50
 -1 -7 10 1214.98  39.40
 -1 -7 10 1166.58  38.70
 -1 -7 10 1170.38  38.20
 -1 -7 10 1160.48  38.20
 -1 -7 10 1184.68  40.70
  0  7 -10 106.19  5.10
  0  7 -10 103.49  6.10
  0  7 -10 109.59  6.10
  0  7 -10 100.89  5.50
  0  7 -10  99.09  9.50
  0 -7 10 100.09  9.30
  0 -7 10 102.29  10.40
  0 -7 10 114.59  5.50
  0 -7 10 102.89  7.30
  0 -7 10 111.59  7.10
  0 -7 10 110.59  5.40
  0 -7 10 113.29  5.30
  0 -7 10 111.19  6.60
 -1  7 -10 300.57  10.50
 -1  7 -10 281.67  9.90
 -1  7 -10 283.87  11.40
 -1  7 -10 298.37  12.00
 -1  7 -10 253.77  15.30
 -1  7 -10 285.97  10.20
  1 -7 10 280.37  10.90
  1 -7 10 285.97  12.60
  1 -7 10 273.67  10.60
  1 -7 10 302.17  11.50
  1 -7 10 279.77  12.50
  1 -7 10 266.77  15.10
 -2  7 -10 342.17  12.00
 -2  7 -10 353.66  12.20
 -2  7 -10 341.27  11.80
 -2  7 -10 335.17  12.60
 -2  7 -10 358.96  13.10
 -2  7 -10 344.27  11.90
  2 -7 10 336.67  13.50
  2 -7 10 329.17  16.70
 -3  7 -10 813.52  27.40
 -3  7 -10 836.52  26.60
 -3  7 -10 824.32  26.60
 -3  7 -10 820.62  26.80
 -3  7 -10 832.82  26.50
  3 -7 10 812.62  26.90
  3 -7 10 900.21  33.10
  3  6 -10 502.55  17.10
  3  6 -10 540.25  24.10
  3  6 -10 516.55  27.10
  3  6 -10 506.25  21.30
 -3 -6 10 493.65  16.80
 -3 -6 10 444.26  17.70
  2  6 -10 525.15  24.90
  2  6 -10 550.24  29.70
  2  6 -10 519.85  18.00
  2  6 -10 502.65  31.20
 -2 -6 10 520.45  17.70
 -2 -6 10 539.15  17.90
 -2 -6 10 488.05  20.80
 -2 -6 10 532.45  18.10
 -2 -6 10 463.45  18.50
  1  6 -10  3.20  2.10
  1  6 -10  13.30  8.60
  1  6 -10  5.20  4.80
  1  6 -10  8.80  6.60
 -1 -6 10  7.10  2.50
 -1 -6 10  6.20  3.60
 -1 -6 10  10.40  2.50
 -1 -6 10  4.30  1.80
 -1 -6 10  7.10  2.30
 -1 -6 10  7.70  1.80
 -1 -6 10  5.70  3.00
  0  6 -10 991.90  37.40
  0  6 -10 895.91  31.90
  0  6 -10 1009.80  34.30
  0  6 -10 992.10  31.40
  0 -6 10 941.71  34.40
  0 -6 10 959.00  31.70
  0 -6 10 973.10  31.60
  0 -6 10 977.00  31.30
  0 -6 10 982.80  34.20
  0 -6 10 984.20  32.90
  0 -6 10 972.20  32.50
  0 -6 10 966.50  33.80
  0 -6 10 918.51  33.10
 -1  6 -10 2737.63  89.89
 -1  6 -10 2442.16  84.69
 -1  6 -10 2663.73  83.79
 -1  6 -10 2624.24  84.79
 -1  6 -10 2698.13  83.69
 -1  6 -10 2652.03  83.99
 -1  6 -10 2820.22  85.59
  1 -6 10 2689.33  84.79
  1 -6 10 2700.33  84.29
  1 -6 10 2669.43  85.39
  1 -6 10 2590.84  87.39
  1 -6 10 2764.52  86.19
  1 -6 10 2671.73  84.49
 -2  6 -10 202.58  8.00
 -2  6 -10 197.68  7.40
 -2  6 -10 203.78  7.80
 -2  6 -10 195.58  7.50
 -2  6 -10 196.08  7.50
 -2  6 -10 200.78  8.60
 -2  6 -10 163.68  9.80
  2 -6 10 191.38  12.50
  2 -6 10 197.68  9.00
 -3  6 -10 265.17  9.00
 -3  6 -10 266.07  9.20
 -3  6 -10 258.37  8.90
 -3  6 -10 249.48  9.20
  3 -6 10 258.67  9.30
  3 -6 10 242.98  9.00
  3 -6 10 273.87  15.10
  3 -6 10 262.27  12.80
  3  5 -10  1.10  2.60
  3  5 -10  2.80  5.60
 -3 -5 10  1.30  2.10
  2  5 -10 4457.55 148.49
  2  5 -10 4307.17 158.28
  2  5 -10 4875.61 158.88
  2  5 -10 4488.45 141.39
 -2 -5 10 4584.74 143.09
 -2 -5 10 4387.46 141.39
 -2 -5 10 4544.15 141.19
 -2 -5 10 4485.05 140.99
  1  5 -10 1690.03  62.29
  1  5 -10 1787.92  58.29
  1  5 -10 1653.83  68.99
  1  5 -10 1722.83  56.39
 -1 -5 10 1674.83  55.09
 -1 -5 10 1722.03  55.49
 -1 -5 10 1868.21  56.79
 -1 -5 10 1730.73  55.89
 -1 -5 10 1745.63  57.29
  0  5 -10 4517.05 144.09
  0  5 -10 4489.55 138.99
  0  5 -10 4417.96 138.09
  0  5 -10 4334.47 138.99
  0  5 -10 4516.75 137.69
  0 -5 10 4354.96 138.59
  0 -5 10 4499.65 140.29
  0 -5 10 4311.47 137.69
  0 -5 10 4420.56 140.19
  0 -5 10 4265.27 138.09
  0 -5 10 4459.15 137.99
  0 -5 10 4322.07 137.99
  0 -5 10 4522.35 138.99
 -1  5 -10 112.89  9.30
 -1  5 -10 120.39  7.70
 -1  5 -10 123.59  5.50
 -1  5 -10 123.39  7.70
 -1  5 -10 128.19  6.50
 -1  5 -10 128.79  5.40
 -1  5 -10 124.49  5.70
 -1  5 -10 128.59  5.90
  1 -5 10 117.49  7.00
  1 -5 10 131.29  6.20
  1 -5 10 126.09  7.70
  1 -5 10 130.29  9.50
 -2  5 -10  6.60  1.50
 -2  5 -10  4.20  2.00
 -2  5 -10  10.10  3.20
 -2  5 -10  7.50  1.50
 -2  5 -10  5.30  2.50
  2 -5 10  5.10  4.90
 -3  5 -10 916.11  29.20
 -3  5 -10 902.41  28.80
 -3  5 -10 913.51  28.90
 -3  5 -10 904.21  29.80
 -3  5 -10 859.51  29.30
  3 -5 10 917.61  33.80
  3 -5 10 906.81  36.50
  3 -5 10 892.01  29.10
  3 -5 10 906.71  28.80
  3  4 -10 326.77  12.20
  3  4 -10 327.37  22.80
  3  4 -10 310.67  15.90
  3  4 -10 351.46  21.90
 -3 -4 10 292.87  12.70
 -3 -4 10 324.37  11.40
 -3 -4 10 318.37  11.60
  2  4 -10 425.96  22.10
  2  4 -10 386.46  25.40
  2  4 -10 472.15  30.10
  2  4 -10 448.36  15.90
  2  4 -10 440.76  28.50
 -2 -4 10 436.96  15.80
 -2 -4 10 474.35  17.30
 -2 -4 10 487.75  15.70
 -2 -4 10 437.16  15.60
  1  4 -10 1784.52  71.59
  1  4 -10 1853.61  59.39
  1  4 -10 1835.92  65.99
 -1 -4 10 1882.21  60.19
 -1 -4 10 1865.51  59.39
 -1 -4 10 1935.11  59.29
 -1 -4 10 1911.11  61.19
 -1 -4 10 1839.22  59.09
  0  4 -10 748.23  24.40
  0  4 -10 738.63  31.20
  0  4 -10 745.23  25.80
  0  4 -10 762.72  25.80
  0  4 -10 756.82  24.90
  0 -4 10 769.22  25.40
  0 -4 10 713.93  27.30
  0 -4 10 757.52  25.10
  0 -4 10 743.83  25.70
  0 -4 10 762.32  24.80
  0 -4 10 737.73  24.40
  0 -4 10 733.53  24.70
  0 -4 10 737.53  26.50
  0 -4 10 743.13  24.60
 -1  4 -10 709.93  24.30
 -1  4 -10 705.93  24.20
 -1  4 -10 705.73  23.50
 -1  4 -10 699.93  23.40
 -1  4 -10 703.53  23.20
 -1  4 -10 708.83  28.00
 -1  4 -10 723.53  27.10
 -1  4 -10 702.13  23.10
  1 -4 10 669.33  23.80
  1 -4 10 687.83  26.20
  1 -4 10 723.93  25.70
  1 -4 10 710.23  25.70
 -2  4 -10 1953.60  64.19
 -2  4 -10 2032.80  64.29
 -2  4 -10 1973.90  64.19
 -2  4 -10 1986.20  64.49
 -2  4 -10 2034.20  65.29
  2 -4 10 1984.00  64.69
  2 -4 10 2216.48  68.89
  2 -4 10 2099.29  65.79
 -3  4 -10 268.27  10.20
 -3  4 -10 281.87  9.50
 -3  4 -10 275.17  9.80
 -3  4 -10 279.07  10.60
 -3  4 -10 275.47  9.40
  3 -4 10 263.07  9.40
  3 -4 10 261.27  15.40
  3 -4 10 262.07  9.70
  3  3 -10  28.50  6.20
  3  3 -10  27.00  3.40
  3  3 -10  34.20  11.00
  3  3 -10  32.50  3.00
  3  3 -10  34.80  10.00
 -3 -3 10  31.50  4.40
  2  3 -10 2327.87  86.69
  2  3 -10 2912.71  86.99
  2  3 -10 2708.13  93.49
  2  3 -10 2708.63 101.79
  2  3 -10 2660.23  96.89
  2  3 -10 2842.02 107.29
 -2 -3 10 2825.92  86.59
 -2 -3 10 2964.10  88.49
 -2 -3 10 2762.62  86.79
 -2 -3 10 2789.52  86.59
  1  3 -10  40.50  4.60
  1  3 -10  46.20  11.50
  1  3 -10  44.10  4.90
  1  3 -10  34.10  6.50
 -1 -3 10  55.79  5.40
 -1 -3 10  44.60  3.00
 -1 -3 10  46.10  3.40
 -1 -3 10  40.60  3.80
 -1 -3 10  41.50  3.30
  0  3 -10 1083.99  35.60
  0  3 -10 1131.09  40.70
  0  3 -10 1126.09  36.50
  0  3 -10 1094.49  36.00
  0  3 -10 1110.29  37.00
  0  3 -10 1095.19  37.00
  0 -3 10 1130.59  36.40
  0 -3 10 1116.39  35.90
  0 -3 10 1112.69  35.50
  0 -3 10 1087.29  35.80
  0 -3 10 1129.69  35.80
  0 -3 10 1112.39  37.60
  0 -3 10 1113.49  38.20
  0 -3 10 1099.29  36.70
  0 -3 10 1092.89  36.20
 -1  3 -10 991.80  33.30
 -1  3 -10 1029.20  37.20
 -1  3 -10 1022.90  33.80
 -1  3 -10 1002.80  32.80
 -1  3 -10 992.90  34.30
 -1  3 -10 1034.40  32.80
  1 -3 10 1000.10  33.70
  1 -3 10 961.40  33.40
 -2  3 -10 841.52  28.40
 -2  3 -10 861.11  28.70
 -2  3 -10 860.41  28.40
 -2  3 -10 901.81  30.80
 -2  3 -10 890.61  28.40
 -2  3 -10 815.92  30.40
  2 -3 10 888.31  29.70
  2 -3 10 872.21  28.80
  2 -3 10 940.81  33.50
  2 -3 10 853.21  39.10
 -3  3 -10 1121.29  35.50
 -3  3 -10 1099.69  36.40
 -3  3 -10 1122.39  35.80
 -3  3 -10 1104.69  35.30
 -3  3 -10 1091.59  35.80
  3 -3 10 1108.79  35.20
  3 -3 10 1080.39  35.50
  3 -3 10 1093.99  42.80
  3 -3 10 1181.48  37.70
  3  2 -10 460.75  22.80
  3  2 -10 502.25  16.90
  3  2 -10 466.85  30.20
  3  2 -10 477.55  16.60
  3  2 -10 460.15  26.20
 -3 -2 10 492.65  16.20
 -3 -2 10 488.15  16.40
 -3 -2 10 487.35  17.50
  2  2 -10  71.59  13.00
  2  2 -10  78.29  5.90
  2  2 -10  73.69  11.50
  2  2 -10  76.29  4.80
  2  2 -10  73.99  15.30
  2  2 -10  85.39  6.30
 -2 -2 10  84.19  4.30
 -2 -2 10  85.79  4.60
 -2 -2 10  74.49  4.90
  1  2 -10 211.98  9.20
  1  2 -10 197.28  13.00
  1  2 -10 215.98  9.40
  1  2 -10 217.18  10.00
  1  2 -10 193.68  17.90
 -1 -2 10 211.38  8.60
 -1 -2 10 205.78  9.60
 -1 -2 10 217.28  8.20
 -1 -2 10 219.28  8.10
 -1 -2 10 216.08  8.30
  0  2 -10 1031.90  39.00
  0  2 -10 1129.19  36.10
  0  2 -10 1071.79  36.10
  0  2 -10 1101.99  35.50
  0  2 -10 1047.30  34.60
  0 -2 10 1073.99  37.00
  0 -2 10 1059.59  38.50
  0 -2 10 1087.39  35.20
  0 -2 10 1086.19  34.80
  0 -2 10 1075.99  34.50
  0 -2 10 1071.69  34.70
  0 -2 10 1090.09  35.70
 -1  2 -10 3575.74 112.39
 -1  2 -10 3439.36 112.69
 -1  2 -10 3496.45 112.29
 -1  2 -10 3592.24 112.49
 -1  2 -10 3702.03 117.29
 -1  2 -10 3626.74 113.99
 -1  2 -10 3592.74 113.49
 -1  2 -10 3459.25 111.89
 -1  2 -10 3566.14 112.99
  1 -2 10 3596.24 112.79
  1 -2 10 3633.84 115.69
  1 -2 10 3532.25 112.89
  1 -2 10 3669.43 114.49
  1 -2 10 3736.03 113.99
 -2  2 -10 129.99  6.40
 -2  2 -10 127.29  6.20
 -2  2 -10 133.89  5.60
 -2  2 -10 120.19  7.20
 -2  2 -10 122.99  5.50
 -2  2 -10 124.79  7.10
 -2  2 -10 129.99  6.10
  2 -2 10 131.29  12.90
  2 -2 10 127.69  6.20
  2 -2 10 142.09  10.30
  2 -2 10 129.69  6.70
 -3  2 -10 262.37  9.30
 -3  2 -10 275.27  9.60
 -3  2 -10 258.77  9.70
 -3  2 -10 268.37  10.10
 -3  2 -10 273.67  10.70
  3 -2 10 268.17  15.00
  3 -2 10 262.57  9.50
  3 -2 10 292.07  12.20
  3  1 -10 666.53  32.60
  3  1 -10 774.82  26.50
  3  1 -10 622.24  37.60
  3  1 -10 687.83  29.60
  3  1 -10 701.33  23.20
 -3 -1 10 684.23  24.00
 -3 -1 10 708.23  23.00
 -3 -1 10 723.43  22.80
  2  1 -10 454.65  33.10
  2  1 -10 478.85  25.40
  2  1 -10 548.15  18.80
  2  1 -10 502.35  28.70
  2  1 -10 542.65  19.20
  2  1 -10 517.45  17.90
 -2 -1 10 514.65  17.60
 -2 -1 10 552.34  19.20
 -2 -1 10 497.05  18.80
 -2 -1 10 515.95  17.80
 -2 -1 10 549.95  17.60
  1  1 -10 4160.88 146.39
  1  1 -10 4135.89 135.09
  1  1 -10 4465.45 135.89
  1  1 -10 4500.85 136.49
 -1 -1 10 4319.57 135.09
 -1 -1 10 4202.88 134.99
 -1 -1 10 4237.58 134.79
 -1 -1 10 4372.26 136.69
 -1 -1 10 4472.95 135.69
  0  1 -10 1485.75  52.69
  0  1 -10 1533.25  49.00
  0  1 -10 1439.66  49.00
  0  1 -10 1572.24  49.50
  0  1 -10 1522.65  48.00
  0  1 -10 1507.55  49.60
  0 -1 10 1509.75  48.90
  0 -1 10 1515.95  48.60
  0 -1 10 1493.95  48.00
  0 -1 10 1504.45  47.80
  0 -1 10 1512.05  49.99
  0 -1 10 1531.25  48.10
 -1  1 -10  5.00  2.40
 -1  1 -10  6.90  1.90
 -1  1 -10  4.20  2.10
 -1  1 -10  4.50  2.10
 -1  1 -10  13.70  4.30
 -1  1 -10  1.70  2.50
  1 -1 10  5.10  3.20
  1 -1 10  6.80  2.70
 -2  1 -10 504.85  17.10
 -2  1 -10 486.65  16.60
 -2  1 -10 498.45  16.70
 -2  1 -10 460.05  18.70
  2 -1 10 481.75  16.90
  2 -1 10 489.35  25.60
  2 -1 10 505.05  17.80
  2 -1 10 503.45  21.50
 -3  1 -10  16.00  2.00
 -3  1 -10  11.90  2.50
 -3  1 -10  11.50  2.00
  3 -1 10  12.20  2.30
  3 -1 10  10.40  4.60
  3 -1 10  16.50  4.30
  3  0 -10 1866.21  57.29
  3  0 -10 1697.13  67.89
  3  0 -10 1811.22  56.19
  3  0 -10 1646.94  73.09
 -3  0 10 1789.32  55.79
 -3  0 10 1782.42  55.89
 -3  0 10 1767.12  57.09
  2  0 -10 1909.11  58.59
  2  0 -10 1768.02  69.49
  2  0 -10 1911.71  59.29
  2  0 -10 1724.23  65.79
  2  0 -10 1676.03  76.39
  2  0 -10 1796.62  57.59
  2  0 -10 2000.10  58.69
 -2  0 10 1818.72  58.89
 -2  0 10 1759.12  57.49
 -2  0 10 1792.12  57.29
 -2  0 10 1798.52  57.29
 -2  0 10 1737.13  57.99
  1  0 -10 240.58  11.10
  1  0 -10 225.18  10.00
 -1  0 10 211.08  9.50
 -1  0 10 215.78  8.50
 -1  0 10 211.58  8.30
 -1  0 10 211.98  8.90
 -1  0 10 238.28  9.70
  0  0 -10 1519.65  50.79
  0  0 -10 1572.24  50.39
  0  0 -10 1630.54  49.40
  0  0 -10 1546.75  54.09
  0  0 -10 1552.54  51.09
  0  0 -10 1516.75  49.70
  0  0 -10 1574.84  50.49
  0  0 10 1546.45  49.40
  0  0 10 1542.45  49.80
  0  0 10 1517.25  51.19
  0  0 10 1570.34  50.19
  0  0 10 1559.94  49.10
  0  0 10 1557.34  49.30
 -1  0 -10 127.69  6.80
 -1  0 -10 115.29  9.00
 -1  0 -10 118.79  5.50
 -1  0 -10 121.39  7.10
 -1  0 -10 120.49  5.80
 -1  0 -10 119.49  5.80
 -1  0 -10 119.39  6.10
 -1  0 -10 122.39  5.50
  1  0 10 119.19  6.00
  1  0 10 121.69  8.00
  1  0 10 120.89  7.40
 -2  0 -10 2989.90  92.79
 -2  0 -10 2905.71  97.09
 -2  0 -10 2935.31  93.19
 -2  0 -10 3016.00  94.29
 -2  0 -10 2961.60  93.29
 -2  0 -10 2885.81  92.89
  2  0 10 3085.69  93.89
  2  0 10 3043.70  97.89
  2  0 10 2952.30 102.89
  2  0 10 2828.92  92.79
 -3  0 -10 397.86  14.30
 -3  0 -10 401.56  15.00
 -3  0 -10 416.06  13.70
 -3  0 -10 402.86  13.60
 -3  0 -10 402.56  14.00
  3  0 10 403.56  18.40
  3  0 10 419.76  14.00
  3  0 10 432.26  16.50
  3  0 10 398.86  13.50
  3 -1 -10 301.57  18.70
  3 -1 -10 323.67  11.50
  3 -1 -10 300.07  10.90
  3 -1 -10 311.17  12.30
  3 -1 -10 269.97  22.00
 -3  1 10 301.27  10.60
 -3  1 10 288.17  11.90
 -3  1 10 300.27  10.80
  2 -1 -10 2457.95  75.09
  2 -1 -10 2310.07  92.89
  2 -1 -10 2202.88  82.09
  2 -1 -10 2290.77  73.79
  2 -1 -10 2482.65  75.89
  2 -1 -10 2296.77  85.39
 -2  1 10 2376.06  73.79
 -2  1 10 2346.57  73.59
 -2  1 10 2248.58  73.39
 -2  1 10 2353.66  75.29
 -2  1 10 2333.97  74.29
  1 -1 -10 220.08  10.10
  1 -1 -10 187.48  16.40
  1 -1 -10 225.18  11.00
 -1  1 10 241.38  8.30
 -1  1 10 222.48  9.50
 -1  1 10 234.48  9.70
 -1  1 10 215.18  8.40
 -1  1 10 210.18  8.20
 -1  1 10 217.98  9.00
  0 -1 -10 1217.98  39.00
  0 -1 -10 1250.57  40.70
  0 -1 -10 1209.48  39.90
  0 -1 -10 1189.78  40.10
  0 -1 -10 1234.88  40.80
  0 -1 -10 1189.58  38.70
  0  1 10 1223.88  38.90
  0  1 10 1227.88  39.70
  0  1 10 1230.18  39.50
  0  1 10 1177.88  38.80
  0  1 10 1216.08  40.70
  0  1 10 1216.88  38.60
  0  1 10 1208.68  39.70
 -1 -1 -10 2388.56  78.09
 -1 -1 -10 2393.56  78.49
 -1 -1 -10 2483.05  77.29
 -1 -1 -10 2466.05  76.89
 -1 -1 -10 2450.15  76.89
 -1 -1 -10 2375.36  76.99
  1  1 10 2488.85  79.69
  1  1 10 2529.55  78.39
  1  1 10 2420.06  77.79
  1  1 10 2435.56  77.29
 -2 -1 -10 784.22  26.20
 -2 -1 -10 777.42  25.90
 -2 -1 -10 802.62  25.90
 -2 -1 -10 815.52  26.40
 -2 -1 -10 800.32  27.30
 -2 -1 -10 745.33  27.80
  2  1 10 795.52  30.10
  2  1 10 768.52  34.10
  2  1 10 811.32  26.80
 -3 -1 -10 1508.35  46.50
 -3 -1 -10 1444.36  47.60
 -3 -1 -10 1392.06  46.90
 -3 -1 -10 1445.26  47.90
 -3 -1 -10 1457.95  46.40
  3  1 10 1504.15  49.00
  3  1 10 1486.75  50.69
  3  1 10 1543.35  46.60
  3 -2 -10 1056.29  32.30
  3 -2 -10 951.00  38.80
  3 -2 -10 894.21  51.49
 -3  2 10 1000.70  31.30
 -3  2 10 981.50  31.40
 -3  2 10 991.10  31.40
 -3  2 10 938.91  32.60
  2 -2 -10  33.90  10.80
  2 -2 -10  53.49  5.60
  2 -2 -10  44.60  3.90
  2 -2 -10  47.10  12.00
  2 -2 -10  51.29  5.30
 -2  2 10  52.19  4.10
 -2  2 10  39.60  5.00
 -2  2 10  51.09  3.30
 -2  2 10  50.29  3.10
 -2  2 10  44.80  3.90
 -2  2 10  48.80  3.20
  1 -2 -10 244.78  15.20
  1 -2 -10 283.47  12.60
 -1  2 10 283.07  11.30
 -1  2 10 266.37  9.90
 -1  2 10 270.47  11.30
 -1  2 10 274.67  9.80
 -1  2 10 260.27  11.00
 -1  2 10 277.57  10.00
  0 -2 -10 355.26  14.30
  0 -2 -10 335.27  12.30
  0 -2 -10 365.06  14.10
  0 -2 -10 354.66  14.50
  0 -2 -10 351.46  13.60
  0 -2 -10 347.57  12.50
  0  2 10 351.96  13.20
  0  2 10 360.56  13.00
  0  2 10 361.96  13.30
  0  2 10 345.07  14.30
  0  2 10 349.47  12.30
  0  2 10 353.06  12.00
 -1 -2 -10 252.37  10.40
 -1 -2 -10 252.37  9.40
 -1 -2 -10 250.37  11.10
 -1 -2 -10 253.27  13.10
 -1 -2 -10 240.18  11.50
 -1 -2 -10 245.98  9.90
 -1 -2 -10 267.17  10.10
 -1 -2 -10 254.67  9.50
  1  2 10 249.88  10.50
  1  2 10 254.87  12.50
  1  2 10 254.47  10.70
  1  2 10 243.78  10.00
 -2 -2 -10 1299.97  41.10
 -2 -2 -10 1231.48  40.60
 -2 -2 -10 1223.18  42.70
 -2 -2 -10 1318.07  42.20
 -2 -2 -10 1283.07  40.60
 -2 -2 -10 1278.27  41.00
  2  2 10 1276.47  44.60
  2  2 10 1199.58  47.40
  2  2 10 1294.57  41.30
 -3 -2 -10 442.96  15.80
 -3 -2 -10 478.85  15.40
 -3 -2 -10 466.15  15.70
 -3 -2 -10 477.55  15.70
  3  2 10 478.45  17.30
  3  2 10 432.76  18.00
  3  2 10 479.15  15.40
  3 -3 -10  4.60  1.60
  3 -3 -10  5.90  5.90
  3 -3 -10  5.90  2.50
  3 -3 -10  3.50  4.90
  3 -3 -10  0.80  2.40
 -3  3 10  4.00  1.60
 -3  3 10  2.50  1.40
 -3  3 10  2.50  2.40
 -3  3 10  7.70  1.80
  2 -3 -10 219.48  8.80
  2 -3 -10 216.68  19.00
  2 -3 -10 236.28  11.00
  2 -3 -10 227.68  10.50
 -2  3 10 232.88  8.50
 -2  3 10 241.78  8.70
 -2  3 10 234.78  10.00
 -2  3 10 222.68  9.40
 -2  3 10 234.38  8.80
 -2  3 10 222.98  9.40
  1 -3 -10 2099.39  82.19
  1 -3 -10 2216.98  70.19
  1 -3 -10 2260.77  70.19
 -1  3 10 2154.18  68.49
 -1  3 10 2151.48  68.99
 -1  3 10 2145.09  68.89
 -1  3 10 2189.88  70.09
 -1  3 10 2136.79  68.29
 -1  3 10 2131.39  68.09
  0 -3 -10 1011.20  35.90
  0 -3 -10 1079.19  36.80
  0 -3 -10 1025.10  33.50
  0 -3 -10 1033.50  35.50
  0 -3 -10 1049.79  35.00
  0 -3 -10 1063.79  34.10
  0 -3 -10 1056.19  34.40
  0  3 10 1022.60  33.50
  0  3 10 1046.40  33.30
  0  3 10 1054.29  34.40
  0  3 10 1055.09  34.70
 -1 -3 -10  50.39  4.20
 -1 -3 -10  50.49  5.00
 -1 -3 -10  53.29  3.40
 -1 -3 -10  54.29  4.60
 -1 -3 -10  50.39  8.00
 -1 -3 -10  42.20  6.20
 -1 -3 -10  61.49  3.60
 -1 -3 -10  50.79  7.30
 -1 -3 -10  44.30  4.10
  1  3 10  47.10  4.70
  1  3 10  50.49  4.50
  1  3 10  62.89  4.60
  1  3 10  59.49  7.20
 -2 -3 -10 142.79  6.50
 -2 -3 -10 142.99  6.50
 -2 -3 -10 144.09  5.90
 -2 -3 -10 160.08  6.30
 -2 -3 -10 141.09  5.90
 -2 -3 -10 123.69  8.40
 -2 -3 -10 146.29  8.20
  2  3 10 134.39  6.40
  2  3 10 124.99  20.60
  2  3 10 134.39  8.60
  3 -4 -10 1601.24  50.49
  3 -4 -10 1614.64  56.39
  3 -4 -10 1612.14  51.29
  3 -4 -10 1443.86  57.89
  3 -4 -10 1547.55  49.50
 -3  4 10 1541.55  49.50
 -3  4 10 1562.94  49.50
 -3  4 10 1599.44  49.40
  2 -4 -10 1545.75  51.19
  2 -4 -10 1685.03  53.69
  2 -4 -10 1670.83  61.49
  2 -4 -10 1493.35  63.49
  2 -4 -10 1685.93  53.09
 -2  4 10 1599.34  53.19
 -2  4 10 1658.73  51.29
 -2  4 10 1557.04  51.69
 -2  4 10 1614.14  51.69
 -2  4 10 1621.34  51.09
  1 -4 -10 3070.79  94.19
  1 -4 -10 2781.02 104.99
  1 -4 -10 2924.81  93.69
 -1  4 10 2923.71  91.79
 -1  4 10 2909.31  92.89
 -1  4 10 2951.60  92.09
 -1  4 10 2927.81  91.99
 -1  4 10 2922.51  92.79
 -1  4 10 2967.80  93.89
 -1  4 10 2965.20  92.69
  0 -4 -10 1562.14  50.69
  0 -4 -10 1572.64  49.60
  0 -4 -10 1489.15  51.49
  0 -4 -10 1512.35  51.49
  0 -4 -10 1570.74  51.59
  0 -4 -10 1550.24  50.29
  0  4 10 1563.54  49.30
  0  4 10 1546.05  51.89
  0  4 10 1550.74  48.90
  0  4 10 1571.54  50.39
  0  4 10 1568.34  49.99
  0  4 10 1578.04  50.99
 -1 -4 -10 795.02  28.50
 -1 -4 -10 789.22  29.50
 -1 -4 -10 819.62  27.70
 -1 -4 -10 824.42  26.90
 -1 -4 -10 811.02  27.20
 -1 -4 -10 823.92  26.80
  1  4 10 843.42  27.90
 -2 -4 -10 787.02  35.70
 -2 -4 -10 814.72  27.80
 -2 -4 -10 815.82  28.90
 -2 -4 -10 851.41  28.20
 -2 -4 -10 848.72  27.30
 -2 -4 -10 823.12  27.80
 -2 -4 -10 850.01  27.70
  2  4 10 822.02  27.60
  2  4 10 908.61  42.30
  2  4 10 860.11  31.40
  3 -5 -10 345.37  12.60
  3 -5 -10 352.16  17.40
  3 -5 -10 324.17  18.00
  3 -5 -10 351.16  13.10
 -3  5 10 349.87  11.60
 -3  5 10 345.87  11.80
 -3  5 10 341.87  11.70
 -3  5 10 338.87  11.60
  2 -5 -10 278.17  20.30
  2 -5 -10 308.97  19.10
  2 -5 -10 289.57  12.40
  2 -5 -10 285.17  10.70
  2 -5 -10 313.07  12.70
 -2  5 10 295.47  11.60
 -2  5 10 313.87  10.80
 -2  5 10 299.17  11.20
 -2  5 10 313.77  10.80
 -2  5 10 301.77  10.50
 -2  5 10 290.87  12.20
  1 -5 -10 498.35  18.90
 -1  5 10 495.85  17.60
 -1  5 10 491.05  17.30
 -1  5 10 508.75  16.80
 -1  5 10 485.85  18.60
 -1  5 10 493.65  16.40
 -1  5 10 487.45  16.70
  0 -5 -10  32.90  5.50
  0 -5 -10  40.60  7.50
  0 -5 -10  32.90  4.00
  0 -5 -10  35.30  3.50
  0 -5 -10  32.10  3.90
  0 -5 -10  40.00  7.80
  0  5 10  33.00  2.40
  0  5 10  29.70  6.50
  0  5 10  36.10  3.80
  0  5 10  38.30  3.00
  0  5 10  31.20  4.50
  0  5 10  31.40  3.70
 -1 -5 -10 1895.51  58.79
 -1 -5 -10 1816.72  58.29
 -1 -5 -10 1807.52  60.99
 -1 -5 -10 1797.62  59.39
 -1 -5 -10 1837.72  60.19
 -1 -5 -10 1860.81  58.49
  1  5 10 1877.51  59.39
 -2 -5 -10 443.36  15.60
 -2 -5 -10 466.65  15.40
 -2 -5 -10 447.46  16.00
 -2 -5 -10 451.55  15.30
 -2 -5 -10 438.66  16.20
  2  5 10 453.15  15.50
  2  5 10 473.45  26.80
  2  5 10 452.35  15.50
  2  5 10 458.15  17.70
  3 -6 -10 499.85  21.10
  3 -6 -10 489.55  16.50
  3 -6 -10 488.75  16.80
 -3  6 10 489.05  15.70
 -3  6 10 479.25  16.00
 -3  6 10 458.15  15.90
 -3  6 10 465.55  16.00
  2 -6 -10  20.10  3.20
  2 -6 -10  17.50  7.30
  2 -6 -10  15.30  3.30
  2 -6 -10  17.20  3.50
 -2  6 10  19.10  2.90
 -2  6 10  17.00  4.20
 -2  6 10  21.60  2.40
 -2  6 10  19.90  2.20
 -2  6 10  20.40  2.20
 -2  6 10  17.60  1.90
  1 -6 -10 131.49  7.70
 -1  6 10 137.39  5.50
 -1  6 10 127.49  5.10
 -1  6 10 129.19  5.90
 -1  6 10 129.49  6.40
 -1  6 10 131.89  6.10
 -1  6 10 128.49  5.40
  0 -6 -10 580.34  22.10
  0 -6 -10 585.64  21.00
  0 -6 -10 588.84  19.90
  0 -6 -10 589.54  19.80
  0  6 10 598.34  21.00
  0  6 10 581.34  19.50
  0  6 10 596.94  20.00
  0  6 10 588.04  20.60
 -1 -6 -10 1075.69  34.30
 -1 -6 -10 1072.39  34.20
 -1 -6 -10 1046.80  34.90
 -1 -6 -10 1065.09  39.20
 -1 -6 -10 1037.10  33.80
  1  6 10 1013.90  36.40
  1  6 10 1055.79  34.80
 -2 -6 -10 822.62  27.00
 -2 -6 -10 810.32  26.70
 -2 -6 -10 819.42  26.40
 -2 -6 -10 819.72  26.50
  2  6 10 826.22  26.60
  2  6 10 811.62  28.30
  2  6 10 814.72  26.50
  2  6 10 842.62  37.50
  3 -7 -10 520.85  17.50
  3 -7 -10 515.15  17.40
 -3  7 10 517.35  16.90
 -3  7 10 527.85  17.00
 -3  7 10 540.85  16.80
  2 -7 -10 166.08  8.10
  2 -7 -10 182.78  7.90
  2 -7 -10 178.28  13.40
  2 -7 -10 183.48  8.10
 -2  7 10 184.48  6.80
 -2  7 10 181.98  7.00
 -2  7 10 182.28  6.80
 -2  7 10 185.28  6.60
 -2  7 10 168.28  7.00
  1 -7 -10 753.02  26.60
 -1  7 10 755.42  24.30
 -1  7 10 749.33  23.90
 -1  7 10 745.13  24.70
 -1  7 10 721.83  24.10
  0 -7 -10 2080.39  68.39
  0 -7 -10 2144.49  66.19
  0 -7 -10 1976.90  67.09
  0 -7 -10 2156.98  66.09
  0  7 10 2065.69  65.79
  0  7 10 2107.99  67.19
  0  7 10 2115.59  66.09
 -1 -7 -10 196.18  7.60
 -1 -7 -10 193.28  8.30
 -1 -7 -10 197.28  7.20
 -1 -7 -10 203.38  7.50
  1  7 10 183.38  8.00
  1  7 10 193.28  9.80
  1  7 10 194.68  7.60
 -2 -7 -10  49.00  2.60
 -2 -7 -10  48.10  2.50
 -2 -7 -10  49.90  3.30
 -2 -7 -10  52.59  2.60
  2  7 10  41.30  2.70
  2  7 10  51.29  2.70
  2  7 10  47.20  7.30
  2  7 10  47.10  4.20
  2 -8 -10 739.83  24.50
  2 -8 -10 757.52  31.00
  2 -8 -10 724.23  24.60
  2 -8 -10 737.93  24.80
 -2  8 10 743.33  23.40
 -2  8 10 690.23  23.90
 -2  8 10 752.12  23.90
 -2  8 10 729.63  23.60
 -2  8 10 729.23  23.60
  1 -8 -10 1322.67  44.00
 -1  8 10 1379.26  42.50
 -1  8 10 1355.16  44.10
 -1  8 10 1356.26  44.70
  0 -8 -10 653.83  21.30
  0 -8 -10 616.94  23.30
  0 -8 -10 656.53  21.40
  0  8 10 624.84  22.10
  0  8 10 664.53  21.20
  0  8 10 657.53  21.20
 -1 -8 -10 221.58  7.80
 -1 -8 -10 226.28  8.20
 -1 -8 -10 224.98  8.20
 -1 -8 -10 225.78  9.00
  1  8 10 223.28  8.50
  1  8 10 230.28  8.30
  1  8 10 230.68  17.20
  2 -9 -10 2226.28  70.89
  2 -9 -10 2341.87  71.19
  2 -9 -10 2279.87  76.59
  2 -9 -10 2203.58  70.79
 -2  9 10 2262.77  70.29
 -2  9 10 2260.77  70.69
 -2  9 10 2285.97  70.39
 -2  9 10 2171.38  70.19
 -2  9 10 2235.38  69.99
  1 -9 -10 395.36  19.80
  1 -9 -10 360.86  13.00
  1 -9 -10 349.47  13.70
 -1  9 10 371.56  12.30
 -1  9 10 354.66  12.20
 -1  9 10 348.47  12.50
 -1  9 10 336.37  13.10
  0 -9 -10 277.57  11.60
  0 -9 -10 282.07  10.00
  0 -9 -10 302.57  10.20
  0  9 10 289.67  9.70
  0  9 10 289.57  9.90
  0  9 10 270.77  10.50
 -1 -9 -10 568.44  18.50
 -1 -9 -10 574.94  18.60
  1  9 10 562.54  18.80
  1  9 10 570.84  27.80
  1  9 10 570.94  18.50
  1 -10 -10  31.40  5.70
  1 -10 -10  25.10  2.90
  1 -10 -10  25.40  4.50
  1 -10 -10  27.10  2.60
 -1 10 10  28.90  2.10
 -1 10 10  25.10  1.80
 -1 10 10  21.70  3.60
  0 -10 -10  8.10  1.70
  0 -10 -10  8.30  2.20
  0 -10 -10  9.50  1.70
  0 -10 -10  6.60  2.00
  0 10 10  4.80  1.20
  1 12 -11 1307.37  42.30
  1 12 -11 1353.66  48.20
  1 12 -11 1298.97  45.30
 -1 -12 11 1358.86  42.00
 -1 -12 11 1392.46  42.70
 -1 -12 11 1333.57  42.20
 -1 -12 11 1314.57  42.30
  0 12 -11  71.69  8.10
  0 12 -11  66.79  3.60
  0 12 -11  72.59  4.10
  0 -12 11  84.79  3.60
  0 -12 11  66.59  3.90
  0 -12 11  74.59  3.70
 -1 12 -11  10.70  2.20
  1 -12 11  9.90  3.00
  1 -12 11  10.20  2.10
  1 11 -11 281.77  10.20
  1 11 -11 301.17  17.30
  1 11 -11 261.97  13.70
  1 11 -11 279.37  10.00
 -1 -11 11 262.47  10.70
 -1 -11 11 288.07  10.50
 -1 -11 11 284.37  10.10
 -1 -11 11 281.27  9.90
 -1 -11 11 286.47  9.70
  0 11 -11  52.69  4.00
  0 11 -11  40.00  3.10
  0 -11 11  48.50  3.20
  0 -11 11  49.50  3.10
  0 -11 11  41.70  3.50
  0 -11 11  50.69  2.70
 -1 11 -11 2228.28  69.49
 -1 11 -11 2177.98  69.09
 -1 11 -11 2230.78  70.29
  1 -11 11 2198.98  70.69
  1 -11 11 2232.28  69.69
  2 10 -11  53.59  3.30
  2 10 -11  47.20  5.60
  2 10 -11  56.39  7.70
 -2 -10 11  56.29  3.30
 -2 -10 11  53.19  4.30
 -2 -10 11  52.39  4.10
 -2 -10 11  55.79  2.90
  1 10 -11 1944.01  60.89
  1 10 -11 1990.40  71.69
  1 10 -11 1945.01  61.09
  1 10 -11 1932.01  66.29
 -1 -10 11 1918.41  61.49
 -1 -10 11 1916.21  60.69
 -1 -10 11 1904.41  60.59
 -1 -10 11 1853.51  60.99
 -1 -10 11 1913.31  60.99
  0 10 -11 3591.14 107.09
  0 10 -11 3369.46 107.79
  0 -10 11 3456.95 107.89
  0 -10 11 3378.76 107.09
  0 -10 11 3305.17 107.59
 -1 10 -11 637.24  22.10
 -1 10 -11 670.73  21.30
 -1 10 -11 641.94  20.90
  1 -10 11 649.74  21.40
  1 -10 11 635.34  22.70
  1 -10 11 634.94  21.60
 -2 10 -11 137.59  5.20
 -2 10 -11 128.49  4.80
  2 -10 11 132.79  9.40
  2 -10 11 121.99  5.60
  2 -10 11 130.69  8.00
  2 -10 11 125.99  5.40
  2  9 -11 1061.49  42.10
  2  9 -11 1004.00  32.70
  2  9 -11 965.90  36.70
 -2 -9 11 985.20  32.80
 -2 -9 11 1016.40  32.80
 -2 -9 11 1017.00  32.80
 -2 -9 11 1039.20  32.50
  1  9 -11 419.36  24.10
  1  9 -11 401.36  20.20
  1  9 -11 413.66  14.70
  1  9 -11 401.96  14.40
 -1 -9 11 396.76  14.10
 -1 -9 11 432.26  14.60
 -1 -9 11 382.76  16.80
 -1 -9 11 408.76  14.10
 -1 -9 11 417.46  14.50
 -1 -9 11 425.46  15.20
  0  9 -11 1384.16  45.90
  0  9 -11 1386.56  45.00
  0 -9 11 1427.76  45.40
  0 -9 11 1386.06  47.20
  0 -9 11 1435.76  44.70
  0 -9 11 1412.76  46.00
  0 -9 11 1404.46  45.10
  0 -9 11 1427.86  45.00
 -1  9 -11  5.20  2.80
 -1  9 -11  8.50  1.40
  1 -9 11  6.20  3.00
  1 -9 11  4.00  2.30
  1 -9 11  5.70  2.20
 -2  9 -11  71.29  5.70
 -2  9 -11  66.39  3.10
 -2  9 -11  73.39  3.70
  2 -9 11  64.69  4.00
  2 -9 11  75.49  4.10
  2 -9 11  66.39  7.70
  2 -9 11  73.09  7.00
  2  8 -11 1354.26  43.20
  2  8 -11 1306.97  47.90
  2  8 -11 1416.16  54.99
 -2 -8 11 1405.56  42.90
 -2 -8 11 1319.47  43.30
 -2 -8 11 1358.26  43.20
 -2 -8 11 1363.86  43.30
 -2 -8 11 1252.37  45.10
  1  8 -11 1905.41  61.29
  1  8 -11 1958.90  61.79
  1  8 -11 1934.51  73.99
 -1 -8 11 1890.01  60.99
 -1 -8 11 1931.21  61.49
 -1 -8 11 1929.41  63.79
 -1 -8 11 1904.91  60.99
 -1 -8 11 1933.41  61.39
 -1 -8 11 1979.90  62.09
  0  8 -11 130.99  6.60
  0  8 -11 136.29  6.80
  0  8 -11 131.99  6.20
  0 -8 11 138.39  6.20
  0 -8 11 142.99  7.10
  0 -8 11 144.99  9.70
  0 -8 11 140.39  6.00
  0 -8 11 135.49  5.60
 -1  8 -11  65.29  3.50
 -1  8 -11  64.29  5.10
 -1  8 -11  63.39  3.80
  1 -8 11  59.69  4.90
  1 -8 11  59.19  4.00
  1 -8 11  63.69  5.60
 -2  8 -11  14.10  1.70
 -2  8 -11  16.80  2.40
 -2  8 -11  20.70  3.70
 -2  8 -11  15.60  2.00
  2 -8 11  18.90  6.00
  2 -8 11  16.00  4.80
  2 -8 11  16.40  2.60
  2 -8 11  16.40  2.70
  3  7 -11 2523.35  78.89
  3  7 -11 2526.55  81.79
  3  7 -11 2556.34  86.09
 -3 -7 11 2536.15  78.59
 -3 -7 11 2470.05  78.89
  2  7 -11 423.56  15.20
  2  7 -11 398.16  19.80
  2  7 -11 416.66  25.50
  2  7 -11 465.85  24.90
 -2 -7 11 451.35  15.30
 -2 -7 11 437.56  17.20
 -2 -7 11 433.16  15.80
 -2 -7 11 466.75  15.10
 -2 -7 11 438.66  15.40
  1  7 -11  1.10  1.90
  1  7 -11  6.60  2.10
  1  7 -11  2.90  7.00
 -1 -7 11  2.40  2.60
 -1 -7 11  0.30  2.30
 -1 -7 11  4.00  1.40
 -1 -7 11  5.80  2.30
  0  7 -11  15.10  2.60
  0  7 -11  11.60  2.00
  0 -7 11  8.70  2.20
  0 -7 11  10.50  4.70
  0 -7 11  5.60  2.30
  0 -7 11  9.90  1.70
  0 -7 11  10.20  2.10
 -1  7 -11 1616.54  50.69
 -1  7 -11 1609.64  50.99
 -1  7 -11 1631.74  51.99
 -1  7 -11 1640.74  52.29
  1 -7 11 1574.14  51.59
  1 -7 11 1564.24  51.29
  1 -7 11 1557.94  52.69
 -2  7 -11 506.25  16.50
 -2  7 -11 508.25  16.90
 -2  7 -11 474.25  16.80
 -2  7 -11 519.05  16.80
 -2  7 -11 489.05  17.80
  2 -7 11 543.35  26.00
  2 -7 11 496.85  17.20
  2 -7 11 489.85  18.00
  2 -7 11 497.65  21.00
  3  6 -11 310.77  14.20
  3  6 -11 323.97  11.30
  3  6 -11 326.67  18.40
  3  6 -11 342.07  17.00
 -3 -6 11 331.67  11.20
 -3 -6 11 320.57  11.40
  2  6 -11  81.49  4.50
  2  6 -11  73.69  11.10
  2  6 -11  79.29  12.40
 -2 -6 11  77.09  4.40
 -2 -6 11  76.49  5.80
 -2 -6 11  80.89  4.50
 -2 -6 11  72.49  6.80
 -2 -6 11  74.79  4.10
  1  6 -11 5553.34 180.18
  1  6 -11 4978.40 177.48
  1  6 -11 5206.68 164.48
  1  6 -11 5313.67 165.18
  1  6 -11 5934.71 183.48
 -1 -6 11 5240.48 166.88
 -1 -6 11 5215.08 164.18
 -1 -6 11 5508.35 165.48
 -1 -6 11 5007.40 164.68
 -1 -6 11 4946.31 164.18
 -1 -6 11 5110.99 164.58
  0  6 -11 501.35  23.70
  0  6 -11 515.15  17.80
  0  6 -11 507.95  18.60
  0  6 -11 518.65  17.30
  0 -6 11 522.45  17.80
  0 -6 11 504.75  19.20
  0 -6 11 532.05  20.40
  0 -6 11 494.55  17.60
  0 -6 11 512.45  17.30
  0 -6 11 523.35  18.10
  0 -6 11 535.05  18.70
  0 -6 11 521.55  17.70
 -1  6 -11 2342.57  72.49
 -1  6 -11 2209.48  73.89
 -1  6 -11 2277.17  72.69
 -1  6 -11 2360.06  74.19
 -1  6 -11 2322.07  72.19
  1 -6 11 2279.27  73.09
  1 -6 11 2316.77  74.49
  1 -6 11 2327.17  73.39
 -2  6 -11 1016.50  34.30
 -2  6 -11 1093.79  34.20
 -2  6 -11 1063.99  34.30
 -2  6 -11 1052.49  35.20
  2 -6 11 1053.29  34.70
  2 -6 11 1077.49  38.50
  2 -6 11 1112.49  44.80
  2 -6 11 1043.20  35.60
  3  5 -11  13.80  6.70
  3  5 -11  13.80  6.40
  3  5 -11  12.80  4.70
  3  5 -11  14.00  2.50
 -3 -5 11  14.80  3.20
 -3 -5 11  13.20  2.90
 -3 -5 11  15.40  2.80
  2  5 -11 337.07  23.50
  2  5 -11 336.87  18.40
  2  5 -11 386.26  24.70
  2  5 -11 372.46  13.20
 -2 -5 11 352.46  14.50
 -2 -5 11 363.66  12.90
 -2 -5 11 391.26  13.20
 -2 -5 11 346.07  13.80
 -2 -5 11 353.96  12.70
  1  5 -11  93.59  13.60
  1  5 -11  84.79  12.40
  1  5 -11  97.89  5.30
 -1 -5 11  87.19  5.90
 -1 -5 11  82.79  4.80
 -1 -5 11  85.89  4.40
 -1 -5 11  94.99  6.00
 -1 -5 11  82.89  5.10
 -1 -5 11  83.39  4.60
  0  5 -11 2203.18  68.59
  0  5 -11 1888.71  69.89
  0  5 -11 2201.78  75.59
  0  5 -11 2201.68  70.09
  0 -5 11 2210.28  69.79
  0 -5 11 2256.37  68.99
  0 -5 11 2216.68  68.59
  0 -5 11 2182.18  68.99
  0 -5 11 2241.28  68.99
  0 -5 11 2205.98  71.19
  0 -5 11 2175.78  69.29
  0 -5 11 2168.38  69.89
 -1  5 -11 1500.55  48.20
 -1  5 -11 1538.55  47.70
 -1  5 -11 1462.85  49.30
 -1  5 -11 1559.64  48.00
 -1  5 -11 1473.45  56.29
 -1  5 -11 1516.65  51.09
  1 -5 11 1552.54  49.99
  1 -5 11 1454.25  48.50
  1 -5 11 1511.05  48.80
 -2  5 -11  86.39  4.40
 -2  5 -11  89.89  4.20
 -2  5 -11  89.19  5.50
 -2  5 -11  88.99  4.40
 -2  5 -11  86.29  4.00
  2 -5 11  83.89  5.50
  2 -5 11  90.09  11.00
  2 -5 11  87.29  5.50
 -3  5 -11 487.35  16.70
 -3  5 -11 468.75  15.90
 -3  5 -11 483.55  15.60
 -3  5 -11 486.95  15.60
  3 -5 11 488.55  20.80
  3  4 -11  20.80  7.20
  3  4 -11  21.00  2.70
  3  4 -11  17.00  5.10
  3  4 -11  21.00  7.30
 -3 -4 11  15.50  3.00
 -3 -4 11  18.70  4.20
  2  4 -11  52.19  11.20
  2  4 -11  60.49  11.90
  2  4 -11  59.39  4.10
 -2 -4 11  48.40  5.90
 -2 -4 11  56.69  3.90
 -2 -4 11  70.89  4.20
  1  4 -11 2514.85  87.99
  1  4 -11 2579.64  80.99
  1  4 -11 2467.95  92.39
  1  4 -11 2508.95  80.19
 -1 -4 11 2624.84  81.09
 -1 -4 11 2619.34  82.39
 -1 -4 11 2493.05  80.29
 -1 -4 11 2502.15  80.19
 -1 -4 11 2568.54  79.99
  0  4 -11  36.20  7.00
  0  4 -11  46.80  3.50
  0 -4 11  35.10  3.10
  0 -4 11  28.60  5.40
  0 -4 11  39.90  4.60
  0 -4 11  38.30  3.40
 -1  4 -11  32.30  4.10
 -1  4 -11  32.50  5.30
 -1  4 -11  25.60  4.70
 -1  4 -11  36.60  2.80
 -1  4 -11  35.90  3.30
 -1  4 -11  32.10  8.70
 -1  4 -11  29.80  2.80
  1 -4 11  43.70  4.30
  1 -4 11  28.00  4.70
  1 -4 11  33.50  3.30
 -2  4 -11 419.06  15.00
 -2  4 -11 420.56  14.40
 -2  4 -11 413.86  14.30
 -2  4 -11 426.66  15.70
 -2  4 -11 433.76  14.70
 -2  4 -11 403.06  14.50
  2 -4 11 420.06  15.60
  2 -4 11 421.96  23.50
  2 -4 11 409.46  14.70
  2 -4 11 451.45  19.90
 -3  4 -11 1003.40  32.10
 -3  4 -11 1020.80  33.10
 -3  4 -11 1008.10  32.40
 -3  4 -11 1031.00  32.10
  3 -4 11 1007.80  37.60
  3 -4 11 1018.40  33.00
  3  3 -11 3459.75 108.59
  3  3 -11 3674.93 123.09
  3  3 -11 3380.26 118.59
  3  3 -11 3430.16 112.29
 -3 -3 11 3430.26 108.29
 -3 -3 11 3451.65 108.39
  2  3 -11  16.70  3.00
  2  3 -11  12.60  3.20
  2  3 -11  20.00  9.40
 -2 -3 11  19.10  2.80
 -2 -3 11  19.80  3.40
 -2 -3 11  16.80  3.40
 -2 -3 11  13.40  2.60
  1  3 -11 1190.48  46.10
  1  3 -11 1189.28  39.00
  1  3 -11 1167.48  50.09
  1  3 -11 1213.98  39.70
 -1 -3 11 1205.18  38.90
 -1 -3 11 1231.58  39.70
 -1 -3 11 1215.98  39.10
 -1 -3 11 1212.08  40.70
 -1 -3 11 1204.98  38.60
  0  3 -11 194.08  12.50
  0  3 -11 214.28  9.70
  0  3 -11 211.68  9.90
  0  3 -11 224.58  11.00
  0 -3 11 214.98  8.70
  0 -3 11 210.28  13.50
  0 -3 11 219.28  8.40
  0 -3 11 214.78  9.40
  0 -3 11 217.48  8.30
  0 -3 11 223.18  8.10
 -1  3 -11 1522.15  56.19
 -1  3 -11 1523.55  51.39
 -1  3 -11 1612.84  50.29
 -1  3 -11 1588.24  51.49
 -1  3 -11 1614.64  49.99
 -1  3 -11 1572.34  51.69
 -1  3 -11 1598.14  49.90
 -1  3 -11 1588.14  50.19
  1 -3 11 1530.95  50.59
  1 -3 11 1612.14  51.89
  1 -3 11 1526.35  50.49
 -2  3 -11 1774.52  56.19
 -2  3 -11 1805.22  57.69
 -2  3 -11 1736.73  56.29
 -2  3 -11 1812.82  56.59
 -2  3 -11 1765.32  56.59
 -2  3 -11 1625.54  58.39
 -2  3 -11 1761.22  56.19
  2 -3 11 1809.92  57.49
  2 -3 11 1778.02  56.49
  2 -3 11 1930.91  60.59
  2 -3 11 1766.82  66.39
 -3  3 -11  89.59  4.10
 -3  3 -11  93.49  5.20
 -3  3 -11  85.49  3.70
 -3  3 -11  96.59  3.80
  3 -3 11  85.69  7.10
  3  2 -11 206.98  8.20
  3  2 -11 202.98  11.40
  3  2 -11 212.38  18.10
  3  2 -11 206.88  8.00
  3  2 -11 200.88  14.80
 -3 -2 11 204.88  7.90
 -3 -2 11 208.28  7.80
  2  2 -11 3632.24 115.19
  2  2 -11 3858.21 115.59
  2  2 -11 3881.91 116.19
  2  2 -11 3606.94 134.99
  2  2 -11 3455.35 127.09
 -2 -2 11 3699.53 115.09
 -2 -2 11 3645.24 115.19
 -2 -2 11 3717.83 116.89
 -2 -2 11 3600.34 115.49
 -2 -2 11 3648.23 114.89
  1  2 -11 237.88  15.40
  1  2 -11 277.37  12.20
  1  2 -11 273.27  11.10
  1  2 -11 247.38  19.80
 -1 -2 11 278.77  10.20
 -1 -2 11 273.67  11.60
 -1 -2 11 290.17  10.10
 -1 -2 11 262.37  10.30
 -1 -2 11 272.67  11.10
 -1 -2 11 270.87  9.80
  0  2 -11 2584.94  88.19
  0  2 -11 2592.74  83.39
  0  2 -11 2667.83  84.49
  0  2 -11 2674.43  83.99
  0 -2 11 2615.54  83.09
  0 -2 11 2654.03  84.19
  0 -2 11 2583.34  81.89
  0 -2 11 2665.93  82.29
  0 -2 11 2513.35  82.09
  0 -2 11 2598.04  82.69
 -1  2 -11 358.46  12.30
 -1  2 -11 351.16  14.50
 -1  2 -11 346.37  12.80
 -1  2 -11 344.47  14.60
 -1  2 -11 352.86  12.40
 -1  2 -11 370.76  14.00
  1 -2 11 355.96  14.00
  1 -2 11 350.16  13.00
  1 -2 11 342.87  13.10
  1 -2 11 349.96  13.40
 -2  2 -11 307.37  12.10
 -2  2 -11 297.97  11.10
 -2  2 -11 297.07  10.60
 -2  2 -11 300.77  10.90
 -2  2 -11 296.87  10.60
 -2  2 -11 278.07  13.10
  2 -2 11 289.97  12.20
  2 -2 11 287.97  18.30
  2 -2 11 308.57  14.50
  2 -2 11 302.87  11.70
 -3  2 -11 741.03  24.80
 -3  2 -11 763.72  23.80
 -3  2 -11 739.53  23.70
 -3  2 -11 745.53  24.00
  3 -2 11 738.43  28.50
  3 -2 11 714.23  23.60
  3 -2 11 747.73  25.60
  3  1 -11 386.06  13.10
  3  1 -11 380.06  13.50
  3  1 -11 379.06  25.00
  3  1 -11 360.96  20.10
 -3 -1 11 376.56  12.90
 -3 -1 11 366.96  12.90
 -3 -1 11 374.06  12.80
  2  1 -11 1372.46  56.69
  2  1 -11 1397.36  45.60
  2  1 -11 1454.15  46.20
  2  1 -11 1519.95  46.80
  2  1 -11 1376.36  63.39
 -2 -1 11 1406.46  45.60
 -2 -1 11 1433.56  47.10
 -2 -1 11 1417.46  45.30
 -2 -1 11 1447.06  45.40
 -2 -1 11 1373.66  46.00
  1  1 -11 809.32  46.00
  1  1 -11 809.82  34.50
  1  1 -11 850.61  28.80
 -1 -1 11 852.51  27.40
 -1 -1 11 849.22  29.30
 -1 -1 11 849.12  28.40
 -1 -1 11 831.92  27.80
 -1 -1 11 872.31  27.60
 -1 -1 11 844.82  27.70
  0  1 -11 2154.88  69.19
  0  1 -11 2085.89  73.29
  0  1 -11 2240.58  69.49
  0  1 -11 2211.78  68.99
  0  1 -11 2127.39  68.39
  0 -1 11 1946.71  67.39
  0 -1 11 2128.29  70.29
  0 -1 11 2144.39  67.99
  0 -1 11 2186.58  67.19
  0 -1 11 2145.89  68.29
  0 -1 11 2172.38  67.49
 -1  1 -11 2998.10  92.59
 -1  1 -11 2989.10  92.29
 -1  1 -11 2928.51  93.89
 -1  1 -11 2904.61  93.69
 -1  1 -11 2971.60  92.29
 -1  1 -11 2976.30  94.19
  1 -1 11 2863.51  92.79
  1 -1 11 2977.40  92.99
  1 -1 11 3007.00  93.89
  1 -1 11 2839.42  95.09
  1 -1 11 2919.11  93.09
 -2  1 -11  14.00  2.30
 -2  1 -11  8.90  3.70
 -2  1 -11  12.70  2.30
 -2  1 -11  10.10  2.00
 -2  1 -11  16.40  3.80
 -2  1 -11  14.80  3.20
  2 -1 11  8.80  5.30
  2 -1 11  16.10  4.90
  2 -1 11  15.90  3.10
 -3  1 -11 611.94  20.70
 -3  1 -11 616.54  19.80
 -3  1 -11 591.04  19.40
 -3  1 -11 614.14  19.50
  3 -1 11 601.94  23.50
  3 -1 11 633.64  21.80
  3 -1 11 565.14  19.50
  3  0 -11  8.00  5.40
  3  0 -11  7.80  2.00
  3  0 -11  2.90  1.70
  3  0 -11  9.60  6.60
 -3  0 11  6.30  1.80
 -3  0 11  9.00  2.10
 -3  0 11  5.30  1.70
  2  0 -11 902.01  29.40
  2  0 -11 936.11  30.00
  2  0 -11 822.32  38.60
  2  0 -11 878.31  44.90
  2  0 -11 849.91  28.40
 -2  0 11 882.41  30.00
 -2  0 11 843.82  28.90
 -2  0 11 835.22  28.10
 -2  0 11 834.52  28.40
 -2  0 11 874.51  28.30
  1  0 -11 4352.96 139.09
  1  0 -11 4348.17 132.19
 -1  0 11 4042.90 130.69
 -1  0 11 4218.48 132.79
 -1  0 11 4323.57 131.59
 -1  0 11 4153.18 130.99
 -1  0 11 3984.40 130.49
 -1  0 11 4084.89 130.89
  0  0 -11 161.88  8.40
  0  0 -11 166.88  9.00
  0  0 -11 162.48  6.90
  0  0 -11 166.28  8.40
  0  0 -11 163.28  10.20
  0  0 11 159.58  7.40
  0  0 11 166.28  6.70
  0  0 11 159.88  6.30
  0  0 11 165.48  7.10
  0  0 11 156.38  7.60
 -1  0 -11 363.36  15.00
 -1  0 -11 368.56  14.40
 -1  0 -11 355.76  12.70
 -1  0 -11 373.16  12.70
 -1  0 -11 354.76  15.10
 -1  0 -11 366.56  13.20
  1  0 11 374.66  14.20
  1  0 11 362.96  13.70
  1  0 11 352.76  16.10
  1  0 11 353.46  13.30
 -2  0 -11 440.76  15.30
 -2  0 -11 455.05  15.70
 -2  0 -11 399.66  17.60
 -2  0 -11 456.15  15.90
 -2  0 -11 454.75  15.40
 -2  0 -11 498.25  17.10
  2  0 11 461.25  19.10
  2  0 11 468.65  16.30
  2  0 11 443.76  23.30
 -3  0 -11 557.74  19.50
 -3  0 -11 618.44  19.60
 -3  0 -11 618.84  20.00
 -3  0 -11 612.04  19.90
  3  0 11 620.04  21.30
  3  0 11 594.24  22.60
  3  0 11 633.74  20.10
  3 -1 -11 2315.17  87.59
  3 -1 -11 2339.67  74.79
  3 -1 -11 2517.15  75.79
  3 -1 -11 2336.87  81.19
  3 -1 -11 2402.26  74.69
 -3  1 11 2382.86  74.49
 -3  1 11 2394.26  74.59
 -3  1 11 2335.77  74.39
  2 -1 -11 705.63  23.20
  2 -1 -11 679.23  23.10
  2 -1 -11 629.34  35.90
  2 -1 -11 674.83  23.60
  2 -1 -11 628.54  21.90
 -2  1 11 628.44  23.30
 -2  1 11 678.33  21.90
 -2  1 11 664.13  21.70
 -2  1 11 640.84  22.40
  1 -1 -11  30.60  4.30
 -1  1 11  37.10  3.70
 -1  1 11  23.90  2.60
 -1  1 11  33.90  2.80
 -1  1 11  25.00  3.90
 -1  1 11  26.90  3.90
  0 -1 -11  43.50  5.10
  0 -1 -11  43.50  4.80
  0 -1 -11  45.00  4.60
  0 -1 -11  37.30  3.50
  0 -1 -11  43.50  6.50
  0  1 11  42.90  3.60
  0  1 11  45.30  3.30
  0  1 11  46.90  4.10
  0  1 11  45.10  2.70
  0  1 11  43.30  4.10
  0  1 11  35.50  5.80
 -1 -1 -11 140.69  5.90
 -1 -1 -11 134.19  5.70
 -1 -1 -11 131.99  6.50
 -1 -1 -11 141.09  8.90
 -1 -1 -11 133.19  7.50
 -1 -1 -11 132.49  12.70
  1  1 11 135.69  6.60
  1  1 11 134.29  14.10
  1  1 11 133.39  7.10
  1  1 11 135.49  6.80
  1  1 11 142.49  13.00
 -2 -1 -11 1219.38  38.60
 -2 -1 -11 1220.48  37.40
 -2 -1 -11 1139.69  36.90
 -2 -1 -11 1211.48  37.00
 -2 -1 -11 1054.39  39.10
 -2 -1 -11 1015.00  39.10
  2  1 11 1124.89  43.20
  2  1 11 1184.98  40.60
  2  1 11 1205.38  37.80
  3 -2 -11 280.97  10.10
  3 -2 -11 265.37  9.60
  3 -2 -11 276.37  10.60
  3 -2 -11 256.37  17.60
 -3  2 11 268.37  9.50
 -3  2 11 267.87  9.50
 -3  2 11 260.87  9.30
  2 -2 -11 1006.50  33.20
  2 -2 -11 918.21  44.70
  2 -2 -11 981.90  32.50
  2 -2 -11 922.81  31.20
 -2  2 11 964.10  31.00
 -2  2 11 902.71  34.70
 -2  2 11 1008.70  31.20
 -2  2 11 961.80  31.70
 -2  2 11 940.71  31.60
 -2  2 11 1011.70  31.40
  1 -2 -11 150.88  7.80
  1 -2 -11 139.79  15.30
  1 -2 -11 153.48  8.60
 -1  2 11 148.49  7.00
 -1  2 11 150.48  6.30
 -1  2 11 149.49  5.90
 -1  2 11 146.39  6.30
 -1  2 11 155.08  7.00
 -1  2 11 143.99  7.60
  0 -2 -11 2901.11  89.39
  0 -2 -11 2711.73  89.09
  0 -2 -11 2867.91  88.49
  0 -2 -11 2683.93  89.39
  0 -2 -11 2858.01  87.29
  0  2 11 2782.52  87.89
  0  2 11 2785.22  88.79
  0  2 11 2718.43  88.09
  0  2 11 2703.33  86.69
 -1 -2 -11 140.59  6.10
 -1 -2 -11 144.09  6.00
 -1 -2 -11 149.88  7.90
 -1 -2 -11 141.59  6.90
 -1 -2 -11 135.19  9.00
  1  2 11 144.39  6.80
  1  2 11 156.88  7.40
  1  2 11 150.48  7.00
 -2 -2 -11 307.47  11.50
 -2 -2 -11 301.37  11.10
 -2 -2 -11 316.07  10.90
 -2 -2 -11 306.37  10.90
 -2 -2 -11 307.07  11.60
 -2 -2 -11 304.87  12.50
  2  2 11 320.27  14.00
  2  2 11 300.87  11.30
  3 -3 -11 253.17  9.00
  3 -3 -11 253.97  10.00
  3 -3 -11 237.58  15.70
  3 -3 -11 262.47  9.50
 -3  3 11 253.67  8.80
 -3  3 11 251.77  8.90
 -3  3 11 248.78  9.00
  2 -3 -11 1347.67  42.90
  2 -3 -11 1165.88  40.70
  2 -3 -11 1231.38  53.49
  2 -3 -11 1326.27  42.40
 -2  3 11 1319.47  40.90
 -2  3 11 1279.07  40.70
 -2  3 11 1286.67  42.60
 -2  3 11 1273.37  41.30
 -2  3 11 1291.27  41.00
 -2  3 11 1261.97  41.40
  1 -3 -11 909.31  31.00
  1 -3 -11 869.61  41.10
 -1  3 11 927.91  29.20
 -1  3 11 905.61  29.80
 -1  3 11 890.81  29.10
 -1  3 11 904.41  29.90
 -1  3 11 898.81  31.00
 -1  3 11 858.11  30.50
 -1  3 11 891.81  28.80
  0 -3 -11 4504.45 140.49
  0 -3 -11 4566.64 139.39
  0 -3 -11 4426.96 141.69
  0 -3 -11 4288.77 141.29
  0 -3 -11 4472.95 141.29
  0  3 11 4522.55 139.89
  0  3 11 4373.96 141.89
  0  3 11 4488.15 140.19
  0  3 11 4533.25 140.79
  0  3 11 4489.05 138.79
 -1 -3 -11 1840.62  58.49
 -1 -3 -11 1901.91  58.69
 -1 -3 -11 1890.51  60.39
 -1 -3 -11 1845.72  58.29
 -1 -3 -11 1807.02  59.29
 -1 -3 -11 1768.82  60.49
  1  3 11 1851.71  59.29
  1  3 11 1840.92  59.49
 -2 -3 -11 559.14  18.20
 -2 -3 -11 562.04  18.20
 -2 -3 -11 542.75  18.50
 -2 -3 -11 514.85  19.00
 -2 -3 -11 555.74  19.80
 -2 -3 -11 549.15  18.80
  2  3 11 565.24  21.00
  2  3 11 545.45  18.50
  3 -4 -11  15.80  6.40
  3 -4 -11  12.40  2.60
  3 -4 -11  18.00  2.50
 -3  4 11  16.30  2.70
 -3  4 11  19.20  1.90
 -3  4 11  15.70  2.10
  2 -4 -11 311.17  20.80
  2 -4 -11 355.76  13.70
  2 -4 -11 343.17  13.40
 -2  4 11 346.87  11.90
 -2  4 11 347.47  11.70
 -2  4 11 353.66  11.90
 -2  4 11 321.37  14.70
 -2  4 11 340.47  12.40
 -2  4 11 330.87  13.60
  1 -4 -11 430.36  16.50
  1 -4 -11 418.06  25.30
 -1  4 11 405.56  15.20
 -1  4 11 413.16  16.60
 -1  4 11 441.96  14.70
 -1  4 11 435.86  14.30
 -1  4 11 433.96  15.20
 -1  4 11 428.16  15.40
  0 -4 -11 636.94  21.10
  0 -4 -11 617.44  22.10
  0 -4 -11 625.34  23.00
  0  4 11 634.24  21.90
  0  4 11 655.03  21.50
  0  4 11 616.54  20.20
  0  4 11 639.54  20.80
  0  4 11 616.44  22.30
 -1 -4 -11  1.60  4.10
 -1 -4 -11  7.10  3.80
 -1 -4 -11  1.10  2.30
 -1 -4 -11  3.30  1.40
 -1 -4 -11  2.30  1.60
 -1 -4 -11  4.40  1.50
  1  4 11  6.30  2.00
 -2 -4 -11  23.40  2.80
 -2 -4 -11  23.90  2.10
 -2 -4 -11  24.50  2.10
  2  4 11  20.70  2.40
  2  4 11  20.00  2.00
  2  4 11  22.30  3.80
  2  4 11  23.50  8.30
  3 -5 -11 300.27  11.30
  3 -5 -11 354.76  19.00
  3 -5 -11 303.77  11.00
 -3  5 11 302.37  10.60
 -3  5 11 312.77  10.40
  2 -5 -11 430.56  16.00
  2 -5 -11 429.96  21.60
  2 -5 -11 440.06  15.70
  2 -5 -11 432.66  25.20
 -2  5 11 413.26  15.50
 -2  5 11 437.86  14.60
 -2  5 11 394.36  16.20
 -2  5 11 432.26  15.30
 -2  5 11 432.36  14.50
 -2  5 11 421.06  14.30
  1 -5 -11 412.06  16.20
 -1  5 11 424.36  14.80
 -1  5 11 414.36  13.90
 -1  5 11 416.26  14.10
 -1  5 11 410.26  15.00
 -1  5 11 403.96  14.30
  0 -5 -11 530.45  19.40
  0 -5 -11 564.34  20.50
  0 -5 -11 548.05  18.40
  0  5 11 530.95  19.10
  0  5 11 561.04  18.70
  0  5 11 540.15  18.10
  0  5 11 540.75  19.50
 -1 -5 -11 476.65  17.00
 -1 -5 -11 463.95  18.50
 -1 -5 -11 478.75  16.20
  1  5 11 479.55  16.90
 -2 -5 -11 1093.49  35.00
 -2 -5 -11 1059.59  34.60
 -2 -5 -11 1061.89  34.40
 -2 -5 -11 1075.29  34.30
  2  5 11 1071.69  34.50
  2  5 11 1116.09  43.80
  2  5 11 1103.49  36.30
  2  5 11 1080.19  34.50
  2 -6 -11 2327.87  79.69
  2 -6 -11 2356.06  73.49
  2 -6 -11 2327.47  73.29
  2 -6 -11 2318.97  73.59
 -2  6 11 2359.86  72.29
 -2  6 11 2261.97  72.29
 -2  6 11 2202.48  72.29
 -2  6 11 2275.87  72.09
 -2  6 11 2328.77  72.59
  1 -6 -11  64.79  5.40
 -1  6 11  63.29  3.50
 -1  6 11  65.29  4.30
 -1  6 11  66.39  3.10
 -1  6 11  65.29  3.40
 -1  6 11  67.09  4.10
  0 -6 -11 454.65  16.70
  0 -6 -11 469.75  15.70
  0 -6 -11 452.85  17.80
  0  6 11 449.76  16.70
  0  6 11 454.05  15.30
  0  6 11 465.85  15.80
 -1 -6 -11 430.46  14.30
 -1 -6 -11 443.96  14.70
 -1 -6 -11 400.26  16.80
 -1 -6 -11 436.86  14.80
 -1 -6 -11 457.55  15.60
  1  6 11 433.66  15.30
  1  6 11 432.96  16.90
  2 -7 -11 103.09  5.20
  2 -7 -11  99.29  5.10
  2 -7 -11 110.19  9.30
  2 -7 -11 108.09  5.10
 -2  7 11 102.39  4.50
 -2  7 11 109.59  4.10
 -2  7 11  98.69  5.20
 -2  7 11 106.99  4.40
 -2  7 11 103.39  4.30
  1 -7 -11  9.60  5.30
  1 -7 -11  2.50  2.20
  1 -7 -11  5.70  2.00
 -1  7 11  4.90  1.10
 -1  7 11  6.00  1.50
 -1  7 11  3.60  1.30
  0 -7 -11 766.42  27.00
  0 -7 -11 765.82  26.20
  0 -7 -11 799.22  25.20
  0 -7 -11 778.72  25.10
  0  7 11 770.02  25.00
  0  7 11 752.92  25.90
  0  7 11 769.42  24.90
 -1 -7 -11 2070.99  64.49
 -1 -7 -11 2003.80  65.09
 -1 -7 -11 2022.80  64.29
  1  7 11 2092.29  65.99
  1  7 11 2015.70  64.29
  1  7 11 2058.59  64.89
  1  7 11 2083.79  77.39
  2 -8 -11  92.69  4.40
  2 -8 -11  85.59  4.30
  2 -8 -11  93.59  8.40
  2 -8 -11  90.89  4.30
 -2  8 11  96.09  3.40
 -2  8 11  89.99  4.10
 -2  8 11  93.19  3.80
 -2  8 11  88.99  3.80
  1 -8 -11 3467.25 107.59
  1 -8 -11 3297.37 106.69
  1 -8 -11 3533.55 113.49
 -1  8 11 3352.46 105.99
 -1  8 11 3297.47 105.79
 -1  8 11 3428.16 105.99
  0 -8 -11 601.34  19.70
  0 -8 -11 596.74  21.40
  0 -8 -11 617.14  19.80
  0  8 11 607.64  19.60
  0  8 11 599.74  19.70
  0  8 11 606.84  20.40
 -1 -8 -11  23.50  2.20
 -1 -8 -11  25.00  1.90
  1  8 11  17.50  1.80
  1  8 11  22.50  2.50
  1  8 11  21.60  5.40
  1 -9 -11  9.60  4.90
  1 -9 -11  11.60  2.40
  1 -9 -11  10.20  2.30
 -1  9 11  11.70  1.40
 -1  9 11  13.60  2.50
 -1  9 11  15.80  1.70
  0 -9 -11 373.36  11.80
  0 -9 -11 343.57  13.10
  0 -9 -11 328.07  12.00
  0 -9 -11 358.36  12.20
  0  9 11 341.97  12.20
  0  9 11 367.46  11.90
  0 12 -12 1489.05  48.10
  0 12 -12 1510.35  53.39
  0 -12 12 1538.25  47.80
  0 -12 12 1562.34  48.10
  0 -12 12 1499.15  47.80
  1 11 -12 186.58  12.20
  1 11 -12 154.28  6.10
  1 11 -12 168.08  6.40
 -1 -11 12 171.28  6.00
 -1 -11 12 165.08  6.40
 -1 -11 12 164.18  6.50
 -1 -11 12 174.18  6.20
 -1 -11 12 165.98  6.60
  0 11 -12 896.11  29.70
  0 11 -12 898.91  36.20
  0 -11 12 914.21  29.70
  0 -11 12 911.51  29.20
  0 -11 12 935.61  29.40
  1 -11 12 1512.45  54.49
  1 -11 12 1538.25  48.80
  1 -11 12 1507.65  47.90
  1 10 -12 164.68  12.70
  1 10 -12 157.08  6.30
  1 10 -12 173.38  6.70
 -1 -10 12 164.48  6.10
 -1 -10 12 151.68  7.40
 -1 -10 12 162.08  6.30
 -1 -10 12 164.98  6.50
 -1 -10 12 168.98  6.80
  0 10 -12 160.78  7.20
  0 10 -12 176.88  8.10
  0 10 -12 172.98  13.00
  0 -10 12 178.28  7.00
  0 -10 12 179.68  6.20
  0 -10 12 168.68  6.80
  0 -10 12 190.48  7.40
 -1 10 -12 1318.47  41.60
 -1 10 -12 1294.67  41.10
 -1 10 -12 1308.17  42.30
  1 -10 12 1332.67  41.70
  1 -10 12 1259.77  44.60
  1 -10 12 1312.37  42.60
  1 -10 12 1336.37  41.60
  2  9 -12  29.80  6.40
  2  9 -12  30.40  2.70
 -2 -9 12  29.10  2.10
 -2 -9 12  22.90  3.60
 -2 -9 12  28.70  2.50
 -2 -9 12  29.70  4.50
  1  9 -12 1801.62  57.49
  1  9 -12 1854.01  67.79
  1  9 -12 1787.82  57.19
 -1 -9 12 1801.42  57.39
 -1 -9 12 1823.92  56.99
 -1 -9 12 1768.62  57.39
 -1 -9 12 1847.22  57.89
 -1 -9 12 1796.82  56.99
  0 -9 12 1066.79  34.60
  0 -9 12 1041.40  34.10
  0 -9 12 1046.10  33.30
 -1  9 -12  77.39  4.00
 -1  9 -12  70.69  4.40
 -1  9 -12  74.79  3.40
  1 -9 12  76.49  7.90
  1 -9 12  70.29  4.20
  1 -9 12  78.59  4.20
  1 -9 12  69.59  4.70
 -2  9 -12  9.00  1.60
 -2  9 -12  8.70  1.20
  2 -9 12  9.60  1.50
  2 -9 12  7.30  3.00
  2  8 -12 1995.40  62.99
  2  8 -12 1986.70  72.29
 -2 -8 12 1969.50  62.99
 -2 -8 12 2004.90  63.09
 -2 -8 12 2054.29  62.79
 -2 -8 12 1978.00  63.09
  1  8 -12 899.11  29.80
  1  8 -12 892.31  39.40
  1  8 -12 892.61  29.10
 -1 -8 12 850.41  30.00
 -1 -8 12 902.91  28.80
 -1 -8 12 896.01  29.10
 -1 -8 12 912.81  28.80
 -1 -8 12 922.01  29.20
 -1 -8 12 834.52  31.40
  0  8 -12 983.30  32.40
  0 -8 12 951.20  32.20
  0 -8 12 976.30  31.50
  0 -8 12 971.20  31.80
  0 -8 12 959.80  31.30
  0 -8 12 968.40  34.10
  0 -8 12 976.00  31.00
 -1  8 -12  22.90  2.20
  1 -8 12  25.40  3.40
  1 -8 12  28.50  3.00
  1 -8 12  21.10  3.80
  1 -8 12  26.50  7.60
 -2  8 -12 1265.47  39.40
 -2  8 -12 1192.88  40.20
 -2  8 -12 1253.27  39.60
  2 -8 12 1178.58  39.50
  2 -8 12 1238.08  40.20
  2 -8 12 1358.96  46.80
  2  7 -12 2177.78  68.79
  2  7 -12 2319.87  78.29
  2  7 -12 2114.59  79.29
 -2 -7 12 2202.38  68.59
 -2 -7 12 2167.88  68.79
 -2 -7 12 2145.29  68.89
 -2 -7 12 2153.18  68.99
  1  7 -12 288.17  19.70
  1  7 -12 315.57  20.70
  1  7 -12 292.87  11.40
  1  7 -12 293.87  11.10
 -1 -7 12 294.67  13.30
 -1 -7 12 316.57  11.10
 -1 -7 12 299.67  11.80
 -1 -7 12 307.27  10.70
 -1 -7 12 308.27  11.10
 -1 -7 12 281.57  10.70
  0  7 -12 1483.65  48.00
  0 -7 12 1465.45  47.00
  0 -7 12 1465.45  46.50
  0 -7 12 1454.45  47.30
  0 -7 12 1478.85  47.80
  0 -7 12 1476.45  46.90
  0 -7 12 1473.55  49.10
 -1  7 -12 219.78  9.90
 -1  7 -12 212.18  8.20
 -1  7 -12 208.38  7.80
  1 -7 12 209.28  8.30
  1 -7 12 208.38  9.70
  1 -7 12 208.58  8.80
 -2  7 -12 893.71  28.40
 -2  7 -12 907.41  28.90
 -2  7 -12 907.51  29.00
  2 -7 12 954.80  36.60
  2 -7 12 869.91  29.10
  2 -7 12 889.31  29.80
  2  6 -12 214.98  8.50
  2  6 -12 226.58  16.60
  2  6 -12 200.78  16.20
 -2 -6 12 203.78  10.10
 -2 -6 12 202.98  8.70
 -2 -6 12 218.18  8.40
 -2 -6 12 237.28  8.20
 -2 -6 12 230.08  8.50
  1  6 -12 196.48  8.10
  1  6 -12 191.98  8.30
  1  6 -12 203.28  17.00
  1  6 -12 188.38  16.00
 -1 -6 12 187.98  9.70
 -1 -6 12 197.88  7.90
 -1 -6 12 189.38  8.60
 -1 -6 12 194.68  7.80
 -1 -6 12 186.48  7.40
 -1 -6 12 197.18  7.70
 -1 -6 12 186.08  7.80
  0 -6 12 117.99  4.90
  0 -6 12 111.19  8.60
  0 -6 12 117.99  5.40
  0 -6 12 124.99  5.50
  0 -6 12 112.69  6.30
  0 -6 12 118.89  5.60
 -1  6 -12 2231.68  70.39
 -1  6 -12 2255.37  71.99
 -1  6 -12 2220.28  70.79
 -1  6 -12 2305.17  71.79
  1 -6 12 2166.78  70.99
  1 -6 12 2283.27  72.39
  1 -6 12 2224.88  71.09
 -2  6 -12 663.73  22.10
 -2  6 -12 697.13  22.40
 -2  6 -12 675.53  23.30
 -2  6 -12 685.23  21.90
  2 -6 12 679.73  22.40
  2 -6 12 681.13  23.10
  2 -6 12 701.73  29.90
  3  5 -12  4.80  3.30
  3  5 -12  4.70  4.00
 -3 -5 12  4.40  1.50
 -3 -5 12  3.50  1.80
  2  5 -12  87.19  11.40
  2  5 -12  82.29  6.00
  2  5 -12  84.79  14.60
 -2 -5 12  89.89  4.50
 -2 -5 12  88.59  4.50
 -2 -5 12  85.89  4.80
 -2 -5 12  79.99  6.00
 -2 -5 12  76.19  5.40
 -2 -5 12  90.89  4.70
  1  5 -12 1416.86  57.99
  1  5 -12 1550.74  61.09
  1  5 -12 1420.86  46.50
  1  5 -12 1481.05  47.30
 -1 -5 12 1437.66  46.30
 -1 -5 12 1432.76  46.80
 -1 -5 12 1522.65  47.50
 -1 -5 12 1384.26  53.39
 -1 -5 12 1440.96  46.60
  0  5 -12 1108.99  37.10
  0  5 -12 1098.89  35.60
  0 -5 12 1124.89  36.80
  0 -5 12 1112.49  38.00
  0 -5 12 1121.49  35.60
  0 -5 12 1106.09  35.90
  0 -5 12 1116.99  36.40
 -1  5 -12 196.08  7.40
 -1  5 -12 192.08  7.70
 -1  5 -12 204.68  9.20
 -1  5 -12 194.48  9.10
  1 -5 12 190.58  9.10
  1 -5 12 177.48  8.10
  1 -5 12 186.88  7.80
 -2  5 -12 351.86  13.10
 -2  5 -12 350.56  11.70
 -2  5 -12 345.17  11.80
  2 -5 12 342.77  12.20
  2 -5 12 341.27  12.70
  2 -5 12 345.17  18.70
  3  4 -12 1828.12  56.69
  3  4 -12 1746.23  63.59
  3  4 -12 1888.01  65.19
 -3 -4 12 1807.92  56.69
 -3 -4 12 1741.43  56.39
  2  4 -12 2463.35  90.69
  2  4 -12 2296.17  86.69
  2  4 -12 2287.67  75.29
 -2 -4 12 2397.26  75.09
 -2 -4 12 2425.96  77.29
 -2 -4 12 2417.56  75.29
 -2 -4 12 2433.96  75.49
  1  4 -12  23.20  3.50
  1  4 -12  30.40  4.40
  1  4 -12  24.90  9.10
 -1 -4 12  21.20  4.00
 -1 -4 12  26.40  2.80
 -1 -4 12  26.70  2.40
 -1 -4 12  19.90  3.00
 -1 -4 12  22.70  2.70
 -1 -4 12  23.00  2.80
  0  4 -12 1845.92  59.09
  0  4 -12 1834.32  57.49
  0  4 -12 1785.72  59.29
  0  4 -12 1764.22  68.59
  0 -4 12 1820.82  58.29
  0 -4 12 1862.01  58.69
  0 -4 12 1845.22  57.39
  0 -4 12 1781.32  57.69
  0 -4 12 1848.72  59.69
 -1  4 -12 406.46  14.30
 -1  4 -12 438.36  16.00
 -1  4 -12 415.86  16.00
 -1  4 -12 411.66  14.00
  1 -4 12 416.66  14.90
  1 -4 12 417.86  15.00
  1 -4 12 424.16  16.00
 -2  4 -12 1472.45  47.40
 -2  4 -12 1488.55  47.50
 -2  4 -12 1466.25  47.70
 -2  4 -12 1455.35  48.80
  2 -4 12 1512.65  47.70
  2 -4 12 1588.14  50.39
  2 -4 12 1523.75  48.60
  2 -4 12 1521.05  56.19
  3  3 -12 996.90  40.40
  3  3 -12 934.91  37.70
  3  3 -12 976.00  31.10
 -3 -3 12 948.81  31.00
 -3 -3 12 963.70  30.80
 -3 -3 12 998.40  31.10
  2  3 -12 689.03  33.90
  2  3 -12 723.73  37.80
  2  3 -12 716.53  24.20
 -2 -3 12 733.63  24.00
 -2 -3 12 763.92  24.30
 -2 -3 12 704.13  24.70
 -2 -3 12 776.12  24.40
 -2 -3 12 724.53  24.40
 -2 -3 12 758.02  26.00
  1  3 -12 3969.20 123.59
  1  3 -12 4081.59 139.69
  1  3 -12 3786.22 134.09
 -1 -3 12 3927.11 122.89
 -1 -3 12 3909.81 124.79
 -1 -3 12 4111.49 123.49
 -1 -3 12 3810.42 122.39
 -1 -3 12 3806.12 122.79
 -1 -3 12 3898.71 122.69
  0  3 -12  28.40  9.70
  0  3 -12  31.60  3.20
  0  3 -12  31.40  4.80
  0  3 -12  31.60  4.00
  0 -3 12  37.00  2.40
  0 -3 12  26.00  3.90
  0 -3 12  27.10  3.00
  0 -3 12  24.10  4.60
  0 -3 12  29.10  3.10
 -1  3 -12 203.58  9.70
 -1  3 -12 195.38  7.50
 -1  3 -12 221.78  9.70
 -1  3 -12 203.98  7.80
  1 -3 12 198.58  8.50
  1 -3 12 206.08  8.30
  1 -3 12 202.18  9.40
 -2  3 -12 276.97  9.70
 -2  3 -12 256.37  9.80
 -2  3 -12 276.77  9.60
 -2  3 -12 268.97  11.00
  2 -3 12 276.77  16.30
  2 -3 12 288.67  12.60
  2 -3 12 266.57  10.50
  3  2 -12 580.94  28.30
  3  2 -12 558.34  24.80
  3  2 -12 580.24  18.80
 -3 -2 12 578.14  18.70
 -3 -2 12 563.04  19.00
 -3 -2 12 567.54  18.50
 -3 -2 12 555.74  18.70
  2  2 -12  58.99  11.00
  2  2 -12  71.19  12.10
  2  2 -12  58.19  5.30
  2  2 -12  59.89  4.20
 -2 -2 12  60.29  3.60
 -2 -2 12  61.49  3.60
 -2 -2 12  67.19  3.80
 -2 -2 12  66.59  5.40
 -2 -2 12  73.29  5.10
  1  2 -12 210.08  21.20
  1  2 -12 237.28  18.50
  1  2 -12 258.87  10.30
 -1 -2 12 243.18  8.90
 -1 -2 12 228.28  9.20
 -1 -2 12 246.08  9.40
 -1 -2 12 257.27  10.10
 -1 -2 12 237.48  10.70
 -1 -2 12 250.17  9.20
  0  2 -12  87.09  12.30
  0  2 -12  93.89  14.00
  0  2 -12 106.99  6.20
  0  2 -12 104.09  6.70
  0  2 -12 101.59  5.00
  0  2 -12  99.99  10.10
  0 -2 12  98.89  7.40
  0 -2 12  98.99  4.40
  0 -2 12 114.49  5.80
  0 -2 12  95.99  4.90
  0 -2 12 105.09  5.20
 -1  2 -12 3454.45 109.99
 -1  2 -12 3419.06 108.29
 -1  2 -12 3446.66 107.99
 -1  2 -12 3552.04 111.09
  1 -2 12 3491.55 108.79
  1 -2 12 3458.35 108.99
  1 -2 12 3351.36 108.89
  1 -2 12 3543.45 109.89
 -2  2 -12 2200.18  68.69
 -2  2 -12 2130.99  69.99
 -2  2 -12 2147.59  68.59
 -2  2 -12 2098.69  68.79
  2 -2 12 2241.28  76.99
  2 -2 12 2252.77  71.99
  2 -2 12 2236.48  69.59
  3  1 -12  14.90  2.40
  3  1 -12  13.50  6.40
 -3 -1 12  11.50  2.70
 -3 -1 12  12.30  2.20
 -3 -1 12  11.30  2.30
  2  1 -12 196.88  8.80
  2  1 -12 187.98  16.20
  2  1 -12 188.28  7.90
  2  1 -12 190.68  18.10
  2  1 -12 190.98  8.70
 -2 -1 12 206.48  7.80
 -2 -1 12 196.78  9.10
 -2 -1 12 194.58  8.60
 -2 -1 12 208.98  7.70
 -2 -1 12 196.98  7.40
  1  1 -12 1104.19  49.70
  1  1 -12 1064.99  46.30
  1  1 -12 1106.19  36.70
  1  1 -12 1131.19  36.60
 -1 -1 12 1081.99  35.70
 -1 -1 12 1120.39  36.30
 -1 -1 12 1099.79  37.50
 -1 -1 12 1065.69  35.20
 -1 -1 12 1112.69  35.50
 -1 -1 12 1098.19  35.60
  0  1 -12 3908.11 129.49
  0  1 -12 4124.49 129.29
  0  1 -12 4201.68 127.59
  0  1 -12 4189.28 129.79
  0 -1 12 4073.19 127.29
  0 -1 12 4098.49 127.59
  0 -1 12 3913.91 128.39
  0 -1 12 4219.28 128.49
  0 -1 12 4206.68 129.49
  0 -1 12 3970.50 128.09
 -1  1 -12  36.50  4.60
 -1  1 -12  29.20  2.60
 -1  1 -12  28.10  5.50
 -1  1 -12  29.70  2.50
  1 -1 12  28.20  3.80
  1 -1 12  26.00  3.80
  1 -1 12  34.80  3.90
 -2  1 -12  25.90  2.80
 -2  1 -12  27.60  2.30
 -2  1 -12  33.80  2.40
  2 -1 12  32.30  4.70
  2 -1 12  25.20  6.30
  2 -1 12  25.80  2.70
  3  0 -12 290.17  18.20
  3  0 -12 289.17  15.40
  3  0 -12 298.37  10.60
  3  0 -12 300.57  10.30
 -3  0 12 288.37  10.20
 -3  0 12 297.47  10.00
 -3  0 12 301.47  10.40
  2  0 -12 1431.46  44.50
  2  0 -12 1285.77  43.10
  2  0 -12 1317.57  57.69
  2  0 -12 1290.67  55.99
  2  0 -12 1351.76  43.90
 -2  0 12 1414.46  43.30
 -2  0 12 1372.36  43.00
 -2  0 12 1398.96  43.30
 -2  0 12 1343.67  44.80
 -2  0 12 1309.97  43.60
  1  0 -12 176.48  16.50
  1  0 -12 183.48  8.60
  1  0 -12 188.58  8.50
 -1  0 12 180.38  7.00
 -1  0 12 185.18  8.90
 -1  0 12 180.78  7.60
 -1  0 12 185.58  8.20
 -1  0 12 192.38  7.40
 -1  0 12 178.08  7.30
  0  0 -12 334.47  15.20
  0  0 -12 327.47  13.70
  0  0 -12 333.47  12.80
  0  0 -12 330.97  11.60
  0  0 -12 324.27  13.30
  0  0 12 327.57  12.40
  0  0 12 317.37  11.10
  0  0 12 318.47  13.40
  0  0 12 321.17  12.40
  0  0 12 333.27  12.10
 -1  0 -12 230.68  9.40
 -1  0 -12 235.18  8.70
 -1  0 -12 231.78  8.40
 -1  0 -12 244.58  10.70
 -1  0 -12 224.58  11.00
  1  0 12 235.48  9.50
  1  0 12 225.48  9.20
  1  0 12 219.28  16.00
  1  0 12 228.68  9.90
 -2  0 -12  45.10  4.60
 -2  0 -12  48.70  2.80
 -2  0 -12  45.60  3.20
 -2  0 -12  45.70  2.70
  2  0 12  42.40  6.80
  2  0 12  52.59  5.10
  2  0 12  42.30  3.10
  3 -1 -12 372.96  20.40
  3 -1 -12 400.26  13.60
  3 -1 -12 391.06  13.00
 -3  1 12 380.16  13.10
 -3  1 12 394.26  13.10
 -3  1 12 392.46  12.80
  2 -1 -12 1184.98  52.79
  2 -1 -12 1291.97  40.50
  2 -1 -12 1281.37  41.10
  2 -1 -12 1155.68  40.00
  2 -1 -12 1266.47  40.60
 -2  1 12 1276.67  39.80
 -2  1 12 1239.98  39.50
 -2  1 12 1214.58  40.10
 -2  1 12 1284.17  41.60
 -2  1 12 1234.08  40.20
 -2  1 12 1214.18  39.70
  1 -1 -12 2758.52 102.99
  1 -1 -12 2891.71  90.49
 -1  1 12 2822.42  89.09
 -1  1 12 2785.02  89.59
 -1  1 12 2776.72  88.59
 -1  1 12 2840.72  88.99
 -1  1 12 2849.31  88.89
 -1  1 12 2946.51  89.59
 -1  1 12 2820.52  90.89
  0 -1 -12  12.40  2.90
  0 -1 -12  19.90  2.90
  0 -1 -12  13.30  3.40
  0 -1 -12  18.50  3.80
  0  1 12  20.60  4.80
  0  1 12  14.70  1.80
  0  1 12  12.00  2.30
  0  1 12  13.80  2.90
 -1 -1 -12 444.86  18.00
 -1 -1 -12 453.85  16.50
 -1 -1 -12 501.65  17.90
 -1 -1 -12 464.75  15.80
 -1 -1 -12 457.35  15.50
  1  1 12 469.15  17.00
  1  1 12 450.75  16.00
  1  1 12 460.75  16.50
 -2 -1 -12 150.98  6.90
 -2 -1 -12 160.58  6.80
 -2 -1 -12 166.28  6.20
 -2 -1 -12 158.18  7.80
 -2 -1 -12 167.78  6.20
  2  1 12 162.18  6.60
  2  1 12 171.78  8.70
  3 -2 -12 2187.88  66.89
  3 -2 -12 2023.80  74.29
  3 -2 -12 2145.59  66.99
  3 -2 -12 2167.28  67.69
 -3  2 12 2192.78  66.79
 -3  2 12 2069.99  66.99
 -3  2 12 2189.68  66.99
  2 -2 -12 515.65  17.00
  2 -2 -12 518.55  18.40
  2 -2 -12 493.05  20.40
  2 -2 -12 492.15  27.50
 -2  2 12 540.55  17.00
 -2  2 12 493.05  18.60
 -2  2 12 471.65  19.60
 -2  2 12 481.45  19.60
 -2  2 12 506.35  16.70
 -2  2 12 524.25  17.00
  1 -2 -12 116.89  6.70
  1 -2 -12 107.49  12.80
 -1  2 12 116.99  4.80
 -1  2 12 105.59  5.60
 -1  2 12 119.09  5.30
 -1  2 12 105.59  7.50
 -1  2 12 128.29  5.20
 -1  2 12 113.09  5.80
  0 -2 -12 280.17  12.20
  0 -2 -12 291.67  11.50
  0 -2 -12 287.27  10.50
  0  2 12 288.47  11.20
  0  2 12 290.57  9.80
  0  2 12 283.97  12.00
  0  2 12 288.87  11.00
 -1 -2 -12 2908.11  91.29
 -1 -2 -12 3017.70  93.59
 -1 -2 -12 2947.01  91.69
 -1 -2 -12 2903.31  92.39
 -1 -2 -12 2845.12  93.69
  1  2 12 2884.11  92.39
  1  2 12 2957.50  92.79
 -2 -2 -12 1448.16  46.40
 -2 -2 -12 1403.36  46.00
 -2 -2 -12 1480.15  45.90
 -2 -2 -12 1458.45  45.70
  2  2 12 1465.35  46.20
  2  2 12 1446.66  48.30
  3 -3 -12  38.90  7.40
  3 -3 -12  39.40  2.70
  3 -3 -12  42.30  3.10
 -3  3 12  42.80  2.30
 -3  3 12  41.50  2.50
 -3  3 12  40.40  2.40
  2 -3 -12  12.50  6.80
  2 -3 -12  14.40  2.70
  2 -3 -12  10.30  2.90
  2 -3 -12  10.30  2.50
 -2  3 12  17.80  3.40
 -2  3 12  16.00  2.90
 -2  3 12  14.10  2.30
  1 -3 -12 276.17  19.70
  1 -3 -12 299.87  12.40
 -1  3 12 304.07  10.60
 -1  3 12 319.27  11.30
 -1  3 12 301.67  10.80
 -1  3 12 294.87  11.30
 -1  3 12 282.57  12.90
 -1  3 12 303.67  10.30
  0 -3 -12 604.44  20.60
  0 -3 -12 613.64  21.60
  0 -3 -12 618.74  22.40
  0  3 12 631.64  20.30
  0  3 12 625.14  22.00
  0  3 12 618.74  21.00
  0  3 12 616.94  21.40
 -1 -3 -12 569.54  20.70
 -1 -3 -12 554.24  19.50
 -1 -3 -12 521.35  20.50
 -1 -3 -12 587.74  18.30
 -1 -3 -12 561.34  18.70
  1  3 12 563.24  19.60
 -2 -3 -12  5.20  1.00
 -2 -3 -12  2.80  1.10
 -2 -3 -12  3.20  1.50
  2  3 12  3.30  1.30
  2  3 12  4.00  2.10
  2 -4 -12 865.71  29.60
  2 -4 -12 861.21  37.40
  2 -4 -12 918.41  30.10
  2 -4 -12 912.91  29.60
 -2  4 12 911.01  29.10
 -2  4 12 903.01  28.80
 -2  4 12 892.01  29.20
 -2  4 12 873.81  28.80
 -2  4 12 908.61  28.60
  1 -4 -12  64.69  11.80
  1 -4 -12  62.49  5.30
 -1  4 12  66.29  4.10
 -1  4 12  65.29  3.10
 -1  4 12  62.39  4.20
 -1  4 12  63.79  3.40
 -1  4 12  65.19  4.40
  0 -4 -12  5.90  1.70
  0 -4 -12  6.00  2.10
  0 -4 -12  4.90  2.70
  0 -4 -12  10.30  9.30
  0  4 12  8.30  1.80
  0  4 12  5.70  2.70
  0  4 12  8.40  2.20
  0  4 12  4.30  1.90
 -1 -4 -12 525.35  19.90
 -1 -4 -12 535.55  18.00
 -1 -4 -12 537.95  18.80
 -1 -4 -12 556.64  17.50
  1  4 12 548.45  20.50
  1  4 12 523.65  18.60
 -2 -4 -12 823.82  26.00
 -2 -4 -12 813.02  26.50
  2  4 12 804.12  26.10
  2  4 12 814.92  26.10
  2  4 12 821.42  27.70
  2 -5 -12 1458.85  46.80
  2 -5 -12 1466.15  46.90
  2 -5 -12 1477.45  47.20
 -2  5 12 1469.75  46.10
 -2  5 12 1436.86  45.80
 -2  5 12 1464.15  46.30
 -2  5 12 1407.76  46.10
 -2  5 12 1487.35  46.00
  1 -5 -12 3505.05 110.19
  1 -5 -12 3451.45 109.59
 -1  5 12 3358.76 108.39
 -1  5 12 3493.25 108.79
 -1  5 12 3530.75 108.09
  0 -5 -12  10.00  1.70
  0 -5 -12  10.60  2.40
  0  5 12  13.80  3.20
  0  5 12  14.80  2.40
  0  5 12  13.00  2.60
 -1 -5 -12  39.20  5.90
 -1 -5 -12  56.29  2.90
 -1 -5 -12  52.59  3.70
 -1 -5 -12  51.79  3.30
  1  5 12  51.09  4.80
  1  5 12  41.60  3.00
  1  5 12  46.20  8.40
  2 -6 -12 314.77  11.80
  2 -6 -12 323.07  11.60
  2 -6 -12 318.47  11.50
 -2  6 12 329.87  10.90
 -2  6 12 334.87  11.10
 -2  6 12 327.07  11.00
 -2  6 12 333.27  10.80
  1 -6 -12  53.79  4.30
  1 -6 -12  62.59  3.90
 -1  6 12  63.09  3.20
 -1  6 12  58.59  3.30
 -1  6 12  61.19  2.70
  0 -6 -12 204.28  9.40
  0 -6 -12 226.98  9.00
  0 -6 -12 219.38  7.90
  0  6 12 216.58  8.60
  0  6 12 217.38  7.80
  0  6 12 212.68  7.80
 -1 -6 -12 169.88  6.40
 -1 -6 -12 171.38  6.40
 -1 -6 -12 185.08  7.20
  1  6 12 169.28  13.30
  1  6 12 168.18  6.70
  1  6 12 169.08  8.00
  1  6 12 170.38  6.50
  2 -7 -12  10.90  1.90
  2 -7 -12  11.60  1.90
 -2  7 12  9.40  1.50
 -2  7 12  12.60  1.50
  1 -7 -12  5.50  5.60
  1 -7 -12  4.30  1.50
  1 -7 -12  2.60  1.60
 -1  7 12  6.50  2.40
 -1  7 12  2.10  1.20
 -1  7 12  1.10  1.00
  0 -7 -12 2612.74  82.09
  0 -7 -12 2643.54  83.79
  0  7 12 2671.83  82.09
  0  7 12 2614.64  82.89
  0  7 12 2616.44  81.99
 -1 -7 -12 244.98  8.30
 -1 -7 -12 246.08  8.30
  1  7 12 243.78  8.40
  1  7 12 235.58  8.60
  1  7 12 242.08  14.90
  1 -8 -12 341.37  12.00
  1 -8 -12 344.47  18.60
  1 -8 -12 335.47  12.40
 -1  8 12 336.47  11.30
 -1  8 12 348.57  11.40
  0 -8 -12 149.69  6.70
  0  8 12 140.49  5.30
  0  8 12 155.98  6.00
  0 11 -13  37.00  2.50
  0 11 -13  46.20  5.90
  0 -11 13  45.20  2.70
  0 -11 13  53.09  3.30
  1 10 -13  6.20  1.90
  1 10 -13  10.40  5.10
  1 10 -13  9.80  1.70
 -1 -10 13  10.30  2.00
 -1 -10 13  11.50  1.30
 -1 -10 13  9.70  1.70
 -1 -10 13  8.80  1.50
  0 10 -13 1571.84  57.99
  0 10 -13 1631.74  51.59
  0 -10 13 1599.84  51.19
  0 -10 13 1679.43  51.49
 -1 10 -13 119.09  5.20
  1 -10 13 119.09  5.10
  1 -10 13 122.09  6.90
  1 -10 13 110.49  5.60
  1  9 -13 747.33  24.40
  1  9 -13 744.13  24.60
  1  9 -13 769.12  32.50
 -1 -9 13 757.72  24.20
 -1 -9 13 782.82  25.00
 -1 -9 13 736.33  24.60
 -1 -9 13 759.52  25.90
  0  9 -13 1890.71  68.69
  0  9 -13 1953.40  61.09
  0 -9 13 1938.41  60.89
  0 -9 13 1888.11  59.69
  0 -9 13 1925.21  60.69
 -1  9 -13 1225.88  39.10
 -1  9 -13 1236.78  40.20
  1 -9 13 1278.47  39.60
  1 -9 13 1233.68  40.40
  1 -9 13 1262.47  40.50
  1 -9 13 1246.38  39.50
  2  8 -13 627.34  20.70
  2  8 -13 643.44  27.20
 -2 -8 13 612.84  20.80
 -2 -8 13 663.73  20.70
 -2 -8 13 646.14  20.80
 -2 -8 13 640.44  20.50
  1  8 -13 2487.45  78.49
  1  8 -13 2473.35  78.09
  1  8 -13 2540.35  88.19
 -1 -8 13 2456.65  77.89
 -1 -8 13 2383.26  78.29
 -1 -8 13 2473.25  78.39
 -1 -8 13 2530.35  78.19
 -1 -8 13 2582.84  78.79
  0  8 -13 374.36  13.70
  0  8 -13 371.66  20.50
  0  8 -13 396.26  21.00
  0 -8 13 377.96  13.60
  0 -8 13 376.26  12.40
  0 -8 13 377.76  13.30
 -1  8 -13  6.50  1.70
 -1  8 -13  6.90  1.10
  1 -8 13  11.70  2.40
  1 -8 13  7.30  1.90
  1 -8 13  6.50  1.60
  2  7 -13 711.33  23.50
  2  7 -13 727.13  31.00
  2  7 -13 803.62  33.50
 -2 -7 13 744.13  23.60
 -2 -7 13 656.83  25.10
 -2 -7 13 713.33  23.80
 -2 -7 13 749.42  23.40
 -2 -7 13 707.83  23.70
  1  7 -13 214.78  8.80
  1  7 -13 215.88  8.80
  1  7 -13 245.78  16.70
  1  7 -13 224.68  16.00
 -1 -7 13 229.88  8.50
 -1 -7 13 231.28  8.70
 -1 -7 13 229.28  8.80
 -1 -7 13 222.78  9.10
 -1 -7 13 227.58  8.20
  0  7 -13  97.69  6.00
  0 -7 13 102.29  5.60
  0 -7 13 111.19  5.10
  0 -7 13 105.69  7.00
  0 -7 13 116.49  4.30
 -1  7 -13 467.85  16.40
 -1  7 -13 445.26  15.10
  1 -7 13 469.25  15.80
  1 -7 13 456.25  15.60
  1 -7 13 460.85  16.50
 -2  7 -13 1880.61  62.69
 -2  7 -13 1973.00  61.79
  2 -7 13 2073.99  67.89
  2 -7 13 1993.50  62.49
  2  6 -13 592.44  26.90
  2  6 -13 540.35  18.60
  2  6 -13 536.85  26.10
 -2 -6 13 548.05  18.80
 -2 -6 13 564.04  18.70
 -2 -6 13 576.14  18.50
 -2 -6 13 568.64  18.70
 -2 -6 13 583.74  18.90
  1  6 -13  12.90  3.00
  1  6 -13  11.10  2.20
  1  6 -13  6.80  8.30
  1  6 -13  17.50  7.80
 -1 -6 13  11.20  2.20
 -1 -6 13  10.30  4.00
 -1 -6 13  13.20  1.70
 -1 -6 13  8.40  2.20
 -1 -6 13  7.60  1.80
  0  6 -13 2589.14  81.79
  0 -6 13 2439.16  80.19
  0 -6 13 2623.04  81.49
  0 -6 13 2695.73  82.59
  0 -6 13 2505.35  81.09
 -1  6 -13 381.86  14.50
 -1  6 -13 373.86  12.70
 -1  6 -13 378.86  14.00
  1 -6 13 362.46  14.00
  1 -6 13 373.26  13.20
  1 -6 13 381.66  13.30
 -2  6 -13  19.20  3.30
 -2  6 -13  15.20  1.40
  2 -6 13  12.30  1.80
  2 -6 13  12.40  4.30
  2  5 -13 1058.89  43.40
  2  5 -13 1004.60  41.80
  2  5 -13 1009.60  33.20
 -2 -5 13 1053.89  33.30
 -2 -5 13 1043.80  33.40
 -2 -5 13 1045.00  33.10
 -2 -5 13 1033.10  33.50
 -2 -5 13 1047.10  33.40
  1  5 -13 266.27  10.70
  1  5 -13 285.27  19.50
  1  5 -13 263.97  18.20
 -1 -5 13 272.97  10.20
 -1 -5 13 264.17  12.40
 -1 -5 13 275.57  10.90
 -1 -5 13 286.07  10.20
 -1 -5 13 280.77  9.80
 -1 -5 13 281.87  10.20
  0  5 -13 728.13  25.30
  0 -5 13 721.03  23.60
  0 -5 13 758.52  25.00
  0 -5 13 729.53  26.00
  0 -5 13 741.13  24.70
 -1  5 -13 1458.65  47.20
 -1  5 -13 1386.36  47.10
 -1  5 -13 1447.86  47.00
  1 -5 13 1461.95  46.00
 -2  5 -13  56.99  4.40
 -2  5 -13  55.09  2.70
 -2  5 -13  62.09  4.00
  2 -5 13  59.59  6.50
  2 -5 13  55.39  3.20
  2  4 -13 1157.88  47.20
  2  4 -13 1245.48  50.39
  2  4 -13 1170.58  38.40
 -2 -4 13 1202.18  38.70
 -2 -4 13 1198.88  38.50
 -2 -4 13 1191.98  38.50
 -2 -4 13 1239.48  38.30
 -2 -4 13 1224.58  38.60
  1  4 -13 1547.75  60.69
  1  4 -13 1615.34  63.79
  1  4 -13 1592.74  51.19
 -1 -4 13 1640.44  51.19
 -1 -4 13 1536.95  52.49
 -1 -4 13 1562.64  50.59
 -1 -4 13 1566.74  50.39
 -1 -4 13 1625.74  50.49
 -1 -4 13 1568.84  50.09
  0  4 -13 2178.38  69.49
  0  4 -13 2205.98  69.09
  0  4 -13 2044.10  76.99
  0 -4 13 2140.39  69.39
  0 -4 13 2213.78  68.59
  0 -4 13 2142.39  68.19
  0 -4 13 2116.59  67.29
 -1  4 -13  7.70  1.40
  1 -4 13  7.70  2.10
  1 -4 13  9.30  1.90
  1 -4 13  8.10  2.40
 -2  4 -13 125.59  4.60
 -2  4 -13 129.99  8.00
 -2  4 -13 124.39  4.80
  2 -4 13 133.29  7.60
  2 -4 13 121.19  5.40
  2 -4 13 118.49  9.20
  2  3 -13 1133.89  37.00
  2  3 -13 1140.79  45.90
  2  3 -13 1156.98  49.20
 -2 -3 13 1103.09  38.90
 -2 -3 13 1208.88  38.90
 -2 -3 13 1171.78  36.90
 -2 -3 13 1161.48  37.20
 -2 -3 13 1184.78  37.30
 -2 -3 13 1159.58  37.40
  1  3 -13  9.40  2.30
  1  3 -13  3.00  5.00
  1  3 -13  3.60  6.30
 -1 -3 13  6.10  2.00
 -1 -3 13  6.70  3.00
 -1 -3 13  7.40  2.00
  0  3 -13  55.19  5.90
  0  3 -13  58.39  4.60
  0  3 -13  50.09  11.00
  0  3 -13  47.40  3.70
  0 -3 13  46.30  6.00
  0 -3 13  45.80  3.40
  0 -3 13  50.39  3.80
  0 -3 13  52.79  2.80
  0 -3 13  60.89  4.30
 -1  3 -13  0.00  2.90
 -1  3 -13  -2.20  2.50
 -1  3 -13  2.00  1.20
  1 -3 13  5.20  3.10
  1 -3 13  2.20  2.10
 -2  3 -13 2130.69  66.99
 -2  3 -13 2074.99  67.59
 -2  3 -13 2143.59  67.29
 -2  3 -13 2110.29  68.49
  2 -3 13 2175.18  67.99
  2 -3 13 2197.98  73.79
  2 -3 13 2218.18  69.39
  3  2 -13  3.90  4.00
  3  2 -13  5.00  3.50
 -3 -2 13  6.20  1.30
 -3 -2 13  9.50  2.20
  2  2 -13 426.36  14.70
  2  2 -13 430.46  22.60
  2  2 -13 423.16  25.10
 -2 -2 13 429.36  14.90
 -2 -2 13 395.96  16.30
 -2 -2 13 446.16  14.70
 -2 -2 13 444.56  14.40
  1  2 -13  6.00  5.70
 -1 -2 13  5.90  1.20
 -1 -2 13  5.00  1.90
 -1 -2 13  7.80  1.90
 -1 -2 13  8.00  1.70
 -1 -2 13  9.50  2.10
  0  2 -13 907.11  29.70
  0  2 -13 971.50  32.10
  0  2 -13 924.71  31.40
  0 -2 13 921.11  31.60
  0 -2 13 903.81  29.40
  0 -2 13 915.61  30.60
  0 -2 13 918.71  30.40
  0 -2 13 925.01  30.60
 -1  2 -13 1898.31  60.09
 -1  2 -13 1918.91  61.79
 -1  2 -13 1949.20  60.79
  1 -2 13 1864.81  61.29
  1 -2 13 1895.41  60.59
 -2  2 -13  6.00  2.40
 -2  2 -13  7.80  1.40
 -2  2 -13  4.80  1.60
 -2  2 -13  4.40  1.20
  2 -2 13  7.00  3.30
  2 -2 13  3.40  2.50
  2 -2 13  4.00  1.20
  3  1 -13 221.38  9.00
  3  1 -13 243.78  14.10
 -3 -1 13 254.47  8.50
 -3 -1 13 256.87  8.30
  2  1 -13 185.18  7.80
  2  1 -13 209.18  8.40
  2  1 -13 203.88  8.00
  2  1 -13 202.88  16.50
  2  1 -13 208.38  15.80
 -2 -1 13 211.48  7.40
 -2 -1 13 209.48  8.10
 -2 -1 13 204.38  7.60
 -2 -1 13 176.68  9.20
  1  1 -13  68.49  4.90
  1  1 -13  66.99  5.10
  1  1 -13  66.99  10.50
 -1 -1 13  63.39  5.80
 -1 -1 13  74.19  4.20
 -1 -1 13  68.49  3.40
 -1 -1 13  74.99  3.80
 -1 -1 13  74.19  4.70
 -1 -1 13  72.09  4.00
  0  1 -13  66.39  6.10
  0  1 -13  57.09  5.00
  0  1 -13  63.49  3.90
  0 -1 13  61.59  3.80
  0 -1 13  64.19  4.20
  0 -1 13  61.69  6.00
  0 -1 13  70.29  4.50
  0 -1 13  64.29  3.00
 -1  1 -13 1425.56  47.50
 -1  1 -13 1572.04  50.49
 -1  1 -13 1508.75  49.40
 -1  1 -13 1564.94  48.90
  1 -1 13 1453.55  54.69
  1 -1 13 1504.05  47.70
  1 -1 13 1470.65  48.80
  1 -1 13 1501.15  48.20
 -2  1 -13  39.50  2.20
 -2  1 -13  40.00  3.00
 -2  1 -13  38.50  2.30
  2 -1 13  38.50  4.10
  2 -1 13  37.80  2.50
  2 -1 13  42.50  5.90
  2  0 -13  32.80  3.50
  2  0 -13  35.70  3.30
  2  0 -13  34.70  4.00
  2  0 -13  41.50  8.70
 -2  0 13  40.80  2.50
 -2  0 13  26.70  3.30
 -2  0 13  37.00  2.70
 -2  0 13  33.50  4.80
 -2  0 13  35.60  2.80
 -2  0 13  39.60  3.40
  1  0 -13 1829.72  72.99
  1  0 -13 1934.71  61.49
  1  0 -13 1965.90  61.89
 -1  0 13 1861.31  62.59
 -1  0 13 1932.41  60.69
 -1  0 13 1950.70  60.49
 -1  0 13 1981.40  60.59
 -1  0 13 1920.21  61.09
 -1  0 13 1873.81  60.19
 -1  0 13 1886.31  61.09
  0  0 -13 2476.45  81.19
  0  0 -13 2714.33  82.09
  0  0 -13 2527.65  79.49
  0  0 13 2477.15  80.39
  0  0 13 2540.75  80.19
  0  0 13 2483.75  78.99
  0  0 13 2537.35  81.19
 -1  0 -13 122.39  5.80
 -1  0 -13 106.19  6.80
 -1  0 -13 111.79  6.80
 -1  0 -13 123.69  5.10
  1  0 13 118.19  11.50
  1  0 13 115.89  5.80
  1  0 13 107.89  7.00
  1  0 13 116.29  5.30
 -2  0 -13  46.10  2.30
 -2  0 -13  39.90  2.30
 -2  0 -13  44.20  4.40
 -2  0 -13  42.40  3.00
  2  0 13  38.60  2.50
  2  0 13  43.40  4.00
  2 -1 -13 1694.63  54.19
  2 -1 -13 1755.52  54.29
  2 -1 -13 1630.74  64.79
  2 -1 -13 1753.72  54.89
 -2  1 13 1718.83  53.69
 -2  1 13 1714.63  54.29
 -2  1 13 1708.33  54.09
 -2  1 13 1708.63  53.89
 -2  1 13 1673.03  53.89
  1 -1 -13 1044.00  34.50
  1 -1 -13 1039.90  34.10
  1 -1 -13 1002.90  44.50
 -1  1 13 1028.90  33.00
 -1  1 13 949.90  35.10
 -1  1 13 1029.10  33.10
 -1  1 13 1057.59  33.80
 -1  1 13 1054.89  33.70
 -1  1 13 1031.80  32.70
  0 -1 -13 156.98  8.30
  0 -1 -13 133.09  5.90
  0 -1 -13 142.39  7.50
  0 -1 -13 136.49  6.80
  0  1 13 133.49  6.30
  0  1 13 128.29  7.50
  0  1 13 134.99  5.10
  0  1 13 139.59  6.40
 -1 -1 -13  19.90  4.10
 -1 -1 -13  22.60  2.20
 -1 -1 -13  22.00  4.20
 -1 -1 -13  26.20  3.30
  1  1 13  24.80  3.00
 -2 -1 -13 708.63  23.10
 -2 -1 -13 721.93  23.50
 -2 -1 -13 719.03  23.10
 -2 -1 -13 710.93  24.40
  2  1 13 745.83  25.10
  2  1 13 709.03  23.30
  2 -2 -13 604.54  20.70
  2 -2 -13 600.14  29.00
  2 -2 -13 631.74  21.30
  2 -2 -13 648.04  20.90
 -2  2 13 601.94  20.40
 -2  2 13 625.34  20.60
 -2  2 13 632.74  20.80
 -2  2 13 631.24  20.40
 -2  2 13 630.54  20.20
  1 -2 -13 116.49  6.00
  1 -2 -13 110.19  12.10
  1 -2 -13 118.49  6.50
 -1  2 13 120.09  5.70
 -1  2 13 116.69  5.60
 -1  2 13 125.49  6.60
 -1  2 13 113.69  4.60
 -1  2 13 119.49  5.00
  0 -2 -13 536.15  18.60
  0 -2 -13 527.55  19.30
  0  2 13 521.55  18.00
  0  2 13 539.05  18.40
  0  2 13 504.95  20.20
 -1 -2 -13 288.17  11.70
 -1 -2 -13 273.77  10.40
 -1 -2 -13 271.27  9.60
 -1 -2 -13 259.17  11.20
  1  2 13 270.37  10.40
  2 -3 -13  10.00  2.10
  2 -3 -13  6.40  1.80
  2 -3 -13  10.40  2.30
 -2  3 13  10.40  2.10
 -2  3 13  5.80  2.40
  1 -3 -13 555.64  27.60
 -1  3 13 532.25  17.90
 -1  3 13 551.84  18.80
  0 -3 -13  7.10  6.40
  0 -3 -13  6.50  2.30
  0 -3 -13  8.90  1.60
  0  3 13  3.70  2.10
  0  3 13  2.30  2.80
 -1 -3 -13 1623.24  51.59
 -1 -3 -13 1609.54  50.79
 -1 -3 -13 1539.75  52.19
  1  3 13 1624.04  51.49
  1  3 13 1645.24  53.29
  1  3 13 1619.04  61.19
  2 -4 -13  17.90  10.20
  2 -4 -13  13.10  2.30
  2 -4 -13  16.80  2.50
  2 -4 -13  14.10  2.70
 -2  4 13  13.50  1.70
 -2  4 13  14.00  2.00
 -2  4 13  14.50  2.60
 -2  4 13  14.00  1.50
 -2  4 13  15.30  2.90
  1 -4 -13 2760.02  95.79
  1 -4 -13 2858.61  88.59
  1 -4 -13 2803.82  88.09
 -1  4 13 2661.33  86.69
 -1  4 13 2922.01  87.49
 -1  4 13 2761.32  86.89
 -1  4 13 2776.22  87.69
 -1  4 13 2714.93  86.59
  0 -4 -13 1869.11  58.99
  0 -4 -13 1869.11  60.79
  0 -4 -13 1902.21  60.09
  0  4 13 1834.62  59.99
  0  4 13 1917.61  59.29
  0  4 13 1903.91  59.89
  0  4 13 1848.12  58.79
 -1 -4 -13  18.00  2.60
 -1 -4 -13  18.50  1.80
 -1 -4 -13  18.70  3.60
  1  4 13  17.60  3.40
  1  4 13  15.50  7.00
  1  4 13  18.40  2.00
  2 -5 -13 438.26  15.20
  2 -5 -13 442.66  15.00
 -2  5 13 440.16  14.50
 -2  5 13 448.76  14.70
 -2  5 13 446.16  14.50
 -2  5 13 453.35  14.30
  1 -5 -13 349.57  12.70
  1 -5 -13 340.07  13.00
 -1  5 13 358.66  12.10
 -1  5 13 344.27  11.30
 -1  5 13 347.97  11.70
 -1  5 13 355.36  12.50
  0 -5 -13 561.84  18.30
  0 -5 -13 565.14  19.90
  0  5 13 558.44  19.20
  0  5 13 565.44  18.40
  0  5 13 568.14  18.30
 -1 -5 -13 195.38  7.40
 -1 -5 -13 184.38  6.60
 -1 -5 -13 176.38  8.60
  1  5 13 193.08  8.20
  1  5 13 185.68  7.00
  1 -6 -13 576.84  19.00
  1 -6 -13 555.74  19.30
 -1  6 13 564.04  18.30
 -1  6 13 546.45  18.10
  0 -6 -13 464.05  16.70
  0  6 13 481.25  15.40
  0  6 13 477.95  15.40
  0  6 13 470.35  16.10
  1  9 -14 371.36  12.70
  1  9 -14 394.46  18.30
 -1 -9 14 388.86  12.50
 -1 -9 14 396.96  13.00
 -1 -9 14 390.36  13.10
  0  9 -14 1582.24  49.80
  0  9 -14 1544.85  55.59
  0 -9 14 1581.14  49.60
  0 -9 14 1564.54  49.40
  1  8 -14 400.96  13.80
  1  8 -14 425.96  20.50
 -1 -8 14 401.96  13.80
 -1 -8 14 404.66  13.70
 -1 -8 14 418.66  13.40
 -1 -8 14 414.86  14.10
  0  8 -14 336.67  12.20
  0  8 -14 347.27  17.80
  0  8 -14 333.27  21.50
  0 -8 14 346.77  11.80
  0 -8 14 345.57  12.00
 -1  8 -14 564.04  19.20
 -1  8 -14 575.64  23.50
 -1  8 -14 550.84  18.10
  1 -8 14 577.34  19.20
  1 -8 14 590.04  18.90
  1  7 -14 1242.28  47.10
  1  7 -14 1225.68  46.30
  1  7 -14 1204.28  39.20
 -1 -7 14 1208.68  38.60
 -1 -7 14 1223.68  39.10
 -1 -7 14 1242.08  39.30
  0  7 -14  41.50  7.60
  0  7 -14  31.80  2.80
  0  7 -14  39.20  7.20
  0 -7 14  37.60  3.50
  0 -7 14  46.00  2.90
 -1  7 -14 571.84  19.40
 -1  7 -14 576.94  18.30
  1 -7 14 570.44  19.40
  2  6 -14 384.96  21.00
  2  6 -14 374.36  18.10
  2  6 -14 370.96  12.60
 -2 -6 14 387.26  12.70
 -2 -6 14 374.56  12.60
 -2 -6 14 387.06  12.40
 -2 -6 14 372.26  12.80
  1  6 -14  11.90  6.70
 -1 -6 14  15.30  2.20
 -1 -6 14  11.90  2.00
  0  6 -14 171.18  12.70
  0  6 -14 160.58  7.00
  0 -6 14 165.68  6.70
  0 -6 14 160.58  8.00
  0 -6 14 174.78  6.90
  0 -6 14 170.78  5.80
  0 -6 14 162.08  6.80
 -1  6 -14 1076.49  35.20
 -1  6 -14 1082.39  34.90
 -1  6 -14 1040.20  33.60
  1 -6 14 1076.69  34.80
  1 -6 14 1056.79  33.90
  2  5 -14 470.75  17.80
  2  5 -14 536.05  24.40
  2  5 -14 530.15  23.50
 -2 -5 14 541.85  17.50
 -2 -5 14 551.24  17.90
 -2 -5 14 557.14  19.10
 -2 -5 14 550.54  17.40
 -2 -5 14 524.45  17.20
  1  5 -14 368.06  21.00
  1  5 -14 375.86  20.50
  1  5 -14 353.36  12.90
 -1 -5 14 358.36  12.90
 -1 -5 14 359.76  12.40
 -1 -5 14 380.86  12.80
 -1 -5 14 352.06  12.70
 -1 -5 14 341.87  12.10
  0  5 -14 1977.70  71.19
  0  5 -14 1956.70  64.09
  0 -5 14 1994.50  62.39
  0 -5 14 2033.90  63.69
  0 -5 14 2003.10  63.49
  0 -5 14 2021.50  63.49
  0 -5 14 2047.10  64.49
 -1  5 -14 857.91  28.10
 -1  5 -14 870.71  26.90
 -1  5 -14 781.62  32.40
  1 -5 14 854.01  28.00
  1 -5 14 842.52  27.10
  2  4 -14 1117.19  42.30
  2  4 -14 1126.39  44.30
 -2 -4 14 1095.79  35.80
 -2 -4 14 1138.69  35.90
 -2 -4 14 1131.09  36.30
 -2 -4 14 1131.19  35.50
  1  4 -14 1123.99  46.30
  1  4 -14 1097.89  36.00
  1  4 -14 1120.49  44.00
 -1 -4 14 1078.89  34.90
 -1 -4 14 1054.29  35.30
 -1 -4 14 1101.19  35.20
 -1 -4 14 1133.59  35.80
 -1 -4 14 1089.19  35.40
  0  4 -14 236.78  10.90
  0  4 -14 234.48  11.60
  0  4 -14 228.38  15.80
  0 -4 14 245.88  9.20
  0 -4 14 233.38  7.90
  0 -4 14 219.78  9.50
  0 -4 14 245.88  9.10
  0 -4 14 222.88  9.90
 -1  4 -14 576.44  20.10
 -1  4 -14 573.54  18.50
 -1  4 -14 556.84  19.70
  1 -4 14 573.54  19.60
  1 -4 14 563.04  18.70
  2  3 -14 342.57  17.70
  2  3 -14 343.27  19.50
 -2 -3 14 343.67  11.60
 -2 -3 14 332.27  11.80
 -2 -3 14 347.57  11.40
 -2 -3 14 324.37  11.70
  1  3 -14 2087.99  75.29
  1  3 -14 2199.58  68.29
  1  3 -14 2183.28  79.59
 -1 -3 14 2119.69  67.49
 -1 -3 14 2118.09  66.99
 -1 -3 14 2030.50  67.29
 -1 -3 14 2141.79  67.29
 -1 -3 14 2238.38  67.99
  0  3 -14 126.09  7.60
  0 -3 14 118.79  6.70
  0 -3 14 109.49  6.40
  0 -3 14 112.79  4.40
  0 -3 14 120.29  5.60
 -1  3 -14 500.95  18.00
 -1  3 -14 513.65  16.40
 -1  3 -14 490.25  17.60
  1 -3 14 486.45  17.40
  1 -3 14 499.75  16.50
  2  2 -14 360.66  20.40
  2  2 -14 346.57  18.40
 -2 -2 14 374.16  12.10
 -2 -2 14 365.76  12.50
 -2 -2 14 371.56  12.40
 -2 -2 14 352.96  12.40
 -2 -2 14 365.96  12.70
  1  2 -14 180.28  16.00
  1  2 -14 158.28  8.00
 -1 -2 14 164.58  7.10
 -1 -2 14 181.68  6.50
 -1 -2 14 180.98  6.70
 -1 -2 14 172.08  7.30
 -1 -2 14 181.88  7.10
  0  2 -14 100.49  6.90
  0 -2 14  91.89  3.80
  0 -2 14  95.09  5.80
  0 -2 14  98.59  6.10
 -1  2 -14 221.38  8.80
 -1  2 -14 226.48  9.60
 -1  2 -14 214.78  9.20
 -1  2 -14 224.88  7.80
  1 -2 14 216.78  12.80
  1 -2 14 222.48  8.70
  1 -2 14 221.78  8.70
  1 -2 14 212.28  8.00
  2  1 -14 272.67  10.20
  2  1 -14 270.87  17.10
 -2 -1 14 285.57  9.50
 -2 -1 14 281.67  9.90
 -2 -1 14 290.27  9.80
 -2 -1 14 272.27  10.00
 -2 -1 14 280.07  10.10
  1  1 -14  25.80  7.30
  1  1 -14  22.60  3.20
  1  1 -14  31.70  3.60
 -1 -1 14  30.10  3.20
 -1 -1 14  24.70  3.00
 -1 -1 14  31.10  2.40
 -1 -1 14  29.70  3.70
 -1 -1 14  24.50  2.90
 -1 -1 14  28.40  2.00
  0 -1 14 1256.77  41.50
  0 -1 14 1247.58  40.20
  0 -1 14 1186.28  40.30
 -1  1 -14 1007.10  32.40
 -1  1 -14 1022.00  33.80
 -1  1 -14 1034.20  34.10
 -1  1 -14 1020.40  33.00
  1 -1 14 1010.90  33.40
  1 -1 14 1047.10  37.90
  1 -1 14 1019.50  32.90
  1 -1 14 991.90  32.40
  2  0 -14 1619.44  61.69
  2  0 -14 1722.03  53.29
 -2  0 14 1684.03  52.89
 -2  0 14 1722.63  52.99
 -2  0 14 1594.84  52.89
 -2  0 14 1712.63  53.19
 -2  0 14 1702.43  52.59
  1  0 -14 488.75  25.70
  1  0 -14 478.95  17.30
  1  0 -14 503.85  17.00
 -1  0 14 450.75  16.50
 -1  0 14 477.95  16.10
 -1  0 14 491.55  16.70
 -1  0 14 498.15  16.80
 -1  0 14 489.45  15.80
  0  0 -14 1014.70  34.00
  0  0 14 991.00  33.60
  0  0 14 1020.70  33.00
  0  0 14 1038.90  33.30
 -1  0 -14 470.45  15.40
 -1  0 -14 473.95  17.10
 -1  0 -14 440.16  16.60
 -1  0 -14 481.65  16.10
  1  0 14 461.95  16.10
  2 -1 -14  30.50  2.70
  2 -1 -14  31.40  6.60
 -2  1 14  36.40  3.00
 -2  1 14  33.40  3.30
 -2  1 14  36.50  2.00
 -2  1 14  32.80  2.50
  1 -1 -14 1794.22  56.89
  1 -1 -14 1717.23  65.79
  1 -1 -14 1816.72  56.49
 -1  1 14 1725.83  55.49
 -1  1 14 1805.92  56.09
 -1  1 14 1753.02  56.19
 -1  1 14 1742.43  55.29
  0 -1 -14 163.08  7.40
  0 -1 -14 142.79  7.10
  0  1 14 157.58  6.30
  0  1 14 162.98  6.80
  0  1 14 148.59  7.00
 -1 -1 -14 623.04  20.20
 -1 -1 -14 600.24  21.40
 -1 -1 -14 619.24  21.70
 -1 -1 -14 649.43  20.90
  1  1 14 625.94  20.90
  2 -2 -14 659.83  21.90
  2 -2 -14 664.43  21.60
  2 -2 -14 646.84  27.80
 -2  2 14 664.43  21.20
 -2  2 14 668.43  21.70
 -2  2 14 680.93  21.50
 -2  2 14 661.13  21.40
  1 -2 -14  53.19  8.80
  1 -2 -14  49.80  3.60
  1 -2 -14  58.89  3.70
 -1  2 14  57.19  2.60
 -1  2 14  50.09  5.20
 -1  2 14  53.49  3.60
 -1  2 14  56.19  3.20
  0 -2 -14  5.70  5.10
  0 -2 -14  10.10  2.50
  0 -2 -14  4.30  1.80
  0 -2 -14  4.10  1.70
  0  2 14  2.10  1.80
  0  2 14  2.30  2.00
  0  2 14  5.90  1.30
  0  2 14  2.50  1.80
 -1 -2 -14  94.89  3.80
 -1 -2 -14  97.49  4.60
 -1 -2 -14  87.39  7.50
  1  2 14  96.09  5.60
  1  2 14  91.39  4.20
  2 -3 -14 807.32  26.30
  2 -3 -14 829.82  25.90
  2 -3 -14 768.52  30.60
 -2  3 14 809.72  25.50
 -2  3 14 797.92  25.70
 -2  3 14 807.32  25.90
 -2  3 14 810.22  25.60
 -2  3 14 833.62  25.80
  1 -3 -14  6.20  1.60
  1 -3 -14  5.40  1.70
  1 -3 -14  8.80  5.50
 -1  3 14  4.80  1.90
 -1  3 14  4.00  1.20
  0 -3 -14 1619.14  52.69
  0 -3 -14 1606.04  58.29
  0  3 14 1589.14  51.09
  0  3 14 1676.33  51.49
  0  3 14 1620.84  52.09
  0  3 14 1684.53  52.09
 -1 -3 -14 226.28  9.70
 -1 -3 -14 245.48  8.30
 -1 -3 -14 253.57  8.90
  1  3 14 236.18  8.70
  1  3 14 249.58  9.90
  1 -4 -14 145.09  6.00
  1 -4 -14 134.99  6.10
 -1  4 14 138.29  5.40
 -1  4 14 139.69  5.20
 -1  4 14 142.79  5.90
  0 -4 -14 104.39  5.30
  0  4 14 101.69  4.90
  0  4 14 110.69  4.60
  0  4 14 110.09  4.20
  1 -5 -14 290.77  10.90
  1 -5 -14 316.37  10.70
 -1  5 14 301.17  10.10
 -1  5 14 297.97  10.00
  0 -5 -14 1426.96  44.90
  0  5 14 1404.36  43.60
  0  5 14 1347.97  44.70
  0  5 14 1394.86  44.30
  0  7 -15 132.89  9.90
  0  7 -15 120.19  5.20
  0  7 -15 124.19  9.40
  0 -7 15 128.59  5.00
  0 -7 15 126.39  5.00
  1  6 -15 402.56  18.80
  1  6 -15 404.46  13.90
  1  6 -15 425.96  19.70
 -1 -6 15 407.26  13.90
 -1 -6 15 421.46  13.80
 -1 -6 15 423.06  13.30
 -1 -6 15 385.36  14.10
 -1 -6 15 440.86  14.00
  0  6 -15 156.68  10.90
  0  6 -15 140.69  6.00
  0  6 -15 145.29  10.70
  0 -6 15 142.29  5.70
  0 -6 15 140.09  5.70
  1  5 -15 396.46  13.80
  1  5 -15 404.06  19.00
  1  5 -15 429.16  20.70
 -1 -5 15 422.26  13.90
 -1 -5 15 403.46  13.60
 -1 -5 15 389.46  13.70
 -1 -5 15 402.46  13.10
 -1 -5 15 399.76  13.50
  0  5 -15 422.66  20.30
  0  5 -15 436.46  14.90
  0  5 -15 425.96  21.10
  0 -5 15 419.96  14.30
  0 -5 15 436.66  14.40
  0 -5 15 386.26  15.60
  0 -5 15 433.66  14.40
 -1  5 -15 1077.49  34.90
  1 -5 15 1128.29  35.80
  1 -5 15 1137.49  39.80
  1  4 -15 864.41  27.80
  1  4 -15 801.82  36.30
  1  4 -15 870.71  35.80
 -1 -4 15 841.92  27.20
 -1 -4 15 881.11  27.70
 -1 -4 15 849.72  27.60
 -1 -4 15 848.72  27.40
 -1 -4 15 852.51  26.90
  0  4 -15 1844.62  59.89
  0  4 -15 1859.71  67.79
  0 -4 15 1886.11  59.29
  0 -4 15 1857.81  59.29
  0 -4 15 1915.91  59.29
  0 -4 15 1904.81  59.89
 -1  4 -15  -1.30  3.60
 -1  4 -15  1.20  1.80
 -1  4 -15  2.70  1.00
  1 -4 15  2.30  2.40
  1 -4 15  1.30  2.90
  1  3 -15 558.14  26.50
  1  3 -15 570.54  19.10
 -1 -3 15 590.54  18.90
 -1 -3 15 544.55  18.40
 -1 -3 15 567.64  18.60
 -1 -3 15 563.14  18.90
 -1 -3 15 566.14  18.10
  0  3 -15 499.35  17.80
  0 -3 15 530.65  17.40
  0 -3 15 509.85  17.90
  0 -3 15 518.85  17.20
 -1  3 -15 162.78  7.60
 -1  3 -15 133.69  6.70
  1 -3 15 148.79  9.10
  1 -3 15 144.99  6.00
  1  2 -15 771.82  33.60
  1  2 -15 777.02  25.70
 -1 -2 15 806.52  25.40
 -1 -2 15 792.62  25.50
 -1 -2 15 749.73  24.80
 -1 -2 15 764.42  24.60
  0  2 -15  68.09  4.10
  0 -2 15  66.49  4.70
  0 -2 15  77.29  3.70
  0 -2 15  87.59  4.20
 -1  2 -15 499.45  17.20
 -1  2 -15 534.05  18.40
  1 -2 15 535.55  17.60
  1  1 -15 995.10  32.00
  1  1 -15 972.60  39.80
 -1 -1 15 928.31  31.00
 -1 -1 15 964.60  30.80
 -1 -1 15 1029.30  31.50
 -1 -1 15 976.90  31.60
  0  1 -15 112.39  5.50
  0  1 -15 119.19  10.50
  0 -1 15 114.29  5.70
  0 -1 15 119.59  5.30
  0 -1 15 117.09  4.90
 -1  1 -15 489.25  17.40
  1 -1 15 498.75  16.90
  1 -1 15 530.05  18.20
  1  0 -15 233.18  8.90
  1  0 -15 242.68  9.10
  1  0 -15 243.18  15.10
 -1  0 15 244.28  8.90
 -1  0 15 244.58  8.70
 -1  0 15 241.48  8.00
  0  0 -15 2000.80  72.89
  0  0 -15 2073.39  65.89
  0  0 -15 2053.99  65.09
  0  0 15 2127.89  65.39
  0  0 15 2109.29  64.99
  0  0 15 2048.50  65.49
 -1  0 -15  21.80  3.50
 -1  0 -15  30.30  3.80
 -1  0 -15  23.90  1.90
  1  0 15  23.50  2.10
  1  0 15  29.40  3.00
  1 -1 -15 192.18  7.40
  1 -1 -15 196.58  12.80
  1 -1 -15 190.58  7.60
 -1  1 15 198.28  6.80
 -1  1 15 194.68  7.10
 -1  1 15 195.18  6.40
 -1  1 15 188.28  7.40
  0 -1 -15 550.24  24.60
  0 -1 -15 559.34  19.30
  0 -1 -15 563.24  18.60
  0  1 15 566.74  18.70
  0  1 15 548.95  18.90
  0  1 15 582.14  18.30
  1 -2 -15 1005.20  45.30
  1 -2 -15 1048.60  34.10
  1 -2 -15 1067.09  34.40
 -1  2 15 1075.79  33.40
 -1  2 15 1082.09  34.10
 -1  2 15 1099.69  33.80
  0 -2 -15  3.80  4.60
  0 -2 -15  2.00  1.30
  0 -2 -15  6.10  1.50
  0  2 15  3.50  1.50
  0  2 15  3.80  1.00
  0  2 15  5.30  1.80
  0  0  0  0.00  0.00
_computing_structure_solution   'SHELXT 2014/5 (Sheldrick, 2014)'
;
_shelx_hkl_checksum              9466
_shelx_res_file
;
TITL SA09R_0m_a.res in P-1
  shelx.res
  created by SHELXL-2016/6 at 23:43:57 on 20-Feb-2018
CELL 1.54178  3.8733 13.0776 13.2628  98.817  94.714  94.727
ZERR  2.000  0.0002  0.0005  0.0006  0.001  0.001  0.001
LATT 1
SFAC C H BR F N O S
UNIT 28 20 2 2 4 2 2
TEMP -173.140
SIZE 0.04 0.05 0.35
L.S. 10
ACTA
HTAB
BOND $H
LIST 6
FMAP 2
PLAN 20
WGHT  0.100000
FVAR    1.25297
BR1  3  -0.393503  0.117581  0.466893  11.00000  0.01689  0.00960 =
     0.01248  0.00588  0.00215  -0.00227
O1  6  0.456048  0.660919  0.322069  11.00000  0.03118  0.01224 =
     0.00761  0.00107  0.00333  -0.00652
N1  5  0.383515  0.581224  0.155343  11.00000  0.01545  0.01078 =
     0.00575  0.00223  0.00075  0.00045
AFIX 43
H1A  2  0.419261  0.590591  0.092584  11.00000  -1.20000
AFIX  0
N2  5  0.154356  0.473313  0.260275  11.00000  0.01703  0.00727 =
     0.00900  0.00189  0.00206  -0.00013
AFIX 43
H1B  2  0.187274  0.531645  0.304308  11.00000  -1.20000
AFIX  0
F1  4  0.967866  1.043439  0.122144  11.00000  0.03284  0.00781 =
     0.02130  0.00511  0.00785  -0.00540
S1  7  0.186167  0.389733  0.062657  11.00000  0.01398  0.00819 =
     0.00690  0.00050  0.00084  -0.00094
C1  1  0.519527  0.787241  0.099587  11.00000  0.00921  0.00801 =
     0.01021  0.00048  0.00232  -0.00044
AFIX 43
H1  2  0.376290  0.737919  0.050359  11.00000  -1.20000
AFIX  0
C2  1  0.639798  0.881031  0.073942  11.00000  0.01608  0.01030 =
     0.01328  0.00315  0.00314  0.00220
AFIX 43
H2  2  0.581012  0.896819  0.007460  11.00000  -1.20000
AFIX  0
C3  1  0.846572  0.951426  0.146337  11.00000  0.01975  0.00683 =
     0.01944  0.00329  0.01193  0.00219
C4  1  0.934488  0.933226  0.245438  11.00000  0.01486  0.00972 =
     0.01478  -0.00214  0.00200  -0.00262
AFIX 43
H4  2  1.074144  0.983856  0.294279  11.00000  -1.20000
AFIX  0
C5  1  0.811654  0.838968  0.270362  11.00000  0.01442  0.00948 =
     0.00926  -0.00115  -0.00062  -0.00156
AFIX 43
H5  2  0.866416  0.824564  0.337592  11.00000  -1.20000
AFIX  0
C6  1  0.606301  0.763925  0.197439  11.00000  0.01056  0.01026 =
     0.00891  0.00076  0.00081  -0.00020
C7  1  0.478201  0.665578  0.230842  11.00000  0.01177  0.01035 =
     0.00979  0.00366  0.00129  -0.00133
C9  1  0.023345  0.386527  0.301356  11.00000  0.01199  0.00703 =
     0.00858  0.00473  0.00476  0.00047
C8  1  0.237752  0.482526  0.165622  11.00000  0.01032  0.00863 =
     0.00708  0.00264  -0.00019  0.00204
C10  1  -0.183700  0.300557  0.245361  11.00000  0.01369  0.01201 =
     0.00877  0.00275  -0.00055  0.00007
AFIX 43
H10  2  -0.240925  0.296827  0.173769  11.00000  -1.20000
AFIX  0
C11  1  -0.305150  0.220638  0.295129  11.00000  0.01159  0.00918 =
     0.00968  0.00039  0.00069  -0.00277
AFIX 43
H11  2  -0.444455  0.161739  0.257544  11.00000  -1.20000
AFIX  0
C12  1  -0.222391  0.227066  0.399976  11.00000  0.01283  0.00799 =
     0.01123  0.00564  0.00227  0.00046
C13  1  -0.021719  0.312205  0.456945  11.00000  0.01384  0.01316 =
     0.00667  0.00485  0.00184  -0.00032
AFIX 43
H13  2  0.031180  0.315998  0.528723  11.00000  -1.20000
AFIX  0
C14  1  0.099860  0.391358  0.407555  11.00000  0.01295  0.00921 =
     0.01122  0.00016  0.00105  -0.00072
AFIX 43
H14  2  0.237633  0.450144  0.445916  11.00000  -1.20000
REM #####
REM #####
REM #####
REM #####
AFIX  0
HKLF 4
REM SA09R_0m_a.res in P-1
REM R1 = 0.0252 for  2381 Fo > 4sig(Fo) and 0.0252 for all  2384 data
REM  181 parameters refined using   0 restraints
END
WGHT   0.0385   0.6405
REM Instructions for potential hydrogen bonds
EQIV $1 -x+1, -y+1, -z
HTAB N1 S1_$1
HTAB N2 O1
HTAB C10 S1
REM Highest difference peak 0.454, deepest hole -1.459, 1-sigma level 0.082
Q1  1  0.7271 0.7986 0.2395 11.00000 0.05  0.45
Q2  1  0.2039 0.4474 0.1249 11.00000 0.05  0.39
Q3  1 -0.3785 0.0385 0.4424 11.00000 0.05  0.37
Q4  1  0.0758 0.3340 0.4272 11.00000 0.05  0.36
Q5  1  0.0167 0.3797 0.3465 11.00000 0.05  0.36
Q6  1  0.5087 0.7126 0.2170 11.00000 0.05  0.35
Q7  1  0.8005 0.9516 0.1809 11.00000 0.05  0.35
Q8  1 -0.0626 0.3384 0.2779 11.00000 0.05  0.34
Q9  1  0.8670 0.8970 0.2468 11.00000 0.05  0.34
Q10  1  0.1422 0.4192 0.2749 11.00000 0.05  0.33
Q11  1 -0.4494 0.1809 0.4281 11.00000 0.05  0.31
Q12  1  0.5718 0.7775 0.1597 11.00000 0.05  0.31
Q13  1 -0.2906 0.2387 0.3514 11.00000 0.05  0.30
Q14  1  0.6226 0.7653 0.1451 11.00000 0.05  0.30
Q15  1  0.8732 1.1172 0.0665 11.00000 0.05  0.29
Q16  1 -0.3965 0.1858 0.5250 11.00000 0.05  0.29
Q17  1  0.2035 0.3200 0.0807 11.00000 0.05  0.28
Q18  1  0.4947 0.8485 0.0920 11.00000 0.05  0.27
Q19  1  0.6559 0.8190 0.0770 11.00000 0.05  0.27
Q20  1 -0.1882 0.2602 0.2755 11.00000 0.05  0.27
;
_shelx_res_checksum              86154
loop_
_space_group_symop_operation_xyz
'x, y, z'
'-x, -y, -z'
loop_
_atom_site_type_symbol
_atom_site_label
_atom_site_fract_x
_atom_site_fract_y
_atom_site_fract_z
_atom_site_U_iso_or_equiv
_atom_site_adp_type
_atom_site_calc_flag
_atom_site_occupancy
Br Br1 -0.39350(4) 0.11758(2) 0.46689(2) 0.01272(16) Uani d 1
O O1 0.4560(4) 0.66092(11) 0.32207(10) 0.0175(3) Uani d 1
N N1 0.3835(4) 0.58122(12) 0.15534(11) 0.0106(3) Uani d 1
H H1A 0.419261 0.590591 0.092584 0.013 Uiso calc 1
N N2 0.1544(4) 0.47331(12) 0.26027(11) 0.0111(3) Uani d 1
H H1B 0.187274 0.531645 0.304308 0.013 Uiso calc 1
F F1 0.9679(3) 1.04344(9) 0.12214(9) 0.0205(3) Uani d 1
S S1 0.18617(10) 0.38973(3) 0.06266(3) 0.00989(18) Uani d 1
C C1 0.5195(4) 0.78724(14) 0.09959(14) 0.0092(4) Uani d 1
H H1 0.376290 0.737919 0.050359 0.011 Uiso calc 1
C C2 0.6398(5) 0.88103(14) 0.07394(14) 0.0129(4) Uani d 1
H H2 0.581012 0.896819 0.007460 0.016 Uiso calc 1
C C3 0.8466(5) 0.95143(15) 0.14634(15) 0.0146(4) Uani d 1
C C4 0.9345(5) 0.93323(14) 0.24544(14) 0.0137(4) Uani d 1
H H4 1.074144 0.983856 0.294279 0.016 Uiso calc 1
C C5 0.8117(5) 0.83897(14) 0.27036(14) 0.0116(4) Uani d 1
H H5 0.866416 0.824564 0.337592 0.014 Uiso calc 1
C C6 0.6063(5) 0.76392(14) 0.19744(13) 0.0101(4) Uani d 1
C C7 0.4782(5) 0.66558(14) 0.23084(14) 0.0105(4) Uani d 1
C C9 0.0233(4) 0.38653(13) 0.30136(13) 0.0086(4) Uani d 1
C C8 0.2378(4) 0.48253(14) 0.16562(13) 0.0085(4) Uani d 1
C C10 -0.1837(5) 0.30056(14) 0.24536(13) 0.0115(4) Uani d 1
H H10 -0.240925 0.296827 0.173769 0.014 Uiso calc 1
C C11 -0.3051(4) 0.22064(14) 0.29513(13) 0.0105(4) Uani d 1
H H11 -0.444455 0.161739 0.257544 0.013 Uiso calc 1
C C12 -0.2224(5) 0.22707(13) 0.39998(14) 0.0102(4) Uani d 1
C C13 -0.0217(5) 0.31221(13) 0.45694(13) 0.0109(4) Uani d 1
H H13 0.031180 0.315998 0.528723 0.013 Uiso calc 1
C C14 0.0999(5) 0.39136(15) 0.40755(14) 0.0114(4) Uani d 1
H H14 0.237633 0.450144 0.445916 0.014 Uiso calc 1
loop_
_atom_site_aniso_label
_atom_site_aniso_U_11
_atom_site_aniso_U_22
_atom_site_aniso_U_33
_atom_site_aniso_U_12
_atom_site_aniso_U_13
_atom_site_aniso_U_23
Br1 0.0169(2) 0.0096(2) 0.0125(2) -0.00227(13) 0.00215(13) 0.00588(13)
O1 0.0312(8) 0.0122(7) 0.0076(7) -0.0065(6) 0.0033(6) 0.0011(5)
N1 0.0154(8) 0.0108(8) 0.0057(7) 0.0005(6) 0.0007(6) 0.0022(6)
N2 0.0170(8) 0.0073(7) 0.0090(7) -0.0001(6) 0.0021(6) 0.0019(6)
F1 0.0328(7) 0.0078(6) 0.0213(7) -0.0054(5) 0.0078(5) 0.0051(5)
S1 0.0140(3) 0.0082(3) 0.0069(3) -0.00094(19) 0.00084(19) 0.00050(19)
C1 0.0092(8) 0.0080(9) 0.0102(8) -0.0004(6) 0.0023(6) 0.0005(7)
C2 0.0161(9) 0.0103(9) 0.0133(9) 0.0022(7) 0.0031(7) 0.0031(7)
C3 0.0197(9) 0.0068(9) 0.0194(10) 0.0022(7) 0.0119(8) 0.0033(7)
C4 0.0149(9) 0.0097(9) 0.0148(9) -0.0026(7) 0.0020(7) -0.0021(7)
C5 0.0144(8) 0.0095(9) 0.0093(8) -0.0016(7) -0.0006(7) -0.0012(7)
C6 0.0106(8) 0.0103(9) 0.0089(9) -0.0002(7) 0.0008(6) 0.0008(7)
C7 0.0118(8) 0.0104(9) 0.0098(9) -0.0013(7) 0.0013(6) 0.0037(7)
C9 0.0120(8) 0.0070(9) 0.0086(8) 0.0005(7) 0.0048(6) 0.0047(6)
C8 0.0103(8) 0.0086(8) 0.0071(8) 0.0020(7) -0.0002(6) 0.0026(6)
C10 0.0137(8) 0.0120(9) 0.0088(8) 0.0001(7) -0.0005(7) 0.0028(6)
C11 0.0116(8) 0.0092(9) 0.0097(8) -0.0028(6) 0.0007(6) 0.0004(6)
C12 0.0128(8) 0.0080(9) 0.0112(8) 0.0005(6) 0.0023(7) 0.0056(6)
C13 0.0138(8) 0.0132(9) 0.0067(8) -0.0003(7) 0.0018(7) 0.0048(6)
C14 0.0130(8) 0.0092(9) 0.0112(9) -0.0007(6) 0.0011(7) 0.0002(6)
loop_
_atom_type_symbol
_atom_type_description
_atom_type_scat_dispersion_real
_atom_type_scat_dispersion_imag
_atom_type_scat_source
C C 0.0181 0.0091 'International Tables Vol C Tables 4.2.6.8 and 6.1.1.4'
H H 0.0000 0.0000 'International Tables Vol C Tables 4.2.6.8 and 6.1.1.4'
Br Br -0.6763 1.2805 'International Tables Vol C Tables 4.2.6.8 and 6.1.1.4'
F F 0.0727 0.0534 'International Tables Vol C Tables 4.2.6.8 and 6.1.1.4'
N N 0.0311 0.0180 'International Tables Vol C Tables 4.2.6.8 and 6.1.1.4'
O O 0.0492 0.0322 'International Tables Vol C Tables 4.2.6.8 and 6.1.1.4'
S S 0.3331 0.5567 'International Tables Vol C Tables 4.2.6.8 and 6.1.1.4'
loop_
_geom_angle_atom_site_label_1
_geom_angle_atom_site_label_2
_geom_angle_atom_site_label_3
_geom_angle
C7 N1 C8 128.20(16)
C7 N1 H1A 115.9
C8 N1 H1A 115.9
C8 N2 C9 131.19(16)
C8 N2 H1B 114.4
C9 N2 H1B 114.4
C2 C1 C6 120.62(17)
C2 C1 H1 119.7
C6 C1 H1 119.7
C3 C2 C1 118.79(17)
C3 C2 H2 120.6
C1 C2 H2 120.6
F1 C3 C2 119.46(18)
F1 C3 C4 117.55(18)
C2 C3 C4 122.98(18)
C5 C4 C3 117.70(18)
C5 C4 H4 121.1
C3 C4 H4 121.1
C4 C5 C6 120.91(18)
C4 C5 H5 119.5
C6 C5 H5 119.5
C1 C6 C5 118.97(17)
C1 C6 C7 123.33(17)
C5 C6 C7 117.62(16)
O1 C7 N1 122.08(17)
O1 C7 C6 121.00(17)
N1 C7 C6 116.92(16)
C10 C9 C14 119.30(16)
C10 C9 N2 124.87(15)
C14 C9 N2 115.78(16)
N2 C8 N1 114.66(16)
N2 C8 S1 126.92(15)
N1 C8 S1 118.43(13)
C11 C10 C9 119.57(16)
C11 C10 H10 120.2
C9 C10 H10 120.2
C12 C11 C10 119.85(16)
C12 C11 H11 120.1
C10 C11 H11 120.1
C13 C12 C11 121.42(16)
C13 C12 Br1 119.31(13)
C11 C12 Br1 119.27(13)
C14 C13 C12 118.76(16)
C14 C13 H13 120.6
C12 C13 H13 120.6
C13 C14 C9 121.10(17)
C13 C14 H14 119.5
C9 C14 H14 119.5
loop_
_geom_bond_atom_site_label_1
_geom_bond_atom_site_label_2
_geom_bond_distance
Br1 C12 1.8991(17)
O1 C7 1.230(2)
N1 C7 1.374(2)
N1 C8 1.396(2)
N1 H1A 0.8800
N2 C8 1.342(2)
N2 C9 1.408(2)
N2 H1B 0.8800
F1 C3 1.350(2)
S1 C8 1.6687(18)
C1 C2 1.377(3)
C1 C6 1.399(3)
C1 H1 0.9500
C2 C3 1.375(3)
C2 H2 0.9500
C3 C4 1.391(3)
C4 C5 1.382(3)
C4 H4 0.9500
C5 C6 1.409(2)
C5 H5 0.9500
C6 C7 1.484(3)
C9 C10 1.399(2)
C9 C14 1.406(3)
C10 C11 1.390(3)
C10 H10 0.9500
C11 C12 1.389(2)
C11 H11 0.9500
C12 C13 1.385(3)
C13 C14 1.379(3)
C13 H13 0.9500
C14 H14 0.9500
loop_
_geom_hbond_atom_site_label_D
_geom_hbond_atom_site_label_H
_geom_hbond_atom_site_label_A
_geom_hbond_site_symmetry_A
_geom_hbond_distance_DH
_geom_hbond_distance_HA
_geom_hbond_distance_DA
_geom_hbond_angle_DHA
_geom_hbond_publ_flag
N1 H1A S1 2_665 0.88 2.69 3.5081(15) 154 yes
N2 H1B O1 . 0.88 1.88 2.610(2) 139 yes
C10 H10 S1 . 0.95 2.65 3.2319(18) 120 yes
C1 H1 S1 2_565 0.95 2.81 3.7312(18) 165 yes
loop_
_geom_torsion_atom_site_label_1
_geom_torsion_atom_site_label_2
_geom_torsion_atom_site_label_3
_geom_torsion_atom_site_label_4
_geom_torsion
C6 C1 C2 C3 -0.1(3)
C1 C2 C3 F1 179.66(16)
C1 C2 C3 C4 -1.4(3)
F1 C3 C4 C5 -179.80(16)
C2 C3 C4 C5 1.2(3)
C3 C4 C5 C6 0.4(3)
C2 C1 C6 C5 1.6(3)
C2 C1 C6 C7 178.38(16)
C4 C5 C6 C1 -1.8(3)
C4 C5 C6 C7 -178.72(16)
C8 N1 C7 O1 3.4(3)
C8 N1 C7 C6 -176.01(16)
C1 C6 C7 O1 -154.97(17)
C5 C6 C7 O1 21.9(3)
C1 C6 C7 N1 24.4(2)
C5 C6 C7 N1 -158.75(16)
C8 N2 C9 C10 -28.7(3)
C8 N2 C9 C14 154.04(18)
C9 N2 C8 N1 -175.93(16)
C9 N2 C8 S1 3.8(3)
C7 N1 C8 N2 6.3(3)
C7 N1 C8 S1 -173.53(14)
C14 C9 C10 C11 -1.1(3)
N2 C9 C10 C11 -178.32(16)
C9 C10 C11 C12 0.5(3)
C10 C11 C12 C13 0.4(3)
C10 C11 C12 Br1 179.54(13)
C11 C12 C13 C14 -0.6(3)
Br1 C12 C13 C14 -179.76(13)
C12 C13 C14 C9 0.0(3)
C10 C9 C14 C13 0.9(3)
N2 C9 C14 C13 178.36(14)

_cod_database_fobs_code 2242985
