#------------------------------------------------------------------------------
#$Date: 2017-07-26 08:39:43 +0300 (Wed, 26 Jul 2017) $
#$Revision: 199343 $
#$URL: file:///home/coder/svn-repositories/cod/cif/2/24/22/2242263.cif $
#------------------------------------------------------------------------------
#
# This file is available in the Crystallography Open Database (COD),
# http://www.crystallography.net/. The original data for this entry
# were provided by IUCr Journals, http://journals.iucr.org/.
#
# The file may be used within the scientific community so long as
# proper attribution is given to the journal article from which the
# data were obtained.
#
data_2242263
loop_
_publ_author_name
'Bao, Lipiao'
'Olmstead, Marilyn M.'
_publ_section_title
;
 A temperature-dependent phase transformation of
 (<i>E</i>)-2-[(4-chlorophenyl)imino]acenaphthylen-1-one
;
_journal_issue                   8
_journal_name_full               'Acta Crystallographica Section E'
_journal_page_first              1255
_journal_page_last               1258
_journal_paper_doi               10.1107/S2056989017010659
_journal_volume                  73
_journal_year                    2017
_chemical_formula_iupac          'C18 H10 Cl N O'
_chemical_formula_moiety         'C18 H10 Cl N O'
_chemical_formula_sum            'C18 H10 Cl N O'
_chemical_formula_weight         291.72
_chemical_name_common            MIAN
_chemical_name_systematic
(<i>E</i>)-2-[(4-Chlorophenyl)imino]acenaphthylen-1-one
_space_group_crystal_system      monoclinic
_space_group_IT_number           11
_space_group_name_Hall           '-P 2yb'
_space_group_name_H-M_alt        'P 1 21/m 1'
_symmetry_space_group_name_Hall  '-P 2yb'
_symmetry_space_group_name_H-M   'P 1 21/m 1'
_atom_sites_solution_hydrogens   geom
_atom_sites_solution_primary     dual
_atom_sites_solution_secondary   difmap
_audit_creation_method           SHELXL-2016/6
_cell_angle_alpha                90
_cell_angle_beta                 92.959(2)
_cell_angle_gamma                90
_cell_formula_units_Z            2
_cell_length_a                   9.0447(12)
_cell_length_b                   6.8764(9)
_cell_length_c                   10.9021(14)
_cell_measurement_reflns_used    1908
_cell_measurement_temperature    250(2)
_cell_measurement_theta_max      52.344
_cell_measurement_theta_min      5.710
_cell_volume                     677.15(15)
_computing_cell_refinement
;
SAINT (Bruker, 2014)
;
_computing_data_collection
;
APEX2 (Bruker, 2014)
;
_computing_data_reduction
;
SAINT (Bruker, 2014)
;
_computing_molecular_graphics
;
SHELXTL (Sheldrick, 2008) and Mercury (Macrae <i>et al.</i>,
2008)
;
_computing_publication_material
;
<i>SHELXL2016/6</i> (Sheldrick, 2015b)
;
_computing_structure_refinement
;
<i>SHELXL2016/6</i> (Sheldrick, 2015b)
;
_computing_structure_solution
;
SHELXT (Sheldrick, 2015a)
;
_diffrn_ambient_temperature      250(2)
_diffrn_detector_area_resol_mean 8.3
_diffrn_measured_fraction_theta_full 0.999
_diffrn_measured_fraction_theta_max 0.999
_diffrn_measurement_device_type  'Bruker APEXII'
_diffrn_measurement_method       \w
_diffrn_radiation_type           MoK\a
_diffrn_radiation_wavelength     0.71073
_diffrn_reflns_av_R_equivalents  0.0217
_diffrn_reflns_limit_h_max       11
_diffrn_reflns_limit_h_min       -10
_diffrn_reflns_limit_k_max       8
_diffrn_reflns_limit_k_min       -8
_diffrn_reflns_limit_l_max       13
_diffrn_reflns_limit_l_min       -13
_diffrn_reflns_number            5458
_diffrn_reflns_theta_full        25.242
_diffrn_reflns_theta_max         26.352
_diffrn_reflns_theta_min         2.255
_exptl_absorpt_coefficient_mu    0.279
_exptl_absorpt_correction_T_max  0.745
_exptl_absorpt_correction_T_min  0.684
_exptl_absorpt_correction_type   multi-scan
_exptl_absorpt_process_details
;
(SADABS; Bruker, 2014)
;
_exptl_crystal_colour            yellow
_exptl_crystal_density_diffrn    1.431
_exptl_crystal_description       block
_exptl_crystal_F_000             300
_exptl_crystal_size_max          0.300
_exptl_crystal_size_mid          0.200
_exptl_crystal_size_min          0.200
_refine_diff_density_max         0.262
_refine_diff_density_min         -0.375
_refine_ls_extinction_method     none
_refine_ls_goodness_of_fit_ref   1.044
_refine_ls_hydrogen_treatment    constr
_refine_ls_matrix_type           full
_refine_ls_number_parameters     121
_refine_ls_number_reflns         1496
_refine_ls_number_restraints     0
_refine_ls_restrained_S_all      1.044
_refine_ls_R_factor_all          0.0487
_refine_ls_R_factor_gt           0.0390
_refine_ls_shift/su_max          0.000
_refine_ls_shift/su_mean         0.000
_refine_ls_structure_factor_coef Fsqd
_refine_ls_weighting_details
'w=1/[\s^2^(Fo^2^)+(0.0370P)^2^+0.2756P] where P=(Fo^2^+2Fc^2^)/3'
_refine_ls_weighting_scheme      calc
_refine_ls_wR_factor_gt          0.0914
_refine_ls_wR_factor_ref         0.0974
_reflns_number_gt                1227
_reflns_number_total             1496
_reflns_threshold_expression     'I > 2\s(I)'
_cod_data_source_file            su5384sup1.cif
_cod_data_source_block           alpha
_cod_database_code               2242263
_shelx_space_group_comment
;
The symmetry employed for this shelxl refinement is uniquely defined
by the following loop, which should always be used as a source of
symmetry information in preference to the above space-group names.
They are only intended as comments.
;
_shelx_estimated_absorpt_t_min   0.921
_shelx_estimated_absorpt_t_max   0.946
_shelx_hkl_file
;
  -1   0   0  653.53   12.70
   1   0   0  556.44   12.60
   2   0   0    1.20    0.20
  -2   0   0    0.90    0.20
   2   0   0    1.20    0.30
   3   0   0    2.80    0.40
   3   0   0    2.50    0.40
  -3   0   0    3.80    0.40
   4   0   0  205.28    4.80
   4   0   0  206.48    4.90
  -4   0   0  203.08    4.60
   5   0   0    7.90    0.80
   5   0   0    7.30    0.70
  -5   0   0    7.00    0.60
   6   0   0    3.20    0.60
   6   0   0    5.50    0.70
  -6   0   0    4.10    0.50
   7   0   0   59.59    2.10
  -7   0   0   56.09    1.90
   7   0   0   57.99    2.20
   8   0   0    4.40    0.80
  -8   0   0    6.60    1.10
   8   0   0    6.50    0.90
   9   0   0   13.60    1.30
   9   0   0   14.20    1.40
  10   0   0    5.50    1.00
  10   0   0    4.60    0.90
  11   0   0    3.90    1.00
  11   0   0    3.90    0.90
   0   1   0    3.40    0.20
  -1  -1   0  588.74   12.30
   1  -1   0  603.74   12.20
   1   1   0  593.64   12.10
  -1   1   0  586.14   12.30
   1   1   0  578.74   12.30
   2  -1   0   11.30    0.60
  -2  -1   0   11.70    0.60
   2  -1   0   11.30    0.50
   2   1   0   10.70    0.50
   2   1   0   10.50    0.60
   3  -1   0    0.60    0.30
  -3  -1   0    0.90    0.30
   3  -1   0    0.50    0.20
   3   1   0    0.90    0.30
   3   1   0    0.50    0.20
  -3   1   0    0.70    0.20
  -4  -1   0  268.37    6.00
   4  -1   0  269.77    6.20
   4  -1   0  268.87    5.90
   4   1   0  224.98    6.00
   4   1   0  273.47    5.90
  -4   1   0  272.17    5.80
  -5  -1   0  432.96    9.40
   5  -1   0  432.66    9.60
   5  -1   0  445.66    9.30
   5   1   0  434.06    9.40
  -5   1   0  442.06    9.20
   5   1   0  358.56    9.50
  -6  -1   0  109.49    3.10
   6  -1   0  113.39    3.10
   6  -1   0  112.49    3.40
  -6   1   0  107.49    2.90
   6   1   0  112.19    3.10
   6   1   0  118.09    3.30
   7  -1   0    5.40    0.70
  -7  -1   0    5.40    0.70
   7  -1   0    5.80    0.80
  -7   1   0    5.50    0.60
   7   1   0    5.80    0.80
   7   1   0    4.70    0.70
   8  -1   0   24.80    1.30
   8  -1   0   26.50    1.60
  -8  -1   0   24.30    1.30
   8   1   0   27.80    1.60
   8   1   0   24.30    1.50
   9  -1   0    2.70    0.80
   9  -1   0    0.70    0.50
   9   1   0    1.50    0.60
   9   1   0    0.60    0.60
  10  -1   0    0.30    0.50
  10  -1   0   -0.60    0.60
  10   1   0   -0.40    0.50
  10   1   0    0.50    0.60
  11  -1   0   21.00    2.00
  11   1   0   20.60    1.60
   0   2   0 9999.00  203.68
   0   2   0 9723.83  202.98
  -1  -2   0  594.64   12.70
  -1   2   0  597.24   12.60
  -1   2   0  603.34   12.60
   1   2   0  595.74   12.70
   1   2   0  596.44   12.40
  -2  -2   0  445.36    9.80
   2  -2   0  445.26    9.80
   2  -2   0  445.36    9.50
   2   2   0  449.16    9.40
   2   2   0  454.55    9.70
   3  -2   0    8.70    0.70
  -3  -2   0   10.10    0.70
   3  -2   0    9.60    0.60
   3   2   0   10.60    0.50
   3   2   0    9.80    0.70
  -4  -2   0   70.69    2.20
   4  -2   0   71.69    2.00
   4  -2   0   71.49    2.30
   4   2   0   73.99    2.20
   4   2   0   70.49    1.90
   5  -2   0   31.60    1.20
  -5  -2   0   36.50    1.50
   5  -2   0   32.70    1.50
   5   2   0   32.70    1.20
   5   2   0   34.30    1.50
   6  -2   0   35.30    1.70
  -6  -2   0   32.50    1.50
   6  -2   0   36.60    1.40
   6   2   0   34.10    1.60
   6   2   0   34.20    1.40
   7  -2   0  126.69    4.10
  -7  -2   0  136.79    3.90
   7  -2   0  134.89    3.60
   7   2   0  132.89    3.70
   7   2   0  135.69    4.00
   8  -2   0    6.70    1.10
  -8  -2   0    5.90    0.90
   8  -2   0    7.80    0.90
   8   2   0    6.00    0.80
   8   2   0    6.50    1.00
   9  -2   0   -0.10    0.60
   9  -2   0   -0.20    0.50
  -9  -2   0    0.50    0.60
   9   2   0    0.80    0.60
  10  -2   0   10.30    1.40
  10   2   0   10.80    1.40
   0   3   0    0.40    0.20
   0   3   0    0.10    0.30
  -1   3   0   39.10    1.30
   1   3   0   37.40    1.40
  -1   3   0   36.60    1.30
   1   3   0   37.20    1.10
   2  -3   0    1.90    0.40
  -2  -3   0    1.80    0.50
   2  -3   0    2.40    0.40
   2   3   0    2.10    0.30
   2   3   0    1.90    0.40
  -3  -3   0   42.60    1.70
   3  -3   0   42.70    1.60
   3  -3   0   43.70    1.40
   3   3   0   43.10    1.20
   3   3   0   39.80    1.60
   4  -3   0   87.59    2.80
   4  -3   0   89.59    2.50
  -4  -3   0   93.79    2.90
   4   3   0   95.69    2.80
   4   3   0   90.89    2.30
  -5  -3   0   84.49    2.80
   5  -3   0   88.19    2.40
   5  -3   0   83.69    2.80
   5   3   0   83.49    2.30
   5   3   0   85.79    2.80
   6  -3   0    9.50    0.80
  -6  -3   0    6.80    0.90
   6  -3   0    6.50    0.90
   6   3   0    7.90    0.70
   6   3   0    8.30    1.00
  -7  -3   0    6.80    0.90
   7  -3   0    8.00    0.80
   7  -3   0    6.30    1.00
   7   3   0    9.20    1.10
  -8  -3   0   53.59    2.40
   8  -3   0   61.09    2.70
   8   3   0   60.49    2.60
  -9  -3   0    3.40    0.90
   9  -3   0    2.60    1.00
   9   3   0    4.10    1.00
  10  -3   0    2.10    0.90
  10   3   0    4.00    1.00
   0   4   0 2354.06   48.80
   0   4   0 2356.66   48.60
  -1  -4   0  207.38    5.40
  -1   4   0  213.18    5.10
  -1   4   0  210.08    5.10
   1   4   0  214.68    4.90
   1   4   0  212.28    5.20
  -2  -4   0   65.89    2.40
   2  -4   0   69.89    2.20
   2   4   0   64.49    1.80
   2   4   0   68.99    2.30
  -2   4   0   65.69    2.10
   3  -4   0    3.10    0.60
  -3  -4   0    2.50    0.60
   3  -4   0    2.50    0.50
   3   4   0    2.90    0.30
   3   4   0    3.40    0.60
   4  -4   0   40.90    1.80
   4  -4   0   41.40    1.50
  -4  -4   0   37.90    1.80
   4   4   0   38.30    1.70
   4   4   0   39.80    1.20
   5  -4   0   11.90    1.30
  -5  -4   0   12.10    1.20
   5  -4   0   10.50    0.80
   5   4   0   13.50    1.20
   6  -4   0    6.90    1.10
  -6  -4   0    7.20    1.00
   6  -4   0    6.50    0.70
   6   4   0    6.90    1.00
  -7  -4   0   48.70    2.30
   7  -4   0   53.69    2.50
   7   4   0   52.59    2.40
   8  -4   0    3.10    0.90
  -8  -4   0    2.20    0.70
   8   4   0    2.60    0.90
  -9  -4   0    0.40    0.70
   9  -4   0    0.00    0.80
   9   4   0    1.30    0.80
   0   5   0    0.50    0.30
   0   5   0    0.10    0.40
  -1  -5   0   41.50    1.90
   1  -5   0   43.80    1.70
  -1   5   0   40.50    1.60
   1   5   0   43.00    1.80
   1   5   0   42.10    1.50
   2  -5   0   -0.30    0.40
  -2  -5   0    0.30    0.50
   2   5   0    0.00    0.20
  -2   5   0    0.20    0.40
   2   5   0    0.30    0.50
   3  -5   0    0.90    0.50
   3  -5   0    0.30    0.40
  -3  -5   0    0.90    0.50
   3   5   0    1.60    0.60
   4  -5   0   13.60    0.90
   4  -5   0   16.50    1.30
  -4  -5   0   13.60    1.40
   4   5   0   14.20    1.30
  -5  -5   0   26.30    1.70
   5  -5   0   24.60    1.30
   5  -5   0   26.30    1.70
   5   5   0   30.50    1.80
   6  -5   0    8.20    1.20
  -6  -5   0    8.50    1.30
   6   5   0    7.50    1.10
   7  -5   0    8.80    1.30
  -7  -5   0    4.00    1.00
   7   5   0    6.50    1.10
  -8  -5   0    3.40    1.00
   8  -5   0    4.80    1.20
   8   5   0    1.30    0.80
   9  -5   0    0.50    0.90
  -9  -5   0   -0.10    0.80
   9   5   0    0.60    0.80
   0  -6   0  663.23   14.50
   0  -6   0  648.44   15.20
   0   6   0  683.53   15.00
   1  -6   0   67.19    2.40
  -1  -6   0   69.89    2.80
   1   6   0   62.89    2.50
  -1   6   0   65.19    2.40
   2  -6   0   -0.40    0.40
  -2  -6   0    0.40    0.70
   2   6   0    0.50    0.50
  -2   6   0   -0.10    0.50
   3  -6   0    0.40    0.40
  -3  -6   0    1.40    0.70
   3  -6   0    0.70    0.50
   3   6   0    0.10    0.60
   4  -6   0   14.50    1.40
  -4  -6   0   12.80    1.40
   4  -6   0   13.50    1.10
   4   6   0   13.80    1.40
   5  -6   0    1.70    0.80
  -5  -6   0    0.70    0.60
   5   6   0    2.70    0.80
  -6  -6   0   -0.50    0.60
   6  -6   0    0.30    0.70
   6   6   0    0.30    0.70
  -7  -6   0    2.90    1.00
   7  -6   0    3.50    1.10
   7   6   0    1.90    0.90
   8  -6   0    2.50    1.10
  -8  -6   0   -0.40    0.80
   8   6   0    0.80    0.90
   0  -7   0   -0.70    0.60
   0   7   0   -0.50    0.50
   1  -7   0    2.70    0.70
  -1  -7   0    3.70    1.00
   1  -7   0    4.30    0.90
  -1   7   0    2.60    0.70
   1   7   0    4.30    0.90
  -2  -7   0    0.30    0.60
   2  -7   0   -0.30    0.60
   2  -7   0   -0.80    0.40
   2  -7   0   -0.10    0.50
   2   7   0   -0.30    0.50
   3  -7   0    0.60    0.60
  -3  -7   0    0.70    0.80
   3  -7   0    0.20    0.50
   3   7   0    0.30    0.60
  -4  -7   0    1.80    0.90
   4  -7   0    1.00    0.70
   4   7   0    0.70    0.80
  -5  -7   0    1.50    0.90
   5  -7   0    3.00    0.90
   5   7   0    2.50    0.90
  -6  -7   0   -0.30    0.70
   6  -7   0    1.10    0.90
   6   7   0    1.20    0.90
   0  -8   0   64.19    3.10
   0   8   0   60.59    2.80
  -1  -8   0   24.00    2.00
   1  -8   0   31.50    2.10
  -1   8   0   26.90    1.80
   1   8   0   26.70    1.80
  -2  -8   0    9.40    1.50
   2  -8   0    7.90    1.10
   2  -8   0    7.20    1.30
   2   8   0    6.30    1.20
   3  -8   0   -0.10    0.60
  -3  -8   0    0.20    0.80
   3   8   0   -0.20    0.60
  -4  -8   0    3.80    1.10
   4  -8   0    5.20    1.10
   4   8   0    4.20    1.20
  11   0  -1    2.40    0.80
  11   0  -1    1.70    0.80
  10   0  -1    0.00    0.50
  10   0  -1    0.70    0.70
   9   0  -1   33.20    1.80
   9   0  -1   36.20    1.90
   8   0  -1    4.50    0.80
   8   0  -1    4.80    0.80
   7   0  -1   60.59    2.20
   7   0  -1   56.39    2.10
  -7   0   1   54.69    1.80
   6   0  -1  199.88    5.00
   6   0  -1  190.88    4.90
  -6   0   1  196.68    4.60
  -5   0   1   72.59    1.90
   5   0  -1   72.29    2.20
   5   0  -1   73.49    2.20
  -4   0   1  463.95    9.90
   4   0  -1  477.45   10.30
   4   0  -1  470.95   10.20
   3   0  -1  239.28    5.40
   3   0  -1  244.98    5.40
  -3   0   1  245.28    5.20
  -2   0   1    0.60    0.20
   2   0  -1    0.10    0.20
  -2   0   1    0.70    0.20
  -1   0   1  664.93   13.70
   1   0  -1  661.13   13.70
   1   0   1  499.05   10.30
   1   0   1  489.45   10.10
  -1   0  -1  483.55   10.20
   2   0   1   33.20    1.10
   2   0   1   33.40    0.90
  -2   0  -1   34.00    1.00
   3   0   1  464.25    9.80
   3   0   1  458.85   10.00
  -3   0  -1  463.65    9.90
  -4   0  -1    3.00    0.40
   4   0   1    2.70    0.40
   4   0   1    2.50    0.50
  -5   0  -1  610.64   13.40
   5   0   1  623.04   13.60
   5   0   1  633.34   13.40
  -6   0  -1   -0.20    0.30
   6   0   1   -0.50    0.30
   6   0   1    0.20    0.40
   7   0   1  111.89    3.50
  -7   0  -1  112.19    3.20
   7   0   1  117.79    3.30
   8   0   1    0.20    0.60
  -8   0  -1    0.10    0.40
   8   0   1    0.20    0.50
   9   0   1   43.50    1.90
   9   0   1   39.40    2.10
  10   0   1    3.90    1.00
  10   0   1    4.40    0.80
  11   0   1    0.80    0.80
  11  -1  -1    1.80    1.20
  11  -1  -1    0.60    0.70
  11   1  -1    0.50    0.70
  10  -1  -1   17.00    1.70
  10  -1  -1   15.00    1.40
  10   1  -1   14.80    1.40
  10   1  -1   16.70    1.60
   9  -1  -1    0.60    0.60
   9  -1  -1    0.60    0.50
   9   1  -1    1.00    0.60
   9   1  -1    0.90    0.50
   8  -1  -1  145.69    4.10
  -8  -1   1  149.19    4.00
   8  -1  -1  146.49    4.40
   8   1  -1  153.28    4.40
   8   1  -1  144.69    4.10
   7  -1  -1    0.80    0.50
   7  -1  -1    0.00    0.50
  -7  -1   1    0.70    0.40
   7   1  -1    0.60    0.50
   7   1  -1    0.70    0.40
   6  -1  -1   81.49    2.50
  -6  -1   1   85.29    2.40
   6  -1  -1   79.29    2.70
   6   1  -1   80.09    2.60
   6   1  -1   81.19    2.40
  -6   1   1   79.29    2.10
   5  -1  -1    8.00    0.60
   5  -1  -1    9.40    0.90
  -5  -1   1    9.10    0.60
  -5   1   1   10.20    0.50
   5   1  -1    8.30    0.60
   5   1  -1    9.20    0.70
  -4  -1   1   53.49    1.60
   4  -1  -1   56.49    1.70
   4  -1  -1   53.39    1.80
   4   1  -1   55.19    1.80
   4   1  -1   54.09    1.60
  -4   1   1   53.59    1.30
   3  -1  -1   83.59    2.30
  -3  -1   1   82.29    2.10
   3  -1  -1   82.49    2.20
   3   1  -1   83.29    2.00
   3   1  -1   81.99    2.20
   2  -1  -1    6.90    0.40
   2   1  -1    7.20    0.30
  -2   1   1    7.50    0.50
   2   1  -1    6.90    0.50
   1  -1  -1 1225.98   26.10
   1  -1  -1 1277.17   26.50
   1   1  -1 1265.37   26.30
  -1   1   1 1298.97   26.20
   0  -1   1   42.20    1.00
   0  -1  -1   42.40    1.10
   0   1   1   43.00    1.10
   0   1  -1   42.50    1.00
   0   1   1   43.00    1.10
  -1  -1  -1  490.75   10.40
   1  -1   1  492.15   10.30
   1   1   1  477.95   10.30
   1   1   1  498.85   10.30
  -2  -1  -1  994.00   21.10
   2  -1   1 1017.30   20.90
   2  -1   1 1012.50   21.10
   2   1   1 1029.60   21.00
   2   1   1 1022.40   21.00
  -2   1  -1  988.00   21.00
   3  -1   1  312.87    6.50
  -3  -1  -1  301.77    6.80
   3  -1   1  296.37    6.80
  -3   1  -1  299.87    6.70
   3   1   1  302.47    6.70
   3   1   1  308.77    6.70
  -4  -1  -1  118.39    3.20
   4  -1   1  121.79    2.90
   4  -1   1  118.79    3.20
   4   1   1  119.09    3.10
  -4   1  -1  119.89    3.00
   4   1   1  123.09    3.10
   5  -1   1   11.60    0.70
  -5  -1  -1   10.40    0.80
   5  -1   1    9.90    0.80
   5   1   1   11.10    0.80
  -5   1  -1   11.70    0.70
   5   1   1   11.70    0.80
  -6  -1  -1    6.20    0.70
   6  -1   1    5.80    0.80
   6  -1   1    6.20    0.60
   6   1   1    5.80    0.70
   6   1   1    5.70    0.70
  -6   1  -1    6.10    0.70
  -7  -1  -1   33.50    1.60
   7  -1   1   31.80    1.70
   7  -1   1   34.20    1.40
   7   1   1   35.60    1.60
   7   1   1   32.50    1.60
  -7   1  -1   34.10    1.40
  -8  -1  -1  122.39    3.60
   8  -1   1  119.39    3.90
   8  -1   1  120.09    3.40
   8   1   1  114.19    3.60
   8   1   1  115.39    3.60
   9  -1   1    8.50    1.00
   9  -1   1    9.00    1.20
  -9  -1  -1    8.60    1.10
   9   1   1    8.70    1.10
   9   1   1   10.00    1.20
  10  -1   1    2.40    0.80
  10   1   1    1.80    0.70
  10   1   1    1.50    0.70
  11  -1   1    3.50    1.10
  11   1   1    2.50    0.80
  11   1   1    1.60    0.80
  10  -2  -1    1.80    1.00
  10   2  -1    2.10    0.80
   9  -2  -1    6.00    0.90
   9  -2  -1    4.50    1.00
   9   2  -1    4.80    0.90
   8  -2  -1    9.20    1.20
  -8  -2   1   13.40    1.10
   8  -2  -1   11.60    1.10
   8   2  -1   11.20    1.30
   8   2  -1   10.40    1.00
  -7  -2   1    4.90    0.70
   7  -2  -1    5.60    0.80
   7  -2  -1    5.60    0.90
   7   2  -1    4.70    0.80
   7   2  -1    5.50    0.70
  -6  -2   1   17.70    1.10
   6  -2  -1   19.80    1.10
   6  -2  -1   17.70    1.20
   6   2  -1   18.80    1.00
   6   2  -1   20.80    1.20
   5  -2  -1   38.00    1.70
   5  -2  -1   37.70    1.40
  -5  -2   1   35.90    1.50
   5   2  -1   39.80    1.30
   5   2  -1   40.00    1.60
  -4  -2   1  205.28    5.00
   4  -2  -1  198.28    5.10
   4   2  -1  209.58    5.10
   4   2  -1  207.88    4.60
   3  -2  -1  143.89    3.50
  -3  -2   1  146.19    3.70
   3   2  -1  146.09    3.20
   3   2  -1  146.59    3.70
  -3   2   1  143.19    3.70
   2  -2  -1  709.33   15.00
  -2   2   1  707.93   15.10
   2   2  -1  711.53   15.10
  -1  -2   1  458.85    9.60
  -1   2   1  463.15   10.00
   1   2  -1  464.75    9.90
  -1   2   1  465.05    9.90
   0  -2  -1 1853.11   37.90
   0  -2   1 1830.02   38.20
   0   2   1 1866.01   38.50
   0   2   1 1842.92   37.90
   0   2  -1 1801.12   38.20
   1  -2   1   77.59    2.00
  -1  -2  -1   76.09    2.10
   1   2   1   75.19    2.00
   1   2   1   75.59    1.90
  -1   2  -1   76.19    1.80
  -2  -2  -1   79.29    2.30
   2  -2   1   80.99    1.90
   2  -2   1   81.99    2.20
   2   2   1   80.09    2.00
   2   2   1   79.29    2.20
  -3  -2  -1  252.37    6.00
   3  -2   1  253.47    5.90
   3  -2   1  253.27    5.50
   3   2   1  254.17    5.90
   3   2   1  252.77    5.60
   4  -2   1   36.70    1.50
  -4  -2  -1   35.50    1.40
   4  -2   1   36.40    1.10
   4   2   1   35.30    1.30
   4   2   1   34.80    1.40
   5  -2   1  177.78    4.10
   5  -2   1  170.68    4.70
  -5  -2  -1  171.08    4.50
   5   2   1  175.68    4.50
   5   2   1  177.08    4.30
  -6  -2  -1   39.60    1.70
   6  -2   1   41.00    1.90
   6  -2   1   44.50    1.50
  -6   2  -1   39.70    1.50
   6   2   1   41.50    1.60
   6   2   1   39.20    1.70
   7  -2   1  207.58    5.80
  -7  -2  -1  219.18    5.60
   7  -2   1  207.18    5.10
  -7   2  -1  215.18    5.20
   7   2   1  208.78    5.50
   7   2   1  214.48    5.40
   8  -2   1   15.90    1.60
  -8  -2  -1   16.90    1.40
   8  -2   1   17.00    1.10
   8   2   1   17.00    1.30
   8   2   1   17.70    1.20
   9  -2   1    6.60    1.10
  -9  -2  -1    5.30    0.90
   9   2   1    6.90    1.00
   9   2   1    7.30    1.00
  10  -2   1   -0.40    0.80
  10   2   1    1.20    0.80
  10  -3  -1    0.90    0.80
  10   3  -1   -0.40    0.60
   9  -3  -1   11.80    1.60
  -9  -3   1   10.60    1.20
   9   3  -1   10.20    1.30
   8  -3  -1  142.39    4.60
  -8  -3   1  144.89    4.30
   8  -3  -1  134.29    3.90
   8   3  -1  141.09    4.40
  -7  -3   1   11.40    1.20
   7  -3  -1   10.60    1.00
   7  -3  -1   11.40    1.30
   7   3  -1    8.20    1.10
   6  -3  -1   20.10    1.10
   6  -3  -1   15.60    1.30
  -6  -3   1   19.30    1.30
   6   3  -1   19.50    1.30
   5  -3  -1    1.10    0.40
  -5  -3   1    0.70    0.50
   5  -3  -1    1.90    0.60
   5   3  -1    0.80    0.40
   5   3  -1    1.70    0.30
   4  -3  -1   15.70    0.90
  -4  -3   1   13.90    1.00
   4  -3  -1   11.80    1.00
   4   3  -1   15.00    0.50
   4   3  -1   14.70    1.00
  -3  -3   1  216.28    5.40
   3  -3  -1  220.58    5.10
   3   3  -1  214.08    4.50
   3   3  -1  210.98    5.30
  -3   3   1  219.78    5.40
   2  -3  -1    0.80    0.30
   2   3  -1   -0.30    0.30
   2   3  -1    0.30    0.10
  -2   3   1    0.00    0.30
  -1  -3   1   -0.10    0.20
  -1   3   1    0.30    0.30
  -1   3   1    0.50    0.30
   1   3  -1    0.20    0.30
   0  -3   1   78.69    2.00
   0  -3  -1   80.59    2.30
   0   3  -1   79.59    2.10
   0   3   1   77.49    2.20
   0   3   1   78.69    2.20
  -1  -3  -1  703.53   15.10
   1  -3   1  701.23   14.80
  -1   3  -1  698.33   14.70
   1   3   1  703.23   14.80
   1   3   1  689.13   15.00
   2  -3   1  380.56    8.20
   2  -3   1  374.36    8.50
  -2  -3  -1  380.66    8.70
   2   3   1  378.56    8.60
   2   3   1  382.36    8.20
  -3  -3  -1   34.10    1.50
   3  -3   1   32.50    1.40
   3  -3   1   33.60    1.10
   3   3   1   32.80    1.10
   3   3   1   35.40    1.40
   4  -3   1   29.80    1.40
  -4  -3  -1   31.20    1.50
   4  -3   1   30.50    1.10
   4   3   1   31.20    1.10
   4   3   1   30.60    1.40
   5  -3   1    6.60    0.90
   5  -3   1    7.30    0.60
  -5  -3  -1    5.80    0.80
   5   3   1    6.40    0.60
   5   3   1    6.10    0.80
   6  -3   1   52.99    1.70
  -6  -3  -1   54.99    2.20
   6  -3   1   54.09    2.30
   6   3   1   51.89    1.80
   6   3   1   54.79    2.20
  -7  -3  -1   78.39    2.90
   7  -3   1   83.99    3.10
   7   3   1   78.59    2.90
   7   3   1   79.19    2.50
   8  -3   1   15.10    1.60
  -8  -3  -1   16.30    1.40
   8   3   1   16.90    1.60
  -9  -3  -1   11.00    1.40
   9  -3   1   10.00    1.40
   9   3   1   11.70    1.40
  10  -3   1    5.30    1.30
 -10  -3  -1    3.50    1.00
  10   3   1    2.40    0.90
  -9  -4   1    3.60    0.90
   9  -4  -1    3.30    1.10
   9   4  -1    4.90    1.10
  -8  -4   1    1.60    0.80
   8  -4  -1    1.90    0.80
   8   4  -1    1.80    0.80
   7  -4  -1    1.00    0.70
  -7  -4   1    0.10    0.60
   7  -4  -1    2.10    0.60
   7   4  -1    1.20    0.70
   6  -4  -1    8.70    0.90
   6  -4  -1    8.80    1.20
  -6  -4   1    7.40    1.10
   6   4  -1   11.00    1.30
  -5  -4   1   19.90    1.30
   5  -4  -1   20.00    1.10
   5  -4  -1   21.10    1.40
   5   4  -1   21.60    1.40
   4  -4  -1   51.89    1.80
  -4  -4   1   52.49    2.20
   4   4  -1   47.40    2.00
   3  -4  -1   20.40    1.00
  -3  -4   1   17.20    1.20
   3   4  -1   19.00    1.10
  -3   4   1   17.80    1.20
   2  -4  -1   75.99    2.30
   2   4  -1   76.19    2.40
   1  -4  -1  105.69    3.00
   1   4  -1  102.89    2.90
  -1   4   1  104.49    3.00
  -1   4   1  103.19    2.90
   0  -4  -1  265.87    6.50
   0  -4   1  270.07    6.10
   0   4   1  272.27    6.20
   0   4  -1  264.07    6.20
   0   4   1  272.67    6.40
  -1  -4  -1   34.30    1.50
   1  -4   1   32.30    1.30
  -1   4  -1   33.10    1.30
   1   4   1   33.60    1.40
   1   4   1   32.70    1.20
  -2  -4  -1   11.80    1.10
   2  -4   1   12.60    0.90
  -2   4  -1   12.40    0.70
   2   4   1   11.60    0.70
   2   4   1   11.90    0.90
  -3  -4  -1   61.19    2.30
   3  -4   1   61.49    2.20
   3  -4   1   62.49    1.80
   3   4   1   62.59    2.20
   3   4   1   62.79    1.80
   4  -4   1   14.10    0.80
  -4  -4  -1   14.40    1.20
   4  -4   1   14.90    1.10
   4   4   1   14.00    1.10
   4   4   1   14.60    0.80
  -5  -4  -1   63.49    2.50
   5  -4   1   59.59    2.40
   5  -4   1   58.19    1.80
   5   4   1   59.39    2.30
   5   4   1   58.89    1.90
  -6  -4  -1    3.70    0.90
   6  -4   1    2.30    0.80
   6   4   1    3.10    0.80
  -7  -4  -1   70.39    2.90
   7  -4   1   77.39    3.10
   7   4   1   73.69    2.90
  -8  -4  -1   15.20    1.60
   8  -4   1   12.70    1.60
   8   4   1   12.90    1.40
   9  -4   1    4.90    1.20
  -9  -4  -1    5.10    1.10
   9   4   1    7.20    1.30
  -9  -5   1   -0.60    0.70
   9  -5  -1    0.70    0.90
   9   5  -1    1.60    0.90
  -8  -5   1   17.50    1.70
   8  -5  -1   17.20    1.90
   8   5  -1   18.50    1.80
  -7  -5   1    6.40    1.20
   7  -5  -1    7.30    1.30
   7   5  -1    6.60    1.10
   6  -5  -1   14.30    1.10
   6  -5  -1   15.10    1.60
  -6  -5   1   13.50    1.50
   6   5  -1   12.80    1.40
   5  -5  -1    0.90    0.60
   5  -5  -1    1.30    0.50
  -5  -5   1    1.80    0.70
   5   5  -1    0.70    0.60
   4  -5  -1    3.10    0.70
   4  -5  -1    2.90    0.60
  -4  -5   1    2.20    0.70
   4   5  -1    3.40    0.70
   3  -5  -1    1.30    0.60
  -3  -5   1    1.30    0.60
   3  -5  -1    1.10    0.40
   3   5  -1    0.40    0.50
   2  -5  -1   -0.10    0.40
  -2  -5   1    0.30    0.50
   2  -5  -1    0.60    0.40
  -2   5   1    0.00    0.40
   2   5  -1    0.30    0.50
   1  -5  -1   91.79    2.90
  -1  -5   1   81.89    2.30
   1   5  -1   84.59    2.70
  -1   5   1   91.59    2.80
  -1   5   1   90.89    2.80
   0  -5   1   13.40    0.80
   0  -5  -1   14.70    1.10
   0   5  -1   12.40    0.90
   0   5   1   12.70    1.00
   0   5   1   13.50    0.90
   1  -5   1    9.00    0.80
  -1  -5  -1    9.40    1.10
  -1   5  -1    8.30    0.80
   1   5   1    9.00    1.00
   1   5   1    9.10    0.70
  -2  -5  -1   29.20    1.60
   2  -5   1   28.60    1.40
   2   5   1   28.80    1.20
  -2   5  -1   26.80    1.30
   2   5   1   30.60    1.50
   3  -5   1   13.60    0.90
   3  -5   1   13.60    1.10
  -3  -5  -1   12.40    1.30
   3   5   1   12.90    1.20
   3   5   1   13.90    0.80
   4  -5   1   11.20    0.80
   4  -5   1   11.30    1.20
  -4  -5  -1   11.10    1.30
   4   5   1   13.50    1.30
   5  -5   1    1.50    0.70
  -5  -5  -1    1.10    0.70
   5   5   1    2.20    0.70
   6  -5   1    1.10    0.70
  -6  -5  -1    1.50    0.70
   6   5   1    2.70    0.80
  -7  -5  -1    6.40    1.20
   7  -5   1    8.30    1.30
   7   5   1   10.50    1.40
  -8  -5  -1   29.60    2.10
   8  -5   1   34.20    2.40
   8   5   1   31.80    2.10
  -9  -5  -1    1.10    0.90
   9  -5   1   -1.10    0.70
   9   5   1    0.00    0.80
  -8  -6   1    0.40    0.80
   8  -6  -1    1.20    1.00
   8   6  -1    1.50    0.90
   7  -6  -1    2.20    1.10
  -7  -6   1    2.70    0.90
   7   6  -1    1.30    0.90
  -6  -6   1    7.80    1.20
   6  -6  -1    6.60    1.20
   6   6  -1   10.80    1.40
   5  -6  -1   13.30    1.20
  -5  -6   1   10.80    1.40
   5  -6  -1   14.90    1.60
   5   6  -1   11.30    1.40
   4  -6  -1   18.30    1.20
   4  -6  -1   16.30    1.20
   4  -6  -1   20.10    1.60
  -4  -6   1   17.40    1.70
   4   6  -1   17.70    1.40
   3  -6  -1    0.20    0.40
   3  -6  -1    0.10    0.60
  -3  -6   1    1.20    0.70
   3  -6  -1   -0.60    0.40
   3   6  -1   -0.10    0.50
   2  -6  -1    4.10    0.70
   2  -6  -1    3.80    0.80
  -2  -6   1    3.00    0.80
   2  -6  -1    3.10    0.70
   2   6  -1    3.70    0.80
   1  -6  -1   23.70    1.50
  -1  -6   1   23.60    1.70
  -1   6   1   22.50    1.50
  -1   6   1   21.80    1.30
   1   6  -1   21.90    1.40
   0  -6   1    6.40    0.80
   0  -6  -1    3.80    1.00
   0   6   1    7.40    0.90
   0   6   1    7.60    1.10
   0   6  -1    5.10    0.80
  -1  -6  -1   18.80    1.50
   1  -6   1   17.60    1.20
   1   6   1   18.60    1.10
   1   6   1   17.00    1.30
  -1   6  -1   17.60    1.20
   2  -6   1    1.80    0.60
  -2  -6  -1    0.10    0.60
   2   6   1    2.50    0.70
  -2   6  -1    1.80    0.50
  -3  -6  -1   12.80    1.50
   3  -6   1   11.80    1.00
   3  -6   1   12.90    1.20
   3   6   1   11.90    1.30
   4  -6   1    4.20    0.90
  -4  -6  -1    3.70    0.90
   4   6   1    4.00    0.90
   5  -6   1   33.70    2.00
  -5  -6  -1   32.20    2.10
   5   6   1   30.90    1.90
   6  -6   1    3.10    0.90
  -6  -6  -1    2.90    1.00
   6   6   1    3.60    0.90
  -7  -6  -1    2.70    0.90
   7  -6   1    5.00    1.10
   7   6   1    3.60    1.00
  -6  -7   1    3.90    1.10
   6  -7  -1    1.70    0.90
   6   7  -1    1.30    0.80
   5  -7  -1    0.30    0.70
  -5  -7   1    0.50    0.80
   5   7  -1   -0.40    0.60
   4  -7  -1    0.20    0.50
  -4  -7   1    0.60    0.70
   4  -7  -1    0.70    0.70
   4   7  -1    0.50    0.70
  -3  -7   1    0.70    0.80
   3  -7  -1    1.50    0.70
   3  -7  -1    1.70    0.60
   3  -7  -1    0.50    0.70
   3   7  -1    1.30    0.70
   2  -7  -1    0.10    0.60
  -2  -7   1    0.50    0.70
   2  -7  -1    1.00    0.60
   2  -7  -1    0.00    0.50
   2   7  -1    1.20    0.60
   1  -7  -1    7.70    1.20
  -1  -7   1    9.90    1.40
   1  -7  -1    9.40    1.10
  -1   7   1    9.00    1.20
   1   7  -1    7.60    1.10
   0  -7   1    5.20    1.10
   0  -7  -1    5.70    1.10
   0   7  -1    5.20    0.90
   0   7   1    5.20    1.00
  -1  -7  -1    4.70    1.10
   1   7   1    3.70    0.90
  -1   7  -1    4.20    0.80
   2  -7   1    3.30    0.70
  -2  -7  -1    3.00    0.90
  -2   7  -1    3.60    0.70
   2   7   1    2.30    0.80
  -3  -7  -1    0.10    0.70
   3  -7   1    0.90    0.60
   3   7   1    0.50    0.70
  -4  -7  -1    2.70    0.90
   4  -7   1    4.70    0.90
   4   7   1    2.60    0.80
   5  -7   1    0.50    0.70
  -5  -7  -1    0.00    0.70
   5   7   1    0.10    0.60
  -6  -7  -1    1.00    0.90
   6  -7   1    2.40    0.90
   6   7   1    1.30    0.90
   4  -8  -1    1.90    0.80
  -4  -8   1    1.00    1.00
   4   8  -1    2.00    0.90
  -3  -8   1   -0.80    0.70
   3  -8  -1    0.30    0.60
   3  -8  -1    0.00    0.60
   3  -8  -1    0.10    0.60
   3   8  -1    0.80    0.80
   2  -8  -1    2.60    0.80
  -2  -8   1    2.20    1.00
   2  -8  -1    1.50    0.70
   2   8  -1    2.50    0.90
  -1  -8   1   10.10    1.60
   1  -8  -1    4.90    1.20
   1   8  -1   10.50    1.30
  -1   8   1    8.50    1.30
   0  -8  -1   26.50    2.10
   0  -8   1   27.20    2.20
   0   8   1   25.30    1.90
   0   8  -1   28.60    1.80
  -1  -8  -1    3.10    1.10
   1  -8   1    3.00    1.00
   1   8   1    2.70    0.80
  -1   8  -1    2.00    0.80
  -2  -8  -1    2.40    1.00
   2  -8   1    0.80    0.80
   2   8   1    0.40    0.70
  -3  -8  -1    3.60    1.10
   3   8   1    1.20    0.80
  11   0  -2   -0.20    0.60
  11   0  -2   -0.30    0.60
  10   0  -2    0.40    0.60
  10   0  -2    0.80    0.70
   9   0  -2   24.10    1.60
   9   0  -2   24.20    1.60
   8   0  -2    4.10    0.80
   8   0  -2    3.50    0.70
   7   0  -2  147.19    4.20
   7   0  -2  151.68    4.10
  -6   0   2  304.87    6.60
   6   0  -2  299.77    7.20
   6   0  -2  300.97    7.10
   5   0  -2   94.99    2.70
   5   0  -2   96.59    2.80
  -5   0   2   97.29    2.30
  -4   0   2   45.00    1.20
   4   0  -2   45.20    1.50
   4   0  -2   44.20    1.50
   3   0  -2   14.60    0.70
  -3   0   2   15.70    0.70
  -3   0   2   14.30    0.50
  -2   0   2 1717.23   36.20
   2   0  -2 1777.82   36.50
  -1   0   2  247.98    5.40
   1   0  -2  247.98    5.30
   0   0  -2  110.69    2.60
   0   0   2  117.89    2.70
   0   0  -2  117.79    2.70
   1   0   2    7.50    0.50
   1   0   2    8.20    0.40
  -1   0  -2    8.60    0.60
   2   0   2   64.99    1.60
   2   0   2   66.59    1.90
  -2   0  -2   70.19    1.90
   3   0   2    0.30    0.30
  -3   0  -2    0.40    0.30
   3   0   2    0.50    0.20
  -4   0  -2  875.91   18.30
   4   0   2  857.11   18.00
   4   0   2  850.01   18.40
  -5   0  -2  199.58    5.00
   5   0   2  203.68    4.80
   5   0   2  207.78    5.10
  -6   0  -2    6.90    0.80
   6   0   2    7.20    0.80
   6   0   2    7.50    0.70
  -7   0  -2   56.09    2.10
   7   0   2   54.79    2.30
   7   0   2   55.09    1.90
   8   0   2   18.20    1.10
   8   0   2   17.20    1.30
  -8   0  -2   17.30    1.20
  -9   0  -2    2.70    0.70
   9   0   2    4.00    0.90
   9   0   2    4.40    0.80
  10   0   2   28.50    1.90
  11   0   2   11.70    1.60
  11  -1  -2    4.70    1.00
  11  -1  -2    4.30    1.10
  11   1  -2    7.10    1.20
  10  -1  -2    6.80    1.10
  10  -1  -2    5.20    1.00
  10   1  -2    6.60    1.20
   9  -1  -2    1.00    0.70
   9  -1  -2   -0.30    0.50
   9   1  -2    0.10    0.50
   9   1  -2    0.50    0.50
   8  -1  -2    8.20    1.10
   8  -1  -2    9.00    1.00
   8   1  -2    9.70    1.00
   8   1  -2   10.30    1.20
   7  -1  -2    0.30    0.50
   7  -1  -2    1.20    0.50
  -7  -1   2    0.90    0.40
   7   1  -2    0.40    0.40
   7   1  -2    1.20    0.50
   6  -1  -2   20.40    1.10
  -6  -1   2   19.60    0.90
   6  -1  -2   19.00    1.20
   6   1  -2   18.90    1.10
   6   1  -2   19.00    1.00
   5  -1  -2   60.09    2.10
   5  -1  -2   60.59    2.00
  -5  -1   2   64.59    1.90
   5   1  -2   61.19    1.80
   5   1  -2   61.39    2.10
  -4  -1   2   24.10    1.00
   4  -1  -2   26.50    1.10
   4   1  -2   25.50    1.20
  -4   1   2   26.70    1.20
   4   1  -2   25.00    0.90
   3  -1  -2   51.49    1.60
   3   1  -2   49.60    1.40
   3   1  -2   51.59    1.60
  -3   1   2   49.20    1.60
   2  -1  -2   52.19    1.50
   2  -1  -2   50.29    1.20
  -2  -1   2   51.29    1.30
  -2   1   2   50.79    1.50
   2   1  -2   53.69    1.50
   1  -1  -2 3592.74   74.39
   1  -1  -2 3487.05   73.59
  -1  -1   2 3596.04   73.19
   1   1  -2 3480.25   73.99
  -1   1   2 3564.24   74.39
   0  -1   2  350.86    7.40
   0  -1  -2  344.17    7.50
   0   1   2  351.66    7.50
   0   1  -2  355.66    7.30
   0   1   2  345.27    7.50
   1  -1   2   38.20    1.20
  -1  -1  -2   36.60    1.20
   1   1   2   37.00    1.10
  -1   1  -2   39.60    0.80
   1   1   2   34.60    1.10
  -1   1  -2   36.60    1.20
  -2  -1  -2  161.48    3.90
   2  -1   2  165.18    3.90
   2  -1   2  159.88    3.40
   2   1   2  164.58    3.80
   2   1   2  161.68    3.80
  -2   1  -2  165.28    3.90
   3  -1   2   13.90    0.80
  -3  -1  -2   13.10    0.80
   3  -1   2   15.80    0.50
   3   1   2   16.10    0.70
   3   1   2   15.10    0.80
  -3   1  -2   14.00    0.80
   4  -1   2  310.47    7.20
  -4  -1  -2  310.67    7.10
   4  -1   2  313.67    6.60
  -4   1  -2  301.27    7.00
   4   1   2  298.07    7.00
   4   1   2  304.97    6.90
   5  -1   2    2.50    0.40
  -5  -1  -2    3.30    0.60
   5  -1   2    2.80    0.60
   5   1   2    2.10    0.50
   5   1   2    3.00    0.50
  -5   1  -2    2.50    0.50
   6  -1   2  161.58    4.50
  -6  -1  -2  161.58    4.30
  -6   1  -2  159.98    4.20
   6   1   2  157.28    4.10
   6   1   2  162.28    4.30
  -7  -1  -2    5.90    0.90
   7  -1   2    6.00    0.70
   7  -1   2    4.20    0.80
  -7   1  -2    5.60    0.70
   7   1   2    6.30    0.90
   7   1   2    5.50    0.70
   8  -1   2   14.60    1.50
   8  -1   2   15.80    1.00
  -8  -1  -2   14.10    1.20
   8   1   2   15.60    1.20
   8   1   2   15.30    1.30
  -8   1  -2   15.00    1.10
   9  -1   2    3.80    0.90
  -9  -1  -2    3.80    0.80
   9   1   2    2.30    0.70
   9   1   2    3.10    0.80
  10  -1   2    0.80    0.70
  10   1   2    0.80    0.60
  10   1   2    0.40    0.70
  10  -2  -2    5.10    0.90
  10  -2  -2    7.00    1.30
  10   2  -2    6.30    1.20
   9  -2  -2   44.00    2.00
   9  -2  -2   39.90    2.20
   9   2  -2   39.70    2.10
   8  -2  -2    9.00    1.20
   8  -2  -2   13.10    1.20
  -8  -2   2   11.20    1.10
   8   2  -2   11.50    1.30
   7  -2  -2   66.69    2.30
  -7  -2   2   68.29    2.30
   7  -2  -2   69.69    2.70
   7   2  -2   67.79    2.10
   6  -2  -2   85.99    2.90
   6  -2  -2   86.09    2.70
  -6  -2   2   85.89    2.60
   6   2  -2   85.89    2.40
   6   2  -2   86.19    2.90
  -5  -2   2   60.19    2.00
   5  -2  -2   62.19    2.20
   5  -2  -2   60.19    2.00
   5   2  -2   61.89    2.20
   5   2  -2   60.99    1.70
  -4  -2   2  147.59    3.90
   4  -2  -2  148.49    3.20
   4  -2  -2  155.38    3.80
  -4   2   2  154.58    4.10
   4   2  -2  152.68    3.40
   4   2  -2  149.69    4.00
   3  -2  -2    5.20    0.60
   3  -2  -2    5.60    0.30
   3   2  -2    5.90    0.30
  -3   2   2    6.30    0.70
   3   2  -2    4.90    0.60
   2  -2  -2    0.80    0.20
   2  -2  -2    0.40    0.30
  -2   2   2    0.70    0.30
   2   2  -2    0.60    0.30
   1  -2  -2    1.70    0.30
  -1  -2   2    2.10    0.20
   1  -2  -2    1.40    0.30
  -1   2   2    1.20    0.30
   1   2  -2    1.50    0.30
   0  -2   2  514.75   10.70
   0  -2  -2  510.65   11.00
   0   2   2  514.45   11.00
   0   2  -2  502.05   10.80
   0   2   2  515.55   11.00
   1  -2   2  108.19    2.70
  -1  -2  -2  107.29    2.80
  -1   2  -2  107.49    2.40
   1   2   2  106.09    2.70
   1   2   2  107.69    2.80
  -2  -2  -2    0.90    0.40
   2  -2   2    1.00    0.30
   2  -2   2    0.70    0.10
   2   2   2    0.70    0.30
   2   2   2    0.40    0.30
  -3  -2  -2    3.90    0.60
   3  -2   2    3.00    0.50
   3  -2   2    4.50    0.30
   3   2   2    4.70    0.50
   3   2   2    4.10    0.50
   4  -2   2  212.08    4.50
  -4  -2  -2  202.68    5.20
   4  -2   2  211.38    5.20
   4   2   2  199.48    5.00
   4   2   2  208.08    5.00
   5  -2   2    7.40    0.50
   5  -2   2    6.30    0.80
  -5  -2  -2    7.30    0.80
   5   2   2    7.80    0.80
   5   2   2    6.90    0.70
  -5   2  -2    7.40    0.80
   6  -2   2   11.60    0.70
   6  -2   2   12.40    1.20
  -6  -2  -2   13.40    1.20
  -6   2  -2   13.40    0.90
   6   2   2   12.00    1.00
   6   2   2   12.50    1.00
  -7  -2  -2   -0.30    0.50
   7  -2   2   -0.10    0.50
  -7   2  -2    0.10    0.30
   7   2   2   -0.30    0.40
   7   2   2    0.00    0.40
  -8  -2  -2    2.90    0.80
   8  -2   2    1.00    0.70
   8   2   2    4.10    0.80
   8   2   2    5.20    0.90
  -9  -2  -2   17.20    1.50
   9  -2   2   16.80    1.70
   9   2   2   18.40    1.40
   9   2   2   14.00    1.40
 -10  -2  -2   22.90    1.80
  10  -2   2   19.40    2.00
  10   2   2   23.90    1.60
  10  -3  -2   -0.80    0.70
  10   3  -2    0.00    0.60
   9  -3  -2   12.60    1.30
   9  -3  -2   16.30    1.70
   9   3  -2   10.60    1.40
   8  -3  -2   -0.30    0.50
   8  -3  -2   -0.10    0.70
  -8  -3   2    0.10    0.50
   8   3  -2   -0.30    0.50
   7  -3  -2   14.50    1.50
  -7  -3   2   13.90    1.20
   7  -3  -2   15.70    1.10
   7   3  -2   16.10    1.30
   6  -3  -2   10.20    1.20
  -6  -3   2    7.90    0.90
   6  -3  -2    9.00    0.90
   6   3  -2    9.00    1.10
   5  -3  -2   11.80    0.60
   5  -3  -2   11.30    0.90
   5  -3  -2   12.20    1.20
  -5  -3   2   11.80    0.90
   5   3  -2    9.30    1.00
  -4  -3   2    5.70    0.70
   4  -3  -2    4.90    0.40
   4  -3  -2    5.30    0.70
   4   3  -2    5.00    0.70
  -4   3   2    4.20    0.70
   3  -3  -2  203.78    4.70
   3  -3  -2  208.38    5.10
   3   3  -2  217.78    5.20
  -3   3   2  210.78    5.30
   2  -3  -2   23.40    1.10
   2  -3  -2   24.20    1.00
   2   3  -2   23.90    1.10
  -2   3   2   23.20    1.20
  -1  -3   2  198.88    4.30
   1  -3  -2  196.08    4.70
  -1   3   2  199.78    4.80
  -1   3   2  202.68    4.80
   1   3  -2  200.38    4.70
   0  -3  -2   12.70    0.80
   0  -3   2   11.40    0.60
   0   3   2   10.80    0.70
   0   3  -2   11.30    0.60
   0   3   2    9.50    0.70
  -1  -3  -2  195.08    4.80
   1  -3   2  192.08    4.50
   1   3   2  194.78    4.60
  -1   3  -2  190.68    4.30
   1   3   2  185.68    4.70
  -2  -3  -2   16.60    1.00
   2  -3   2   15.20    0.90
   2   3   2   17.30    0.90
  -2   3  -2   16.10    0.70
   2   3   2   17.30    1.00
   3  -3   2    4.90    0.40
   3  -3   2    5.60    0.70
  -3  -3  -2    5.10    0.70
   3   3   2    4.00    0.60
   3   3   2    4.90    0.50
   4  -3   2   51.89    1.40
   4  -3   2   50.09    2.00
  -4  -3  -2   54.19    2.00
   4   3   2   50.99    1.70
   4   3   2   50.49    1.90
   5  -3   2   20.90    0.80
  -5  -3  -2   21.80    1.30
   5  -3   2   22.80    1.40
   5   3   2   20.10    1.20
   5   3   2   22.70    1.10
  -6  -3  -2  219.88    5.90
   6  -3   2  219.88    5.90
   6   3   2  216.88    5.40
   6   3   2  216.28    5.70
  -7  -3  -2    3.60    0.90
   7  -3   2    3.20    0.90
   7   3   2    4.30    0.70
   7   3   2    3.20    0.80
  -8  -3  -2    2.30    0.90
   8  -3   2    0.60    0.70
   8   3   2    2.70    0.70
   8   3   2    2.40    1.00
  -9  -3  -2    3.50    1.00
   9  -3   2    2.90    1.00
   9   3   2    2.60    0.80
  10  -3   2   -0.80    0.80
 -10  -3  -2   -0.60    0.70
  10   3   2    1.70    0.80
  -9  -4   2   16.40    1.60
   9  -4  -2   17.10    1.90
   9   4  -2   16.20    1.70
   8  -4  -2    0.40    0.60
  -8  -4   2    1.30    0.70
   8  -4  -2    0.80    0.70
   8   4  -2    1.10    0.80
   7  -4  -2   25.20    1.50
  -7  -4   2   25.30    1.70
   7  -4  -2   27.60    1.90
   7   4  -2   25.70    1.70
   6  -4  -2   30.20    1.80
  -6  -4   2   27.20    1.70
   6  -4  -2   27.70    1.50
   6   4  -2   28.50    1.70
  -5  -4   2   18.90    1.30
   5  -4  -2   17.90    1.10
   5  -4  -2   18.50    1.40
   5   4  -2   18.70    1.30
   4  -4  -2   41.00    1.70
  -4  -4   2   44.40    2.00
   4  -4  -2   42.80    1.40
  -4   4   2   44.50    2.00
   4   4  -2   42.30    1.90
   3  -4  -2    5.10    0.60
   3  -4  -2    7.30    0.80
  -3   4   2    6.30    0.80
   3   4  -2    7.20    0.90
   2  -4  -2   10.40    0.80
   2  -4  -2    9.10    0.70
   2   4  -2   10.50    0.90
  -2   4   2    8.90    0.90
   1  -4  -2    1.00    0.40
  -1  -4   2    1.00    0.20
  -1   4   2    2.00    0.50
  -1   4   2    1.30    0.40
   1   4  -2    1.80    0.40
   0  -4  -2   40.00    1.60
   0  -4   2   39.80    1.30
   0   4   2   40.80    1.50
   0   4  -2   39.00    1.40
   0   4   2   40.20    1.60
  -1  -4  -2   14.30    1.00
   1  -4   2   12.60    0.80
   1   4   2   13.90    0.90
   1   4   2   13.70    0.80
  -2  -4  -2    0.10    0.40
   2  -4   2    0.00    0.30
  -2   4  -2   -0.20    0.20
   2   4   2    0.00    0.30
   2   4   2   -0.30    0.30
   3  -4   2    0.50    0.30
  -3  -4  -2    0.50    0.40
   3  -4   2    0.90    0.40
   3   4   2    0.60    0.30
   3   4   2    0.50    0.50
  -4  -4  -2   65.19    2.50
   4  -4   2   70.59    2.50
   4  -4   2   66.59    1.80
   4   4   2   65.99    2.40
   4   4   2   67.29    2.10
   5  -4   2    1.10    0.60
  -5  -4  -2    0.40    0.50
   5   4   2    0.80    0.40
   5   4   2   -0.80    0.50
  -6  -4  -2    1.80    0.70
   6  -4   2    2.10    0.70
   6   4   2    3.50    0.80
   7  -4   2    1.70    0.80
  -7  -4  -2    1.50    0.80
   7   4   2    0.20    0.50
  -8  -4  -2    3.60    1.00
   8  -4   2    6.30    1.20
   8   4   2    5.60    1.10
  -9  -4  -2    5.90    1.30
   9  -4   2    4.80    1.20
   9   4   2    5.20    1.10
   9  -5  -2    0.80    1.00
  -9  -5   2    1.50    0.80
   9   5  -2   -0.70    0.60
  -8  -5   2    2.40    0.90
   8  -5  -2    1.30    1.00
   8   5  -2    4.50    1.10
  -7  -5   2    0.00    0.50
   7  -5  -2   -0.50    0.70
   7  -5  -2   -0.10    0.50
   7   5  -2   -0.70    0.60
   6  -5  -2    7.60    1.20
  -6  -5   2    8.90    1.20
   6  -5  -2    6.30    0.90
   6   5  -2    8.40    1.20
   5  -5  -2    7.10    0.90
   5  -5  -2    1.90    0.80
  -5  -5   2    5.20    1.00
   5   5  -2    6.10    1.00
  -4  -5   2    0.50    0.50
   4  -5  -2    0.10    0.40
   4  -5  -2   -0.20    0.30
  -4   5   2    0.30    0.50
   4   5  -2    0.00    0.40
   3  -5  -2    0.30    0.40
  -3  -5   2   -0.40    0.50
   3  -5  -2    0.90    0.40
   3   5  -2   -0.60    0.40
  -3   5   2    0.90    0.60
   2  -5  -2    0.10    0.40
   2  -5  -2    0.50    0.40
  -2   5   2    0.30    0.50
   2   5  -2    0.00    0.40
  -1  -5   2  171.38    4.10
   1  -5  -2  182.88    4.80
  -1   5   2  177.58    4.80
   1   5  -2  180.48    4.70
  -1   5   2  183.78    4.80
   0  -5   2   12.20    0.80
   0  -5  -2   12.90    1.10
   0   5   2   12.00    0.90
   0   5   2   13.80    1.10
   0   5  -2   12.70    0.90
   1  -5   2    0.00    0.30
  -1  -5  -2    0.10    0.40
   1   5   2    0.10    0.30
  -1   5  -2    0.80    0.40
   1   5   2    0.10    0.50
   2  -5   2   11.70    0.90
  -2  -5  -2   10.70    1.20
   2   5   2   10.80    1.20
   2   5   2   11.70    0.80
  -2   5  -2   11.10    0.80
  -3  -5  -2    0.60    0.50
   3  -5   2    0.40    0.30
   3  -5   2    0.50    0.50
   3   5   2    0.10    0.30
   3   5   2    0.00    0.50
   4  -5   2   32.00    1.70
  -4  -5  -2   27.30    1.80
   4   5   2   31.10    1.70
   5  -5   2    2.40    0.70
  -5  -5  -2    3.50    0.80
   5   5   2    2.10    0.70
   6  -5   2   15.70    1.50
  -6  -5  -2   16.60    1.70
   6   5   2   13.50    1.50
  -7  -5  -2    0.50    0.80
   7  -5   2    0.20    0.70
   7   5   2    0.10    0.60
   8  -5   2    2.90    1.00
  -8  -5  -2    1.90    1.00
   8   5   2    1.30    0.90
   7  -6  -2   12.80    1.70
  -7  -6   2    8.40    1.40
   7   6  -2   10.60    1.50
   6  -6  -2    8.50    1.30
   6  -6  -2    7.40    1.00
  -6  -6   2    6.40    1.20
   6   6  -2    5.80    1.10
  -5  -6   2    1.70    0.80
   5  -6  -2    1.70    0.90
   5  -6  -2    2.70    0.70
   5   6  -2    0.70    0.70
   4  -6  -2    0.90    0.60
  -4  -6   2    2.30    0.90
   4  -6  -2    3.00    0.90
   4   6  -2    1.50    0.70
   3  -6  -2    4.80    0.80
  -3  -6   2    4.00    0.90
   3  -6  -2    5.80    0.90
  -3   6   2    3.90    0.90
   3   6  -2    2.80    0.80
   2  -6  -2   38.40    1.90
   2  -6  -2   36.30    1.80
   2   6  -2   38.80    1.90
  -2   6   2   32.20    1.80
   1  -6  -2    2.50    0.70
  -1   6   2    2.60    0.70
  -1   6   2    2.40    0.70
   1   6  -2    3.50    0.70
   0  -6  -2    6.70    1.00
   0   6   2    7.50    1.10
   0   6  -2    8.80    1.00
   0   6   2    6.80    0.90
  -1  -6  -2   -0.30    0.60
   1  -6   2   -0.40    0.40
   1   6   2    0.20    0.40
   1   6   2    0.10    0.50
  -1   6  -2   -0.30    0.40
   2  -6   2    2.00    0.60
  -2  -6  -2   -0.10    0.50
   2   6   2    1.90    0.70
   2   6   2    1.50    0.80
  -2   6  -2    1.50    0.50
  -3  -6  -2    3.20    0.90
   3  -6   2    3.90    0.70
   3   6   2    2.30    0.70
   4  -6   2   24.40    1.60
  -4  -6  -2   23.10    1.70
   4   6   2   22.00    1.60
   5  -6   2    6.10    1.00
  -5  -6  -2    4.60    1.10
   5   6   2    4.70    1.10
   6  -6   2   -1.00    0.60
  -6  -6  -2    0.30    0.80
   6   6   2    0.80    0.80
  -7  -6  -2   10.30    1.50
   7  -6   2   11.50    1.60
   7   6   2   12.30    1.60
  -6  -7   2    2.80    1.00
   6  -7  -2    3.00    1.10
   6   7  -2    2.90    1.00
  -5  -7   2   -0.80    0.50
   5  -7  -2   -0.90    0.60
   5  -7  -2    0.60    0.60
   5   7  -2    0.40    0.70
   4  -7  -2   -0.30    0.50
  -4  -7   2    0.40    0.70
   4  -7  -2   -0.60    0.70
   4   7  -2    0.00    0.60
   3  -7  -2    0.10    0.50
  -3  -7   2   -0.80    0.60
   3  -7  -2   -1.20    0.50
   3  -7  -2    0.10    0.50
   3   7  -2    0.00    0.60
   2  -7  -2   -0.10    0.50
  -2  -7   2   -0.10    0.70
   2  -7  -2    0.10    0.50
   2   7  -2   -0.20    0.60
  -2   7   2    0.40    0.60
   1  -7  -2   14.80    1.50
   1   7  -2   15.90    1.50
  -1   7   2   14.80    1.50
  -1   7   2   13.00    1.30
   0  -7  -2    1.10    0.70
   0   7   2    1.30    0.70
   0   7  -2    1.30    0.60
   0   7   2    0.40    0.50
  -1  -7  -2   -0.10    0.60
   1   7   2    0.60    0.60
  -1   7  -2   -0.20    0.40
  -2  -7  -2    0.10    0.60
   2   7   2   -0.20    0.60
   3  -7   2    0.20    0.50
  -3  -7  -2    0.20    0.80
   3   7   2    1.10    0.70
  -4  -7  -2    3.90    1.00
   4  -7   2    5.40    1.00
   4   7   2    4.30    1.10
  -5  -7  -2    1.10    0.90
   5  -7   2    0.50    0.70
   5   7   2    1.70    0.90
   6  -7   2    5.60    1.20
  -6  -7  -2    2.20    1.00
   6   7   2    5.80    1.30
   3  -8  -2    0.60    0.70
   3  -8  -2    1.00    0.70
  -3  -8   2    2.60    1.10
   3   8  -2    1.10    0.80
   2  -8  -2    0.30    0.70
   2  -8  -2    1.00    0.70
  -2  -8   2    0.00    0.90
   2  -8  -2   -0.60    0.50
   2   8  -2   -0.50    0.60
   1  -8  -2    0.10    0.70
   1  -8  -2   -0.70    0.70
  -1  -8   2    0.20    0.90
   1   8  -2   -0.30    0.60
   0  -8   2    3.40    1.10
   0  -8  -2    1.40    0.90
   0   8  -2    1.90    0.70
   0   8   2    1.90    0.80
  -1  -8  -2    0.20    0.70
   1   8   2    0.90    0.80
  -2  -8  -2    0.20    0.80
   2   8   2    1.40    0.80
  -3  -8  -2    0.10    0.70
   3   8   2    0.40    0.80
  11   0  -3    5.40    1.10
  10   0  -3   13.60    1.40
  10   0  -3   12.60    1.40
   9   0  -3   38.80    2.00
   9   0  -3   39.80    2.00
   8   0  -3    8.30    1.10
   8   0  -3    7.00    0.90
   7   0  -3   12.20    1.10
   7   0  -3   14.40    1.30
   6   0  -3   21.10    1.20
   6   0  -3   21.30    1.20
  -6   0   3   20.50    0.80
   5   0  -3   28.70    1.30
   5   0  -3   29.60    1.30
  -5   0   3   29.90    0.90
  -4   0   3    0.10    0.20
   4   0  -3    0.40    0.40
  -4   0   3    0.30    0.30
  -3   0   3    0.10    0.30
   3   0  -3    0.20    0.30
   2   0  -3 2875.71   59.89
  -2   0   3 2822.72   59.59
   1   0  -3  925.41   19.30
   1   0  -3  931.31   19.30
   0   0   3  203.88    4.60
   0   0  -3  208.18    4.60
   0   0  -3  199.08    4.50
   1   0   3  293.67    6.50
  -1   0  -3  292.47    6.20
  -1   0  -3  293.27    6.50
   2   0   3   37.10    1.00
   2   0   3   35.70    1.30
  -2   0  -3   38.40    1.40
  -3   0  -3  374.26    8.30
   3   0   3  362.56    7.90
   4   0   3   91.79    2.70
   4   0   3   90.09    2.30
  -4   0  -3   87.79    2.70
  -5   0  -3   54.39    2.00
   5   0   3   51.19    1.60
   5   0   3   50.19    2.00
   6   0   3   12.20    0.80
  -6   0  -3   13.00    1.00
   6   0   3   13.50    1.10
  -7   0  -3  123.09    3.70
   7   0   3  118.89    3.80
   7   0   3  123.29    3.30
  -8   0  -3   46.10    2.10
   8   0   3   45.50    1.80
   8   0   3   44.50    2.20
  -9   0  -3    0.50    0.60
   9   0   3    0.70    0.70
  10   0   3   -0.20    0.70
  11  -1  -3    4.00    1.00
  11  -1  -3    2.30    0.90
  11   1  -3    1.90    0.90
  10  -1  -3    0.60    0.70
  10  -1  -3    0.70    0.70
  10   1  -3    0.00    0.50
   9  -1  -3    1.30    0.70
   9  -1  -3    1.00    0.60
   9   1  -3    0.30    0.50
   9   1  -3   -0.30    0.50
   8  -1  -3   18.90    1.30
   8  -1  -3   18.30    1.30
   8   1  -3   16.80    1.30
   8   1  -3   17.70    1.20
   7  -1  -3    1.20    0.50
  -7  -1   3    1.10    0.40
   7  -1  -3    2.10    0.60
   7   1  -3    1.90    0.50
   7   1  -3    0.70    0.50
   6  -1  -3  157.58    4.30
  -6  -1   3  153.88    3.80
   6  -1  -3  155.18    4.20
   6   1  -3  151.78    3.90
   6   1  -3  152.88    4.30
   5  -1  -3    6.50    0.70
  -5  -1   3    7.20    0.60
   5   1  -3    7.50    0.80
  -5   1   3    8.10    0.90
   5   1  -3    7.90    0.60
   4  -1  -3  226.88    5.50
  -4  -1   3  233.18    5.30
  -4   1   3  234.08    5.60
   4   1  -3  231.38    5.60
  -3  -1   3    6.60    0.50
   3  -1  -3    6.60    0.60
  -3   1   3    5.50    0.60
   3   1  -3    5.80    0.60
   2  -1  -3  497.05   10.90
  -2  -1   3  512.65   10.70
   2  -1  -3  518.05   10.60
   2   1  -3  499.65   10.90
  -2   1   3  507.65   11.00
   1  -1  -3   67.99    1.90
   1  -1  -3   70.19    1.80
  -1  -1   3   70.59    1.80
   1   1  -3   71.59    1.80
  -1   1   3   70.89    2.00
   0  -1   3   15.00    0.70
   0  -1  -3   14.80    0.70
   0  -1  -3   14.90    0.70
   0   1   3   15.60    0.80
   0   1  -3   15.00    0.60
  -1  -1  -3   22.80    1.00
   1  -1   3   25.00    1.00
   1   1   3   25.50    0.90
  -1   1  -3   25.50    0.70
  -1   1  -3   25.20    1.00
   1   1   3   26.40    1.00
  -2  -1  -3  721.53   15.30
   2  -1   3  704.33   15.30
  -2   1  -3  718.93   15.30
   2   1   3  730.83   15.10
   2   1   3  707.83   15.30
  -3  -1  -3  247.98    5.80
   3  -1   3  237.98    5.70
   3  -1   3  240.28    5.00
   3   1   3  239.08    5.40
   3   1   3  233.48    5.60
  -3   1  -3  240.98    5.70
   4  -1   3  102.39    3.00
  -4  -1  -3  103.69    3.00
   4  -1   3   98.59    2.30
   4   1   3  101.09    2.70
   4   1   3  103.19    2.90
  -4   1  -3  100.09    2.90
   5  -1   3   27.20    0.90
  -5  -1  -3   27.00    1.40
   5  -1   3   28.70    1.40
   5   1   3   26.10    1.30
  -5   1  -3   27.10    1.30
   5   1   3   27.80    1.20
  -6  -1  -3   -0.20    0.50
   6  -1   3    0.10    0.20
   6  -1   3   -1.00    0.30
   6   1   3    0.40    0.40
   6   1   3    0.10    0.30
  -6   1  -3   -0.20    0.30
   7  -1   3   63.89    2.60
   7  -1   3   64.49    2.00
  -7  -1  -3   68.79    2.50
   7   1   3   64.09    2.50
   7   1   3   67.69    2.20
  -7   1  -3   65.09    2.40
   8  -1   3    0.80    0.60
  -8  -1  -3    0.90    0.70
   8   1   3    1.50    0.60
   8   1   3    2.10    0.60
  -8   1  -3    1.70    0.60
  -9  -1  -3   17.20    1.50
   9  -1   3   16.10    1.70
   9   1   3   13.00    1.40
   9   1   3   16.40    1.20
  10  -1   3   -0.10    0.80
  10   1   3   -1.10    0.60
  10  -2  -3   -0.80    0.70
  10  -2  -3   -0.70    0.60
  10   2  -3   -0.10    0.70
   9  -2  -3   42.90    2.10
   9  -2  -3   43.20    2.30
   9   2  -3   50.09    2.50
   8  -2  -3   55.99    2.30
   8  -2  -3   56.39    2.60
   8   2  -3   54.79    2.40
  -7  -2   3   13.30    1.00
   7  -2  -3   13.80    1.30
   7  -2  -3   12.60    1.20
   7   2  -3   10.90    1.20
   6  -2  -3   32.90    1.50
  -6  -2   3   33.50    1.40
   6  -2  -3   30.30    1.60
   6   2  -3   31.40    1.20
   6   2  -3   29.40    1.60
   5  -2  -3   24.20    1.30
  -5  -2   3   27.70    1.20
   5   2  -3   24.00    0.90
   5   2  -3   25.20    1.30
  -5   2   3   24.90    1.40
   4  -2  -3  117.29    3.20
   4   2  -3  112.89    3.20
  -4   2   3  113.59    3.30
   4   2  -3  114.59    2.60
   3  -2  -3   19.50    0.60
   3  -2  -3   18.10    1.00
   3   2  -3   20.50    1.00
  -3   2   3   18.70    1.10
   3   2  -3   18.90    0.60
  -2  -2   3  192.78    4.10
   2  -2  -3  196.98    4.60
   2  -2  -3  190.18    4.30
  -2   2   3  191.68    4.70
   2   2  -3  188.68    4.60
   1  -2  -3   76.09    2.20
   1  -2  -3   79.69    2.10
  -1  -2   3   80.89    1.90
   1   2  -3   78.89    2.10
  -1   2   3   75.49    2.30
   0  -2  -3   69.29    2.00
   0  -2   3   72.79    1.80
   0   2   3   68.19    2.00
   0   2  -3   67.79    1.80
   0   2   3   67.89    2.00
   1  -2   3  335.47    7.30
  -1  -2  -3  334.77    7.50
  -1   2  -3  323.57    6.90
   1   2   3  325.07    7.40
   1   2   3  327.77    7.40
  -2  -2  -3   31.60    1.30
   2  -2   3   33.30    1.30
   2   2   3   30.20    1.20
   2   2   3   32.60    1.30
   3  -2   3   59.79    2.00
  -3  -2  -3   60.19    2.10
   3   2   3   58.09    1.90
   3   2   3   57.79    1.90
   4  -2   3    0.80    0.40
  -4  -2  -3    0.20    0.40
   4  -2   3    0.40    0.10
   4   2   3    1.40    0.40
  -4   2  -3    0.60    0.40
   4   2   3    1.00    0.40
  -5  -2  -3  234.68    6.00
   5  -2   3  232.88    5.10
   5  -2   3  234.88    6.00
   5   2   3  234.48    5.80
   5   2   3  237.58    5.80
  -5   2  -3  240.48    5.90
   6  -2   3    1.40    0.60
  -6  -2  -3    0.60    0.60
   6   2   3    1.90    0.60
   6   2   3    1.80    0.60
  -6   2  -3    2.00    0.60
  -7  -2  -3   10.80    1.30
   7  -2   3   10.60    1.20
   7   2   3   11.90    1.20
  -7   2  -3    9.60    1.00
   7   2   3   11.40    1.10
   8  -2   3   44.70    2.30
  -8  -2  -3   43.00    2.20
  -8   2  -3   40.60    1.90
   8   2   3   44.30    2.10
   8   2   3   43.80    2.00
  -9  -2  -3    1.60    0.80
   9  -2   3    2.20    0.90
   9   2   3    3.80    0.90
   9   2   3    1.80    0.70
  10  -2   3   -0.20    0.80
 -10  -2  -3    1.20    0.90
  10   2   3    1.00    0.80
  10   2   3    1.60    0.70
  10  -3  -3    2.30    1.00
  10  -3  -3    2.30    0.80
  10   3  -3    2.30    0.90
   9  -3  -3   14.70    1.70
   9  -3  -3   16.00    1.50
   9   3  -3   17.20    1.70
   8  -3  -3    3.00    0.80
  -8  -3   3    2.80    0.70
   8  -3  -3    2.50    0.90
   8   3  -3    2.20    0.80
  -7  -3   3   12.80    1.20
   7  -3  -3   10.50    1.30
   7  -3  -3   12.20    1.20
   7   3  -3    9.70    1.20
  -6  -3   3   90.79    2.90
   6  -3  -3   84.39    2.80
   6  -3  -3   87.89    3.20
   6   3  -3   88.79    3.10
  -5  -3   3    5.10    0.70
   5  -3  -3    3.80    0.60
  -5   3   3    4.20    0.80
   5   3  -3    5.40    0.80
   4  -3  -3   63.39    1.60
   4  -3  -3   67.69    2.20
  -4   3   3   64.29    2.40
   4   3  -3   65.19    2.30
   3  -3  -3  178.28    4.50
   3  -3  -3  175.78    4.10
   3   3  -3  175.18    4.50
  -3   3   3  176.58    4.70
   2  -3  -3   58.49    1.90
   2  -3  -3   58.29    1.70
   2   3  -3   55.79    1.80
  -2   3   3   53.99    2.00
   1  -3  -3   75.59    2.20
   1  -3  -3   74.49    2.30
  -1  -3   3   74.99    1.80
  -1   3   3   74.69    2.30
   1   3  -3   72.79    2.10
   0  -3  -3   15.20    0.90
   0  -3   3   13.00    0.70
   0   3   3   14.50    0.90
   0   3  -3   15.10    0.70
   0   3   3   13.90    0.90
  -1  -3  -3   22.70    1.10
   1  -3   3   21.80    1.00
   1   3   3   21.10    1.10
  -1   3  -3   20.90    0.80
   1   3   3   20.10    1.00
  -2  -3  -3  184.08    4.80
   2  -3   3  185.68    4.60
   2   3   3  183.58    4.60
   2   3   3  190.78    4.70
  -2   3  -3  182.58    4.00
  -3  -3  -3   34.30    1.60
   3  -3   3   34.80    1.50
   3  -3   3   33.50    0.90
   3   3   3   32.50    1.50
   3   3   3   31.90    1.30
   4  -3   3    0.20    0.10
   4  -3   3    0.40    0.40
  -4  -3  -3    0.00    0.40
   4   3   3   -0.10    0.40
   4   3   3   -0.20    0.30
   5  -3   3   53.29    2.20
  -5  -3  -3   50.09    2.20
   5   3   3   55.59    2.00
   5   3   3   54.59    2.10
  -6  -3  -3   31.90    1.80
   6  -3   3   31.20    1.80
   6   3   3   34.20    1.60
   6   3   3   32.10    1.70
   7  -3   3   17.50    1.70
  -7  -3  -3   15.00    1.50
   7   3   3   19.40    1.30
   7   3   3   21.20    1.40
  -8  -3  -3   19.70    1.70
   8  -3   3   18.00    1.80
   8   3   3   20.90    1.50
   8   3   3   18.50    1.40
   9  -3   3    7.50    1.30
  -9  -3  -3    8.20    1.30
   9   3   3    8.30    1.20
  10  -3   3    0.90    1.00
 -10  -3  -3   -0.20    0.80
  10   3   3    1.20    0.70
   9  -4  -3   16.60    2.00
   9  -4  -3   17.90    1.60
   9   4  -3   18.40    1.90
  -8  -4   3   22.60    1.60
   8  -4  -3   24.80    1.90
   8  -4  -3   21.40    1.50
   8   4  -3   23.90    1.70
  -7  -4   3    6.20    1.00
   7  -4  -3    8.10    1.20
   7  -4  -3    7.10    1.00
   7   4  -3    5.00    1.00
   6  -4  -3    6.80    0.90
  -6  -4   3    7.70    1.10
   6  -4  -3    6.00    1.00
   6   4  -3    5.60    0.90
  -5  -4   3   11.80    1.20
   5  -4  -3   11.80    1.20
   5   4  -3   11.10    1.20
  -5   4   3   10.60    1.20
   4  -4  -3   22.00    1.20
   4  -4  -3   21.30    0.90
  -4   4   3   20.00    1.40
   4   4  -3   20.60    1.30
   3  -4  -3    0.30    0.30
   3  -4  -3    0.10    0.40
   3   4  -3    0.70    0.40
  -3   4   3    0.20    0.50
   2  -4  -3   77.39    2.50
   2  -4  -3   79.29    2.30
   2   4  -3   75.69    2.40
  -2   4   3   76.69    2.60
  -1  -4   3   22.50    0.80
   1  -4  -3   22.60    1.10
  -1   4   3   22.00    1.20
   1   4  -3   23.40    1.10
  -1   4   3   23.00    1.20
   0  -4  -3    1.90    0.50
   0  -4   3    0.60    0.30
   0   4   3    1.10    0.40
   0   4   3    0.80    0.50
   0   4  -3    1.40    0.40
  -1  -4  -3   63.89    2.30
   1  -4   3   66.09    2.00
   1   4   3   65.29    2.20
  -1   4  -3   65.09    1.90
   1   4   3   63.29    2.20
  -2  -4  -3    5.40    0.80
   2  -4   3    4.70    0.60
  -2   4  -3    4.70    0.50
   2   4   3    3.40    0.50
   2   4   3    4.10    0.70
   3  -4   3   20.30    0.80
  -3  -4  -3   20.60    1.40
   3  -4   3   21.70    1.20
   3   4   3   21.60    1.30
   4  -4   3    3.20    0.70
  -4  -4  -3    4.20    0.80
   4   4   3    3.80    0.60
   4   4   3    4.10    0.70
  -5  -4  -3   83.59    3.10
   5  -4   3   78.49    2.90
   5   4   3   79.99    2.60
   5   4   3   77.09    2.80
  -6  -4  -3   -0.20    0.50
   6  -4   3    1.20    0.70
   6   4   3    1.50    0.60
   6   4   3    0.60    0.50
  -7  -4  -3    1.30    0.80
   7  -4   3    1.60    0.80
   7   4   3    1.80    0.70
   8  -4   3   13.30    1.60
  -8  -4  -3   12.90    1.60
   8   4   3   13.20    1.40
   9  -4   3    0.10    0.90
  -9  -4  -3    0.40    0.90
   9   4   3   -0.90    0.70
  -8  -5   3    2.60    0.90
   8  -5  -3    1.90    0.80
   8  -5  -3    2.60    1.10
   8   5  -3    1.90    0.80
  -7  -5   3    0.20    0.60
   7  -5  -3    1.70    1.00
   7  -5  -3    1.90    0.70
   7   5  -3    2.10    0.80
  -6  -5   3   29.00    1.90
   6  -5  -3   27.00    1.60
   6   5  -3   27.80    1.80
   5  -5  -3    0.30    0.50
  -5  -5   3   -0.20    0.60
   5   5  -3    0.20    0.60
  -5   5   3    0.20    0.60
  -4  -5   3   18.10    1.40
   4  -5  -3   18.70    1.30
  -4   5   3   18.50    1.40
   4   5  -3   20.70    1.40
   3  -5  -3    0.20    0.40
   3  -5  -3    0.30    0.50
   3   5  -3    0.00    0.40
  -3   5   3    0.60    0.60
   2  -5  -3   34.70    1.70
   2  -5  -3   34.70    1.60
  -2   5   3   35.90    1.80
   2   5  -3   32.90    1.60
   1  -5  -3   18.90    1.20
  -1   5   3   19.60    1.30
   1   5  -3   19.30    1.10
  -1   5   3   17.60    1.20
   0  -5  -3    5.80    0.90
   0  -5   3    4.90    0.50
   0   5   3    5.90    0.90
   0   5  -3    4.90    0.70
   0   5   3    4.90    0.70
   1  -5   3    3.00    0.50
  -1  -5  -3    3.00    0.80
   1   5   3    2.60    0.60
  -1   5  -3    2.20    0.50
   1   5   3    1.80    0.60
   2  -5   3   42.60    1.70
  -2  -5  -3   40.90    2.00
  -2   5  -3   38.00    1.40
   2   5   3   41.90    1.70
   2   5   3   39.20    1.90
  -3  -5  -3    4.70    0.90
   3  -5   3    4.70    0.80
   3   5   3    5.90    1.00
   3   5   3    5.30    0.70
   4  -5   3    4.50    0.80
  -4  -5  -3    5.20    1.00
   4   5   3    4.60    0.90
   4   5   3    4.70    0.70
  -5  -5  -3    0.20    0.60
   5  -5   3    1.20    0.70
   5   5   3    1.50    0.70
  -6  -5  -3    7.70    1.20
   6  -5   3    8.80    1.30
   6   5   3    8.70    1.20
   7  -5   3   17.20    1.80
  -7  -5  -3   17.30    1.80
   7   5   3   18.80    1.80
  -8  -5  -3    1.00    0.90
   8  -5   3    0.20    1.00
   8   5   3   -0.80    0.70
  -7  -6   3    0.00    0.70
   7  -6  -3    1.00    1.00
   7  -6  -3    0.70    0.70
   7   6  -3    1.90    0.90
   6  -6  -3    1.00    0.70
  -6  -6   3   -0.70    0.60
   6  -6  -3    0.70    0.90
   6   6  -3   -0.10    0.60
   5  -6  -3    3.20    0.70
   5  -6  -3    2.40    0.90
  -5  -6   3    2.90    0.90
   5   6  -3    3.20    0.90
   4  -6  -3    0.30    0.60
  -4  -6   3    0.40    0.60
  -4   6   3    1.00    0.60
   4   6  -3    0.40    0.60
   3  -6  -3    2.90    0.70
   3  -6  -3    2.20    0.70
   3   6  -3    3.40    0.70
  -3   6   3    2.20    0.80
   2  -6  -3   62.59    2.50
   2  -6  -3   56.79    2.30
   2   6  -3   65.59    2.50
  -2   6   3   63.69    2.60
   1  -6  -3   13.90    1.20
  -1   6   3   13.40    1.30
  -1   6   3   12.70    1.30
   1   6  -3   14.20    1.10
   0  -6  -3   16.00    1.30
   0   6   3   14.60    1.20
   0   6  -3   16.20    1.10
   0   6   3   15.40    1.40
   1  -6   3    3.60    0.60
  -1  -6  -3    3.90    0.90
  -1   6  -3    3.40    0.60
   1   6   3    4.10    0.80
   1   6   3    4.60    0.80
   2  -6   3    1.40    0.50
  -2  -6  -3    0.50    0.60
   2   6   3    0.20    0.50
   2   6   3    2.00    0.60
  -3  -6  -3   14.40    1.50
   3  -6   3   11.60    1.10
   3   6   3    9.60    1.20
  -4  -6  -3    8.20    1.20
   4  -6   3    7.60    1.00
   4   6   3    7.70    1.20
   5  -6   3    1.40    0.70
  -5  -6  -3    3.10    0.90
   5   6   3    4.80    1.10
   6  -6   3    0.10    0.80
  -6  -6  -3   -0.40    0.70
   6   6   3    1.00    0.80
   7  -6   3    5.10    1.20
  -7  -6  -3    4.10    1.10
   7   6   3    4.40    1.10
  -6  -7   3    8.30    1.40
   6  -7  -3    7.60    1.10
   6  -7  -3    6.40    1.40
   6   7  -3    9.20    1.50
  -5  -7   3    2.00    0.90
   5  -7  -3    2.90    0.80
   5  -7  -3    0.60    0.90
   5   7  -3    1.50    0.80
   4  -7  -3    1.60    0.90
  -4  -7   3    2.80    1.00
   4  -7  -3    2.90    0.80
   4   7  -3    3.00    0.90
  -3  -7   3   -0.70    0.50
   3  -7  -3   -0.40    0.50
  -3   7   3    0.50    0.70
   3   7  -3    0.80    0.70
   2  -7  -3    5.00    1.00
   2  -7  -3    4.80    0.90
   2   7  -3    4.80    1.00
  -2   7   3    4.00    0.90
   1  -7  -3    2.10    0.70
   1  -7  -3    1.10    0.70
   1   7  -3    1.30    0.60
  -1   7   3    2.60    0.70
   0  -7  -3    0.20    0.70
   0   7  -3    0.80    0.60
   0   7   3   -1.10    0.40
   0   7   3    0.40    0.50
  -1  -7  -3   -0.20    0.70
   1   7   3    0.00    0.60
  -2  -7  -3    2.80    1.00
   2   7   3    2.30    0.80
   3  -7   3    0.20    0.50
  -3  -7  -3    0.60    0.70
   3   7   3    0.00    0.60
   4  -7   3    0.40    0.60
  -4  -7  -3    0.30    0.80
   4   7   3    1.10    0.80
  -5  -7  -3    1.20    0.90
   5  -7   3    3.20    0.80
   5   7   3    2.50    1.00
   3  -8  -3    0.40    0.60
   3  -8  -3   -0.40    0.70
  -3  -8   3   -1.10    0.70
   3   8  -3    0.50    0.70
   2  -8  -3   -0.70    0.60
  -2  -8   3   -0.10    0.80
   2  -8  -3   -0.50    0.50
   2   8  -3    0.90    0.80
  -2   8   3    0.10    0.70
   1  -8  -3    1.30    0.90
   1  -8  -3   -0.60    0.60
   1   8  -3    0.20    0.60
   0  -8  -3   -0.40    0.70
   0   8   3    0.50    0.70
  -1  -8  -3    1.10    0.90
   1   8   3    1.80    0.90
  -2  -8  -3   -1.00    0.80
   2   8   3   -0.40    0.70
  -3  -8  -3    0.80    1.00
   3   8   3    1.30    0.90
  10   0  -4    0.50    0.60
  10   0  -4   -1.10    0.50
   9   0  -4   19.50    1.70
   9   0  -4   15.70    1.30
   8   0  -4   78.59    3.00
   8   0  -4   86.39    2.90
   7   0  -4    0.30    0.50
   7   0  -4   -0.10    0.40
   6   0  -4   -0.40    0.30
   6   0  -4    0.00    0.40
   5   0  -4   85.39    2.60
  -5   0   4   82.89    1.90
  -5   0   4   66.09    2.30
   4   0  -4   12.70    0.90
  -4   0   4   13.30    0.80
   3   0  -4    7.10    0.70
  -3   0   4    5.70    0.60
  -2   0   4 1471.65   30.90
   2   0  -4 1496.65   30.90
  -1   0   4  201.88    4.60
   1   0  -4  193.18    4.50
   1   0  -4  195.28    4.50
   0   0  -4   99.69    2.60
   0   0  -4   98.79    2.40
   0   0   4   98.39    2.60
   1   0   4   52.79    1.70
  -1   0  -4   56.49    1.80
  -1   0  -4   53.49    1.40
  -2   0  -4  126.69    3.30
   2   0   4  125.29    2.90
   2   0   4  122.49    3.30
   3   0   4  499.15   10.40
  -3   0  -4  494.95   11.00
   3   0   4  483.45   11.00
  -4   0  -4  194.98    5.00
   4   0   4  197.88    5.00
   4   0   4  197.88    4.50
  -5   0  -4   89.59    2.90
   5   0   4   93.89    2.40
   6   0   4    3.10    0.50
  -6   0  -4    3.80    0.70
   6   0   4    3.70    0.80
  -7   0  -4    2.60    0.70
   7   0   4    3.40    0.80
   7   0   4    4.20    0.60
   8   0   4    1.30    0.70
  -8   0  -4   -0.10    0.50
  -9   0  -4   -0.10    0.50
   9   0   4   -0.30    0.70
  10   0   4    0.80    0.90
  10  -1  -4   15.00    1.60
  10  -1  -4   13.10    1.50
  10   1  -4   14.10    1.50
   9  -1  -4    2.60    0.80
   9  -1  -4    1.00    0.70
   9   1  -4    2.30    0.80
   8  -1  -4    0.30    0.50
   8  -1  -4    0.90    0.60
   8   1  -4    0.30    0.60
   8   1  -4   -0.30    0.40
   7  -1  -4  467.35   10.80
   7  -1  -4  444.46   10.70
   7   1  -4  455.15   10.80
   7   1  -4  466.65   10.40
  -6  -1   4   21.20    1.00
   6  -1  -4   24.60    1.40
   6   1  -4   19.80    1.30
   6   1  -4   22.00    1.10
  -6   1   4   21.50    1.30
   5  -1  -4   18.10    1.10
  -5  -1   4   18.30    0.90
  -5  -1   4   17.30    0.90
   5   1  -4   18.80    1.10
  -5   1   4   18.70    1.10
   4  -1  -4   31.20    1.40
  -4  -1   4   29.20    1.10
   4   1  -4   31.90    1.40
  -4   1   4   30.90    1.40
  -3  -1   4  937.21   19.40
   3  -1  -4  919.21   19.70
  -3   1   4  919.71   19.70
   3   1  -4  926.31   19.70
   2  -1  -4   47.90    1.60
  -2  -1   4   47.00    1.40
   2  -1  -4   45.60    1.30
   2   1  -4   44.30    1.50
  -2   1   4   46.80    1.60
   1  -1  -4  134.49    3.30
  -1  -1   4  135.39    3.20
   1  -1  -4  131.39    3.20
  -1   1   4  135.49    3.40
   1   1  -4  132.79    3.20
   0  -1  -4  528.95   11.30
   0  -1   4  517.35   11.20
   0  -1  -4  523.65   11.30
   0   1  -4  535.25   11.10
   0   1  -4  518.55   11.40
   0   1   4  523.15   11.40
  -1  -1  -4  136.99    3.50
   1  -1   4  135.69    3.40
  -1   1  -4  136.59    3.00
   1   1   4  134.39    3.30
  -1   1  -4  133.99    3.50
   1   1   4  133.59    3.50
  -2  -1  -4  548.95   12.10
   2  -1   4  541.35   12.00
   2   1   4  553.14   11.80
   2   1   4  533.75   12.00
  -2   1  -4  556.64   12.10
  -2   1  -4  565.94   11.40
  -3  -1  -4  310.87    7.40
   3  -1   4  322.27    7.40
  -3   1  -4  311.87    7.40
  -3   1  -4  316.57    6.60
   3   1   4  311.37    7.30
   3   1   4  317.37    7.00
   4  -1   4    2.90    0.30
  -4  -1  -4    2.70    0.60
   4  -1   4    2.60    0.60
   4   1   4    2.30    0.50
  -4   1  -4    2.10    0.50
   4   1   4    2.00    0.40
   5  -1   4   16.30    0.70
  -5  -1  -4   15.40    1.20
   5  -1   4   20.30    1.30
  -5   1  -4   17.40    1.10
   5   1   4   16.80    1.20
   5   1   4   18.30    0.90
  -6  -1  -4   26.90    1.60
   6  -1   4   26.10    1.50
   6   1   4   26.40    1.20
  -6   1  -4   27.80    1.50
   6   1   4   27.80    1.50
   7  -1   4  177.68    5.10
  -7  -1  -4  174.38    5.00
  -7   1  -4  174.38    4.90
   7   1   4  176.18    4.60
   7   1   4  174.88    5.00
  -8  -1  -4    1.00    0.70
   8  -1   4    0.40    0.60
   8   1   4    0.00    0.50
   8   1   4    0.70    0.50
  -8   1  -4    0.40    0.50
   9  -1   4   19.80    1.70
  -9  -1  -4   14.80    1.60
   9   1   4   16.90    1.70
  -9   1  -4   15.60    1.30
 -10  -1  -4   59.29    2.70
  10  -1   4   49.99    2.80
  10   1   4   58.09    2.80
  10  -2  -4   13.20    1.50
  10  -2  -4   11.00    1.40
  10   2  -4    5.60    1.10
   9  -2  -4    7.00    1.10
   9  -2  -4    7.90    1.20
   9   2  -4    8.40    1.20
   8  -2  -4   12.40    1.30
   8  -2  -4   13.20    1.50
   8   2  -4   15.00    1.50
   7  -2  -4    0.40    0.60
   7  -2  -4    1.10    0.60
  -7  -2   4    0.60    0.40
   7   2  -4    0.30    0.50
   6  -2  -4    1.10    0.50
  -6  -2   4    1.70    0.50
   6   2  -4    1.60    0.40
  -6   2   4    1.40    0.70
   6   2  -4    2.40    0.60
   5  -2  -4   38.00    1.70
  -5   2   4   38.80    1.80
   5   2  -4   36.70    1.20
   5   2  -4   37.50    1.70
   4  -2  -4   72.09    2.40
  -4  -2   4   72.79    1.80
  -4   2   4   71.09    2.50
   4   2  -4   72.99    2.40
  -3  -2   4   98.99    2.40
   3  -2  -4  101.49    2.30
   3  -2  -4  101.49    2.90
   3   2  -4  100.19    2.90
  -3   2   4   97.09    2.90
   2  -2  -4   78.59    2.00
   2  -2  -4   75.19    2.30
  -2  -2   4   77.49    1.90
   2   2  -4   77.39    2.20
  -2   2   4   76.89    2.40
   1  -2  -4    4.10    0.60
  -1  -2   4    4.50    0.40
   1  -2  -4    4.60    0.50
   1   2  -4    4.20    0.50
  -1   2   4    4.00    0.60
   0  -2   4    8.20    0.60
   0  -2  -4    8.20    0.70
   0  -2  -4    9.30    0.70
   0   2   4    8.80    0.70
   0   2  -4    8.40    0.50
  -1  -2  -4   12.90    0.80
   1   2   4   11.40    0.80
  -1   2  -4   11.30    0.50
   1   2   4   10.60    0.80
  -2  -2  -4   19.00    1.10
   2  -2   4   19.50    1.00
   2   2   4   17.50    1.00
   2   2   4   16.90    0.90
   3  -2   4   53.19    1.90
  -3  -2  -4   54.09    2.00
  -3   2  -4   53.09    2.00
   3   2   4   52.99    1.80
   3   2   4   53.99    1.90
   4  -2   4  269.27    6.70
  -4  -2  -4  269.27    6.70
   4   2   4  264.27    6.50
  -4   2  -4  267.27    6.60
   4   2   4  277.77    6.40
   5  -2   4  276.87    6.90
  -5  -2  -4  267.57    6.90
   5   2   4  273.47    6.80
  -5   2  -4  275.87    6.80
   5   2   4  275.07    6.60
   6  -2   4    2.40    0.70
  -6  -2  -4    1.30    0.70
  -6   2  -4    2.00    0.60
   6   2   4    1.40    0.60
   6   2   4    1.50    0.50
   7  -2   4   12.50    1.40
  -7  -2  -4   11.60    1.30
  -7   2  -4   14.20    1.30
   7   2   4   11.80    1.10
   7   2   4   12.70    1.30
   8  -2   4    0.10    0.70
  -8  -2  -4   -0.80    0.60
   8   2   4    0.70    0.60
   8   2   4   -0.30    0.50
  -8   2  -4   -0.40    0.40
   9  -2   4    1.30    0.80
  -9  -2  -4    0.60    0.80
   9   2   4    1.40    0.80
   9   2   4    0.80    0.60
 -10  -2  -4    0.90    0.90
  10  -2   4    2.80    1.20
  10   2   4    1.70    0.90
  10  -3  -4   14.60    1.80
  10  -3  -4   14.10    1.50
  10   3  -4   12.20    1.60
   9  -3  -4   18.50    1.90
   9  -3  -4   14.80    1.50
   9   3  -4   18.60    1.90
  -8  -3   4    1.90    0.90
   8  -3  -4    3.20    0.80
   8  -3  -4    1.50    0.80
   8   3  -4    2.50    0.90
   7  -3  -4  246.28    6.50
  -7  -3   4  245.48    6.30
   7  -3  -4  244.28    6.80
   7   3  -4  244.38    6.70
  -6  -3   4   16.50    1.20
   6  -3  -4   17.80    1.30
  -6   3   4   17.40    1.50
   5  -3  -4   43.60    1.90
  -5   3   4   43.00    2.00
   4  -3  -4   23.90    0.80
   4  -3  -4   24.90    1.30
  -4   3   4   24.00    1.40
   3  -3  -4   77.89    2.50
   3  -3  -4   72.09    2.00
   3   3  -4   78.19    2.50
  -3   3   4   73.49    2.60
   2  -3  -4  138.29    3.40
   2  -3  -4  141.29    3.80
  -2  -3   4  137.69    3.10
   2   3  -4  140.49    3.70
  -2   3   4  138.19    3.90
   1  -3  -4  265.17    6.20
  -1  -3   4  261.27    5.80
   1  -3  -4  267.47    6.40
   1   3  -4  265.07    6.10
  -1   3   4  266.37    6.40
   0  -3  -4  341.77    7.90
   0  -3   4  345.07    7.60
   0   3   4  344.07    8.00
   0   3   4  348.07    8.00
   0   3  -4  344.47    7.60
   1  -3   4   12.70    0.80
  -1  -3  -4   14.00    0.90
  -1   3  -4   12.60    0.60
   1   3   4   13.50    0.90
   1   3   4   12.10    0.90
   2  -3   4  198.18    4.80
  -2  -3  -4  195.18    5.00
   2   3   4  193.98    4.90
  -2   3  -4  191.78    4.10
   2   3   4  185.58    4.90
   3  -3   4   76.39    2.50
  -3  -3  -4   74.39    2.70
   3   3   4   77.69    2.50
   3   3   4   81.59    2.50
   4  -3   4   45.50    2.00
  -4  -3  -4   47.10    2.00
   4   3   4   46.80    1.90
   4   3   4   46.10    1.90
   5  -3   4    0.50    0.50
  -5  -3  -4    0.90    0.60
   5   3   4    0.10    0.40
   5   3   4   -0.10    0.40
  -6  -3  -4  133.59    4.30
   6  -3   4  123.69    4.10
   6   3   4  141.49    4.00
   6   3   4  131.99    3.90
   7  -3   4  123.59    4.20
  -7  -3  -4  121.49    4.10
   7   3   4  119.99    3.80
   7   3   4  123.39    3.80
   8  -3   4    1.40    0.80
  -8  -3  -4    1.30    0.90
   8   3   4    1.30    0.70
   8   3   4    2.00    0.70
   9  -3   4    5.70    1.30
  -9  -3  -4    7.00    1.40
   9   3   4    4.80    0.90
   9   3   4    4.30    1.00
   9  -4  -4    0.70    0.70
   9  -4  -4    1.50    1.00
   9   4  -4    2.50    1.00
   8  -4  -4    7.90    1.20
   8  -4  -4    6.70    1.30
  -8  -4   4    5.90    1.00
   8   4  -4    8.60    1.30
   7  -4  -4    0.20    0.80
   7  -4  -4   -0.30    0.50
  -7  -4   4    0.70    0.60
   7   4  -4    0.50    0.60
   6  -4  -4    4.90    0.90
  -6  -4   4    4.60    0.90
   6   4  -4    4.60    0.90
  -6   4   4    4.60    1.00
  -5  -4   4   12.70    1.30
   5  -4  -4   11.10    1.20
  -5   4   4   13.90    1.50
   5   4  -4   14.80    1.20
   4  -4  -4    7.60    0.90
  -4   4   4    7.60    1.00
   4   4  -4    8.10    0.90
   3  -4  -4   21.90    1.30
   3  -4  -4   22.70    1.00
   3   4  -4   21.20    1.20
  -3   4   4   22.00    1.40
   2  -4  -4   38.60    1.70
   2  -4  -4   33.70    1.40
  -2   4   4   39.80    1.80
   2   4  -4   36.50    1.50
  -1  -4   4    0.00    0.20
   1  -4  -4    0.20    0.30
   1  -4  -4    0.10    0.40
  -1   4   4    0.00    0.40
   1   4  -4   -0.10    0.30
   0  -4   4    0.90    0.30
   0  -4  -4    0.40    0.30
   0   4  -4    0.60    0.30
   0   4   4    0.40    0.40
   0   4   4    0.70    0.40
   1  -4   4    0.70    0.40
  -1  -4  -4   -0.10    0.40
   1   4   4    0.60    0.40
  -1   4  -4    0.40    0.20
   1   4   4    0.80    0.50
  -2  -4  -4    7.00    0.90
   2  -4   4    6.90    0.80
   2   4   4    5.70    0.80
   2   4   4    6.40    0.80
  -2   4  -4    5.80    0.40
   3  -4   4   12.00    1.00
  -3  -4  -4   10.10    1.10
   3   4   4   11.60    1.10
  -4  -4  -4   66.29    2.70
   4  -4   4   68.39    2.50
   4   4   4   65.09    2.50
   4   4   4   65.59    2.40
   5  -4   4   69.89    2.70
  -5  -4  -4   74.79    3.00
   5   4   4   69.89    2.70
   5   4   4   73.39    2.50
   6  -4   4   -0.50    0.50
  -6  -4  -4    1.30    0.70
   6   4   4    0.00    0.50
   6   4   4    1.10    0.60
   7  -4   4    5.30    1.10
  -7  -4  -4    5.70    1.10
   7   4   4    5.50    0.90
   7   4   4    4.20    1.00
   8  -4   4    0.10    0.80
  -8  -4  -4    0.40    0.80
   8   4   4   -0.10    0.70
   9  -4   4   -1.00    0.90
  -9  -4  -4    0.80    0.90
   9   4   4   -0.50    0.70
  -8  -5   4    2.80    0.90
   8  -5  -4    4.20    1.00
   8  -5  -4    4.10    1.20
   8   5  -4    3.80    1.00
  -7  -5   4  116.49    4.10
   7   5  -4  119.49    4.20
  -6  -5   4   16.10    1.60
   6  -5  -4   14.40    1.40
  -6   5   4   13.80    1.70
   6   5  -4   14.40    1.50
   5  -5  -4   -0.40    0.40
  -5  -5   4    0.50    0.60
  -5   5   4   -0.20    0.50
   5   5  -4    0.60    0.60
   4  -5  -4   -0.30    0.50
  -4   5   4    0.00    0.50
   4   5  -4    0.00    0.50
   3  -5  -4  112.29    3.20
   3  -5  -4  118.09    3.70
   3   5  -4  113.49    3.50
  -3   5   4  116.19    3.80
   2  -5  -4   10.50    1.00
   2  -5  -4   14.80    1.40
   2   5  -4   10.10    1.00
  -2   5   4   12.40    1.30
   1  -5  -4    0.80    0.50
   1  -5  -4    0.20    0.50
  -1   5   4    1.30    0.60
   1   5  -4    0.60    0.40
   0  -5   4   17.20    0.90
   0  -5  -4   19.30    1.30
   0   5   4   20.10    1.40
   0   5  -4   19.10    1.00
   0   5   4   19.90    1.30
   1  -5   4   13.10    0.90
  -1  -5  -4   14.10    1.20
   1   5   4   13.60    1.10
   1   5   4   12.80    1.20
  -1   5  -4   13.00    0.80
   2  -5   4   62.09    2.20
  -2  -5  -4   65.59    2.60
   2   5   4   67.49    2.40
   2   5   4   64.79    2.50
  -3  -5  -4   45.80    2.30
   3  -5   4   45.10    2.00
   3   5   4   45.00    2.10
   3   5   4   46.20    1.90
   4  -5   4    0.30    0.60
  -4  -5  -4   -0.40    0.60
   4   5   4    0.10    0.40
   4   5   4    0.50    0.60
   5  -5   4    6.50    1.10
  -5  -5  -4    4.80    1.00
   5   5   4    5.90    0.90
   5   5   4    6.40    1.10
   6  -5   4   11.40    1.40
  -6  -5  -4   11.40    1.50
   6   5   4   10.20    1.30
  -7  -5  -4   37.10    2.40
   7  -5   4   42.60    2.40
   7   5   4   44.00    2.40
   8  -5   4    5.40    1.30
  -8  -5  -4    5.60    1.30
   8   5   4    6.10    1.20
   7  -6  -4    1.80    1.10
  -7  -6   4    1.20    0.70
   7  -6  -4    1.30    0.80
   7   6  -4    0.90    0.90
   6  -6  -4    1.90    0.80
  -6  -6   4    1.20    0.80
   6  -6  -4    2.00    1.00
   6   6  -4    2.20    0.80
  -5  -6   4    7.40    1.30
   5  -6  -4    3.60    0.80
   5   6  -4    3.70    0.90
  -5   6   4    3.90    1.00
   4  -6  -4    4.90    0.90
   4   6  -4    6.00    1.00
  -4   6   4    2.00    0.80
   3  -6  -4    0.30    0.60
   3  -6  -4   -0.10    0.50
   3   6  -4    0.70    0.50
  -3   6   4    0.60    0.70
   2  -6  -4   36.00    1.90
   2  -6  -4   37.20    1.80
  -2   6   4   32.20    1.90
   2   6  -4   41.50    1.90
   1  -6  -4    2.80    0.70
   1  -6  -4    2.40    0.70
  -1   6   4    3.00    0.70
   1   6  -4    3.20    0.70
   0  -6  -4    2.70    0.80
   0   6   4    2.20    0.70
   0   6  -4    3.70    0.70
   0   6   4    4.40    0.90
  -1  -6  -4    0.70    0.60
   1   6   4    0.00    0.50
   1   6   4   -0.20    0.50
  -2  -6  -4    1.70    0.80
   2  -6   4    1.60    0.60
   2   6   4    1.90    0.60
   2   6   4    1.90    0.70
  -3  -6  -4    8.10    1.20
   3  -6   4    8.40    1.00
   3   6   4    8.40    1.00
   3   6   4    6.80    1.10
   4  -6   4    3.60    0.90
  -4  -6  -4    4.50    1.00
   4   6   4    7.70    1.20
  -5  -6  -4    0.40    0.80
   5  -6   4    0.50    0.60
   5   6   4    0.00    0.60
  -6  -6  -4    0.90    0.80
   6  -6   4    0.10    0.80
   6   6   4    1.40    0.90
   7  -6   4   -1.40    0.80
  -7  -6  -4    1.00    0.80
   7   6   4    1.70    0.90
   5  -7  -4    0.30    0.80
   5  -7  -4    0.00    0.70
  -5  -7   4    0.00    0.80
   5   7  -4   -1.10    0.60
   4  -7  -4    0.10    0.70
  -4  -7   4   -0.10    0.60
  -4   7   4    0.80    0.80
   4   7  -4    0.10    0.70
   3  -7  -4   18.30    1.70
   3   7  -4   20.50    1.60
   2  -7  -4    7.00    1.00
   2  -7  -4    6.00    1.10
  -2   7   4    7.20    1.20
   2   7  -4    8.30    1.10
   1  -7  -4    0.20    0.60
   1  -7  -4    1.10    0.70
   1   7  -4    1.60    0.70
  -1   7   4    1.90    0.80
   0  -7  -4    4.50    1.00
   0   7   4    4.50    0.90
   0   7   4    2.90    0.90
  -1  -7  -4    1.80    0.90
   1   7   4    0.70    0.60
   1   7   4    1.00    0.80
  -2  -7  -4   24.40    1.80
   2   7   4   23.30    1.80
  -3  -7  -4   13.30    1.60
   3   7   4   11.10    1.50
   4  -7   4    0.80    0.70
  -4  -7  -4    1.80    1.00
   4   7   4    1.20    0.70
  -5  -7  -4    0.80    1.00
   5  -7   4    0.30    0.70
   5   7   4    0.50    0.80
   2  -8  -4    0.80    0.70
   2   8  -4    0.10    0.60
  -2   8   4    0.20    0.70
   1  -8  -4   -0.20    0.80
   1  -8  -4    1.10    0.70
  -1   8   4   -0.40    0.60
   0  -8  -4    1.70    0.90
   0   8   4   -1.10    0.70
  -1  -8  -4    0.60    0.80
   1   8   4    0.50    0.80
  -2  -8  -4    0.70    0.90
   2   8   4    0.90    0.90
  10   0  -5    0.20    0.70
   9   0  -5    0.60    0.60
   9   0  -5    0.90    0.60
   8   0  -5   49.30    2.10
   8   0  -5   48.20    2.30
   7   0  -5    3.70    0.70
   7   0  -5    2.60    0.70
   6   0  -5    9.50    1.10
  -6   0   5   10.20    1.00
   5   0  -5   96.79    3.10
  -5   0   5  104.59    3.00
  -4   0   5   65.49    2.10
   4   0  -5   60.79    2.20
  -3   0   5  498.95   10.90
   3   0  -5  491.55   11.00
  -2   0   5    4.50    0.50
   2   0  -5    5.90    0.60
   1   0  -5  113.89    3.00
   1   0  -5  113.69    2.90
  -1   0   5  115.09    3.10
   0   0   5   28.70    1.20
   0   0  -5   26.40    1.00
   0   0  -5   26.70    1.20
  -1   0  -5  385.16    8.30
  -1   0  -5  388.96    8.80
   1   0   5  382.76    8.70
   2   0   5  456.15   10.20
  -2   0  -5  453.75    9.70
   3   0   5  167.68    4.40
   3   0   5  163.18    3.80
  -3   0  -5  166.78    4.50
   4   0   5   15.60    0.70
  -4   0  -5   15.60    1.10
   4   0   5   17.50    1.10
   5   0   5   68.59    2.00
  -5   0  -5   70.29    2.60
   5   0   5   71.19    2.60
   6   0   5    6.40    0.60
  -6   0  -5    4.70    0.90
   6   0   5    6.30    1.00
  -7   0  -5    5.60    1.00
   7   0   5    5.60    1.00
   8   0   5   17.90    1.70
  -8   0  -5   20.00    1.60
   9   0   5   26.60    1.90
  -9   0  -5   28.40    1.90
  10   0   5    8.60    1.50
 -10   0  -5    9.50    1.40
  10  -1  -5    0.50    0.70
  10  -1  -5    0.20    0.70
  10   1  -5    1.20    0.80
   9  -1  -5    1.90    0.70
   9  -1  -5    1.10    0.70
   9   1  -5    0.90    0.70
   8  -1  -5    4.90    0.90
   8  -1  -5    3.50    0.80
   8   1  -5    5.20    1.00
   7  -1  -5  177.58    5.00
   7  -1  -5  184.18    5.10
   7   1  -5  171.98    5.10
   7   1  -5  182.88    4.70
  -6  -1   5    5.60    0.60
   6  -1  -5    5.40    0.80
   6   1  -5    4.90    0.70
   6   1  -5    6.00    0.90
  -6   1   5    3.90    0.80
  -5  -1   5   14.20    0.90
   5  -1  -5   14.90    1.10
   5   1  -5   13.30    1.00
  -5   1   5   14.80    1.10
   4  -1  -5   49.40    1.90
  -4  -1   5   47.10    1.60
   4   1  -5   43.50    1.80
  -4   1   5   47.40    1.80
  -3  -1   5   57.19    1.70
   3  -1  -5   54.59    1.50
   3  -1  -5   56.29    1.90
  -3   1   5   52.79    1.90
   3   1  -5   54.39    1.90
   2  -1  -5  583.74   12.30
  -2  -1   5  574.04   12.40
   2  -1  -5  591.94   12.70
  -2   1   5  567.04   12.70
   2   1  -5  579.64   12.60
   1  -1  -5   10.70    0.70
  -1  -1   5   10.00    0.70
   1  -1  -5   10.60    0.70
  -1   1   5    9.90    0.80
   1   1  -5   10.00    0.70
   0  -1   5   12.50    0.80
   0  -1  -5   11.80    0.70
   0  -1  -5   12.30    0.80
   0   1  -5   11.30    0.60
   0   1  -5   10.80    0.80
   0   1   5   12.20    0.80
  -1  -1  -5  103.39    2.90
   1  -1   5  101.79    2.90
  -1  -1  -5  101.49    2.70
  -1   1  -5   98.79    2.90
  -1   1  -5  103.29    2.40
   1   1   5  104.49    3.00
   2  -1   5    1.90    0.50
  -2  -1  -5    1.60    0.50
  -2   1  -5    1.50    0.50
  -2   1  -5    2.20    0.20
   2   1   5    1.60    0.50
   2   1   5    1.50    0.40
  -3  -1  -5  204.28    5.30
   3  -1   5  201.88    5.20
   3   1   5  200.88    4.80
   3   1   5  204.68    5.20
  -3   1  -5  207.28    4.30
  -3   1  -5  200.48    5.20
  -4  -1  -5   14.70    1.10
   4  -1   5   14.50    1.10
   4   1   5   13.60    1.00
   4   1   5   16.10    0.80
  -4   1  -5   14.50    1.10
  -4   1  -5   14.80    0.50
   5  -1   5    5.50    0.90
  -5  -1  -5    5.20    0.90
   5   1   5    6.30    0.70
   5   1   5    6.10    0.90
  -5   1  -5    5.50    0.80
   6  -1   5  379.66    9.40
  -6  -1  -5  372.96    9.30
   6   1   5  394.56    9.30
  -6   1  -5  382.16    9.30
   6   1   5  373.76    8.70
  -7  -1  -5    0.20    0.60
   7  -1   5    0.20    0.60
  -7   1  -5    0.80    0.50
   7   1   5    1.00    0.50
   7   1   5    0.30    0.70
   8  -1   5    2.10    0.90
  -8  -1  -5    0.80    0.70
   8   1   5    0.00    0.70
  -8   1  -5    2.00    0.70
   9  -1   5    3.30    1.00
  -9  -1  -5    2.70    1.00
  -9   1  -5    1.40    0.70
   9   1   5    1.80    0.90
 -10  -1  -5    5.60    1.20
  10  -1   5    3.50    1.20
  10   1   5    3.50    1.00
  10  -2  -5   13.40    1.50
  10  -2  -5   13.60    1.60
  10   2  -5   13.40    1.70
   9  -2  -5    0.30    0.60
   9  -2  -5    1.50    0.80
   9   2  -5    1.50    0.70
   8  -2  -5   13.80    1.50
   8  -2  -5   10.70    1.40
   8   2  -5   13.40    1.50
   7  -2  -5    2.70    0.80
   7   2  -5    0.60    0.60
  -7   2   5    1.20    0.70
   6  -2  -5   -0.20    0.50
  -6  -2   5    0.20    0.40
  -6   2   5   -0.30    0.50
   6   2  -5   -0.10    0.40
   5  -2  -5   30.00    1.60
  -5   2   5   30.80    1.60
   5   2  -5   31.40    1.60
   4  -2  -5   23.90    1.30
  -4  -2   5   21.20    0.90
  -4   2   5   24.00    1.30
   4   2  -5   23.70    1.30
   3  -2  -5   59.09    2.10
   3  -2  -5   60.09    1.60
  -3  -2   5   59.29    1.70
   3   2  -5   59.99    2.00
  -3   2   5   60.89    2.20
  -2  -2   5  111.29    2.80
   2  -2  -5  111.29    2.90
   2  -2  -5  116.99    3.20
   2   2  -5  113.49    3.10
  -2   2   5  113.29    3.30
   1  -2  -5  296.77    7.00
  -1  -2   5  308.17    6.70
   1  -2  -5  301.67    6.80
  -1   2   5  303.97    7.20
   1   2  -5  294.97    6.80
   0  -2  -5   79.69    2.40
   0  -2  -5   77.49    2.40
   0  -2   5   80.59    2.30
   0   2  -5   81.79    2.10
   0   2   5   75.99    2.50
  -1  -2  -5  280.27    6.80
   1  -2   5  283.67    6.60
  -1   2  -5  286.77    6.10
   1   2   5  283.17    6.70
   1   2   5  289.37    6.90
   2  -2   5  146.79    3.90
  -2  -2  -5  144.09    4.00
   2   2   5  151.18    3.90
   2   2   5  149.39    4.00
   3  -2   5   -0.10    0.40
  -3  -2  -5    0.00    0.50
   3   2   5    0.00    0.40
  -3   2  -5    0.60    0.40
   3   2   5    0.00    0.30
  -4  -2  -5   -0.40    0.40
   4  -2   5   -0.30    0.40
   4   2   5   -0.20    0.40
   4   2   5    0.10    0.40
  -4   2  -5    0.20    0.40
   5  -2   5    0.90    0.60
  -5  -2  -5    0.40    0.50
  -5   2  -5    0.70    0.50
   5   2   5    0.40    0.40
   5   2   5    0.60    0.50
  -6  -2  -5    2.40    0.80
   6  -2   5    2.40    0.80
   6   2   5    2.00    0.60
   6   2   5    2.10    0.70
  -6   2  -5    1.80    0.70
   7  -2   5    1.20    0.70
  -7  -2  -5    1.70    0.80
   7   2   5    2.50    0.70
  -7   2  -5    2.00    0.70
   7   2   5    2.30    0.60
   8  -2   5   11.80    1.50
  -8  -2  -5   14.60    1.60
   8   2   5   13.40    1.50
   8   2   5   13.80    1.30
  -8   2  -5   11.00    1.30
  -9  -2  -5   21.50    1.80
   9  -2   5   22.60    1.90
   9   2   5   25.70    1.90
  -9   2  -5   23.30    1.70
   9  -3  -5   12.00    1.60
   9  -3  -5   14.00    1.50
   9   3  -5   12.20    1.60
   8  -3  -5    3.30    1.00
   8  -3  -5    6.50    1.10
   8   3  -5    2.80    0.90
   7  -3  -5  108.59    3.70
  -7  -3   5  107.99    3.40
  -7   3   5  106.89    3.90
   7   3  -5  106.79    3.80
  -6  -3   5   16.30    1.20
   6  -3  -5   14.90    1.40
  -6   3   5    9.30    1.20
   6   3  -5   16.50    1.50
   5  -3  -5   51.69    2.10
  -5   3   5   51.89    2.30
   5   3  -5   50.69    2.20
   4  -3  -5   71.59    2.60
   4   3  -5   71.29    2.50
  -4   3   5   73.89    2.70
   3  -3  -5   24.00    1.00
   3  -3  -5   21.00    1.30
  -3  -3   5   25.20    0.90
   3   3  -5   23.20    1.20
  -3   3   5   23.90    1.40
  -2  -3   5   79.39    2.00
   2  -3  -5   81.89    2.60
   2  -3  -5   79.89    2.30
  -2   3   5   79.09    2.70
   2   3  -5   83.19    2.50
   1  -3  -5   14.20    1.00
   1  -3  -5   13.50    0.90
  -1  -3   5   14.90    0.70
  -1   3   5   13.80    1.00
   1   3  -5   11.10    0.80
   0  -3  -5   45.90    1.80
   0  -3   5   44.10    1.50
   0  -3  -5   47.60    1.80
   0   3  -5   45.20    1.40
   0   3   5   41.60    1.80
   1  -3   5   59.99    1.90
  -1  -3  -5   54.29    2.10
   1   3   5   56.49    2.10
  -1   3  -5   53.79    1.50
   1   3   5   54.99    2.00
   2  -3   5   29.50    1.40
   2   3   5   31.90    1.50
   2   3   5   31.00    1.50
   3  -3   5  133.89    3.90
  -3  -3  -5  138.39    4.10
   3   3   5  137.49    3.90
   3   3   5  141.19    3.90
  -4  -3  -5   89.89    3.20
   4  -3   5   93.59    3.10
   4   3   5   93.99    3.00
   5  -3   5    0.30    0.60
  -5  -3  -5    0.70    0.60
   5   3   5    0.00    0.50
   5   3   5    1.00    0.60
   6  -3   5   77.19    3.00
  -6  -3  -5   77.39    3.10
   6   3   5   76.69    2.90
   6   3   5   79.29    2.80
  -7  -3  -5    3.60    1.00
   7  -3   5    3.00    1.00
   7   3   5    2.80    0.70
   7   3   5    1.70    0.70
  -8  -3  -5    1.50    0.80
   8  -3   5    3.50    1.00
   8   3   5    1.40    0.70
   8   3   5    3.20    0.80
  -9  -3  -5    3.60    1.20
   9  -3   5    1.40    1.10
   9   3   5    2.70    0.90
   9   3   5    2.70    0.90
   9  -4  -5    0.20    0.80
   9  -4  -5   -0.60    0.60
   9   4  -5    0.20    0.70
   8  -4  -5    6.10    1.10
   8  -4  -5    6.30    1.30
  -8  -4   5    5.10    1.00
   8   4  -5    6.00    1.20
   7  -4  -5    1.30    0.70
  -7  -4   5   -0.10    0.50
  -7   4   5   -0.90    0.60
   7   4  -5    0.90    0.60
   6  -4  -5    0.00    0.60
  -6  -4   5    0.10    0.50
   6   4  -5   -0.20    0.50
  -6   4   5   -1.00    0.60
   5  -4  -5   14.90    1.40
   5   4  -5   14.70    1.40
  -5   4   5   15.50    1.50
   4  -4  -5    1.70    0.60
  -4   4   5    2.40    0.80
   4   4  -5    3.50    0.70
   3  -4  -5   22.90    1.10
   3  -4  -5   24.10    1.50
   3   4  -5   22.50    1.30
  -3   4   5   24.30    1.50
   2  -4  -5   10.90    1.10
   2  -4  -5    8.00    0.80
  -2   4   5    8.10    1.00
   2   4  -5    7.30    0.80
  -1  -4   5   56.39    1.70
   1  -4  -5   58.09    2.10
   1  -4  -5   56.29    2.20
   1   4  -5   57.09    1.90
  -1   4   5   58.99    2.30
   0  -4  -5   32.00    1.50
   0  -4  -5   31.40    1.60
   0  -4   5   32.30    1.30
   0   4  -5   33.10    1.20
   0   4   5   32.10    1.60
   0   4   5   33.20    1.60
  -1  -4  -5   65.49    2.40
   1  -4   5   67.69    2.10
   1   4   5   61.29    2.40
   1   4   5   68.69    2.50
  -1   4  -5   62.29    1.80
  -2  -4  -5   41.90    1.90
   2  -4   5   41.30    1.70
   2   4   5   39.80    1.80
   2   4   5   39.50    1.80
  -3  -4  -5   -0.50    0.50
   3  -4   5    0.00    0.50
   3   4   5   -0.60    0.50
   3   4   5    0.60    0.40
   4  -4   5   -0.30    0.50
  -4  -4  -5    1.00    0.60
   4   4   5   -0.70    0.40
   4   4   5    0.00    0.50
  -5  -4  -5    0.30    0.60
   5  -4   5   -0.60    0.60
   5   4   5    0.40    0.50
   5   4   5    1.10    0.60
   6  -4   5    2.70    0.90
  -6  -4  -5    4.00    1.00
   6   4   5    2.50    0.70
   6   4   5    2.50    0.80
   7  -4   5   -1.00    0.60
  -7  -4  -5   -0.30    0.70
   7   4   5    0.40    0.70
   7   4   5    0.60    0.60
   8  -4   5    2.80    1.10
  -8  -4  -5    3.70    1.20
   8   4   5    3.30    0.90
   8  -5  -5    6.50    1.40
   8  -5  -5    5.30    1.10
  -8  -5   5    5.40    1.10
   8   5  -5    5.30    1.20
   7  -5  -5   36.50    2.40
  -7  -5   5   32.80    2.10
   7   5  -5   37.10    2.20
   6  -5  -5    7.60    1.10
  -6  -5   5    6.50    1.10
  -6   5   5    9.30    1.40
   6   5  -5    8.50    1.20
   5  -5  -5    0.00    0.60
   5   5  -5    0.50    0.60
  -5   5   5   -1.20    0.60
   4  -5  -5    3.20    0.80
   4   5  -5    3.90    0.80
  -4   5   5    2.30    0.80
   3  -5  -5    3.00    0.80
   3  -5  -5    1.90    0.50
   3   5  -5    2.50    0.70
  -3   5   5    2.00    0.70
   2  -5  -5   79.99    2.70
   2  -5  -5   80.19    2.90
   2   5  -5   81.59    2.70
  -2   5   5   79.89    3.00
   1  -5  -5    7.00    0.90
   1  -5  -5    8.90    1.10
  -1   5   5    9.00    1.10
   1   5  -5    9.20    0.90
   0  -5  -5    0.80    0.60
   0   5   5    2.10    0.60
   0   5   5    1.70    0.60
   0   5  -5    2.10    0.50
   1  -5   5   15.40    1.00
  -1  -5  -5   16.70    1.40
   1   5   5   15.90    1.40
   1   5   5   14.60    1.20
   2  -5   5    5.60    0.80
  -2  -5  -5    4.00    0.90
   2   5   5    6.50    1.00
   2   5   5    4.40    0.80
   3  -5   5   18.90    1.30
  -3  -5  -5   19.50    1.60
   3   5   5   18.80    1.50
   3   5   5   22.30    1.40
   4  -5   5    1.50    0.70
  -4  -5  -5   -0.10    0.60
   4   5   5    0.70    0.50
   4   5   5    1.80    0.70
  -5  -5  -5    1.70    0.80
   5  -5   5   -0.20    0.60
   5   5   5   -0.30    0.50
   5   5   5    1.60    0.70
  -6  -5  -5   87.09    3.60
   6  -5   5   88.59    3.50
   6   5   5   85.89    3.30
   7  -5   5    7.20    1.40
  -7  -5  -5    7.00    1.30
   7   5   5    6.40    1.20
  -7  -6   5   -0.10    0.70
   7  -6  -5    0.30    1.00
   7  -6  -5    0.30    0.60
   7   6  -5    0.80    0.80
   6  -6  -5    0.40    0.70
  -6  -6   5    0.50    0.70
   6   6  -5    0.40    0.70
  -6   6   5    1.00    1.00
  -5  -6   5    8.70    1.30
   5  -6  -5    7.60    1.20
  -5   6   5    9.50    1.50
   5   6  -5    9.70    1.40
   4  -6  -5    5.30    1.00
   4   6  -5    5.70    1.00
  -4   6   5    4.90    1.10
   3  -6  -5   19.10    1.70
   3   6  -5   18.30    1.40
  -3   6   5   14.10    1.50
   2  -6  -5    6.40    0.90
   2  -6  -5    6.30    1.00
  -2   6   5    6.60    1.10
   2   6  -5    6.90    0.90
   1  -6  -5    1.20    0.60
   1  -6  -5    0.80    0.60
   1   6  -5    1.60    0.60
  -1   6   5    2.10    0.70
   0  -6  -5    5.70    1.00
   0   6   5    5.70    1.00
   0   6   5    4.60    0.90
  -1  -6  -5    9.40    1.30
   1   6   5    7.80    1.20
   1   6   5    8.40    1.10
   2  -6   5    8.30    1.00
  -2  -6  -5    8.50    1.30
   2   6   5    9.00    1.30
   2   6   5    8.80    1.10
   3  -6   5    5.80    0.90
  -3  -6  -5    4.00    1.00
   3   6   5    2.90    0.70
   3   6   5    3.80    1.00
   4  -6   5   -0.10    0.60
  -4  -6  -5    0.20    0.80
   4   6   5   -1.00    0.60
  -5  -6  -5   16.00    1.90
   5  -6   5   13.70    1.50
   5   6   5   15.30    1.70
  -6  -6  -5    1.70    1.00
   6  -6   5    0.60    0.90
   6   6   5    0.30    0.70
   5  -7  -5    1.20    0.80
  -5  -7   5    0.90    0.90
  -5   7   5    0.70    0.90
   5   7  -5    0.60    0.80
   4  -7  -5    0.70    0.70
  -4  -7   5    1.10    0.80
   4   7  -5    0.10    0.70
  -4   7   5    0.70    0.90
   3  -7  -5    2.50    0.90
  -3   7   5    0.80    0.70
   3   7  -5    0.50    0.70
   2  -7  -5   13.40    2.00
   2  -7  -5   17.80    1.80
   2   7  -5   13.90    1.40
  -2   7   5   14.90    1.60
   1  -7  -5    1.20    0.80
   1  -7  -5    1.50    0.70
  -1   7   5    2.20    0.80
   0  -7  -5    2.60    0.80
   0  -7  -5    3.20    0.90
   0   7   5    1.90    0.80
  -1  -7  -5    8.40    1.30
   1   7   5    6.50    1.20
   1   7   5    5.70    1.00
  -2  -7  -5    1.40    1.00
   2   7   5    3.60    1.00
  -3  -7  -5    7.30    1.40
   3   7   5    6.70    1.20
  -4  -7  -5    0.10    0.90
   4  -7   5   -0.30    0.70
   4   7   5    1.20    0.90
  10   0  -6    1.00    0.80
   9   0  -6    0.70    0.60
   9   0  -6    0.50    0.70
   8   0  -6   14.70    1.50
   8   0  -6   16.70    1.30
   7   0  -6    1.00    0.60
  -7   0   6    1.70    0.60
   6   0  -6   -0.70    0.40
  -6   0   6    0.30    0.50
  -5   0   6   85.19    2.70
   5   0  -6   83.89    2.90
   4   0  -6  259.57    6.50
  -4   0   6  261.57    6.30
   3   0  -6  331.47    7.80
  -3   0   6  333.17    7.70
   2   0  -6    0.60    0.40
  -2   0   6    0.70    0.40
   1   0  -6   48.50    1.70
  -1   0   6   48.20    1.80
   1   0  -6   49.00    1.70
   0   0   6   11.30    0.90
   0   0  -6   11.10    0.70
   0   0  -6   12.50    0.90
   1   0   6  288.97    6.90
  -1   0  -6  290.67    6.50
  -1   0  -6  284.57    6.90
  -2   0  -6    1.80    0.50
  -2   0  -6    2.80    0.40
   2   0   6    1.70    0.50
  -3   0  -6   26.00    1.00
  -3   0  -6   27.90    1.50
   3   0   6   26.00    1.40
   4   0   6   80.79    2.10
   4   0   6   85.19    2.80
  -4   0  -6   71.19    2.70
  -5   0  -6    4.60    0.90
   5   0   6    6.90    0.60
   5   0   6    5.40    0.90
   6   0   6   91.49    3.30
  -6   0  -6   92.59    3.40
   7   0   6    3.60    0.90
  -7   0  -6    3.90    0.90
  -8   0  -6   26.20    1.90
   8   0   6   27.40    1.90
   9   0   6   12.60    1.60
  -9   0  -6   16.70    1.80
  10  -1  -6    0.60    0.70
  10  -1  -6    0.20    0.70
  10   1  -6    0.10    0.80
   9  -1  -6   30.30    1.90
   9  -1  -6   33.60    2.00
   9   1  -6   31.00    2.00
   8  -1  -6    2.90    0.80
   8  -1  -6    3.80    0.90
   8   1  -6    4.30    1.00
   7  -1  -6    0.10    0.50
  -7   1   6   -0.20    0.50
   7   1  -6   -0.20    0.40
   7   1  -6   -0.60    0.40
  -6  -1   6   51.29    1.90
   6  -1  -6   47.70    2.10
  -6   1   6   46.90    2.10
   6   1  -6   48.70    2.10
   5  -1  -6    2.70    0.70
  -5  -1   6    3.70    0.60
   5   1  -6    2.40    0.60
  -5   1   6    3.40    0.70
   4  -1  -6   70.19    2.50
  -4  -1   6   70.59    2.20
  -4   1   6   73.59    2.50
   4   1  -6   69.79    2.40
  -3  -1   6  235.18    5.60
   3  -1  -6  233.58    5.80
   3  -1  -6  237.18    5.40
   3   1  -6  231.28    5.80
  -3   1   6  238.38    5.90
   2  -1  -6    1.70    0.50
   2  -1  -6    2.60    0.40
  -2  -1   6    1.70    0.40
   2   1  -6    1.60    0.40
  -2   1   6    2.10    0.50
   1  -1  -6    0.30    0.30
   1  -1  -6    0.60    0.40
  -1  -1   6    0.70    0.40
  -1   1   6    0.80    0.40
   1   1  -6    0.90    0.30
   0  -1  -6  186.78    4.60
   0  -1   6  191.28    4.70
   0  -1  -6  186.88    4.70
   0   1  -6  190.48    4.40
   0   1   6  185.58    4.90
   0   1  -6  192.98    4.90
  -1  -1  -6   19.40    1.00
  -1  -1  -6   20.60    1.20
   1  -1   6   19.00    1.10
   1   1   6   21.40    1.20
  -1   1  -6   19.90    1.20
  -1   1  -6   21.00    0.80
  -2  -1  -6  310.77    7.70
  -2  -1  -6  317.67    7.20
   2  -1   6  318.27    7.60
   2   1   6  323.17    7.70
  -2   1  -6  325.77    6.90
  -2   1  -6  319.47    7.70
  -3  -1  -6   60.39    2.30
   3  -1   6   55.89    2.20
   3   1   6   57.29    2.20
  -3   1  -6   58.49    1.50
  -3   1  -6   57.49    2.20
   3   1   6   57.49    1.80
  -4  -1  -6   97.59    3.30
   4  -1   6   96.29    3.20
  -4   1  -6  101.29    3.30
   4   1   6  101.59    3.20
   4   1   6   98.89    2.70
   5  -1   6   22.10    1.50
  -5  -1  -6   24.00    1.60
   5   1   6   24.00    1.50
  -5   1  -6   23.20    1.50
   5   1   6   23.70    1.10
   6  -1   6   69.99    2.80
  -6  -1  -6   68.59    2.80
  -6   1  -6   72.49    2.80
   6   1   6   68.49    2.80
   7  -1   6    2.00    0.80
  -7  -1  -6    5.00    1.10
  -7   1  -6    4.20    0.90
   7   1   6    2.20    0.80
   8  -1   6    3.80    1.00
  -8  -1  -6    3.70    1.00
  -8   1  -6    4.70    1.00
   8   1   6    3.80    1.00
   9  -1   6    4.40    1.20
  -9  -1  -6    8.50    1.40
  -9   1  -6    5.80    1.10
   9   1   6    6.80    1.40
  10  -2  -6   11.00    1.50
  10  -2  -6    9.20    1.30
  10   2  -6   10.70    1.60
   9  -2  -6    1.20    0.70
   9  -2  -6    0.40    0.80
   9   2  -6    0.40    0.70
   8  -2  -6    5.20    1.00
   8  -2  -6    3.80    0.90
   8   2  -6    3.90    0.90
   7  -2  -6    2.00    0.80
  -7   2   6    1.00    0.70
   7   2  -6    0.90    0.60
   6  -2  -6   11.70    1.20
   6   2  -6    9.60    1.10
  -6   2   6   10.90    1.20
   5  -2  -6  149.79    4.40
  -5  -2   6  147.89    3.80
  -5   2   6  149.69    4.40
   5   2  -6  144.29    4.30
   4  -2  -6   12.80    1.00
  -4  -2   6   12.00    0.70
   4   2  -6   14.10    1.00
  -4   2   6   13.90    1.10
   3  -2  -6   25.10    1.40
   3  -2  -6   25.80    1.00
  -3  -2   6   27.10    1.00
  -3   2   6   27.30    1.50
   3   2  -6   27.90    1.30
  -2  -2   6   64.09    1.90
   2  -2  -6   67.79    2.00
   2  -2  -6   66.39    2.30
   2   2  -6   66.29    2.10
  -2   2   6   65.79    2.40
  -1  -2   6  132.19    3.40
   1  -2  -6  130.59    3.50
   1  -2  -6  128.69    3.60
  -1   2   6  134.79    3.80
   1   2  -6  128.99    3.40
   0  -2  -6    4.40    0.60
   0  -2  -6    7.50    0.80
   0  -2   6    6.90    0.70
   0   2  -6    6.20    0.50
   1  -2   6   71.49    2.30
  -1  -2  -6   73.59    2.50
  -1  -2  -6   69.69    2.30
  -1   2  -6   74.89    1.90
   1   2   6   68.89    2.50
  -2  -2  -6   15.80    1.20
   2  -2   6   16.30    1.10
   2   2   6   17.50    1.20
   2   2   6   17.10    1.00
  -2   2  -6   15.80    0.50
  -3  -2  -6   30.20    1.70
   3  -2   6   28.90    1.50
  -3   2  -6   31.10    1.60
   3   2   6   31.50    1.60
   3   2   6   31.00    1.40
  -4  -2  -6   37.30    1.90
   4  -2   6   42.20    1.90
  -4   2  -6   38.70    1.90
   4   2   6   39.30    1.60
   4   2   6   39.50    1.90
   5  -2   6   29.70    1.80
  -5  -2  -6   35.00    1.90
   5   2   6   32.10    1.80
   5   2   6   32.40    1.50
  -5   2  -6   33.40    1.80
   6  -2   6   54.69    2.50
  -6  -2  -6   59.59    2.70
   6   2   6   58.49    2.50
   6   2   6   59.09    2.20
  -6   2  -6   54.99    2.50
   7  -2   6    9.70    1.40
  -7  -2  -6   10.20    1.50
  -7   2  -6    8.90    1.20
   7   2   6    9.20    1.00
   7   2   6   10.90    1.40
  -8  -2  -6   16.60    1.80
   8  -2   6   17.10    1.80
  -8   2  -6   20.50    1.60
   8   2   6   15.70    1.70
  -9  -2  -6   21.40    2.10
   9  -2   6   25.70    2.40
  -9   2  -6   19.20    1.70
   9   2   6   18.50    1.90
   9  -3  -6    3.80    1.00
   9  -3  -6    4.70    1.10
   9   3  -6    1.80    1.00
   8  -3  -6    1.90    0.80
   8  -3  -6    0.90    0.70
   8   3  -6    1.30    0.80
  -7  -3   6    2.70    0.70
   7  -3  -6    2.50    0.90
  -7   3   6    2.70    0.90
   7   3  -6    1.60    0.80
   6  -3  -6   11.30    1.30
  -6   3   6   11.70    1.30
   6   3  -6   13.50    1.40
   5  -3  -6   10.10    1.10
  -5   3   6   10.40    1.20
   5   3  -6   13.30    1.30
   4  -3  -6    0.00    0.50
   4   3  -6    1.10    0.50
  -4   3   6    1.20    0.60
   3  -3  -6   25.10    1.40
   3  -3  -6   22.30    1.00
   3   3  -6   25.80    1.30
  -3   3   6   24.40    1.50
   2  -3  -6   50.89    2.00
  -2  -3   6   48.90    1.50
   2  -3  -6   47.50    1.70
  -2   3   6   47.10    2.00
   2   3  -6   47.60    1.80
   1  -3  -6   12.60    0.90
  -1  -3   6   11.20    0.70
   1  -3  -6    9.40    1.00
  -1   3   6   12.20    1.00
   1   3  -6   11.40    0.80
   0  -3   6   46.90    1.70
   0  -3  -6   43.60    1.90
   0  -3  -6   49.10    1.90
   0   3  -6   45.30    1.50
   0   3   6   42.60    1.90
  -1  -3  -6    0.60    0.40
   1  -3   6    0.90    0.40
  -1  -3  -6    1.10    0.50
   1   3   6    1.80    0.50
   1   3   6    0.60    0.50
  -1   3  -6    0.90    0.20
  -2  -3  -6   29.30    1.60
   2  -3   6   35.90    1.60
   2   3   6   32.60    1.60
   2   3   6   33.70    1.60
  -3  -3  -6   31.60    1.70
   3   3   6   29.30    1.60
   3   3   6   31.60    1.50
   4  -3   6  187.08    5.30
  -4  -3  -6  190.38    5.50
   4   3   6  196.48    5.10
   4   3   6  188.68    5.30
   5  -3   6   16.00    1.30
  -5  -3  -6   13.70    1.40
   5   3   6   16.90    1.30
   5   3   6   16.00    1.30
  -6  -3  -6  109.59    4.00
   6  -3   6  113.29    3.90
   6   3   6  106.49    3.70
   6   3   6  118.79    3.60
   7  -3   6    2.80    0.90
  -7  -3  -6    4.00    1.10
   7   3   6    1.00    0.60
   7   3   6    1.50    0.80
  -8  -3  -6    2.20    1.10
   8  -3   6    2.50    1.00
   8   3   6    1.40    0.70
   8   3   6    1.00    0.80
   9  -3   6    2.20    1.30
  -9  -3  -6    5.50    1.30
   9   3   6    4.50    1.10
   8  -4  -6    2.90    0.90
   8  -4  -6    2.40    1.00
   8   4  -6    3.60    0.90
  -7  -4   6    0.80    0.70
   7  -4  -6    1.60    0.70
   7   4  -6    0.40    0.60
  -7   4   6    2.80    1.00
   6  -4  -6    0.10    0.60
  -6   4   6    2.30    0.80
   6   4  -6    0.00    0.50
   5  -4  -6   41.40    2.10
   5   4  -6   42.00    2.10
  -5   4   6   47.30    2.40
   4  -4  -6    3.70    0.80
   4   4  -6    3.70    0.80
  -4   4   6    4.80    1.00
   3  -4  -6   15.30    1.00
   3  -4  -6   16.40    1.20
  -3   4   6   13.60    1.30
   3   4  -6   13.80    1.10
   2  -4  -6    8.10    0.90
   2  -4  -6    7.20    1.00
   2   4  -6    7.50    0.80
  -2   4   6    7.00    1.00
  -1  -4   6   29.80    1.20
   1  -4  -6   28.20    1.40
   1  -4  -6   26.30    1.50
  -1   4   6   28.10    1.60
   1   4  -6   27.00    1.20
   0  -4  -6    2.70    0.70
   0  -4   6    3.20    0.60
   0  -4  -6    3.20    0.70
   0   4   6    3.50    0.80
   0   4  -6    3.60    0.50
  -1  -4  -6   23.90    1.50
   1  -4   6   24.90    1.30
   1   4   6   23.90    1.50
   1   4   6   25.80    1.50
  -2  -4  -6    1.80    0.70
   2  -4   6    1.50    0.60
   2   4   6    1.30    0.60
   2   4   6    2.40    0.70
  -3  -4  -6    6.80    1.00
   3  -4   6    6.30    1.00
   3   4   6    7.10    1.00
   3   4   6    5.60    0.90
   4  -4   6   21.50    1.50
  -4  -4  -6   19.10    1.60
   4   4   6   21.70    1.40
   4   4   6   23.40    1.50
   5  -4   6   19.70    1.50
  -5  -4  -6   21.10    1.70
   5   4   6   19.20    1.60
   5   4   6   22.10    1.50
   6  -4   6   19.90    1.60
  -6  -4  -6   14.90    1.70
   6   4   6   14.70    1.50
   6   4   6   16.00    1.50
   7  -4   6    1.20    0.90
  -7  -4  -6    0.10    0.80
   7   4   6   -0.50    0.60
   7   4   6    0.20    0.60
  -8  -4  -6    3.40    1.20
   8  -4   6    7.10    1.50
   8   4   6    3.00    1.00
   8   4   6    2.10    0.80
   7  -5  -6    0.40    0.80
  -7  -5   6    1.10    0.70
  -7   5   6    0.70    0.80
   7   5  -6    1.50    0.90
  -6  -5   6    9.80    1.40
   6  -5  -6    7.40    1.20
   6   5  -6    8.90    1.30
  -6   5   6    3.20    1.00
   5  -5  -6    4.50    1.00
  -5   5   6    2.10    0.90
   5   5  -6    3.60    0.90
   4  -5  -6   15.30    1.60
   4   5  -6   14.50    1.40
  -4   5   6   17.00    1.70
   3  -5  -6   51.99    2.40
   3   5  -6   55.69    2.20
  -3   5   6   56.09    2.60
   2  -5  -6    0.40    0.50
   2  -5  -6    0.20    0.60
   2   5  -6   -0.30    0.40
  -2   5   6   -0.30    0.60
   1  -5  -6    0.10    0.50
   1  -5  -6    0.20    0.50
   1   5  -6    0.10    0.30
  -1   5   6   -0.50    0.50
   0  -5  -6   20.10    1.50
   0  -5  -6   18.60    1.40
   0   5   6   18.20    1.40
   1  -5   6    0.00    0.40
  -1  -5  -6    0.00    0.50
   1   5   6   -0.40    0.40
   1   5   6   -0.20    0.50
  -2  -5  -6   30.00    1.90
   2  -5   6   29.80    1.60
   2   5   6   29.70    1.70
   2   5   6   31.60    1.90
   3  -5   6    1.70    0.70
  -3  -5  -6    1.60    0.80
   3   5   6    0.30    0.50
   3   5   6    1.30    0.60
  -4  -5  -6    1.50    0.90
   4  -5   6    2.00    0.80
   4   5   6    2.70    0.90
   4   5   6    2.60    0.70
  -5  -5  -6   10.10    1.50
   5  -5   6    9.10    1.30
   5   5   6    8.40    1.10
   5   5   6    7.60    1.20
  -6  -5  -6    8.40    1.40
   6  -5   6   13.00    1.60
   6   5   6   10.90    1.40
   6   5   6   10.80    1.30
  -7  -5  -6   -0.10    0.80
   7  -5   6   -1.00    0.80
   7   5   6   -0.10    0.80
  -6  -6   6    1.20    0.80
   6  -6  -6    1.00    0.80
  -6   6   6   -0.50    0.80
   6   6  -6    0.40    0.70
   5  -6  -6    2.50    0.90
   5   6  -6    2.10    0.90
  -5   6   6    3.20    1.10
   4  -6  -6    5.60    1.10
   4   6  -6    5.70    1.00
  -4   6   6    5.70    1.10
   3  -6  -6   17.10    1.70
   3   6  -6   18.70    1.40
  -3   6   6   17.80    1.80
   2  -6  -6    2.90    0.70
   2  -6  -6    2.60    0.80
   2   6  -6    1.40    0.60
  -2   6   6    1.90    0.80
   1  -6  -6    0.70    0.60
   1  -6  -6    0.60    0.60
  -1   6   6    0.00    0.60
   0  -6  -6    0.60    0.60
   0  -6  -6    1.20    0.70
   0   6   6    0.80    0.70
  -1  -6  -6   11.30    1.40
   1   6   6   10.20    1.30
   1   6   6   10.70    1.20
  -2  -6  -6   -0.40    0.70
   2   6   6   -0.60    0.60
   2   6   6    0.20    0.60
  -3  -6  -6    6.00    1.30
   3  -6   6    6.00    1.00
   3   6   6    5.80    1.10
   3   6   6    4.70    1.00
  -4  -6  -6    8.50    1.40
   4  -6   6    6.10    1.10
   4   6   6    7.80    1.30
   4   6   6    3.60    0.90
   5  -6   6    1.10    0.80
  -5  -6  -6    0.80    0.90
   5   6   6   -0.50    0.60
   6  -6   6    7.10    1.30
  -6  -6  -6    6.30    1.40
   6   6   6    6.80    1.30
   4  -7  -6    2.40    0.90
   4   7  -6    1.00    0.80
  -4   7   6    3.30    1.10
   3  -7  -6    9.20    1.40
  -3   7   6    8.80    1.30
   3   7  -6    7.80    1.20
   2  -7  -6    0.80    0.70
  -2   7   6   -0.20    0.70
   1  -7  -6    1.00    0.70
   1  -7  -6    2.10    0.90
  -1   7   6    0.90    0.80
   0  -7  -6    1.50    0.90
   0  -7  -6    1.50    0.80
   0   7   6    0.30    0.70
  -1  -7  -6    0.00    0.80
   1   7   6    0.10    0.60
   1   7   6    0.00    0.80
  -2  -7  -6    6.40    1.30
   2   7   6    4.20    0.90
   2   7   6    6.60    1.30
  -3  -7  -6   -0.60    0.80
   3   7   6   -0.60    0.60
   9   0  -7   17.30    1.80
   8   0  -7    6.80    1.00
   8   0  -7    4.80    1.00
   7   0  -7    5.80    1.00
  -7   0   7    4.60    0.90
  -6   0   7    3.10    0.70
   6   0  -7    3.20    0.80
   5   0  -7    3.90    0.90
  -5   0   7    5.80    0.80
   4   0  -7  207.38    5.50
  -4   0   7  211.08    5.40
  -3   0   7   57.39    2.10
   3   0  -7   54.89    2.10
  -2   0   7   41.10    1.70
   2   0  -7   40.00    1.60
   1   0  -7   57.79    2.00
   1   0  -7   57.39    2.00
  -1   0   7   59.29    2.10
   0   0  -7    6.40    0.80
   0   0   7    6.50    0.80
   0   0  -7    6.20    0.70
  -1   0  -7  253.47    6.30
   1   0   7  236.58    6.10
  -1   0  -7  249.08    5.70
  -2   0  -7  130.49    3.30
   2   0   7  131.49    3.90
  -2   0  -7  136.59    4.00
  -3   0  -7    7.50    0.60
  -3   0  -7    7.30    1.00
   3   0   7    8.50    1.00
  -4   0  -7   25.30    1.60
  -4   0  -7   24.70    1.00
   4   0   7   25.00    1.50
  -5   0  -7   68.29    2.80
   5   0   7   66.49    2.70
  -6   0  -7   14.30    1.50
   6   0   7   14.40    1.50
   7   0   7    3.40    1.00
  -7   0  -7    4.50    1.00
  -8   0  -7    7.70    1.30
   8   0   7    8.70    1.40
   9   0   7   32.80    2.30
  -9   0  -7   31.40    2.30
   9  -1  -7   25.00    1.80
   9  -1  -7   23.40    1.80
   9   1  -7   20.60    2.00
   8  -1  -7    7.80    1.20
  -8   1   7    4.90    1.00
   8   1  -7    9.60    1.40
   7  -1  -7    3.30    0.80
   7   1  -7    3.00    0.80
  -7   1   7    4.20    0.90
  -6  -1   7    9.10    0.90
   6  -1  -7    9.40    1.20
   6   1  -7    8.50    1.10
  -6   1   7   10.10    1.10
  -5  -1   7    0.10    0.40
   5  -1  -7    0.70    0.50
   5   1  -7   -0.30    0.40
  -5   1   7    0.00    0.50
   4  -1  -7  175.58    4.90
  -4  -1   7  177.68    4.50
  -4   1   7  175.88    4.80
   4   1  -7  177.48    4.80
   3  -1  -7    0.10    0.30
  -3  -1   7    0.50    0.40
   3  -1  -7   -0.10    0.40
  -3   1   7   -0.50    0.40
   3   1  -7    0.30    0.40
   2  -1  -7  181.68    4.80
  -2  -1   7  184.98    4.60
   2  -1  -7  178.78    4.50
   2   1  -7  184.48    4.70
  -2   1   7  180.18    4.90
   1  -1  -7    7.50    0.80
  -1  -1   7    7.20    0.80
   1  -1  -7    6.10    0.70
  -1   1   7    6.10    0.80
   1   1  -7    9.00    0.80
   0  -1   7   20.50    1.20
   0  -1  -7   16.80    1.00
   0  -1  -7   20.20    1.10
   0   1  -7   18.00    0.90
   0   1   7   18.40    1.20
   0   1  -7   19.30    1.20
  -1  -1  -7   37.40    1.70
   1  -1   7   39.10    1.70
  -1  -1  -7   37.70    1.50
  -1   1  -7   38.70    1.30
   1   1   7   39.30    1.80
  -1   1  -7   41.30    1.80
   2  -1   7   34.70    1.70
  -2  -1  -7   37.40    1.80
  -2  -1  -7   33.50    1.40
   2   1   7   34.40    1.70
  -2   1  -7   36.50    1.10
  -2   1  -7   36.30    1.70
  -3  -1  -7  104.59    3.50
  -3  -1  -7  108.79    3.00
   3  -1   7  109.49    3.40
   3   1   7  106.99    3.50
  -3   1  -7  104.09    3.50
  -4  -1  -7   -0.30    0.60
   4  -1   7    0.80    0.60
  -4   1  -7    0.60    0.50
   4   1   7    1.50    0.40
   4   1   7    1.70    0.60
   5  -1   7   71.29    2.90
  -5  -1  -7   73.09    2.90
  -5   1  -7   69.89    2.90
   5   1   7   74.69    2.90
   5   1   7   72.59    2.30
   6  -1   7   -0.10    0.60
  -6  -1  -7   -0.30    0.60
  -6   1  -7   -0.30    0.50
   6   1   7   -0.30    0.60
  -7  -1  -7   16.50    1.80
   7  -1   7   16.80    1.80
   7   1   7   15.50    1.70
  -7   1  -7   13.70    1.50
   8  -1   7   25.60    2.10
  -8  -1  -7   28.20    2.10
  -8   1  -7   30.60    2.10
   8   1   7   29.00    2.20
   9  -1   7    3.00    1.20
  -9  -1  -7    2.40    1.00
  -9   1  -7    3.50    1.10
   9   1   7    4.80    1.20
   9  -2  -7    6.80    1.30
   9   2  -7    9.40    1.50
   8  -2  -7    3.00    0.90
   8   2  -7    4.10    0.90
  -8   2   7    2.70    0.90
   7  -2  -7   -0.40    0.60
   7   2  -7   -0.40    0.50
  -7   2   7   -0.60    0.50
   6  -2  -7   29.40    1.70
   6   2  -7   29.50    1.70
  -6   2   7   28.20    1.80
   5  -2  -7   12.30    1.30
   5   2  -7   12.50    1.20
  -5   2   7   11.40    1.20
   4  -2  -7   30.70    1.70
  -4  -2   7   31.10    1.30
  -4   2   7   29.50    1.60
   4   2  -7   31.30    1.60
  -3  -2   7    4.20    0.60
   3  -2  -7    4.40    0.50
   3  -2  -7    4.60    0.80
  -3   2   7    4.30    0.80
   3   2  -7    5.90    0.80
   2  -2  -7    0.90    0.50
  -2  -2   7    1.70    0.40
   2  -2  -7    1.10    0.40
  -2   2   7    1.30    0.60
   2   2  -7    1.40    0.50
  -1  -2   7   10.80    0.80
   1  -2  -7   10.00    0.90
   1  -2  -7   11.90    0.90
   1   2  -7   10.70    0.80
  -1   2   7   11.90    1.20
   0  -2  -7    9.70    0.90
   0  -2  -7   10.70    1.00
   0  -2   7    8.50    0.90
   0   2  -7   10.40    0.70
  -1  -2  -7   37.30    1.60
  -1  -2  -7   40.10    1.80
   1  -2   7   38.60    1.70
   1   2   7   34.60    1.70
  -1   2  -7   36.90    1.20
  -2  -2  -7  103.69    3.10
  -2  -2  -7  108.39    3.50
   2  -2   7  109.49    3.30
   2   2   7  107.09    3.40
  -3  -2  -7  116.19    3.80
   3  -2   7  120.29    3.70
  -3   2  -7  117.69    3.90
   3   2   7  117.79    3.40
   3   2   7  115.39    3.70
   4  -2   7   17.80    1.50
  -4  -2  -7   18.60    1.50
   4   2   7   16.90    1.10
  -4   2  -7   18.50    1.50
   4   2   7   18.50    1.40
  -5  -2  -7    1.90    0.80
   5  -2   7    2.10    0.80
   5   2   7    1.30    0.70
  -5   2  -7    2.20    0.70
   5   2   7    1.20    0.50
  -6  -2  -7    6.60    1.20
   6  -2   7    5.60    1.10
   6   2   7    6.00    0.80
  -6   2  -7    6.30    1.10
   6   2   7    4.80    1.00
   7  -2   7   -0.40    0.60
  -7  -2  -7    1.00    0.90
  -7   2  -7    0.70    0.70
   7   2   7   -0.40    0.70
  -8  -2  -7    7.20    1.50
   8  -2   7    8.00    1.40
  -8   2  -7    8.00    1.30
   8   2   7    7.00    1.30
   9  -2   7   13.90    1.90
  -9  -2  -7   10.50    1.70
   9   2   7   11.30    1.60
  -9   2  -7    9.80    1.50
   9  -3  -7    5.40    1.20
   9  -3  -7    5.40    1.30
   9   3  -7    8.20    1.40
   8  -3  -7    4.00    1.00
   8   3  -7    4.30    1.10
  -8   3   7    3.70    1.10
   7  -3  -7    7.20    1.20
   7   3  -7    7.10    1.20
  -7   3   7    6.90    1.20
   6  -3  -7   17.00    1.60
  -6   3   7   20.90    1.70
   6   3  -7   18.20    1.40
   5  -3  -7   23.80    1.60
  -5   3   7   26.00    1.70
   5   3  -7   21.20    1.50
   4  -3  -7   15.80    1.50
  -4   3   7   16.70    1.40
   4   3  -7   14.00    1.30
   3  -3  -7    8.60    0.80
   3  -3  -7    9.40    1.10
   3   3  -7    9.10    1.00
  -3   3   7    8.80    1.10
  -2  -3   7  177.58    4.40
   2  -3  -7  184.18    4.60
   2  -3  -7  176.28    5.00
  -2   3   7  180.78    5.20
   2   3  -7  182.38    4.70
   1  -3  -7    0.00    0.50
  -1  -3   7    0.60    0.40
   1  -3  -7    0.20    0.40
  -1   3   7    0.30    0.50
   1   3  -7    0.50    0.30
   0  -3  -7   10.90    1.10
   0  -3   7   10.10    0.90
   0  -3  -7    9.80    1.00
   0   3   7    9.60    1.10
   0   3  -7    8.80    0.60
  -1  -3  -7    9.20    1.00
  -1  -3  -7   10.50    1.10
   1  -3   7    9.90    1.00
   2  -3   7    4.40    0.80
  -2  -3  -7    6.60    1.00
   2   3   7    6.30    0.90
   2   3   7    5.70    0.90
  -3  -3  -7   48.90    2.30
   3  -3   7   55.09    2.30
   3   3   7   53.59    2.10
   3   3   7   50.09    2.30
  -4  -3  -7   67.59    2.90
   4  -3   7   69.69    2.70
   4   3   7   61.49    2.60
   4   3   7   63.49    2.40
   5  -3   7   33.80    1.90
  -5  -3  -7   31.20    2.00
   5   3   7   36.40    1.80
   5   3   7   33.40    1.90
   6  -3   7    0.70    0.80
  -6  -3  -7    1.50    0.80
   6   3   7    1.90    0.70
   6   3   7    2.40    0.70
   7  -3   7    2.70    1.00
  -7  -3  -7    5.20    1.20
   7   3   7    6.80    1.20
   7   3   7    4.80    0.90
  -8  -3  -7   19.40    2.10
   8   3   7   20.70    2.00
   8  -4  -7    0.60    0.80
  -8   4   7   -0.10    0.80
   8   4  -7   -0.20    0.60
   7  -4  -7    0.10    0.70
  -7  -4   7   -0.90    0.50
   7   4  -7   -0.30    0.70
  -7   4   7    0.40    0.80
   6  -4  -7    9.20    1.30
   6   4  -7   12.90    1.50
  -6   4   7    8.90    1.30
   5  -4  -7    3.40    0.90
  -5   4   7    2.00    0.80
   5   4  -7    2.30    0.80
   4  -4  -7   15.10    1.50
   4   4  -7   16.70    1.30
  -4   4   7   16.00    1.60
   3  -4  -7    0.00    0.50
   3   4  -7    0.10    0.50
  -3   4   7    0.00    0.50
   2  -4  -7    0.40    0.50
   2  -4  -7    0.80    0.60
  -2   4   7    1.30    0.70
   2   4  -7    1.40    0.50
   1  -4  -7    4.60    0.80
   1  -4  -7    4.10    0.80
  -1   4   7    3.80    0.80
   1   4  -7    3.80    0.60
   0  -4   7    7.40    0.80
   0  -4  -7    6.00    0.90
   0  -4  -7    6.20    0.90
   0   4   7    6.80    1.00
  -1  -4  -7   14.20    1.40
   1  -4   7   12.70    1.10
  -1  -4  -7   12.80    1.30
   1   4   7   11.20    1.30
  -2  -4  -7   26.70    1.80
   2  -4   7   26.50    1.50
   2   4   7   24.10    1.50
   2   4   7   24.50    1.60
   3  -4   7   26.30    1.60
  -3  -4  -7   25.30    1.80
   3   4   7   28.90    1.70
   3   4   7   26.00    1.60
  -4  -4  -7    7.20    1.20
   4  -4   7    3.30    0.90
   4   4   7    7.30    1.10
   4   4   7    5.10    0.90
  -5  -4  -7    1.70    0.80
   5  -4   7    1.70    0.80
   5   4   7    1.20    0.70
   5   4   7    1.70    0.80
  -6  -4  -7    0.60    0.80
   6  -4   7    1.60    0.90
   6   4   7    1.50    0.80
   6   4   7    2.00    0.80
  -7  -4  -7    2.10    1.00
   7  -4   7    0.60    1.00
   7   4   7    0.40    0.70
   7   4   7    0.30    0.70
   7  -5  -7    1.10    0.80
  -7  -5   7    0.50    0.70
   7   5  -7    0.30    0.70
  -7   5   7   -0.30    0.70
   6  -5  -7    0.80    0.80
  -6   5   7    0.10    0.70
   6   5  -7    0.80    0.60
   5  -5  -7    0.00    0.60
  -5   5   7    0.30    0.70
   5   5  -7    0.40    0.60
   4  -5  -7   32.00    2.00
  -4   5   7   33.80    2.10
   4   5  -7   33.80    1.80
   3  -5  -7    6.90    1.20
  -3   5   7    7.80    1.20
   3   5  -7    6.50    0.90
   2  -5  -7   10.90    1.30
   2  -5  -7   12.60    1.20
   2   5  -7   13.70    1.00
  -2   5   7   11.00    1.40
   1  -5  -7   -0.10    0.50
   1  -5  -7    0.70    0.60
  -1   5   7   -0.40    0.50
   0  -5  -7    1.10    0.70
   0  -5  -7    1.30    0.70
   0   5   7    0.70    0.60
  -1  -5  -7    1.80    0.70
  -1  -5  -7    4.30    1.00
   1   5   7    2.10    0.80
  -2  -5  -7    7.00    1.20
   2  -5   7    6.80    0.90
   2   5   7    7.30    1.10
   2   5   7    6.50    1.00
   3  -5   7   16.40    1.40
  -3  -5  -7   16.50    1.70
   3   5   7   21.70    1.60
   3   5   7   19.80    1.50
   4  -5   7    2.10    0.80
  -4  -5  -7    2.60    1.00
   4   5   7    1.10    0.70
   4   5   7    0.90    0.60
   5  -5   7   17.00    1.70
  -5  -5  -7   17.20    1.90
   5   5   7   14.70    1.60
   5   5   7   18.50    1.80
  -6  -5  -7    4.20    1.30
   6  -5   7    3.70    1.00
   6   5   7    5.60    1.10
   6   5   7    6.20    1.10
   5  -6  -7    0.10    0.90
  -5   6   7    1.30    1.00
   5   6  -7    1.40    0.80
   4  -6  -7   12.90    1.60
  -4   6   7   10.50    1.50
   4   6  -7   11.00    1.30
   3  -6  -7    4.00    1.00
  -3   6   7    3.80    1.00
   3   6  -7    4.50    0.90
   2  -6  -7    1.20    0.80
  -2   6   7    2.10    0.80
   1  -6  -7    2.40    0.80
   1  -6  -7    1.30    0.70
  -1   6   7    0.40    0.70
   0  -6  -7    3.80    1.00
   0  -6  -7    3.50    1.00
   0   6   7    3.40    1.00
  -1  -6  -7   13.70    1.60
  -1  -6  -7   12.30    1.50
   1   6   7    9.80    1.40
  -2  -6  -7    3.50    1.10
   2   6   7    2.30    0.90
   2   6   7    1.60    0.80
  -3  -6  -7    0.70    0.90
   3   6   7    1.20    0.80
   3   6   7    1.20    0.70
  -4  -6  -7    0.00    0.90
   4  -6   7    0.50    0.70
   4   6   7    0.10    0.60
   4   6   7    0.90    0.80
  -5  -6  -7    5.90    1.40
   5  -6   7    2.10    0.80
   5   6   7    5.60    1.20
   3  -7  -7    1.90    0.90
  -3   7   7    1.00    0.90
   2  -7  -7    6.40    1.20
  -2   7   7    3.90    1.10
   1  -7  -7   -0.50    0.80
   1  -7  -7    0.00    0.80
  -1   7   7   -0.10    0.70
   0  -7  -7    0.50    0.80
   0  -7  -7    0.60    0.80
   0   7   7   -0.20    0.70
  -1  -7  -7    0.20    0.90
  -1  -7  -7    0.90    0.80
   1   7   7    1.70    0.80
  -2  -7  -7   -1.70    0.80
   2   7   7    1.10    0.90
   2   7   7    0.20    0.70
   9   0  -8    7.40    1.40
  -8   0   8    8.00    1.10
   8   0  -8    9.60    1.40
   7   0  -8    7.60    1.20
  -7   0   8    7.40    1.00
  -6   0   8    0.30    0.50
   6   0  -8    0.10    0.50
   5   0  -8  306.67    7.90
  -5   0   8  317.77    7.70
  -4   0   8   44.90    1.90
   4   0  -8   44.50    2.00
  -3   0   8   16.90    1.20
   3   0  -8   14.70    1.10
   2   0  -8   -0.30    0.40
  -2   0   8    0.60    0.50
   1   0  -8    3.30    0.60
  -1   0   8    4.40    0.70
   1   0  -8    2.40    0.60
   0   0   8  402.36    9.60
   0   0  -8  402.66    9.50
   0   0  -8  405.46    9.20
  -1   0  -8   89.79    2.60
  -1   0  -8   90.69    3.10
   1   0   8   88.79    3.00
  -2   0  -8    0.40    0.50
  -2   0  -8    0.20    0.30
   2   0   8    1.00    0.60
  -3   0  -8   57.19    2.50
  -3   0  -8   59.59    1.80
   3   0   8   56.99    2.50
   4   0   8   86.09    3.20
  -4   0  -8   85.49    3.20
  -5   0  -8    7.30    1.10
   5   0   8    5.60    1.00
  -6   0  -8   32.90    2.10
   6   0   8   34.60    2.20
  -7   0  -8   15.20    1.70
   7   0   8   17.80    1.90
   8   0   8   30.10    2.30
  -8   0  -8   30.90    2.30
   9  -1  -8    0.30    0.80
   9  -1  -8   -0.20    0.60
   9   1  -8   -0.40    0.70
   8  -1  -8    4.90    1.10
   8   1  -8    7.40    1.20
  -8   1   8    3.90    1.00
   7  -1  -8    2.90    1.00
   7   1  -8    2.60    0.80
  -7   1   8    3.10    0.80
   6  -1  -8    2.40    0.80
  -6  -1   8    2.60    0.60
   6   1  -8    1.80    0.70
  -6   1   8    2.20    0.70
   5  -1  -8   74.19    2.90
  -5  -1   8   79.19    2.60
   5   1  -8   76.09    2.90
  -5   1   8   77.99    2.90
   4  -1  -8   38.40    1.90
  -4  -1   8   40.30    1.70
   4   1  -8   42.50    1.90
  -4   1   8   42.00    2.00
   3  -1  -8   36.50    1.50
  -3  -1   8   37.90    1.60
   3  -1  -8   31.20    1.70
   3   1  -8   38.60    1.70
  -3   1   8   37.60    1.80
   2  -1  -8   23.90    1.20
  -2  -1   8   24.40    1.30
   2  -1  -8   20.90    1.30
   2   1  -8   23.70    1.30
  -2   1   8   25.40    1.50
   1  -1  -8   31.20    1.50
   1  -1  -8   32.00    1.50
  -1  -1   8   34.40    1.60
   1   1  -8   33.80    1.40
  -1   1   8   34.10    1.70
   0  -1  -8  135.19    3.70
   0  -1   8  134.39    3.90
   0  -1  -8  132.99    3.90
   0   1  -8  134.59    3.50
   0   1  -8  137.59    4.10
   0   1   8  133.69    4.00
  -1  -1  -8   54.19    1.90
   1  -1   8   54.19    2.10
  -1  -1  -8   47.40    2.10
  -1   1  -8   52.89    2.30
   1   1   8   50.39    2.20
  -1   1  -8   53.79    1.70
   2  -1   8    1.50    0.60
  -2  -1  -8    0.50    0.60
  -2  -1  -8    3.00    0.60
  -2   1  -8    1.70    0.60
   2   1   8    2.90    0.80
  -2   1  -8    1.30    0.40
  -3  -1  -8   17.70    1.40
  -3  -1  -8   16.70    1.00
   3  -1   8   17.60    1.40
   3   1   8   16.30    1.40
  -3   1  -8   16.80    1.40
   4  -1   8   58.39    2.60
  -4  -1  -8   55.49    2.50
  -4  -1  -8   62.89    2.00
  -4   1  -8   58.39    2.60
   4   1   8   55.29    2.50
  -5  -1  -8   38.80    2.10
   5  -1   8   34.90    2.10
   5   1   8   38.30    2.10
  -5   1  -8   37.10    2.10
  -6  -1  -8    1.40    0.70
   6  -1   8    0.60    0.80
   6   1   8    2.50    0.80
  -6   1  -8   -0.20    0.60
   7  -1   8    5.30    1.20
  -7  -1  -8    5.50    1.20
   7   1   8    4.40    1.00
  -7   1  -8    1.60    0.80
   8  -1   8    0.60    0.90
  -8  -1  -8    0.00    0.90
   8   1   8    0.50    0.80
  -8   1  -8    0.10    0.70
   9  -2  -8    8.80    1.40
   9  -2  -8    8.30    1.40
   9   2  -8    7.30    1.40
   8  -2  -8    2.90    0.90
   8   2  -8    3.20    1.00
  -8   2   8    4.80    1.10
   7  -2  -8    0.40    0.80
  -7   2   8   -0.80    0.60
   7   2  -8   -0.50    0.60
   6  -2  -8   15.90    1.60
  -6   2   8   17.70    1.50
   6   2  -8   19.40    1.50
   5  -2  -8   92.69    3.40
  -5   2   8   94.89    3.40
   5   2  -8   91.59    3.30
   4  -2  -8    6.30    1.00
  -4  -2   8    9.30    0.90
  -4   2   8    7.30    1.10
   4   2  -8    8.90    1.10
   3  -2  -8   95.09    3.20
  -3  -2   8   90.39    2.70
   3  -2  -8   93.79    2.70
   3   2  -8   89.49    3.00
  -3   2   8   88.29    3.20
   2  -2  -8    4.30    0.80
   2  -2  -8    3.40    0.60
  -2  -2   8    3.80    0.60
  -2   2   8    4.20    0.80
   2   2  -8    3.50    0.60
   1  -2  -8    7.00    0.90
  -1  -2   8    7.70    0.80
   1  -2  -8    8.60    1.00
   1   2  -8    8.30    0.80
  -1   2   8    8.70    1.10
   0  -2  -8  262.27    6.60
   0  -2  -8  259.17    6.60
   0  -2   8  276.37    6.60
   0   2  -8  255.37    6.10
  -1  -2  -8    0.60    0.50
  -1  -2  -8    0.30    0.50
   1  -2   8    1.20    0.60
   1   2   8    0.20    0.50
  -2  -2  -8    1.10    0.70
   2  -2   8    0.40    0.50
  -2  -2  -8   -0.40    0.40
   2   2   8    1.80    0.70
  -3  -2  -8  203.68    5.90
   3  -2   8  207.08    5.70
  -3  -2  -8  213.38    5.40
  -3   2  -8  202.18    5.90
   3   2   8  212.78    5.90
   4  -2   8   56.69    2.50
  -4  -2  -8   56.99    2.70
  -4   2  -8   52.19    2.50
   4   2   8   62.29    2.20
   4   2   8   56.09    2.50
   5  -2   8    0.30    0.80
  -5  -2  -8    0.80    0.70
  -5   2  -8    0.10    0.60
   5   2   8    1.60    0.60
   5   2   8    2.20    0.80
   6  -2   8   27.90    2.00
  -6  -2  -8   35.10    2.30
   6   2   8   34.40    2.20
  -6   2  -8   30.30    2.00
  -7  -2  -8   10.90    1.60
   7  -2   8   13.80    1.80
  -7   2  -8   12.60    1.60
   7   2   8   13.60    1.70
   8  -2   8   25.70    2.50
  -8  -2  -8   31.70    2.30
  -8   2  -8   26.50    2.10
   8   2   8   28.90    2.20
   8  -3  -8    0.40    0.80
  -8   3   8    0.90    0.90
   8   3  -8    0.10    0.70
   7  -3  -8    6.00    1.20
  -7   3   8    6.40    1.20
   7   3  -8    6.60    1.20
   6  -3  -8   11.50    1.40
   6   3  -8   11.00    1.30
  -6   3   8    9.20    1.30
   5  -3  -8   16.40    1.60
   5   3  -8   12.70    1.40
  -5   3   8   11.60    1.40
   4  -3  -8    0.30    0.50
   4   3  -8    0.90    0.50
  -4   3   8    0.00    0.50
   3  -3  -8   44.80    2.10
  -3   3   8   38.70    2.10
   3   3  -8   40.80    1.80
   2  -3  -8   42.20    1.80
   2  -3  -8   44.00    2.10
  -2  -3   8   41.50    1.60
  -2   3   8   43.70    2.20
   2   3  -8   44.90    1.80
   1  -3  -8   18.80    1.30
  -1  -3   8   19.60    1.10
   1  -3  -8   18.40    1.30
   1   3  -8   19.90    1.10
  -1   3   8   20.30    1.50
   0  -3  -8   30.10    1.70
   0  -3   8   27.00    1.40
   0  -3  -8   27.30    1.60
   0   3  -8   30.20    1.60
   0   3   8   26.60    1.70
  -1  -3  -8   22.90    1.50
  -1  -3  -8   23.40    1.50
   1  -3   8   20.50    1.40
   2  -3   8   43.40    2.00
  -2  -3  -8   44.50    2.30
  -2  -3  -8   41.50    1.90
   2   3   8   44.00    2.20
   3  -3   8    9.20    1.20
  -3  -3  -8   10.00    1.30
   3   3   8   10.80    1.30
   3   3   8   12.90    1.30
  -4  -3  -8    0.70    0.70
   4  -3   8    0.20    0.70
   4   3   8   -0.30    0.50
   4   3   8   -0.20    0.50
   5  -3   8    9.60    1.40
  -5  -3  -8   11.90    1.60
   5   3   8    9.50    1.10
   5   3   8    8.80    1.20
   6  -3   8    1.20    0.80
  -6  -3  -8   -0.20    0.70
   6   3   8    0.30    0.80
   6   3   8    0.60    0.60
  -7  -3  -8    1.60    1.00
   7  -3   8    0.40    1.00
   7   3   8    1.50    0.90
   7   3   8    0.50    0.90
   7  -4  -8   -0.80    0.70
  -7   4   8   -0.80    0.70
   7   4  -8    0.80    0.80
   6  -4  -8    5.30    1.10
  -6   4   8    7.90    1.40
   6   4  -8    3.20    0.90
   5  -4  -8   52.39    2.60
  -5   4   8   50.49    2.70
   4  -4  -8   15.90    1.60
  -4   4   8   16.30    1.70
   3  -4  -8   30.60    1.90
   3   4  -8   31.30    1.70
  -3   4   8   25.20    1.80
   2  -4  -8    1.10    0.70
   2  -4  -8    1.10    0.60
   2   4  -8    2.40    0.60
  -2   4   8    3.40    0.80
   1  -4  -8    9.00    1.20
   1  -4  -8    9.90    1.10
   1   4  -8   11.70    1.10
  -1   4   8   10.10    1.30
   0  -4  -8  113.99    3.80
   0  -4   8  114.09    3.40
   0  -4  -8  117.19    3.80
   0   4   8  113.09    3.90
   1  -4   8   -0.50    0.50
  -1  -4  -8    0.90    0.70
  -1  -4  -8   -0.10    0.50
   1   4   8    0.60    0.70
   2  -4   8    2.70    0.80
  -2  -4  -8    2.70    0.90
  -2  -4  -8    2.90    0.80
   2   4   8    3.80    0.90
  -3  -4  -8   89.89    3.50
   3  -4   8   84.29    3.10
   3   4   8   86.99    3.40
   3   4   8   81.49    3.10
  -4  -4  -8   27.70    2.00
   4  -4   8   30.20    1.90
   4   4   8   32.60    2.00
   4   4   8   29.20    1.80
   5  -4   8    1.10    0.90
  -5  -4  -8    0.40    0.80
   5   4   8    0.80    0.70
   5   4   8    1.30    0.80
  -6  -4  -8    9.10    1.50
   6  -4   8    9.50    1.40
   6   4   8   13.90    1.50
   6   4   8   11.10    1.40
  -7  -4  -8    2.50    1.20
   7  -4   8    5.60    1.30
   7   4   8    5.50    1.10
   7   4   8    4.30    1.10
   6  -5  -8    1.10    1.00
   6   5  -8    0.60    0.70
  -6   5   8    0.60    1.00
   5  -5  -8   17.90    1.90
  -5   5   8   21.30    2.10
   5   5  -8   16.30    1.70
   4  -5  -8    8.10    1.30
   4   5  -8    8.20    1.10
  -4   5   8    8.50    1.40
   3  -5  -8    2.10    0.80
   3   5  -8    2.60    0.70
  -3   5   8    4.10    1.00
   2  -5  -8    2.30    0.90
  -2   5   8    3.30    0.90
   1  -5  -8    6.50    1.10
   1  -5  -8    7.10    1.00
  -1   5   8    5.60    1.10
   0  -5  -8   11.80    1.40
   0  -5  -8   12.70    1.40
   0   5   8    9.70    1.30
  -1  -5  -8    3.10    0.90
  -1  -5  -8    2.50    0.90
   1   5   8    3.40    0.90
   2  -5   8    1.80    0.70
  -2  -5  -8    1.80    0.70
  -2  -5  -8    1.50    0.90
   2   5   8    1.90    0.80
   3  -5   8    1.30    0.70
  -3  -5  -8   -0.80    0.80
   3   5   8    1.20    0.70
   3   5   8    0.20    0.70
  -4  -5  -8   10.30    1.50
   4  -5   8   11.80    1.40
   4   5   8   11.30    1.50
   4   5   8   12.70    1.50
   5  -5   8    3.20    1.10
  -5  -5  -8    3.50    1.20
   5   5   8    4.50    1.00
   5   5   8    2.40    0.90
   6   5   8    4.70    1.10
   6   5   8    4.00    1.10
   4  -6  -8   20.60    2.00
  -4   6   8   18.60    2.00
   4   6  -8   17.20    1.60
   3  -6  -8    1.40    0.80
  -3   6   8    1.90    0.90
   2  -6  -8    0.50    0.80
  -2   6   8    0.00    0.80
   1  -6  -8    9.70    1.30
   1  -6  -8    9.70    1.40
  -1   6   8    9.60    1.40
   0  -6  -8   33.90    2.20
   0  -6  -8   35.50    2.20
   0   6   8   37.30    2.30
  -1  -6  -8    0.50    0.80
  -1  -6  -8    1.30    0.90
   1   6   8    1.70    0.90
  -2  -6  -8    2.00    1.10
  -2  -6  -8    0.00    0.60
   2   6   8    1.10    0.80
  -3  -6  -8    8.20    1.60
   3   6   8    9.30    1.40
   3   6   8    5.00    1.10
  -4  -6  -8   22.70    2.30
   4  -6   8   16.80    1.80
   4   6   8   18.20    1.90
   4   6   8   21.20    1.80
   8   0  -9    4.10    1.10
   7   0  -9    2.00    0.80
  -7   0   9    0.90    0.70
   6   0  -9   43.40    2.20
  -6   0   9   40.50    2.00
   5   0  -9   22.60    1.60
  -5   0   9   20.70    1.40
   4   0  -9   34.10    1.90
  -4   0   9   35.10    1.80
   3   0  -9    4.10    0.80
  -3   0   9    3.50    0.70
   2   0  -9    1.00    0.50
  -2   0   9   -0.10    0.50
   1   0  -9  126.99    3.70
  -1   0   9  134.39    4.00
   1   0  -9  131.29    3.90
   0   0  -9  182.68    5.10
   0   0  -9  185.48    4.70
   0   0   9  180.08    5.10
  -1   0  -9   62.89    2.60
   1   0   9   60.39    2.50
  -1   0  -9   63.29    2.10
   2   0   9   84.99    3.10
  -2   0  -9   89.19    2.60
  -2   0  -9   82.29    3.10
   3   0   9   88.29    3.30
  -3   0  -9   93.59    3.40
   4   0   9    2.90    0.90
  -4   0  -9    1.50    0.70
   5   0   9    7.60    1.30
  -5   0  -9    9.80    1.40
   6   0   9   23.70    2.20
  -6   0  -9   25.30    2.00
   7   0   9    8.30    1.50
  -7   0  -9    8.20    1.40
   8   0   9    0.80    1.00
  -8   0  -9    0.80    0.80
   8  -1  -9    1.00    0.90
  -8   1   9   -0.40    0.70
   8   1  -9    0.40    0.70
   7  -1  -9    0.70    0.80
  -7   1   9   -0.10    0.70
   7   1  -9    0.50    0.70
   6  -1  -9    6.40    1.10
  -6   1   9    8.00    1.20
   6   1  -9    7.70    1.20
  -5  -1   9   48.80    2.00
   5  -1  -9   47.00    2.30
  -5   1   9   44.50    2.20
   5   1  -9   48.50    2.20
  -4  -1   9    3.10    0.70
   4  -1  -9    4.20    0.90
  -4   1   9    3.50    0.90
   4   1  -9    2.80    0.70
  -3  -1   9   11.50    1.10
   3  -1  -9   12.20    1.20
   3  -1  -9   12.60    1.00
  -3   1   9   11.80    1.30
   3   1  -9   11.30    1.10
  -2  -1   9  100.19    3.20
   2  -1  -9  102.59    3.10
   2  -1  -9   92.79    3.10
  -2   1   9   95.59    3.40
   2   1  -9  101.39    3.10
   1  -1  -9    2.40    0.60
  -1  -1   9    2.10    0.70
   1  -1  -9    1.50    0.60
  -1   1   9    2.60    0.80
   1   1  -9    0.80    0.50
   0  -1   9   54.49    2.30
   0  -1  -9   52.79    2.20
   0  -1  -9   55.29    2.10
   0   1   9   54.39    2.40
   0   1  -9   53.09    2.40
   0   1  -9   50.09    1.80
   1  -1   9    9.70    1.20
  -1  -1  -9    9.80    1.00
  -1  -1  -9    7.30    1.00
   1   1   9    8.90    1.20
  -1   1  -9    9.20    0.80
  -1   1  -9    9.20    1.20
  -2  -1  -9  129.29    3.60
   2  -1   9  124.59    4.00
  -2  -1  -9  126.69    4.10
   2   1   9  129.09    4.10
  -2   1  -9  128.79    4.20
  -3  -1  -9    0.40    0.60
  -3  -1  -9   -0.10    0.30
   3  -1   9   -0.90    0.50
   3   1   9   -0.60    0.60
  -3   1  -9    1.20    0.60
  -4  -1  -9    5.10    1.10
   4  -1   9    7.20    1.10
  -4   1  -9    3.30    0.80
   4   1   9    5.00    1.00
  -5  -1  -9    5.70    1.20
   5  -1   9    5.10    1.10
  -5   1  -9    5.40    1.10
   5   1   9    3.50    0.90
  -6  -1  -9   10.20    1.50
   6  -1   9   11.50    1.60
  -6   1  -9    8.30    1.30
   6   1   9    9.20    1.40
  -7  -1  -9    6.30    1.30
   7  -1   9    4.60    1.40
  -7   1  -9    7.20    1.30
   7   1   9    5.70    1.30
   8  -2  -9    6.60    1.30
   8   2  -9    7.40    1.30
  -8   2   9    2.60    1.00
   7  -2  -9    9.60    1.40
   7   2  -9   11.50    1.50
  -7   2   9   12.60    1.50
   6  -2  -9    9.20    1.30
  -6   2   9    8.20    1.20
   6   2  -9   11.00    1.40
   5  -2  -9    2.50    0.90
  -5   2   9    2.40    0.80
   5   2  -9    3.10    0.80
   4  -2  -9   47.20    2.30
   4   2  -9   45.60    2.10
  -4   2   9   44.00    2.20
  -3  -2   9   30.00    1.50
   3  -2  -9   27.80    1.70
   3   2  -9   29.80    1.60
  -3   2   9   27.90    1.70
   2  -2  -9    1.10    0.50
   2  -2  -9    1.30    0.60
  -2  -2   9    1.10    0.50
  -2   2   9    2.10    0.70
   2   2  -9    2.30    0.60
   1  -2  -9  149.39    4.20
   1  -2  -9  144.49    4.30
  -1  -2   9  147.19    4.20
   1   2  -9  146.29    4.00
  -1   2   9  149.69    4.60
   0  -2   9  142.99    4.20
   0  -2  -9  148.19    4.40
   0  -2  -9  142.09    4.20
   0   2  -9  145.89    3.80
   0   2   9  156.48    4.70
  -1  -2  -9    0.10    0.50
  -1  -2  -9    0.40    0.60
   1  -2   9    1.10    0.60
   1   2   9    0.70    0.70
  -2  -2  -9   79.69    2.70
  -2  -2  -9   78.89    3.10
   2  -2   9   81.19    3.00
   2   2   9   81.69    3.10
  -3  -2  -9    3.40    0.70
   3  -2   9    3.40    0.90
  -3  -2  -9    4.30    1.00
  -3   2  -9    4.00    1.00
   3   2   9    5.50    1.00
  -4  -2  -9    1.70    0.90
  -4  -2  -9    1.60    0.50
   4  -2   9    1.00    0.70
  -4   2  -9    2.40    0.80
   4   2   9    2.20    0.80
   5  -2   9   17.70    1.80
  -5  -2  -9   17.80    1.90
   5   2   9   16.90    1.70
  -5   2  -9   21.80    1.80
   6  -2   9   20.50    2.10
  -6  -2  -9   21.70    2.10
   6   2   9   18.70    1.90
  -6   2  -9   14.90    1.70
  -7  -2  -9    8.70    1.50
   7  -2   9   12.30    1.80
  -7   2  -9   10.00    1.60
   7   2   9   14.30    1.80
   7  -3  -9    5.00    1.20
   7   3  -9    3.00    0.90
  -7   3   9    6.80    1.30
   6  -3  -9    0.80    0.80
   6   3  -9    1.60    0.80
  -6   3   9    1.10    0.80
   5  -3  -9   14.50    1.60
   5   3  -9   15.90    1.60
  -5   3   9   15.80    1.70
   4  -3  -9   26.90    1.80
   4   3  -9   24.90    1.60
  -4   3   9   25.30    1.80
   3  -3  -9    0.20    0.60
  -3   3   9    0.40    0.70
   3   3  -9    0.60    0.50
   2  -3  -9   32.80    1.80
   2  -3  -9   30.40    1.60
  -2   3   9   30.80    1.90
   2   3  -9   30.10    1.50
  -1  -3   9    3.30    0.70
   1  -3  -9    3.70    0.80
   1  -3  -9    4.10    0.90
  -1   3   9    3.90    0.90
   1   3  -9    3.80    0.60
   0  -3  -9    4.60    0.90
   0  -3  -9    3.30    0.90
   0  -3   9    3.50    0.70
   0   3   9    2.50    0.80
  -1  -3  -9    0.90    0.60
  -1  -3  -9    0.20    0.70
   1  -3   9   -0.20    0.50
   1   3   9   -0.50    0.60
   2  -3   9  194.68    5.40
  -2  -3  -9  191.68    5.30
  -2  -3  -9  189.58    5.60
   2   3   9  184.68    5.60
   3  -3   9    2.00    0.90
  -3  -3  -9    1.70    0.70
  -3  -3  -9    2.90    1.00
   3   3   9    2.60    0.80
  -4  -3  -9    3.70    1.10
   4  -3   9    3.00    0.90
  -4  -3  -9    3.50    0.80
   4   3   9    5.20    1.00
   5  -3   9    4.50    1.20
  -5  -3  -9    5.80    1.20
   5   3   9    5.30    1.20
   5   3   9    5.80    1.00
  -6  -3  -9    2.80    1.00
   6  -3   9    2.20    1.20
   6   3   9    5.60    1.10
   6   3   9    5.70    1.20
   7  -3   9    6.00    1.50
  -7  -3  -9    4.60    1.30
   7   3   9    3.70    1.20
  -7   4   9    4.30    1.30
   6  -4  -9    3.10    1.10
   6   4  -9    6.40    1.20
  -6   4   9    4.90    1.20
   5  -4  -9    2.20    0.90
  -5   4   9    1.20    0.90
   5   4  -9    1.90    0.70
   4  -4  -9   18.10    1.80
   4   4  -9   15.80    1.50
  -4   4   9   18.10    1.90
   3  -4  -9    3.30    0.90
   3   4  -9    4.50    0.90
  -3   4   9    4.20    1.10
   2  -4  -9    2.70    0.80
   2   4  -9    1.90    0.60
  -2   4   9    3.40    1.00
   1  -4  -9   79.79    3.00
   1  -4  -9   83.09    3.20
  -1   4   9   82.09    3.30
   0  -4  -9   81.69    3.10
   0  -4  -9   72.89    3.00
   0   4   9   72.79    3.20
   1  -4   9    5.30    0.90
  -1  -4  -9    3.40    0.90
  -1  -4  -9    5.20    1.10
   1   4   9    4.90    1.10
  -2  -4  -9   33.90    2.10
   2  -4   9   32.10    1.90
  -2  -4  -9   35.40    2.00
   2   4   9   37.30    2.20
  -3  -4  -9    2.70    1.00
   3  -4   9    3.80    1.00
  -3  -4  -9    2.80    0.80
   3   4   9    3.60    1.00
  -4  -4  -9    3.60    1.10
   4  -4   9    4.50    1.00
   4   4   9    5.30    1.10
   4   4   9    3.90    0.90
   5  -4   9    5.00    1.20
  -5  -4  -9    3.90    1.20
   5   4   9    3.30    1.00
   5   4   9    3.30    1.10
   6  -4   9    4.20    1.20
  -6  -4  -9    3.90    1.20
   6   4   9    4.90    1.00
   6   4   9    6.90    1.30
   5  -5  -9   15.00    1.80
   5   5  -9   13.20    1.50
  -5   5   9   16.00    1.90
   4  -5  -9   -0.30    0.70
  -4   5   9    0.50    0.80
   4   5  -9    0.70    0.60
   3  -5  -9   -0.30    0.50
   3   5  -9    0.20    0.80
  -3   5   9    1.10    0.80
   2  -5  -9   15.40    1.70
  -2   5   9   16.90    1.80
   1  -5  -9    3.00    0.90
   1  -5  -9    4.80    1.00
  -1   5   9    3.70    1.00
   0  -5  -9   12.00    1.50
   0  -5  -9    9.80    1.40
   0   5   9    8.60    1.40
  -1  -5  -9    0.60    0.90
  -1  -5  -9    0.00    0.60
   1   5   9   -0.10    0.70
  -2  -5  -9   13.70    1.50
  -2  -5  -9   15.20    1.80
   2   5   9   13.30    1.60
   3  -5   9   -1.60    0.70
  -3  -5  -9    0.40    0.90
  -3  -5  -9    0.30    0.60
   3   5   9    0.90    0.80
   4  -5   9    4.50    1.00
  -4  -5  -9    4.30    1.30
   4   5   9    3.70    1.10
   4   5   9    3.50    1.00
   3  -6  -9   -0.30    0.80
  -3   6   9   -0.10    0.90
   2  -6  -9    1.40    0.90
  -2   6   9    1.70    1.00
   1  -6  -9   22.90    2.10
  -1   6   9   26.00    2.00
   0  -6  -9   37.20    2.30
   0  -6  -9   36.70    2.40
   0   6   9   33.70    2.30
  -1  -6  -9   18.60    1.90
  -1  -6  -9   19.90    2.00
   1   6   9   19.30    1.90
  -2  -6  -9    2.60    1.20
  -2  -6  -9    4.10    1.10
   2   6   9    2.70    1.00
   8   0 -10    0.50    0.80
   7   0 -10    1.20    0.80
  -7   0  10    2.50    1.20
   6   0 -10   27.20    1.90
  -6   0  10   26.20    1.70
  -5   0  10   41.10    2.10
   5   0 -10   40.00    2.20
  -4   0  10   -0.20    0.50
   4   0 -10    1.00    0.60
   3   0 -10    0.60    0.60
  -3   0  10    0.30    0.60
  -2   0  10    0.50    0.50
   2   0 -10   -0.10    0.50
   1   0 -10  407.56    9.80
  -1   0  10  401.96    9.90
   1   0 -10  400.06    9.50
   0   0 -10    3.40    0.70
   0   0 -10    3.40    0.90
   0   0  10    2.00    0.80
  -1   0 -10   34.30    2.00
   1   0  10   30.40    1.80
  -1   0 -10   31.80    1.50
  -2   0 -10   -0.30    0.60
   2   0  10    0.20    0.70
   3   0  10   13.70    1.50
  -3   0 -10   15.80    1.70
   4   0  10   43.10    2.40
  -4   0 -10   42.50    2.40
   5   0  10    5.20    1.20
  -5   0 -10    4.60    1.10
   6   0  10    4.60    1.20
  -6   0 -10    8.10    1.50
   7   0  10   13.50    1.90
  -7   0 -10   13.70    1.90
   7  -1 -10   -0.70    0.60
  -7   1  10    0.90    0.80
   7   1 -10    0.30    0.80
   6  -1 -10   72.29    3.10
   6   1 -10   74.29    3.10
  -6   1  10   71.49    3.00
  -5  -1  10    4.20    0.80
   5  -1 -10    3.90    0.90
   5   1 -10    4.80    1.00
  -5   1  10    5.00    1.00
  -4  -1  10    6.40    0.90
   4  -1 -10    6.90    1.10
  -4   1  10    4.50    1.00
   4   1 -10    3.30    0.80
  -3  -1  10    1.30    0.60
   3  -1 -10    0.60    0.60
   3   1 -10    0.50    0.50
  -3   1  10    0.50    0.70
  -2  -1  10    0.30    0.60
   2  -1 -10    1.40    0.70
   2  -1 -10    1.30    0.60
   2   1 -10    1.60    0.60
  -2   1  10    1.30    0.70
   1  -1 -10   16.30    1.30
  -1  -1  10   18.40    1.40
   1  -1 -10   16.40    1.30
  -1   1  10   18.50    1.70
   1   1 -10   16.60    1.20
   0  -1 -10   26.00    1.70
   0  -1  10   26.80    1.70
   0  -1 -10   27.60    1.50
   0   1 -10   24.10    1.30
   0   1  10   25.00    1.80
  -1  -1 -10    0.10    0.50
   1  -1  10   -0.10    0.50
  -1  -1 -10    0.10    0.60
   1   1  10    1.30    0.70
  -1   1 -10    1.10    0.70
  -2  -1 -10    0.40    0.40
   2  -1  10    0.90    0.70
  -2  -1 -10    0.10    0.70
  -2   1 -10    1.30    0.70
   2   1  10    0.00    0.60
   3  -1  10   30.20    2.00
  -3  -1 -10   29.90    1.90
  -3   1 -10   30.80    2.00
   3   1  10   28.40    1.90
  -4  -1 -10    7.30    1.20
   4  -1  10   11.60    1.50
   4   1  10    9.60    1.40
  -4   1 -10    8.20    1.30
  -5  -1 -10   26.90    2.00
   5  -1  10   32.10    2.20
   5   1  10   28.60    2.10
  -5   1 -10   26.20    2.00
  -6  -1 -10    1.00    0.90
   6  -1  10    1.00    1.00
  -6   1 -10    0.70    0.70
   6   1  10    0.10    0.80
   7  -1  10   44.30    2.80
  -7  -1 -10   39.60    2.70
  -7   1 -10   44.10    2.80
   7   1  10   44.00    2.90
   7  -2 -10    3.70    1.10
   7   2 -10    1.30    0.80
  -7   2  10    2.20    1.00
   6  -2 -10   11.30    1.50
   6   2 -10    9.70    1.40
  -6   2  10   10.60    1.40
   5  -2 -10    0.20    0.70
  -5   2  10    1.60    0.80
   5   2 -10    1.60    0.80
   4  -2 -10   -0.10    0.60
   4   2 -10    0.10    0.60
  -4   2  10   -0.40    0.60
  -3  -2  10    8.40    1.00
   3  -2 -10    9.50    1.30
   3   2 -10    6.90    1.00
  -3   2  10   10.10    1.30
  -2  -2  10    1.20    0.60
   2  -2 -10    0.50    0.50
   2  -2 -10   -0.30    0.60
   2   2 -10    0.70    0.50
  -2   2  10    0.10    0.60
   1  -2 -10  189.98    5.40
  -1  -2  10  206.18    5.40
   1  -2 -10  201.98    5.50
  -1   2  10  190.98    5.80
   1   2 -10  194.48    5.10
   0  -2 -10   -0.50    0.50
   0  -2 -10   -0.20    0.50
   0  -2  10   -0.70    0.50
   0   2  10    0.20    0.70
   1  -2  10  106.19    3.70
  -1  -2 -10  108.39    3.50
  -1  -2 -10  113.29    3.90
   1   2  10  108.39    3.90
   2  -2  10    3.30    1.00
  -2  -2 -10    1.90    0.60
  -2  -2 -10    3.20    0.90
   2   2  10    2.10    0.80
   3  -2  10    0.80    0.80
  -3  -2 -10    0.60    0.70
  -3  -2 -10    0.70    0.50
   3   2  10    2.80    0.90
  -4  -2 -10   16.90    1.80
   4  -2  10   16.00    1.70
  -4   2 -10   15.80    1.80
   4   2  10   17.00    1.80
  -5  -2 -10   -0.40    0.80
   5  -2  10    1.70    0.90
  -5   2 -10   -0.10    0.60
   5   2  10    0.90    0.90
   6  -2  10    5.00    1.30
  -6  -2 -10    6.20    1.40
   6   2  10    7.60    1.40
  -6   2 -10    3.70    1.10
   6  -3 -10   13.80    1.70
  -6   3  10   14.40    1.80
   6   3 -10   10.50    1.40
   5  -3 -10    0.90    0.70
   5   3 -10    2.20    0.80
  -5   3  10    4.40    1.10
   4  -3 -10   17.60    1.80
   4   3 -10   17.10    1.60
  -4   3  10   18.80    1.80
   3  -3 -10    0.30    0.60
   3   3 -10    0.40    0.50
  -3   3  10    0.40    0.70
   2  -3 -10    1.40    0.90
   2  -3 -10    1.90    0.80
   2   3 -10    1.70    0.60
  -2   3  10    1.40    0.80
   1  -3 -10    9.20    1.10
  -1  -3  10    9.30    1.00
   1  -3 -10   10.00    1.20
  -1   3  10   11.30    1.50
   0  -3 -10    0.30    0.50
   0  -3  10   -0.20    0.50
   0  -3 -10   -0.40    0.60
   0   3  10    0.20    0.70
  -1  -3 -10    3.80    0.90
  -1  -3 -10    4.10    0.90
   1  -3  10    5.80    1.00
   1   3  10    5.20    1.10
  -2  -3 -10   27.50    1.70
  -2  -3 -10   30.10    2.10
   2  -3  10   28.60    1.80
   2   3  10   30.40    2.00
  -3  -3 -10    3.50    1.00
  -3  -3 -10    4.60    0.90
   3  -3  10    4.20    1.00
   3   3  10    4.50    1.10
   4  -3  10   14.30    1.60
  -4  -3 -10   14.80    1.80
  -4  -3 -10   13.80    1.40
   4   3  10   17.00    1.90
  -5  -3 -10   20.00    2.20
   5  -3  10   17.30    1.90
   5   3  10   18.80    2.00
   6  -3  10    0.00    0.90
  -6  -3 -10   -1.00    0.90
   6   3  10   -0.80    0.70
  -6   4  10    6.20    1.40
   5  -4 -10    3.20    1.00
   5   4 -10    2.30    0.90
  -5   4  10    0.80    0.90
   4  -4 -10   -0.40    0.70
   4   4 -10    0.00    0.60
  -4   4  10    2.40    1.00
   3  -4 -10    3.50    0.90
  -3   4  10    5.40    1.30
   3   4 -10    2.20    0.70
   2  -4 -10    2.10    0.80
  -2   4  10    1.60    0.90
   1  -4 -10   96.19    3.60
   1  -4 -10   85.49    3.20
  -1   4  10   88.59    3.70
   0  -4 -10    5.20    1.10
   0  -4 -10    5.50    1.10
   0   4  10    4.70    1.10
  -1  -4 -10   38.90    2.40
  -1  -4 -10   41.80    2.30
   1  -4  10   40.40    2.10
   1   4  10   41.00    2.50
   2  -4  10    1.10    0.80
  -2  -4 -10    1.20    0.80
  -2  -4 -10    0.60    0.80
   2   4  10    0.00    0.70
  -3  -4 -10    0.90    0.90
  -3  -4 -10    0.70    0.70
   3  -4  10   -0.20    0.80
   3   4  10    0.30    0.70
   4  -4  10    8.20    1.40
  -4  -4 -10    6.60    1.10
  -4  -4 -10   12.10    1.80
   4   4  10    6.60    1.40
   5  -4  10   -0.20    0.90
  -5  -4 -10    0.60    0.90
  -5  -4 -10    2.00    0.80
   5   4  10    0.90    0.90
   4  -5 -10   -0.10    0.80
  -4   5  10   -1.10    0.80
   3  -5 -10   -1.30    0.70
  -3   5  10   -0.40    0.80
   2  -5 -10    1.50    0.90
  -2   5  10    0.70    0.80
   1  -5 -10    2.20    0.90
  -1   5  10    1.60    0.90
   0  -5 -10    8.80    1.40
   0  -5 -10    6.10    1.30
   0   5  10    5.20    1.20
  -1  -5 -10   -0.10    0.70
  -1  -5 -10    0.50    0.80
   1   5  10   -0.50    0.70
  -2  -5 -10    0.40    0.80
  -2  -5 -10   -0.10    1.00
   2   5  10   -0.20    0.80
  -3  -5 -10    5.00    1.50
  -3  -5 -10    8.10    1.30
   3  -5  10    5.50    1.30
   3   5  10    7.00    1.40
   7   0 -11   34.40    2.30
  -6   0  11    0.40    0.70
   6   0 -11    0.20    0.70
   5   0 -11    0.00    0.70
  -5   0  11   -0.10    0.60
   4   0 -11   12.00    1.40
  -4   0  11   11.00    1.30
   3   0 -11   13.90    1.40
  -3   0  11   12.50    1.40
  -2   0  11    4.90    1.00
   2   0 -11    4.70    0.80
  -1   0  11   26.20    1.80
   1   0 -11   28.60    1.60
   1   0 -11   30.40    1.80
   0   0 -11    0.60    0.60
   0   0  11    0.00    0.70
   0   0 -11   -0.40    0.40
   1   0  11   12.70    1.50
  -1   0 -11   12.50    1.50
  -2   0 -11    9.10    1.30
   2   0  11   10.20    1.40
   3   0  11    1.40    0.90
  -3   0 -11    0.80    0.70
   4   0  11    2.60    1.00
  -4   0 -11    2.20    0.90
   5   0  11   13.40    1.90
  -5   0 -11   13.90    1.80
   6   0  11   27.70    2.60
  -6   0 -11   31.90    2.40
   6  -1 -11    6.40    1.20
   6   1 -11    9.00    1.40
  -6   1  11    5.10    1.10
   5  -1 -11    6.30    1.20
  -5   1  11    8.10    1.20
   5   1 -11    4.30    1.00
  -4  -1  11    5.00    0.90
   4  -1 -11    5.60    1.10
  -4   1  11    4.60    1.00
   4   1 -11    6.90    1.10
   3  -1 -11    0.60    0.60
  -3  -1  11    0.20    0.60
  -3   1  11   -0.90    0.60
   3   1 -11    1.00    0.70
   2  -1 -11   12.20    1.30
   2  -1 -11   12.40    1.30
  -2  -1  11   12.10    1.30
   2   1 -11   12.70    1.30
  -2   1  11   13.70    1.60
   1  -1 -11   13.60    1.40
   1  -1 -11   11.00    1.20
  -1  -1  11   12.80    1.40
   1   1 -11   11.40    1.10
  -1   1  11   14.20    1.60
   0  -1  11    2.30    0.80
   0  -1 -11    0.80    0.70
   0  -1 -11    2.10    0.70
   0   1  11    1.90    0.80
  -1  -1 -11   39.70    2.20
  -1  -1 -11   40.40    1.90
   1  -1  11   37.60    2.20
  -1   1 -11   41.60    2.30
   1   1  11   40.00    2.30
   2  -1  11   39.90    2.30
  -2  -1 -11   40.30    2.30
   2   1  11   42.90    2.40
  -2   1 -11   42.30    2.40
   3  -1  11    9.20    1.30
  -3  -1 -11    8.20    1.30
   3   1  11   10.50    1.40
  -3   1 -11    8.90    1.40
  -4  -1 -11   -0.80    0.70
   4  -1  11   -0.30    0.90
  -4   1 -11    1.00    0.70
   4   1  11    0.20    0.80
  -5  -1 -11    2.10    0.90
   5  -1  11    0.90    0.90
  -5   1 -11    0.50    0.80
   5   1  11    0.10    0.90
  -6  -1 -11    1.00    0.90
   6  -1  11    3.90    1.20
  -6   1 -11    0.90    0.90
   6   1  11    3.10    1.20
   6  -2 -11   -0.90    0.60
  -6   2  11    0.40    0.80
   6   2 -11    0.50    0.80
   5  -2 -11   11.60    1.60
  -5   2  11   11.30    1.50
   5   2 -11   14.90    1.60
   4  -2 -11    6.60    1.20
   4   2 -11    7.20    1.10
  -4   2  11    6.80    1.20
   3  -2 -11    2.80    0.90
  -3   2  11    5.10    1.20
   3   2 -11    3.80    0.90
  -2  -2  11    3.60    0.80
   2  -2 -11    3.00    0.90
   2  -2 -11    3.70    0.80
   2   2 -11    3.40    0.70
  -2   2  11    2.60    1.00
  -1  -2  11    2.50    0.80
   1  -2 -11    2.10    0.70
   1  -2 -11    1.90    0.70
  -1   2  11    1.20    0.80
   0  -2 -11    1.30    0.70
   0  -2 -11    1.50    0.60
   0  -2  11    0.90    0.60
   0   2  11    1.30    0.80
   1  -2  11   57.49    2.60
  -1  -2 -11   61.49    2.80
  -1  -2 -11   54.69    2.40
   1   2  11   64.49    3.00
   2  -2  11    0.50    0.70
  -2  -2 -11    0.70    0.70
  -2  -2 -11    0.30    0.50
   2   2  11    1.00    0.80
  -3  -2 -11    3.10    1.10
   3  -2  11    4.30    1.10
   3   2  11    2.30    0.90
   4  -2  11    5.20    1.30
  -4  -2 -11    5.00    1.30
   4   2  11    7.00    1.40
   5  -2  11   12.50    1.80
  -5  -2 -11    9.60    1.60
  -5   2 -11   10.40    1.70
   5   2  11    8.50    1.50
   5  -3 -11    4.50    1.10
  -5   3  11    2.70    1.00
   5   3 -11    2.90    0.90
   4  -3 -11   13.60    1.60
  -4   3  11   12.50    1.70
   4   3 -11   12.10    1.40
   3  -3 -11    0.50    0.70
   3   3 -11    0.80    0.60
  -3   3  11    0.70    0.80
   2  -3 -11    1.80    0.80
  -2   3  11    1.90    0.90
   1  -3 -11    2.30    0.80
   1  -3 -11    1.30    0.80
  -1   3  11    1.30    0.90
   0  -3 -11   19.20    1.80
   0  -3 -11   17.10    1.60
   0  -3  11   17.30    1.50
   0   3  11   20.10    2.10
   1  -3  11   33.20    2.00
  -1  -3 -11   36.90    2.20
  -1  -3 -11   35.90    2.00
   1   3  11   37.60    2.30
   2  -3  11    0.90    0.80
  -2  -3 -11    1.10    0.60
  -2  -3 -11    1.10    0.80
   2   3  11   -0.20    0.80
   3  -3  11   -1.70    0.70
  -3  -3 -11   -0.10    0.50
  -3  -3 -11    0.40    0.90
   3   3  11    0.20    0.70
  -4  -3 -11    0.50    0.80
   4  -3  11    1.60    0.90
   4   3  11    0.00    0.80
   4  -4 -11    2.20    0.90
   4   4 -11    2.00    0.80
  -4   4  11    2.50    1.00
   3  -4 -11    2.60    0.90
  -3   4  11    1.50    1.00
   2  -4 -11    1.50    0.90
  -2   4  11    0.80    0.90
   1  -4 -11    0.80    0.70
  -1   4  11    0.30    0.80
   0  -4 -11    0.70    0.70
   0  -4 -11    0.80    0.80
   0   4  11    1.70    1.00
  -1  -4 -11   23.20    1.80
  -1  -4 -11   20.00    2.00
   1   4  11   19.50    2.00
  -2  -4 -11    0.80    0.70
  -2  -4 -11    0.80    0.90
   2  -4  11    0.80    0.80
   2   4  11   -0.40    0.70
  -3  -4 -11   -0.30    0.50
   3  -4  11    1.00    0.80
  -3  -4 -11   -0.20    0.90
   3   4  11   -0.30    0.80
   1  -5 -11    0.10    0.80
  -1   5  11    0.90    1.00
   0  -5 -11   -0.70    0.70
   0  -5 -11   -0.30    0.80
   0   5  11    1.50    0.90
  -5   0  12   -0.10    0.60
   5   0 -12    0.00    0.70
  -4   0  12    3.00    0.90
   4   0 -12    3.40    1.00
  -3   0  12    0.30    0.60
   3   0 -12    0.10    0.70
   2   0 -12   -0.30    0.60
  -2   0  12    0.50    0.70
   1   0 -12    1.70    0.70
  -1   0  12    1.40    0.80
   0   0  12    2.40    0.90
   0   0 -12    2.10    0.90
  -1   0 -12   15.20    1.70
   1   0  12   14.30    1.70
   2   0  12   11.30    1.60
  -2   0 -12    8.30    1.40
   3   0  12    2.70    1.00
  -3   0 -12    1.10    0.80
   4   0  12   24.30    2.30
  -4   0 -12   23.10    2.00
   5  -1 -12    1.00    0.80
   5   1 -12    1.10    0.80
  -5   1  12    1.60    0.80
   4  -1 -12    0.10    0.60
  -4   1  12    1.20    0.80
   4   1 -12   -0.60    0.60
   3  -1 -12   22.90    1.70
  -3  -1  12   22.80    1.70
   3   1 -12   25.20    1.60
  -3   1  12   25.40    1.90
  -2  -1  12   16.10    1.60
   2  -1 -12   17.80    1.40
   2  -1 -12   18.60    1.50
   2   1 -12   16.30    1.50
  -2   1  12   16.70    1.80
   1  -1 -12   11.40    1.40
  -1  -1  12    9.30    1.30
  -1   1  12   13.50    1.60
   0  -1  12   39.30    2.20
   0  -1 -12   33.40    1.80
   0  -1 -12   34.60    2.10
   0   1  12   26.40    2.10
   1  -1  12    2.90    1.00
  -1  -1 -12    4.30    1.10
   1   1  12    4.20    1.10
  -2  -1 -12    2.60    1.00
   2  -1  12    3.50    1.00
   2   1  12    1.70    0.90
  -2   1 -12    0.10    0.80
   3  -1  12    3.80    1.20
  -3  -1 -12    2.60    1.00
  -3   1 -12    6.50    1.30
   3   1  12    2.20    1.10
   4  -1  12   10.80    1.60
  -4  -1 -12    9.40    1.60
  -4   1 -12    9.10    1.50
   4   1  12   10.30    1.60
   5  -2 -12    7.30    1.30
  -5   2  12    4.70    1.10
   5   2 -12    4.10    1.10
   4  -2 -12    0.80    0.80
  -4   2  12    1.30    0.80
   4   2 -12    1.60    0.70
   3  -2 -12    1.10    0.80
  -3   2  12    0.40    0.70
   3   2 -12    1.00    0.70
   2  -2 -12    2.30    0.80
  -2   2  12    3.20    1.10
   1  -2 -12   13.10    1.50
  -1  -2  12   13.20    1.50
   1  -2 -12   13.80    1.50
  -1   2  12   13.80    1.70
   0  -2  12    9.50    1.30
   0  -2 -12    7.20    1.10
   0  -2 -12    8.90    1.30
   0   2  12   11.00    1.60
  -1  -2 -12    0.10    0.60
   1  -2  12    1.10    0.80
  -1  -2 -12   -0.50    0.50
   1   2  12   -0.80    0.80
  -2  -2 -12    1.40    0.80
   2  -2  12   -0.10    0.70
   2   2  12   -0.20    0.70
   3  -2  12    2.80    1.00
  -3  -2 -12    7.40    1.50
   3   2  12    5.00    1.20
   4  -2  12   23.70    2.30
  -4  -2 -12   24.90    2.50
   4   2  12   23.90    2.40
   4  -3 -12    1.50    1.00
  -4   3  12    2.50    1.00
   4   3 -12    1.70    0.80
   3  -3 -12   13.80    1.70
  -3   3  12   15.20    1.90
   2  -3 -12    2.70    0.90
  -2   3  12    1.30    0.90
   1  -3 -12    1.00    0.90
   1  -3 -12    1.50    0.80
  -1   3  12    0.40    0.80
   0  -3 -12   49.20    2.60
   0  -3 -12   51.79    2.60
   0   3  12   53.89    3.00
  -1  -3 -12    9.70    1.30
  -1  -3 -12   13.50    1.70
   1  -3  12    9.90    1.30
   1   3  12    8.60    1.50
   2  -3  12    8.10    1.30
  -2  -3 -12    9.90    1.60
  -2  -3 -12    9.80    1.30
   2   3  12    6.10    1.40
   3  -3  12    0.40    0.80
  -3  -3 -12   -0.90    0.90
   3   3  12    0.20    0.80
   1  -4 -12    4.30    1.20
  -1   4  12    5.00    1.30
   0  -4 -12    1.20    0.90
   0  -4 -12    1.70    0.90
   0   4  12    2.30    1.10
  -3   0  13   26.50    2.00
   3   0 -13   27.00    1.90
  -2   0  13   21.30    1.80
   2   0 -13   17.00    1.60
  -1   0  13    2.50    1.00
   0   0  13    0.10    0.80
   0   0 -13    1.20    0.80
   1   0  13   17.70    1.90
  -1   0 -13   17.90    1.90
  -2   0 -13   15.70    1.90
   2   0  13   12.00    1.70
  -3  -1  13   10.10    1.40
   3  -1 -13   10.90    1.50
   3   1 -13   12.10    1.40
  -3   1  13   10.70    1.50
   2  -1 -13    9.60    1.30
  -2  -1  13   10.40    1.40
  -2   1  13   12.50    1.60
  -1  -1  13    0.70    0.80
   1  -1 -13    0.40    0.70
   1  -1 -13    0.60    0.70
  -1   1  13    0.30    0.70
   0  -1 -13    1.30    0.80
   0  -1  13    0.70    0.80
   0   1  13    0.70    0.80
   1  -1  13   18.30    1.90
  -1  -1 -13   16.80    1.90
   1   1  13   14.60    1.80
   2  -1  13    2.20    1.00
  -2  -1 -13    0.90    0.80
   2   1  13    1.10    0.90
   2  -2 -13    3.50    1.00
  -2   2  13    4.70    1.20
   1  -2 -13   16.30    1.70
   1  -2 -13   16.30    1.70
  -1  -2  13   10.40    1.40
  -1   2  13   16.50    1.90
   0  -2  13    6.60    1.20
   0  -2 -13    5.30    1.10
   0  -2 -13    6.60    1.30
   0   2  13    6.40    1.50
   1  -2  13    2.70    1.00
  -1  -2 -13    2.80    1.00
   1   2  13    1.60    1.00
;
_shelx_hkl_checksum              86567
_shelx_res_file
;
TITL alpha in P2(1)/m
    alpha.res
    created by SHELXL-2016/6 at 15:26:00 on 22-Jan-2017
CELL  0.71073   9.0447   6.8764  10.9021   90.000   92.959   90.000
ZERR    2.000   0.0012   0.0009   0.0014    0.000    0.002    0.000
LATT  1
SYMM -X, 1/2+Y, -Z
SFAC C H N O CL
UNIT 36 20 2 2 2
TEMP -23
L.S. 10
size 0.2 0.2 0.3 ! yellow block
eqiv $1 x-1, y, z
htab C8 O1_$1
eqiv $2 1-x, -y, -z
htab C15 O1_$2
htab C14 N1_$2
eqiv $3 1+x, y, z+1
htab C5 Cl1_$3
BOND $H
conf
EQIV $4 X, -Y+1/2, Z
MPLA C13 C14 C15 C14_$4 C15_$4 C16
mpla C1 C2 C3 C4 C5 C6 C7 C8 C9 C10 C11 C12
ACTA
WGHT    0.037000    0.275600
FVAR       0.71240
CL1   5   -0.054743    0.250000   -0.195932    10.50000    0.04868    0.13105 =
         0.04108    0.00000   -0.00691    0.00000
O1    4    0.753769    0.250000    0.290144    10.50000    0.03450    0.07931 =
         0.05061    0.00000    0.00527    0.00000
N1    3    0.493153    0.250000    0.126417    10.50000    0.04053    0.05797 =
         0.03420    0.00000    0.00251    0.00000
C1    1    0.485816    0.250000    0.242580    10.50000    0.03659    0.03757 =
         0.03570    0.00000    0.00258    0.00000
C2    1    0.629247    0.250000    0.325906    10.50000    0.03574    0.04079 =
         0.04198    0.00000    0.00068    0.00000
C3    1    0.581049    0.250000    0.453722    10.50000    0.03946    0.03381 =
         0.03637    0.00000   -0.00052    0.00000
C4    1    0.657088    0.250000    0.566065    10.50000    0.04305    0.04469 =
         0.04327    0.00000   -0.00844    0.00000
AFIX  43
H4    2    0.761142    0.250000    0.571881    10.50000   -1.20000
AFIX   0
C5    1    0.575019    0.250000    0.672157    10.50000    0.06132    0.04645 =
         0.03349    0.00000   -0.00881    0.00000
AFIX  43
H5    2    0.626114    0.250000    0.749460    10.50000   -1.20000
AFIX   0
C6    1    0.423033    0.250000    0.667019    10.50000    0.06114    0.04731 =
         0.03367    0.00000    0.00599    0.00000
AFIX  43
H6    2    0.372512    0.250000    0.740235    10.50000   -1.20000
AFIX   0
C7    1    0.185491    0.250000    0.531003    10.50000    0.04502    0.08106 =
         0.04417    0.00000    0.01304    0.00000
AFIX  43
H7    2    0.124153    0.250000    0.598029    10.50000   -1.20000
AFIX   0
C8    1    0.123232    0.250000    0.413534    10.50000    0.03501    0.08909 =
         0.05172    0.00000    0.00749    0.00000
AFIX  43
H8    2    0.019501    0.250000    0.402169    10.50000   -1.20000
AFIX   0
C9    1    0.209616    0.250000    0.308712    10.50000    0.03610    0.06188 =
         0.03829    0.00000   -0.00103    0.00000
AFIX  43
H9    2    0.164153    0.250000    0.229206    10.50000   -1.20000
AFIX   0
C10   1    0.361006    0.250000    0.325699    10.50000    0.03693    0.03738 =
         0.03401    0.00000    0.00247    0.00000
C11   1    0.424655    0.250000    0.447309    10.50000    0.03788    0.03115 =
         0.03505    0.00000    0.00046    0.00000
C12   1    0.341394    0.250000    0.552230    10.50000    0.04576    0.04243 =
         0.03775    0.00000    0.00564    0.00000
C13   1    0.360133    0.250000    0.050830    10.50000    0.03960    0.05226 =
         0.02804    0.00000    0.00724    0.00000
C14   1    0.298118    0.076215    0.009767    11.00000    0.04938    0.04802 =
         0.04652    0.00221    0.00339    0.00096
AFIX  43
H14   2    0.342774   -0.042208    0.033729    11.00000   -1.20000
AFIX   0
C15   1    0.170662    0.075728   -0.066416    11.00000    0.04992    0.05929 =
         0.04525   -0.01081    0.00378   -0.00730
AFIX  43
H15   2    0.127910   -0.042285   -0.093524    11.00000   -1.20000
AFIX   0
C16   1    0.107587    0.250000   -0.101816    10.50000    0.04008    0.07429 =
         0.02689    0.00000    0.00277    0.00000
HKLF 4
REM  alpha in P2(1)/m
REM R1 =  0.0390 for    1227 Fo > 4sig(Fo)  and  0.0487 for all    1496 data
REM    121 parameters refined using      0 restraints
END
WGHT      0.0373      0.2708
REM Highest difference peak  0.262,  deepest hole -0.375,  1-sigma level  0.037
Q1    1  -0.0132  0.1277 -0.2206  11.00000  0.05    0.26
Q2    1   0.6075  0.2500  0.3977  10.50000  0.05    0.20
Q3    1   0.5071  0.2500  0.4522  10.50000  0.05    0.20
Q4    1   0.4205  0.2500  0.2844  10.50000  0.05    0.18
Q5    1   0.3874  0.2500  0.4979  10.50000  0.05    0.15
Q6    1   0.6199  0.1973  0.5013  11.00000  0.05    0.15
Q7    1   0.1528  0.1657 -0.1192  11.00000  0.05    0.15
Q8    1   0.5527  0.2500  0.2842  10.50000  0.05    0.14
Q9    1   0.3602  0.1701  0.0050  11.00000  0.05    0.14
Q10   1   0.2844  0.1980  0.5421  11.00000  0.05    0.14
Q11   1   0.3888  0.2158  0.3827  11.00000  0.05    0.14
Q12   1   0.3042  0.1866  0.3136  11.00000  0.05    0.13
Q13   1   0.0432  0.2500 -0.1344  10.50000  0.05    0.11
Q14   1   0.2676  0.0754 -0.0621  11.00000  0.05    0.11
Q15   1   0.0371  0.2500 -0.2736  10.50000  0.05    0.10
Q16   1   0.1699  0.1864  0.3604  11.00000  0.05    0.10
Q17   1   0.5003  0.2026  0.6661  11.00000  0.05    0.10
Q18   1   0.3757  0.1964  0.6043  11.00000  0.05    0.10
Q19   1   0.0392  0.1312  0.4041  11.00000  0.05    0.09
Q20   1   0.4825  0.1738  0.1960  11.00000  0.05    0.09
;
_shelx_res_checksum              81907
loop_
_space_group_symop_operation_xyz
'x, y, z'
'-x, y+1/2, -z'
'-x, -y, -z'
'x, -y-1/2, z'
loop_
_atom_site_type_symbol
_atom_site_label
_atom_site_fract_x
_atom_site_fract_y
_atom_site_fract_z
_atom_site_U_iso_or_equiv
_atom_site_adp_type
_atom_site_calc_flag
_atom_site_occupancy
Cl Cl1 -0.05474(8) 0.250000 -0.19593(6) 0.0739(3) Uani d 1
O O1 0.75377(18) 0.250000 0.29014(16) 0.0547(5) Uani d 1
N N1 0.4932(2) 0.250000 0.12642(17) 0.0442(5) Uani d 1
C C1 0.4858(2) 0.250000 0.2426(2) 0.0366(5) Uani d 1
C C2 0.6292(2) 0.250000 0.3259(2) 0.0395(5) Uani d 1
C C3 0.5810(2) 0.250000 0.4537(2) 0.0366(5) Uani d 1
C C4 0.6571(3) 0.250000 0.5661(2) 0.0440(6) Uani d 1
H H4 0.761142 0.250000 0.571881 0.053 Uiso calc 1
C C5 0.5750(3) 0.250000 0.6722(2) 0.0475(6) Uani d 1
H H5 0.626114 0.250000 0.749460 0.057 Uiso calc 1
C C6 0.4230(3) 0.250000 0.6670(2) 0.0473(6) Uani d 1
H H6 0.372512 0.250000 0.740235 0.057 Uiso calc 1
C C7 0.1855(3) 0.250000 0.5310(2) 0.0564(7) Uani d 1
H H7 0.124153 0.250000 0.598029 0.068 Uiso calc 1
C C8 0.1232(3) 0.250000 0.4135(2) 0.0584(7) Uani d 1
H H8 0.019501 0.250000 0.402169 0.070 Uiso calc 1
C C9 0.2096(2) 0.250000 0.3087(2) 0.0455(6) Uani d 1
H H9 0.164153 0.250000 0.229206 0.055 Uiso calc 1
C C10 0.3610(2) 0.250000 0.32570(19) 0.0361(5) Uani d 1
C C11 0.4247(2) 0.250000 0.44731(19) 0.0347(5) Uani d 1
C C12 0.3414(3) 0.250000 0.5522(2) 0.0419(5) Uani d 1
C C13 0.3601(2) 0.250000 0.05083(19) 0.0398(5) Uani d 1
C C14 0.29812(19) 0.0762(3) 0.00977(15) 0.0479(4) Uani d 1
H H14 0.342774 -0.042208 0.033729 0.058 Uiso calc 1
C C15 0.17066(19) 0.0757(3) -0.06642(15) 0.0514(5) Uani d 1
H H15 0.127910 -0.042285 -0.093524 0.062 Uiso calc 1
C C16 0.1076(3) 0.250000 -0.1018(2) 0.0471(6) Uani d 1
loop_
_atom_site_aniso_label
_atom_site_aniso_U_11
_atom_site_aniso_U_22
_atom_site_aniso_U_33
_atom_site_aniso_U_12
_atom_site_aniso_U_13
_atom_site_aniso_U_23
Cl1 0.0487(4) 0.1311(8) 0.0411(4) 0.000 -0.0069(3) 0.000
O1 0.0345(9) 0.0793(13) 0.0506(10) 0.000 0.0053(7) 0.000
N1 0.0405(10) 0.0580(13) 0.0342(10) 0.000 0.0025(8) 0.000
C1 0.0366(11) 0.0376(12) 0.0357(12) 0.000 0.0026(9) 0.000
C2 0.0357(12) 0.0408(13) 0.0420(12) 0.000 0.0007(9) 0.000
C3 0.0395(12) 0.0338(11) 0.0364(11) 0.000 -0.0005(9) 0.000
C4 0.0430(13) 0.0447(14) 0.0433(13) 0.000 -0.0084(10) 0.000
C5 0.0613(16) 0.0465(14) 0.0335(12) 0.000 -0.0088(11) 0.000
C6 0.0611(16) 0.0473(14) 0.0337(12) 0.000 0.0060(11) 0.000
C7 0.0450(14) 0.081(2) 0.0442(14) 0.000 0.0130(11) 0.000
C8 0.0350(12) 0.089(2) 0.0517(15) 0.000 0.0075(11) 0.000
C9 0.0361(12) 0.0619(16) 0.0383(12) 0.000 -0.0010(9) 0.000
C10 0.0369(11) 0.0374(12) 0.0340(11) 0.000 0.0025(9) 0.000
C11 0.0379(11) 0.0312(11) 0.0350(11) 0.000 0.0005(9) 0.000
C12 0.0458(13) 0.0424(13) 0.0377(12) 0.000 0.0056(10) 0.000
C13 0.0396(12) 0.0523(14) 0.0280(10) 0.000 0.0072(9) 0.000
C14 0.0494(9) 0.0480(10) 0.0465(9) 0.0010(8) 0.0034(7) 0.0022(8)
C15 0.0499(10) 0.0593(12) 0.0452(9) -0.0073(9) 0.0038(8) -0.0108(9)
C16 0.0401(12) 0.0743(18) 0.0269(11) 0.000 0.0028(9) 0.000
loop_
_atom_type_symbol
_atom_type_description
_atom_type_scat_dispersion_real
_atom_type_scat_dispersion_imag
_atom_type_scat_source
C C 0.0033 0.0016 'International Tables Vol C Tables 4.2.6.8 and 6.1.1.4'
H H 0.0000 0.0000 'International Tables Vol C Tables 4.2.6.8 and 6.1.1.4'
N N 0.0061 0.0033 'International Tables Vol C Tables 4.2.6.8 and 6.1.1.4'
O O 0.0106 0.0060 'International Tables Vol C Tables 4.2.6.8 and 6.1.1.4'
Cl Cl 0.1484 0.1585 'International Tables Vol C Tables 4.2.6.8 and 6.1.1.4'
loop_
_geom_angle_atom_site_label_1
_geom_angle_atom_site_label_2
_geom_angle_atom_site_label_3
_geom_angle_site_symmetry_1
_geom_angle_site_symmetry_3
_geom_angle
C1 N1 C13 . . 119.39(19)
N1 C1 C10 . . 133.5(2)
N1 C1 C2 . . 120.02(19)
C10 C1 C2 . . 106.45(17)
O1 C2 C3 . . 128.8(2)
O1 C2 C1 . . 125.3(2)
C3 C2 C1 . . 105.91(18)
C4 C3 C11 . . 119.9(2)
C4 C3 C2 . . 132.9(2)
C11 C3 C2 . . 107.22(19)
C3 C4 C5 . . 118.2(2)
C3 C4 H4 . . 120.9
C5 C4 H4 . . 120.9
C6 C5 C4 . . 122.4(2)
C6 C5 H5 . . 118.8
C4 C5 H5 . . 118.8
C5 C6 C12 . . 120.7(2)
C5 C6 H6 . . 119.7
C12 C6 H6 . . 119.7
C8 C7 C12 . . 120.6(2)
C8 C7 H7 . . 119.7
C12 C7 H7 . . 119.7
C7 C8 C9 . . 122.4(2)
C7 C8 H8 . . 118.8
C9 C8 H8 . . 118.8
C10 C9 C8 . . 118.6(2)
C10 C9 H9 . . 120.7
C8 C9 H9 . . 120.7
C9 C10 C11 . . 118.7(2)
C9 C10 C1 . . 134.7(2)
C11 C10 C1 . . 106.63(18)
C12 C11 C3 . . 122.6(2)
C12 C11 C10 . . 123.6(2)
C3 C11 C10 . . 113.79(19)
C11 C12 C7 . . 116.0(2)
C11 C12 C6 . . 116.3(2)
C7 C12 C6 . . 127.7(2)
C14 C13 C14 . 4_565 119.3(2)
C14 C13 N1 . . 120.24(11)
C14 C13 N1 4_565 . 120.24(11)
C13 C14 C15 . . 120.43(18)
C13 C14 H14 . . 119.8
C15 C14 H14 . . 119.8
C16 C15 C14 . . 119.13(18)
C16 C15 H15 . . 120.4
C14 C15 H15 . . 120.4
C15 C16 C15 4_565 . 121.4(2)
C15 C16 Cl1 4_565 . 119.28(11)
C15 C16 Cl1 . . 119.28(11)
loop_
_geom_bond_atom_site_label_1
_geom_bond_atom_site_label_2
_geom_bond_site_symmetry_2
_geom_bond_distance
Cl1 C16 . 1.747(2)
O1 C2 . 1.211(3)
N1 C1 . 1.272(3)
N1 C13 . 1.423(3)
C1 C10 . 1.484(3)
C1 C2 . 1.545(3)
C2 C3 . 1.481(3)
C3 C4 . 1.373(3)
C3 C11 . 1.413(3)
C4 C5 . 1.406(3)
C4 H4 . 0.9400
C5 C6 . 1.373(4)
C5 H5 . 0.9400
C6 C12 . 1.420(3)
C6 H6 . 0.9400
C7 C8 . 1.372(4)
C7 C12 . 1.417(3)
C7 H7 . 0.9400
C8 C9 . 1.417(3)
C8 H8 . 0.9400
C9 C10 . 1.372(3)
C9 H9 . 0.9400
C10 C11 . 1.418(3)
C11 C12 . 1.402(3)
C13 C14 . 1.385(2)
C13 C14 4_565 1.385(2)
C14 C15 . 1.386(2)
C14 H14 . 0.9400
C15 C16 . 1.374(2)
C15 H15 . 0.9400
loop_
_geom_hbond_atom_site_label_D
_geom_hbond_atom_site_label_H
_geom_hbond_atom_site_label_A
_geom_hbond_site_symmetry_A
_geom_hbond_distance_DH
_geom_hbond_distance_HA
_geom_hbond_distance_DA
_geom_hbond_angle_DHA
C6 H6 Cg 1_656 0.94 2.86 3.803(2) 177
C9 H9 Cg 1_555 0.94 2.88 3.668(11) 128
loop_
_geom_torsion_atom_site_label_1
_geom_torsion_atom_site_label_2
_geom_torsion_atom_site_label_3
_geom_torsion_atom_site_label_4
_geom_torsion_site_symmetry_1
_geom_torsion_site_symmetry_4
_geom_torsion
C13 N1 C1 C10 . . 0.000000
C13 N1 C1 C2 . . 180.000000
N1 C1 C2 O1 . . 0.000000
C10 C1 C2 O1 . . 180.000000
N1 C1 C2 C3 . . 180.000000
C10 C1 C2 C3 . . 0.000000
O1 C2 C3 C4 . . 0.0000(10)
C1 C2 C3 C4 . . 180.000000
O1 C2 C3 C11 . . 180.000000
C1 C2 C3 C11 . . 0.000000
C11 C3 C4 C5 . . 0.0000(10)
C2 C3 C4 C5 . . 180.0000(10)
C3 C4 C5 C6 . . 0.0000(10)
C4 C5 C6 C12 . . 0.0000(10)
C12 C7 C8 C9 . . 0.0000(10)
C7 C8 C9 C10 . . 0.000000
C8 C9 C10 C11 . . 0.000000
C8 C9 C10 C1 . . 180.000000
N1 C1 C10 C9 . . 0.000000
C2 C1 C10 C9 . . 180.000000
N1 C1 C10 C11 . . 180.000000
C2 C1 C10 C11 . . 0.000000
C4 C3 C11 C12 . . 0.0000(10)
C2 C3 C11 C12 . . 180.000000
C4 C3 C11 C10 . . 180.000000
C2 C3 C11 C10 . . 0.000000
C9 C10 C11 C12 . . 0.000000
C1 C10 C11 C12 . . 180.000000
C9 C10 C11 C3 . . 180.000000
C1 C10 C11 C3 . . 0.000000
C3 C11 C12 C7 . . 180.000000
C10 C11 C12 C7 . . 0.0000(10)
C3 C11 C12 C6 . . 0.0000(10)
C10 C11 C12 C6 . . 180.000000
C8 C7 C12 C11 . . 0.0000(10)
C8 C7 C12 C6 . . 180.0000(10)
C5 C6 C12 C11 . . 0.0000(10)
C5 C6 C12 C7 . . 180.0000(10)
C1 N1 C13 C14 . . -92.57(18)
C1 N1 C13 C14 . 4_565 92.57(18)
C14 C13 C14 C15 4_565 . -3.4(3)
N1 C13 C14 C15 . . -178.35(17)
C13 C14 C15 C16 . . 0.7(3)
C14 C15 C16 C15 . 4_565 2.0(3)
C14 C15 C16 Cl1 . . -179.01(14)

_cod_database_fobs_code 2242263
