#------------------------------------------------------------------------------
#$Date: 2018-03-10 10:13:04 +0200 (Sat, 10 Mar 2018) $
#$Revision: 206892 $
#$URL: file:///home/coder/svn-repositories/cod/cif/2/24/24/2242423.cif $
#------------------------------------------------------------------------------
#
# This file is available in the Crystallography Open Database (COD),
# http://www.crystallography.net/. The original data for this entry
# were provided by IUCr Journals, http://journals.iucr.org/.
#
# The file may be used within the scientific community so long as
# proper attribution is given to the journal article from which the
# data were obtained.
#
data_2242423
loop_
_publ_author_name
'Giles, Ian D.'
'DeHope, Alan J.'
'Zuckerman, Nathaniel B.'
'Parrish, Damon A.'
'Pagoria, Philip F.'
_publ_section_title
;
 Effect of counter-ion on packing and crystal density of
 5,5'-(3,3'-bi[1,2,4-oxadiazole]-5,5'-diyl)bis(1<i>H</i>-tetrazol-1-olate)
 with five different cations
;
_journal_coeditor_code           PK2606
_journal_issue                   4
_journal_name_full               'Acta Crystallographica Section E'
_journal_page_first              505
_journal_page_last               513
_journal_paper_doi               10.1107/S205698901800364X
_journal_volume                  74
_journal_year                    2018
_chemical_formula_iupac          '2C2 H8 N1 +, C6 N12 O4 2-'
_chemical_formula_moiety         '2(C2 H8 N1 +), C6 N12 O4 2-'
_chemical_formula_sum            'C10 H16 N14 O4'
_chemical_formula_weight         396.37
_chemical_name_systematic
;
Dimethylammonium
5,5'-(3,3'-bi[1,2,4-oxadiazole]-5,5'-diyl)bis(1<i>H</i>-tetrazol-1-olate)
;
_space_group_crystal_system      triclinic
_space_group_IT_number           2
_space_group_name_Hall           '-P 1'
_space_group_name_H-M_alt        'P -1'
_symmetry_space_group_name_Hall  '-P 1'
_symmetry_space_group_name_H-M   'P -1'
_atom_sites_solution_hydrogens   geom
_audit_creation_method           SHELXL-2016/6
_cell_angle_alpha                68.259(3)
_cell_angle_beta                 75.957(3)
_cell_angle_gamma                74.816(3)
_cell_formula_units_Z            1
_cell_length_a                   6.0946(6)
_cell_length_b                   8.5197(8)
_cell_length_c                   9.2814(9)
_cell_measurement_reflns_used    1925
_cell_measurement_temperature    150(2)
_cell_measurement_theta_max      52.56
_cell_measurement_theta_min      4.8
_cell_volume                     426.28(7)
_computing_cell_refinement
;
APEX2 (Bruker, 2010)
;
_computing_data_collection
;
APEX2 (Bruker, 2010)
;
_computing_data_reduction
;
SAINT (Bruker, 2014) and XPREP (Bruker, 2014)
;
_computing_molecular_graphics
;
SHELXTL (Sheldrick, 2008)
;
_computing_publication_material
;
SHELXTL (Sheldrick, 2008)
;
_computing_structure_refinement
;
SHELXL2016 (Sheldrick, 2015)
;
_computing_structure_solution
;
SHELXTL (Sheldrick, 2008)
;
_diffrn_ambient_temperature      150(2)
_diffrn_measured_fraction_theta_full 0.993
_diffrn_measured_fraction_theta_max 0.991
_diffrn_measurement_device_type  'Bruker SMART APEXII CCD'
_diffrn_measurement_method       '\w scans'
_diffrn_radiation_type           MoK\a
_diffrn_radiation_wavelength     0.71073
_diffrn_reflns_av_R_equivalents  0.0180
_diffrn_reflns_limit_h_max       7
_diffrn_reflns_limit_h_min       -7
_diffrn_reflns_limit_k_max       9
_diffrn_reflns_limit_k_min       -10
_diffrn_reflns_limit_l_max       11
_diffrn_reflns_limit_l_min       -11
_diffrn_reflns_number            4131
_diffrn_reflns_theta_full        25.242
_diffrn_reflns_theta_max         26.365
_diffrn_reflns_theta_min         2.394
_exptl_absorpt_coefficient_mu    0.124
_exptl_absorpt_correction_T_max  0.9950
_exptl_absorpt_correction_T_min  0.9780
_exptl_absorpt_correction_type   multi-scan
_exptl_absorpt_process_details
;
(SADABS; Bruker, 2014)
;
_exptl_crystal_colour            yellow
_exptl_crystal_density_diffrn    1.544
_exptl_crystal_description       plate
_exptl_crystal_F_000             206
_exptl_crystal_size_max          0.180
_exptl_crystal_size_mid          0.120
_exptl_crystal_size_min          0.040
_refine_diff_density_max         0.271
_refine_diff_density_min         -0.235
_refine_ls_extinction_method     none
_refine_ls_goodness_of_fit_ref   1.044
_refine_ls_hydrogen_treatment    constr
_refine_ls_matrix_type           full
_refine_ls_number_parameters     129
_refine_ls_number_reflns         1737
_refine_ls_number_restraints     0
_refine_ls_restrained_S_all      1.044
_refine_ls_R_factor_all          0.0380
_refine_ls_R_factor_gt           0.0319
_refine_ls_shift/su_max          0.000
_refine_ls_shift/su_mean         0.000
_refine_ls_structure_factor_coef Fsqd
_refine_ls_weighting_details
'w=1/[\s^2^(Fo^2^)+(0.0432P)^2^+0.1053P] where P=(Fo^2^+2Fc^2^)/3'
_refine_ls_weighting_scheme      calc
_refine_ls_wR_factor_gt          0.0803
_refine_ls_wR_factor_ref         0.0848
_reflns_number_gt                1490
_reflns_number_total             1737
_reflns_threshold_expression     'I > 2\s(I)'
_cod_data_source_file            pk2606sup1.cif
_cod_data_source_block           3
_cod_database_code               2242423
_shelx_space_group_comment
;
The symmetry employed for this shelxl refinement is uniquely defined
by the following loop, which should always be used as a source of
symmetry information in preference to the above space-group names.
They are only intended as comments.
;
_shelx_estimated_absorpt_t_min   0.978
_shelx_estimated_absorpt_t_max   0.995
_shelx_hkl_file
;
  -1   0   0   42.44    0.63
   1   0   0   43.47    0.60
  -2   0   0   20.89    0.37
   2   0   0   20.96    0.30
   2   0   0   20.51    0.35
  -3   0   0    9.13    0.23
   3   0   0    8.88    0.15
   3   0   0    8.88    0.21
  -4   0   0   22.15    0.47
   4   0   0   21.96    0.44
  -5   0   0    3.90    0.19
   5   0   0    3.76    0.17
  -6   0   0    6.44    0.27
   6   0   0    6.18    0.24
  -7   0   0    0.76    0.12
   7   0   0    0.86    0.12
   7  -1   0    1.89    0.17
  -7   1   0    1.90    0.19
   6  -1   0    0.65    0.10
  -6   1   0    0.68    0.11
   5  -1   0    7.67    0.25
  -5   1   0    8.01    0.28
   4  -1   0    8.48    0.24
  -4   1   0    8.77    0.27
   3  -1   0    0.00    0.02
  -3   1   0    0.00    0.03
   2  -1   0   19.32    0.34
  -2   1   0   19.27    0.36
   1  -1   0   73.94    1.03
   1  -1   0   77.15    1.04
  -1   1   0   75.06    1.09
  -1   1   0   75.67    1.04
   0  -1   0  162.19    2.27
   0  -1   0  158.55    2.18
   0  -1   0  158.99    2.25
   0  -1   0  161.39    2.28
   0   1   0  165.09    2.29
   0   1   0  165.88    2.29
  -1  -1   0    0.29    0.03
  -1  -1   0    0.22    0.03
  -1  -1   0    0.23    0.03
  -1  -1   0    0.24    0.03
   1   1   0    0.21    0.03
   1   1   0    0.26    0.02
  -2  -1   0   11.80    0.24
   2   1   0   12.11    0.18
   2   1   0   11.85    0.23
  -3  -1   0   25.49    0.47
   3   1   0   25.94    0.45
  -4  -1   0   17.53    0.39
   4   1   0   17.35    0.37
  -5  -1   0    0.26    0.06
   5   1   0    0.20    0.05
  -6  -1   0    4.31    0.19
  -6  -1   0    4.48    0.22
  -6  -1   0    4.24    0.18
  -6  -1   0    4.06    0.20
   6   1   0    4.22    0.19
  -7  -1   0    0.21    0.07
  -7  -1   0    0.12    0.06
  -7  -1   0    0.09    0.05
  -7  -1   0    0.04    0.05
   7   1   0    0.12    0.05
   6  -2   0    8.79    0.30
  -6   2   0    8.77    0.34
   5  -2   0    5.99    0.22
  -5   2   0    6.52    0.26
   4  -2   0    1.85    0.11
  -4   2   0    2.04    0.13
   3  -2   0    1.92    0.10
  -3   2   0    1.52    0.10
   2  -2   0    9.77    0.18
   2  -2   0    9.44    0.22
  -2   2   0    9.69    0.23
  -2   2   0    9.82    0.20
   1  -2   0    6.14    0.12
   1  -2   0    6.37    0.15
  -1   2   0    5.96    0.14
  -1   2   0    6.25    0.15
   0  -2   0   79.60    1.10
   0  -2   0   78.99    1.06
   0  -2   0   79.03    1.10
   0   2   0   79.11    1.12
   0   2   0   80.18    1.13
  -1  -2   0    1.50    0.06
  -1  -2   0    1.52    0.04
   1   2   0    1.58    0.06
  -2  -2   0   43.81    0.65
  -2  -2   0   43.80    0.67
  -2  -2   0   43.79    0.70
  -2  -2   0   43.66    0.66
   2   2   0   43.93    0.67
   2   2   0   45.06    0.64
  -3  -2   0   16.47    0.32
  -3  -2   0   16.03    0.32
  -3  -2   0   16.02    0.33
   3   2   0   16.40    0.26
  -4  -2   0   24.92    0.49
  -4  -2   0   24.50    0.46
  -4  -2   0   25.77    0.48
  -4  -2   0   25.19    0.51
   4   2   0   25.29    0.48
  -5  -2   0    4.38    0.19
  -5  -2   0    4.26    0.17
  -5  -2   0    4.44    0.18
  -5  -2   0    4.26    0.18
   5   2   0    4.31    0.18
  -6  -2   0    1.13    0.12
  -6  -2   0    1.49    0.14
  -6  -2   0    1.45    0.14
  -6  -2   0    1.12    0.12
   6   2   0    1.29    0.13
  -7  -2   0    0.43    0.08
  -7  -2   0    0.46    0.10
  -7  -2   0    0.33    0.08
  -7  -2   0    0.32    0.08
   6  -3   0    4.48    0.21
  -6   3   0    4.53    0.24
   5  -3   0    0.35    0.07
  -5   3   0    0.32    0.08
   4  -3   0    1.50    0.11
  -4   3   0    1.58    0.14
   3  -3   0    7.40    0.22
  -3   3   0    7.40    0.23
   2  -3   0   37.96    0.57
   2  -3   0   39.01    0.64
  -2   3   0   38.00    0.62
  -2   3   0   38.63    0.66
   1  -3   0    2.63    0.10
   1  -3   0    2.62    0.08
  -1   3   0    2.45    0.10
  -1   3   0    2.46    0.09
   0  -3   0    5.49    0.14
   0  -3   0    5.42    0.14
   0  -3   0    5.32    0.12
   0   3   0    5.50    0.11
   0   3   0    5.53    0.15
  -1  -3   0    0.62    0.05
   1   3   0    0.51    0.05
  -2  -3   0    0.14    0.03
  -2  -3   0    0.20    0.03
   2   3   0    0.19    0.03
  -3  -3   0    6.92    0.19
  -3  -3   0    6.60    0.17
  -3  -3   0    7.05    0.20
   3   3   0    7.21    0.16
   3   3   0    6.95    0.19
  -4  -3   0    2.87    0.14
  -4  -3   0    2.68    0.13
  -4  -3   0    3.03    0.13
  -4  -3   0    2.73    0.12
   4   3   0    2.93    0.13
  -5  -3   0    1.18    0.11
  -5  -3   0    0.98    0.11
  -5  -3   0    1.21    0.11
  -5  -3   0    1.27    0.10
   5   3   0    1.09    0.11
  -6  -3   0    0.00    0.04
  -6  -3   0   -0.01    0.04
  -6  -3   0   -0.03    0.04
  -6  -3   0   -0.02    0.04
   6   3   0    0.00    0.04
  -7  -3   0    0.94    0.12
  -7  -3   0    0.97    0.12
  -7  -3   0    0.98    0.13
   7   3   0    0.94    0.12
   6  -4   0   -0.02    0.04
  -6   4   0    0.08    0.07
   5  -4   0    0.06    0.05
  -5   4   0    0.04    0.05
   4  -4   0    1.08    0.11
  -4   4   0    1.17    0.13
   3  -4   0    6.07    0.21
   3  -4   0    6.61    0.16
  -3   4   0    6.24    0.22
   2  -4   0    0.99    0.09
   2  -4   0    1.00    0.06
  -2   4   0    0.94    0.08
  -2   4   0    0.90    0.08
   1  -4   0   37.23    0.55
   1  -4   0   36.91    0.62
  -1   4   0   36.66    0.60
  -1   4   0   36.35    0.63
   0  -4   0    0.34    0.05
   0  -4   0    0.32    0.04
   0  -4   0    0.31    0.05
   0   4   0    0.31    0.05
   0   4   0    0.30    0.03
  -1  -4   0   26.06    0.44
   1   4   0   26.77    0.47
  -2  -4   0   17.56    0.35
  -2  -4   0   17.47    0.28
   2   4   0   17.88    0.34
  -3  -4   0    3.33    0.14
  -3  -4   0    3.38    0.11
   3   4   0    3.51    0.12
  -4  -4   0    9.34    0.23
  -4  -4   0    9.20    0.27
  -5  -4   0   22.56    0.47
  -5  -4   0   21.51    0.49
   5   4   0   22.51    0.49
  -6  -4   0    1.75    0.13
  -6  -4   0    1.25    0.13
   6   4   0    1.10    0.12
  -7  -4   0    1.32    0.14
   7   4   0    1.14    0.13
   5  -5   0    0.17    0.07
  -5   5   0    0.19    0.07
   4  -5   0    0.10    0.05
  -4   5   0    0.09    0.05
   3  -5   0    2.81    0.15
  -3   5   0    3.34    0.16
   2  -5   0    5.83    0.20
   2  -5   0    5.85    0.15
  -2   5   0    5.67    0.19
  -2   5   0    6.12    0.20
   1  -5   0   15.01    0.34
   1  -5   0   14.96    0.28
  -1   5   0   15.42    0.35
  -1   5   0   14.48    0.30
   0  -5   0    0.93    0.08
   0  -5   0    1.11    0.07
   0   5   0    1.04    0.05
   0   5   0    1.12    0.08
  -1  -5   0   31.66    0.53
   1   5   0   31.19    0.57
  -2  -5   0   -0.03    0.02
   2   5   0   -0.02    0.02
  -3  -5   0    0.02    0.03
   3   5   0   -0.02    0.02
  -4  -5   0    6.01    0.22
   4   5   0    5.85    0.17
  -5  -5   0    1.18    0.13
  -6  -5   0    0.02    0.05
   4  -6   0    3.10    0.18
  -4   6   0    2.41    0.16
   3  -6   0   13.57    0.37
  -3   6   0   13.73    0.37
   2  -6   0    6.80    0.23
  -2   6   0    6.70    0.24
  -2   6   0    6.96    0.22
   1  -6   0    4.63    0.18
   1  -6   0    4.76    0.14
  -1   6   0    4.81    0.15
  -1   6   0    4.40    0.19
   0  -6   0    0.13    0.04
   0  -6   0    0.17    0.05
   0   6   0    0.22    0.05
  -1  -6   0    0.09    0.04
  -1  -6   0   -0.02    0.02
  -1  -6   0    0.06    0.03
   1   6   0    0.03    0.03
  -2  -6   0    4.48    0.16
   2   6   0    4.64    0.18
  -3  -6   0   10.98    0.30
   3   6   0   11.68    0.29
  -4  -6   0    0.00    0.03
   4   6   0    0.02    0.03
  -5  -6   0    0.00    0.04
  -6  -6   0   -0.01    0.04
   4  -7   0    3.42    0.20
  -4   7   0    3.34    0.19
   3  -7   0    2.10    0.15
   2  -7   0    4.92    0.21
   1  -7   0    7.49    0.26
  -1   7   0    7.88    0.27
   0  -7   0    1.34    0.12
   0  -7   0    1.07    0.09
   0   7   0    1.39    0.13
  -1  -7   0    6.73    0.23
  -1  -7   0    6.63    0.23
  -1  -7   0    6.78    0.21
   1   7   0    7.00    0.25
  -2  -7   0   31.44    0.58
   2   7   0   30.52    0.62
  -3  -7   0    0.79    0.10
   3   7   0    0.70    0.09
  -4  -7   0    0.16    0.06
   4   7   0    0.31    0.06
  -5  -7   0    3.08    0.18
  -6  -7   0    0.00    0.05
   3  -8   0    0.58    0.10
   2  -8   0    2.15    0.15
   1  -8   0    0.22    0.07
  -1   8   0    0.25    0.07
   0  -8   0    1.97    0.13
   0  -8   0    2.03    0.11
   0   8   0    2.01    0.14
  -1  -8   0    6.75    0.24
  -1  -8   0    6.48    0.24
   1   8   0    6.30    0.25
  -2  -8   0   13.74    0.35
   2   8   0   12.85    0.38
  -3  -8   0    2.75    0.15
   3   8   0    2.51    0.15
  -4  -8   0    0.07    0.05
   4   8   0    0.04    0.04
  -5  -8   0    0.00    0.04
   1  -9   0    0.40    0.08
   0  -9   0    0.53    0.09
   0   9   0    0.56    0.10
  -1  -9   0    1.05    0.12
  -1  -9   0    1.01    0.10
   1   9   0    0.98    0.12
  -2  -9   0    0.10    0.05
  -2  -9   0    0.05    0.04
  -2  -9   0    0.01    0.04
   2   9   0    0.08    0.06
  -3  -9   0    0.01    0.04
   3   9   0   -0.01    0.04
  -4  -9   0    0.45    0.09
   4   9   0    0.64    0.10
   3   9  -1    0.03    0.04
  -3  -9   1    0.03    0.04
   2   9  -1    0.99    0.13
  -2  -9   1    1.53    0.15
  -2  -9   1    1.30    0.14
   1   9  -1   -0.04    0.04
  -1  -9   1    0.04    0.04
  -1  -9   1    0.01    0.04
   0   9  -1    0.06    0.05
   0  -9   1    0.08    0.06
  -1   9  -1    1.17    0.14
   1  -9   1    1.23    0.14
   4   8  -1    0.12    0.05
  -4  -8   1    0.20    0.06
   3   8  -1    0.08    0.05
  -3  -8   1    0.08    0.04
   2   8  -1    0.48    0.08
  -2  -8   1    0.36    0.07
   1   8  -1    0.20    0.06
  -1  -8   1    0.19    0.05
  -1  -8   1    0.17    0.05
  -1  -8   1    0.15    0.05
   0   8  -1    1.14    0.13
   0  -8   1    1.24    0.13
   0  -8   1    1.49    0.10
  -1   8  -1    0.43    0.08
   1  -8   1    0.31    0.07
  -2   8  -1    0.05    0.05
   2  -8   1    0.00    0.04
  -5  -7   1    0.06    0.05
   4   7  -1    5.30    0.21
  -4  -7   1    5.30    0.23
   3   7  -1    0.12    0.05
  -3  -7   1    0.04    0.04
   2   7  -1    0.12    0.05
  -2  -7   1    0.05    0.04
   1   7  -1    0.02    0.03
  -1  -7   1   -0.01    0.03
  -1  -7   1    0.03    0.04
  -1  -7   1   -0.05    0.03
   0   7  -1   26.56    0.59
   0  -7   1   28.22    0.51
   0  -7   1   26.36    0.55
  -1   7  -1    4.74    0.21
   1  -7   1    4.80    0.17
   1  -7   1    4.18    0.19
  -2   7  -1    1.59    0.15
   2  -7   1    1.90    0.13
   3  -7   1    1.33    0.14
  -6  -6   1    0.97    0.13
  -5  -6   1    6.75    0.27
  -4  -6   1    3.56    0.18
   3   6  -1    0.00    0.03
  -3  -6   1    0.05    0.04
   2   6  -1   16.47    0.39
  -2  -6   1   17.05    0.38
   1   6  -1    4.74    0.19
  -1  -6   1    4.84    0.17
   0   6  -1   13.00    0.35
   0  -6   1   14.08    0.30
   0  -6   1   13.41    0.33
  -1   6  -1    0.82    0.10
   1  -6   1    0.73    0.07
   1  -6   1    0.83    0.09
  -2   6  -1    0.25    0.05
  -2   6  -1    0.34    0.07
   2  -6   1    0.29    0.06
   2  -6   1    0.37    0.05
  -3   6  -1    3.13    0.16
  -3   6  -1    3.37    0.17
   3  -6   1    3.29    0.17
  -4   6  -1   13.54    0.40
   4  -6   1   13.66    0.39
  -6  -5   1   23.39    0.57
  -5  -5   1   11.48    0.35
   4   5  -1    0.35    0.05
  -4  -5   1    0.31    0.06
   3   5  -1    0.27    0.05
  -3  -5   1    0.33    0.06
   2   5  -1    3.32    0.14
  -2  -5   1    3.38    0.14
   1   5  -1   22.62    0.45
  -1  -5   1   21.75    0.42
   0   5  -1    0.69    0.04
   0   5  -1    0.54    0.07
   0  -5   1    0.69    0.07
   0  -5   1    0.73    0.08
   0  -5   1    0.69    0.07
  -1   5  -1   13.15    0.27
  -1   5  -1   13.11    0.33
   1  -5   1   13.23    0.28
   1  -5   1   13.33    0.31
  -2   5  -1    0.16    0.05
  -2   5  -1    0.21    0.05
   2  -5   1    0.15    0.04
   2  -5   1    0.20    0.05
  -3   5  -1    0.07    0.05
  -3   5  -1    0.11    0.04
   3  -5   1    0.09    0.03
   3  -5   1    0.08    0.05
  -4   5  -1   13.83    0.39
   4  -5   1   13.35    0.37
  -5   5  -1    0.03    0.05
   5  -5   1    0.01    0.05
   6   4  -1    4.28    0.21
  -6  -4   1    4.28    0.21
   5   4  -1    5.84    0.22
  -5  -4   1    6.19    0.24
   4   4  -1    0.81    0.07
  -4  -4   1    0.75    0.07
  -4  -4   1    0.81    0.09
   3   4  -1   13.82    0.29
  -3  -4   1   14.08    0.26
  -3  -4   1   14.19    0.33
   2   4  -1   22.21    0.41
  -2  -4   1   21.83    0.42
   1   4  -1   47.09    0.76
  -1  -4   1   46.55    0.73
   0   4  -1    7.38    0.20
   0   4  -1    7.43    0.14
   0  -4   1    7.25    0.19
   0  -4   1    7.56    0.18
   0  -4   1    7.27    0.19
  -1   4  -1    0.70    0.05
  -1   4  -1    0.67    0.07
   1  -4   1    0.63    0.06
   1  -4   1    0.62    0.07
  -2   4  -1    5.70    0.18
  -2   4  -1    5.66    0.18
   2  -4   1    5.86    0.16
   2  -4   1    5.43    0.18
  -3   4  -1    2.49    0.13
  -3   4  -1    2.54    0.12
   3  -4   1    2.40    0.11
   3  -4   1    2.53    0.13
  -4   4  -1    1.04    0.12
   4  -4   1    1.11    0.11
  -5   4  -1    2.61    0.18
   5  -4   1    2.48    0.15
  -6   4  -1    0.09    0.07
   6  -4   1    0.28    0.07
   7   3  -1    0.31    0.08
  -7  -3   1    0.31    0.08
  -7  -3   1    0.42    0.09
   6   3  -1    5.18    0.23
  -6  -3   1    5.50    0.22
  -6  -3   1    5.36    0.23
   5   3  -1    1.15    0.11
  -5  -3   1    1.09    0.10
  -5  -3   1    1.19    0.12
   4   3  -1    5.25    0.19
   4   3  -1    5.36    0.14
  -4  -3   1    5.01    0.17
  -4  -3   1    5.07    0.19
   3   3  -1    0.09    0.03
   3   3  -1    0.07    0.03
  -3  -3   1    0.04    0.02
  -3  -3   1    0.06    0.03
   2   3  -1   49.91    0.75
  -2  -3   1   48.35    0.71
  -2  -3   1   47.49    0.75
   1   3  -1   12.81    0.26
  -1  -3   1   12.59    0.25
   0   3  -1   15.99    0.31
   0   3  -1   15.91    0.25
   0  -3   1   15.67    0.28
   0  -3   1   15.96    0.29
   0  -3   1   15.68    0.29
  -1   3  -1    3.11    0.10
  -1   3  -1    3.04    0.11
   1  -3   1    2.97    0.10
   1  -3   1    3.18    0.11
  -2   3  -1    1.56    0.08
  -2   3  -1    1.56    0.09
   2  -3   1    1.44    0.07
   2  -3   1    1.63    0.09
  -3   3  -1    0.70    0.07
  -3   3  -1    0.37    0.06
   3  -3   1    0.44    0.06
   3  -3   1    0.32    0.04
  -4   3  -1    0.64    0.09
   4  -3   1    0.88    0.09
  -5   3  -1    0.11    0.06
   5  -3   1    0.03    0.04
  -6   3  -1    0.42    0.10
   6  -3   1    0.60    0.10
   7   2  -1    0.11    0.06
  -7  -2   1    0.25    0.07
  -7  -2   1    0.13    0.07
   6   2  -1    0.65    0.09
  -6  -2   1    0.65    0.09
  -6  -2   1    0.83    0.11
   5   2  -1    0.17    0.05
  -5  -2   1    0.08    0.04
  -5  -2   1    0.18    0.05
  -5  -2   1    0.27    0.06
   4   2  -1    4.94    0.11
   4   2  -1    4.86    0.18
  -4  -2   1    4.88    0.17
  -4  -2   1    4.93    0.17
  -4  -2   1    4.98    0.17
   3   2  -1    9.65    0.24
   3   2  -1    9.95    0.19
  -3  -2   1    9.76    0.24
  -3  -2   1   10.04    0.23
   2   2  -1    1.38    0.07
   2   2  -1    1.31    0.06
  -2  -2   1    1.29    0.07
  -2  -2   1    1.35    0.06
   1   2  -1  103.12    1.44
  -1  -2   1  100.36    1.42
  -1  -2   1  103.63    1.40
   0   2  -1    0.16    0.03
   0   2  -1    0.20    0.02
   0  -2   1    0.19    0.03
  -1   2  -1    3.04    0.09
  -1   2  -1    2.97    0.10
   1  -2   1    2.87    0.09
   1  -2   1    3.14    0.09
  -2   2  -1    4.54    0.15
  -2   2  -1    4.43    0.13
   2  -2   1    4.44    0.12
   2  -2   1    4.61    0.13
  -3   2  -1   49.61    0.75
  -3   2  -1   47.40    0.83
   3  -2   1   48.81    0.78
   3  -2   1   48.55    0.74
  -4   2  -1    0.74    0.09
   4  -2   1    0.83    0.09
  -5   2  -1    1.44    0.14
   5  -2   1    1.46    0.11
  -6   2  -1    0.23    0.07
   6  -2   1    0.17    0.06
  -7  -1   1    1.75    0.17
  -7  -1   1    1.86    0.16
  -7  -1   1    1.98    0.14
   6   1  -1    1.39    0.13
  -6  -1   1    1.49    0.15
  -6  -1   1    1.63    0.15
  -6  -1   1    1.66    0.12
  -6  -1   1    1.56    0.13
   5   1  -1    4.85    0.20
  -5  -1   1    5.21    0.19
  -5  -1   1    5.11    0.20
  -5  -1   1    5.59    0.22
  -5  -1   1    4.75    0.18
   4   1  -1    1.84    0.11
  -4  -1   1    1.84    0.10
  -4  -1   1    1.82    0.11
  -4  -1   1    1.73    0.10
  -4  -1   1    1.91    0.11
   3   1  -1    1.04    0.05
   3   1  -1    1.01    0.07
  -3  -1   1    1.02    0.05
  -3  -1   1    1.11    0.07
  -3  -1   1    0.93    0.07
  -3  -1   1    1.09    0.07
  -3  -1   1    0.89    0.07
   2   1  -1   15.92    0.29
   2   1  -1   16.26    0.26
  -2  -1   1   16.35    0.30
  -2  -1   1   16.07    0.29
  -2  -1   1   15.99    0.28
   1   1  -1  189.37    2.66
  -1  -1   1  193.13    2.62
  -1  -1   1  191.60    2.73
   0   1  -1    0.17    0.02
   0  -1   1    0.17    0.02
  -1   1  -1   13.68    0.25
  -1   1  -1   13.43    0.23
   1  -1   1   13.15    0.22
   1  -1   1   13.94    0.22
  -2   1  -1   33.71    0.57
  -2   1  -1   34.43    0.51
   2  -1   1   34.93    0.53
   2  -1   1   33.53    0.51
  -3   1  -1    8.84    0.17
  -3   1  -1    8.94    0.24
   3  -1   1    8.75    0.21
  -4   1  -1    0.06    0.04
   4  -1   1    0.02    0.03
  -5   1  -1    0.26    0.07
   5  -1   1    0.27    0.06
  -6   1  -1    2.90    0.19
   6  -1   1    2.98    0.16
  -7   1  -1    0.22    0.08
   7  -1   1    0.14    0.06
   7   0  -1    2.51    0.17
  -7   0   1    2.53    0.19
   6   0  -1    1.79    0.13
  -6   0   1    1.87    0.12
  -6   0   1    1.77    0.16
  -6   0   1    1.91    0.12
  -6   0   1    1.78    0.13
   5   0  -1    5.50    0.21
  -5   0   1    5.78    0.20
  -5   0   1    5.69    0.19
  -5   0   1    5.43    0.22
  -5   0   1    5.39    0.20
   4   0  -1    0.22    0.05
  -4   0   1    0.23    0.04
  -4   0   1    0.29    0.05
  -4   0   1    0.20    0.05
  -4   0   1    0.17    0.04
   3   0  -1    5.91    0.12
   3   0  -1    5.66    0.17
  -3   0   1    6.02    0.17
  -3   0   1    5.71    0.15
  -3   0   1    5.72    0.16
  -3   0   1    5.39    0.18
   2   0  -1   41.11    0.63
   2   0  -1   41.77    0.59
  -2   0   1   40.94    0.59
  -2   0   1   41.59    0.64
  -2   0   1   40.09    0.66
  -2   0   1   41.30    0.60
   1   0  -1   14.76    0.24
  -1   0   1   14.79    0.25
  -1   0   1   14.84    0.23
   0   0  -1    2.14    0.04
   0   0   1    2.12    0.04
   0   0   1    2.10    0.05
  -1   0  -1  122.85    1.70
  -1   0  -1  122.23    1.72
   1   0   1  123.41    1.70
   1   0   1  120.83    1.65
  -2   0  -1   95.32    1.42
  -2   0  -1   96.38    1.31
   2   0   1   98.26    1.34
  -3   0  -1    7.84    0.22
   3   0   1    8.18    0.19
  -4   0  -1    1.60    0.11
   4   0   1    1.39    0.09
  -5   0  -1    1.03    0.12
   5   0   1    0.79    0.09
  -6   0  -1    0.04    0.04
   6   0   1   -0.03    0.03
  -7   0  -1    3.49    0.22
   7   0   1    3.16    0.18
   6  -1  -1    2.05    0.14
  -6   1   1    2.13    0.15
   5  -1  -1    0.03    0.04
  -5   1   1    0.04    0.04
   4  -1  -1    0.23    0.05
   4  -1  -1    0.40    0.04
  -4   1   1    0.32    0.06
   3  -1  -1   46.86    0.69
   3  -1  -1   46.93    0.75
  -3   1   1   46.44    0.80
   2  -1  -1   13.19    0.26
  -2   1   1   13.62    0.28
   1  -1  -1   54.71    0.78
  -1   1   1   55.58    0.82
   0  -1  -1   46.83    0.64
   0  -1  -1   48.71    0.66
   0   1   1   48.23    0.69
  -1  -1  -1    2.43    0.07
   1   1   1    2.47    0.06
  -2  -1  -1   19.03    0.34
   2   1   1   19.00    0.32
  -3  -1  -1   27.13    0.50
   3   1   1   27.64    0.46
  -4  -1  -1   16.06    0.37
   4   1   1   15.84    0.34
  -5  -1  -1    0.23    0.06
   5   1   1    0.29    0.06
  -6  -1  -1    6.13    0.26
   6   1   1    5.99    0.23
  -7  -1  -1    6.39    0.29
   7   1   1    6.49    0.26
   6  -2  -1    0.07    0.05
  -6   2   1    0.06    0.05
   5  -2  -1    0.35    0.07
  -5   2   1    0.29    0.07
   4  -2  -1   12.28    0.32
  -4   2   1   12.67    0.35
   3  -2  -1   21.79    0.42
  -3   2   1   20.97    0.45
   2  -2  -1    0.11    0.03
  -2   2   1    0.18    0.04
   1  -2  -1   17.11    0.24
   1  -2  -1   16.49    0.30
  -1   2   1   17.32    0.31
   0  -2  -1  119.68    1.73
   0  -2  -1  124.73    1.64
   0   2   1  124.59    1.72
  -2  -2  -1    3.86    0.11
   2   2   1    3.85    0.11
  -3  -2  -1    0.51    0.06
   3   2   1    0.48    0.05
  -4  -2  -1   13.14    0.32
   4   2   1   13.24    0.30
  -5  -2  -1   14.02    0.36
   5   2   1   13.09    0.33
  -6  -2  -1    6.15    0.25
  -7  -2  -1    5.68    0.23
  -7  -2  -1    5.78    0.26
  -7  -2  -1    5.50    0.24
  -7  -2  -1    5.22    0.25
   6  -3  -1    0.00    0.04
  -6   3   1    0.01    0.05
   5  -3  -1    0.01    0.04
  -5   3   1   -0.02    0.03
   4  -3  -1   11.30    0.31
  -4   3   1   11.35    0.33
   3  -3  -1   -0.02    0.03
  -3   3   1    0.02    0.03
   2  -3  -1    7.59    0.20
  -2   3   1    7.20    0.20
   1  -3  -1   12.32    0.19
   1  -3  -1   11.96    0.25
  -1   3   1   11.88    0.25
   0  -3  -1   70.77    0.95
   0  -3  -1   70.06    1.01
   0   3   1   69.29    1.02
   0   3   1   71.21    1.02
  -1  -3  -1   20.46    0.33
   1   3   1   20.36    0.35
  -2  -3  -1   25.35    0.43
  -2  -3  -1   25.24    0.46
  -2  -3  -1   24.87    0.42
   2   3   1   26.55    0.41
  -3  -3  -1    0.42    0.05
  -3  -3  -1    0.49    0.06
  -3  -3  -1    0.45    0.06
  -3  -3  -1    0.43    0.06
   3   3   1    0.49    0.06
  -4  -3  -1    0.09    0.04
   4   3   1    0.04    0.03
  -5  -3  -1    0.11    0.04
  -5  -3  -1    0.01    0.03
  -5  -3  -1    0.02    0.03
  -5  -3  -1    0.07    0.04
   5   3   1    0.06    0.04
  -6  -3  -1    2.00    0.14
  -6  -3  -1    1.75    0.14
  -6  -3  -1    1.87    0.14
  -6  -3  -1    1.79    0.16
   6   3   1    1.94    0.13
  -7  -3  -1    7.73    0.31
  -7  -3  -1    7.32    0.28
  -7  -3  -1    7.49    0.30
  -7  -3  -1    7.55    0.29
   7   3   1    7.47    0.28
   6  -4  -1    0.13    0.07
  -6   4   1    0.08    0.06
   5  -4  -1    0.18    0.06
  -5   4   1    0.13    0.06
   4  -4  -1    0.54    0.08
  -4   4   1    0.65    0.09
   3  -4  -1    9.51    0.27
  -3   4   1    8.96    0.27
   2  -4  -1    2.33    0.12
   2  -4  -1    2.75    0.08
  -2   4   1    2.58    0.12
   1  -4  -1    0.14    0.04
   1  -4  -1    0.15    0.02
  -1   4   1    0.11    0.03
   0  -4  -1   13.39    0.27
   0  -4  -1   12.89    0.22
   0   4   1   12.94    0.24
   0   4   1   12.28    0.27
  -1  -4  -1   11.16    0.22
   1   4   1   10.88    0.24
  -2  -4  -1    0.16    0.03
  -2  -4  -1    0.18    0.04
   2   4   1    0.19    0.04
  -3  -4  -1    0.99    0.06
  -3  -4  -1    0.98    0.09
  -3  -4  -1    1.04    0.09
  -3  -4  -1    1.03    0.09
   3   4   1    1.15    0.06
  -4  -4  -1    3.54    0.14
  -4  -4  -1    3.32    0.15
  -4  -4  -1    3.28    0.16
  -4  -4  -1    3.38    0.15
  -5  -4  -1    2.15    0.13
  -5  -4  -1    1.93    0.12
  -5  -4  -1    2.02    0.14
  -5  -4  -1    2.06    0.13
   5   4   1    1.83    0.12
  -6  -4  -1    0.30    0.07
  -6  -4  -1    0.32    0.08
  -6  -4  -1    0.24    0.07
  -6  -4  -1    0.29    0.07
   6   4   1    0.24    0.06
  -7  -4  -1    0.43    0.09
  -7  -4  -1    0.30    0.09
  -7  -4  -1    0.31    0.08
  -7  -4  -1    0.38    0.08
   7   4   1    0.40    0.08
   5  -5  -1    0.25    0.07
  -5   5   1    0.11    0.06
   4  -5  -1    2.08    0.14
  -4   5   1    1.98    0.14
   3  -5  -1    0.13    0.05
  -3   5   1    0.08    0.05
   2  -5  -1    0.01    0.03
   2  -5  -1    0.08    0.02
  -2   5   1    0.05    0.03
   1  -5  -1    8.97    0.18
   1  -5  -1    9.07    0.24
  -1   5   1    8.99    0.22
   0  -5  -1   26.68    0.49
   0   5   1   27.68    0.45
   0   5   1   25.74    0.50
  -1  -5  -1   68.67    1.00
   1   5   1   70.65    1.08
  -2  -5  -1   27.30    0.48
  -2  -5  -1   27.09    0.43
   2   5   1   27.52    0.49
  -3  -5  -1    0.64    0.05
  -3  -5  -1    0.75    0.08
   3   5   1    0.68    0.06
  -4  -5  -1    2.34    0.13
  -4  -5  -1    2.72    0.14
  -4  -5  -1    2.50    0.11
  -5  -5  -1   13.01    0.36
  -5  -5  -1   13.60    0.37
  -5  -5  -1   14.15    0.33
  -6  -5  -1    0.91    0.12
  -6  -5  -1    0.96    0.12
  -7  -5  -1    0.77    0.11
   4  -6  -1    0.02    0.04
  -4   6   1    0.00    0.04
   3  -6  -1    1.98    0.14
  -3   6   1    1.89    0.13
   2  -6  -1    9.88    0.29
  -2   6   1   10.12    0.28
   1  -6  -1    0.09    0.03
   1  -6  -1    0.13    0.04
  -1   6   1    0.10    0.04
   0  -6  -1   26.82    0.52
   0  -6  -1   26.76    0.45
   0   6   1   26.95    0.53
   0   6   1   27.05    0.46
  -1  -6  -1    0.00    0.03
  -1  -6  -1   -0.01    0.02
  -1  -6  -1    0.02    0.02
   1   6   1    0.03    0.03
  -2  -6  -1    3.49    0.14
   2   6   1    3.78    0.15
  -3  -6  -1    0.51    0.07
   3   6   1    0.43    0.06
  -4  -6  -1   31.15    0.62
  -5  -6  -1   32.24    0.67
  -6  -6  -1    2.36    0.16
   4  -7  -1    0.62    0.11
  -4   7   1    0.56    0.10
   3  -7  -1    0.56    0.09
  -3   7   1    0.27    0.07
   2  -7  -1    1.32    0.13
  -2   7   1    1.38    0.10
   1  -7  -1    4.59    0.19
   0  -7  -1    2.07    0.09
   0  -7  -1    1.78    0.12
   0   7   1    1.92    0.13
  -1  -7  -1   12.04    0.32
  -1  -7  -1   12.40    0.28
  -1  -7  -1   12.66    0.33
   1   7   1   12.49    0.34
  -2  -7  -1    0.75    0.08
   2   7   1    0.77    0.09
  -3  -7  -1    9.06    0.27
   3   7   1    8.69    0.26
  -4  -7  -1    3.07    0.16
  -5  -7  -1    1.31    0.14
  -6  -7  -1    0.69    0.11
   3  -8  -1    0.46    0.09
   2  -8  -1    0.54    0.09
   1  -8  -1   22.94    0.53
   0  -8  -1    0.65    0.09
  -1  -8  -1    0.22    0.06
  -1  -8  -1    0.20    0.05
  -1  -8  -1    0.18    0.06
   1   8   1    0.24    0.06
  -2  -8  -1    1.77    0.11
  -2  -8  -1    1.69    0.12
  -2  -8  -1    1.88    0.13
   2   8   1    1.76    0.12
  -3  -8  -1    4.09    0.18
   3   8   1    4.22    0.19
  -4  -8  -1    1.69    0.15
  -5  -8  -1    0.06    0.06
   2  -9  -1    1.01    0.13
   1  -9  -1    1.21    0.13
   0  -9  -1    1.13    0.13
  -1  -9  -1    0.16    0.06
  -2  -9  -1    1.16    0.13
  -2  -9  -1    1.04    0.11
  -2  -9  -1    1.43    0.14
  -3  -9  -1    0.05    0.04
  -4  -9  -1   -0.01    0.04
  -1 -10  -1    0.38    0.09
  -2 -10  -1    0.63    0.10
  -2 -10  -1    0.50    0.10
   1   9  -2    0.62    0.11
  -1  -9   2    0.68    0.11
  -1  -9   2    0.72    0.10
   4   8  -2    0.22    0.07
  -4  -8   2    0.49    0.09
   3   8  -2    0.06    0.05
  -3  -8   2    0.08    0.05
   2   8  -2    2.70    0.17
   1   8  -2    1.73    0.16
  -1  -8   2    1.49    0.14
  -1  -8   2    1.56    0.13
  -1  -8   2    1.52    0.14
   0   8  -2    0.02    0.04
   0  -8   2    0.03    0.04
   0  -8   2    0.04    0.04
  -1   8  -2    1.11    0.13
   1  -8   2    0.76    0.11
  -2   8  -2    4.69    0.24
   2  -8   2    5.02    0.23
  -5  -7   2    0.14    0.06
   4   7  -2    0.06    0.05
  -4  -7   2    0.09    0.05
   3   7  -2    9.44    0.30
  -3  -7   2    9.89    0.31
   2   7  -2    2.98    0.16
  -2  -7   2    3.26    0.17
   1   7  -2    2.11    0.14
  -1  -7   2    2.11    0.13
  -1  -7   2    2.19    0.13
  -1  -7   2    2.32    0.13
   0   7  -2   -0.02    0.03
   0  -7   2    0.03    0.04
   0  -7   2    0.01    0.03
   1  -7   2    1.94    0.13
   1  -7   2    1.95    0.11
  -2   7  -2   -0.01    0.04
   2  -7   2    0.04    0.04
  -3   7  -2    0.10    0.05
   3  -7   2    0.17    0.06
  -5  -6   2    0.15    0.06
   4   6  -2    0.04    0.04
  -4  -6   2    0.00    0.03
   3   6  -2   22.31    0.48
  -3  -6   2   21.67    0.49
   2   6  -2   12.34    0.33
  -2  -6   2   12.86    0.33
   1   6  -2    3.24    0.16
   0   6  -2    3.52    0.17
   0  -6   2    3.50    0.15
   0  -6   2    3.57    0.16
  -1   6  -2    5.49    0.22
   1  -6   2    5.46    0.18
   1  -6   2    5.19    0.19
  -2   6  -2    7.35    0.26
   2  -6   2    7.29    0.22
   2  -6   2    7.17    0.24
  -3   6  -2    7.27    0.27
   3  -6   2    7.26    0.26
  -4   6  -2    4.50    0.21
   4  -6   2    3.90    0.20
  -6  -5   2    1.34    0.15
  -5  -5   2    0.29    0.08
   4   5  -2    2.57    0.13
  -4  -5   2    2.52    0.15
   3   5  -2    9.22    0.26
  -3  -5   2    9.46    0.28
   2   5  -2    2.46    0.13
  -2  -5   2    2.54    0.13
   1   5  -2    0.46    0.07
  -1  -5   2    0.37    0.06
   0   5  -2   10.03    0.28
   0  -5   2    9.60    0.24
   0  -5   2    9.68    0.25
   0  -5   2    9.81    0.25
  -1   5  -2   16.63    0.39
  -1   5  -2   17.23    0.33
   1  -5   2   17.43    0.37
   1  -5   2   17.28    0.35
  -2   5  -2   11.03    0.31
  -2   5  -2   11.18    0.28
   2  -5   2   11.72    0.27
   2  -5   2   10.99    0.29
  -3   5  -2    8.13    0.26
  -3   5  -2    9.10    0.28
   3  -5   2    7.95    0.26
   3  -5   2    8.59    0.23
  -4   5  -2    0.68    0.10
  -4   5  -2    0.91    0.10
   4  -5   2    1.23    0.12
  -5   5  -2    0.02    0.05
   5  -5   2    0.15    0.06
   6   4  -2    1.42    0.15
  -6  -4   2    1.22    0.14
   5   4  -2    5.02    0.22
  -5  -4   2    5.11    0.22
   4   4  -2    1.13    0.08
  -4  -4   2    1.02    0.11
   3   4  -2    2.63    0.12
  -3  -4   2    2.74    0.14
   2   4  -2   23.07    0.45
  -2  -4   2   23.20    0.45
   1   4  -2    0.27    0.05
  -1  -4   2    0.24    0.04
   0   4  -2   20.37    0.42
   0   4  -2   20.13    0.32
   0  -4   2   20.29    0.38
   0  -4   2   20.50    0.38
   0  -4   2   20.50    0.38
  -1   4  -2    3.37    0.11
  -1   4  -2    3.30    0.14
   1  -4   2    3.25    0.13
   1  -4   2    3.31    0.12
  -2   4  -2   11.25    0.29
  -2   4  -2   11.28    0.27
   2  -4   2   10.80    0.27
   2  -4   2   10.74    0.25
  -3   4  -2    0.05    0.04
  -3   4  -2    0.02    0.03
   3  -4   2    0.03    0.04
   3  -4   2    0.07    0.03
  -4   4  -2    0.02    0.04
  -4   4  -2    0.04    0.04
   4  -4   2    0.04    0.03
   4  -4   2    0.00    0.04
  -5   4  -2    0.07    0.06
   5  -4   2    0.02    0.04
   6   3  -2    4.68    0.22
  -6  -3   2    5.02    0.22
  -6  -3   2    4.68    0.22
   5   3  -2    1.15    0.12
  -5  -3   2    1.50    0.13
  -5  -3   2    1.49    0.11
   4   3  -2    0.42    0.05
   4   3  -2    0.26    0.06
  -4  -3   2    0.39    0.06
  -4  -3   2    0.31    0.06
   3   3  -2    2.77    0.12
   3   3  -2    2.49    0.10
  -3  -3   2    2.44    0.12
  -3  -3   2    2.56    0.10
   2   3  -2    5.74    0.17
  -2  -3   2    5.77    0.12
  -2  -3   2    5.56    0.17
   1   3  -2    2.38    0.10
  -1  -3   2    2.30    0.10
   0   3  -2   36.70    0.54
   0   3  -2   35.89    0.60
   0  -3   2   35.40    0.57
  -1   3  -2    0.50    0.06
  -1   3  -2    0.53    0.05
   1  -3   2    0.52    0.05
   1  -3   2    0.51    0.05
  -2   3  -2    9.14    0.24
  -2   3  -2    9.07    0.23
   2  -3   2    9.34    0.22
   2  -3   2    8.90    0.21
  -3   3  -2    6.98    0.20
  -3   3  -2    7.16    0.23
   3  -3   2    7.10    0.19
   3  -3   2    6.82    0.20
  -4   3  -2    0.05    0.04
  -4   3  -2    0.04    0.03
   4  -3   2    0.03    0.03
   4  -3   2   -0.02    0.03
  -5   3  -2    0.35    0.08
   5  -3   2    0.33    0.07
  -6   3  -2    9.66    0.37
   6  -3   2   10.26    0.33
   6   2  -2    0.06    0.04
  -6  -2   2    0.05    0.04
  -6  -2   2   -0.04    0.03
  -5  -2   2    6.09    0.22
  -5  -2   2    6.58    0.23
   4   2  -2    5.89    0.15
   4   2  -2    5.60    0.20
  -4  -2   2    5.70    0.19
  -4  -2   2    6.04    0.20
   3   2  -2    6.66    0.16
   3   2  -2    6.59    0.19
  -3  -2   2    6.63    0.19
  -3  -2   2    6.53    0.18
   2   2  -2   -0.02    0.02
   2   2  -2   -0.02    0.02
  -2  -2   2    0.04    0.02
  -2  -2   2    0.01    0.02
   1   2  -2    5.25    0.15
  -1  -2   2    5.55    0.15
   0   2  -2    4.85    0.11
   0   2  -2    4.70    0.14
   0  -2   2    4.60    0.13
  -1   2  -2   34.30    0.56
  -1   2  -2   34.42    0.56
   1  -2   2   35.22    0.53
   1  -2   2   34.19    0.53
  -2   2  -2   15.34    0.30
  -2   2  -2   15.38    0.32
   2  -2   2   15.25    0.29
   2  -2   2   15.47    0.29
  -3   2  -2    0.39    0.06
  -3   2  -2    0.57    0.06
   3  -2   2    0.53    0.06
   3  -2   2    0.48    0.06
  -4   2  -2    1.40    0.08
  -4   2  -2    1.69    0.12
   4  -2   2    1.45    0.09
  -5   2  -2    6.03    0.25
   5  -2   2    6.16    0.21
  -6   2  -2    6.96    0.30
   6  -2   2    7.15    0.26
   6   1  -2    1.45    0.14
  -6  -1   2    1.59    0.15
  -6  -1   2    1.81    0.13
   5   1  -2    2.88    0.15
  -5  -1   2    2.84    0.15
  -5  -1   2    2.74    0.14
   4   1  -2    4.45    0.12
   4   1  -2    4.41    0.17
  -4  -1   2    4.56    0.17
  -4  -1   2    4.60    0.18
   3   1  -2    1.75    0.07
   3   1  -2    1.79    0.09
  -3  -1   2    1.76    0.09
  -3  -1   2    1.74    0.09
   2   1  -2    0.03    0.02
   2   1  -2    0.01    0.02
  -2  -1   2    0.04    0.02
  -2  -1   2   -0.01    0.02
   1   1  -2    2.94    0.08
   1   1  -2    2.85    0.09
  -1  -1   2    2.75    0.09
  -1  -1   2    2.54    0.08
   0  -1   2    2.98    0.09
  -1   1  -2    0.03    0.02
  -1   1  -2   -0.01    0.02
   1  -1   2   -0.02    0.01
   1  -1   2    0.02    0.01
  -2   1  -2   22.85    0.42
  -2   1  -2   23.02    0.38
   2  -1   2   22.35    0.37
  -3   1  -2    0.05    0.02
  -3   1  -2    0.02    0.03
   3  -1   2    0.02    0.02
   3  -1   2    0.03    0.02
  -4   1  -2    7.25    0.25
  -4   1  -2    7.29    0.16
   4  -1   2    7.27    0.20
  -5   1  -2   26.03    0.59
   5  -1   2   24.92    0.50
  -6   1  -2    4.70    0.24
   6  -1   2    5.06    0.21
  -7   1  -2    0.04    0.06
   7  -1   2   -0.02    0.04
   6   0  -2    0.36    0.07
  -6   0   2    0.52    0.10
  -6   0   2    0.51    0.08
   5   0  -2   16.76    0.41
  -5   0   2   17.51    0.38
  -5   0   2   17.25    0.44
   4   0  -2    5.79    0.20
   4   0  -2    6.04    0.15
  -4   0   2    5.97    0.21
  -4   0   2    6.09    0.18
   3   0  -2   -0.04    0.02
   3   0  -2    0.01    0.02
  -3   0   2    0.00    0.02
  -3   0   2   -0.02    0.02
   2   0  -2    0.41    0.04
   2   0  -2    0.39    0.05
  -2   0   2    0.35    0.04
  -2   0   2    0.38    0.05
  -2   0   2    0.45    0.04
   1   0  -2  256.10    3.66
   1   0  -2  253.81    3.59
  -1   0   2  257.39    3.67
  -1   0   2  262.97    3.47
   0   0  -2  130.26    1.79
   0   0  -2  131.26    1.88
   0   0   2  134.33    1.78
  -1   0  -2   92.52    1.27
   1   0   2   90.43    1.25
  -2   0  -2    4.61    0.15
  -2   0  -2    4.67    0.11
   2   0   2    4.58    0.12
   2   0   2    4.58    0.11
  -3   0  -2    7.37    0.14
  -3   0  -2    7.57    0.22
   3   0   2    7.38    0.18
  -4   0  -2   33.09    0.64
  -4   0  -2   32.32    0.47
   4   0   2   32.72    0.57
  -5   0  -2    1.21    0.13
   5   0   2    1.09    0.10
  -6   0  -2    1.60    0.16
   6   0   2    1.86    0.12
  -7   0  -2    0.17    0.07
   7   0   2    0.08    0.06
   6  -1  -2    2.14    0.15
  -6   1   2    1.97    0.15
   5  -1  -2    1.50    0.13
  -5   1   2    1.60    0.10
  -5   1   2    1.47    0.10
  -5   1   2    1.58    0.14
   4  -1  -2    2.54    0.09
   4  -1  -2    2.64    0.13
  -4   1   2    2.42    0.11
  -4   1   2    2.36    0.11
  -4   1   2    2.32    0.10
  -4   1   2    2.43    0.14
   3  -1  -2    0.23    0.04
   3  -1  -2    0.22    0.05
  -3   1   2    0.17    0.04
  -3   1   2    0.22    0.04
  -3   1   2    0.17    0.04
  -3   1   2    0.24    0.04
   2  -1  -2   38.35    0.58
   2  -1  -2   37.37    0.60
  -2   1   2   36.98    0.63
  -2   1   2   37.94    0.55
   1  -1  -2  946.18   13.01
   1  -1  -2  925.97   13.25
  -1   1   2  980.62   13.65
  -1   1   2 1000.00   14.05
   0  -1  -2    1.68    0.05
   0  -1  -2    1.72    0.06
   0   1   2    1.74    0.05
   0   1   2    1.65    0.06
   0   1   2    1.71    0.06
  -1  -1  -2   10.12    0.18
   1   1   2   10.09    0.18
  -2  -1  -2    0.99    0.04
  -2  -1  -2    1.01    0.06
   2   1   2    0.98    0.04
   2   1   2    1.10    0.05
  -3  -1  -2   33.70    0.47
  -3  -1  -2   32.86    0.59
   3   1   2   33.55    0.53
  -4  -1  -2    0.27    0.06
   4   1   2    0.35    0.05
  -5  -1  -2   14.98    0.39
   5   1   2   14.27    0.34
  -6  -1  -2    0.90    0.12
   6   1   2    0.83    0.10
  -7  -1  -2    0.06    0.06
   7   1   2    0.00    0.04
   6  -2  -2    2.10    0.15
  -6   2   2    2.05    0.19
   5  -2  -2    0.25    0.06
  -5   2   2    0.26    0.07
   4  -2  -2    0.45    0.06
   4  -2  -2    0.56    0.08
  -4   2   2    0.45    0.08
  -4   2   2    0.48    0.05
  -4   2   2    0.55    0.06
  -4   2   2    0.50    0.06
   3  -2  -2   20.17    0.40
  -3   2   2   20.05    0.43
  -3   2   2   19.98    0.34
  -3   2   2   20.02    0.33
  -3   2   2   20.16    0.36
   2  -2  -2    5.04    0.15
  -2   2   2    5.51    0.11
  -2   2   2    5.54    0.12
  -2   2   2    5.46    0.17
  -2   2   2    5.37    0.11
   1  -2  -2  194.54    2.75
  -1   2   2  198.20    2.78
   0  -2  -2   38.27    0.56
   0   2   2   37.73    0.58
  -2  -2  -2    9.00    0.20
   2   2   2    8.84    0.18
  -3  -2  -2   43.87    0.62
  -3  -2  -2   44.37    0.74
   3   2   2   43.41    0.68
  -4  -2  -2    8.31    0.25
   4   2   2    8.83    0.22
  -5  -2  -2   15.12    0.38
   5   2   2   14.51    0.35
  -6  -2  -2   -0.02    0.04
   6   2   2    0.03    0.04
  -7  -2  -2    4.22    0.23
   6  -3  -2    3.65    0.20
  -6   3   2    3.63    0.22
   5  -3  -2    0.01    0.04
  -5   3   2   -0.05    0.03
   4  -3  -2    0.77    0.09
  -4   3   2    1.02    0.11
   3  -3  -2    0.08    0.04
  -3   3   2    0.04    0.03
   2  -3  -2   11.50    0.27
  -2   3   2   12.15    0.29
   1  -3  -2   15.23    0.30
  -1   3   2   15.59    0.31
   0  -3  -2   64.17    0.86
   0  -3  -2   64.32    0.94
   0   3   2   66.02    0.96
  -3  -3  -2   54.24    0.87
   3   3   2   53.82    0.83
  -4  -3  -2   -0.02    0.03
  -4  -3  -2    0.01    0.01
   4   3   2    0.03    0.02
  -5  -3  -2    3.53    0.17
   5   3   2    3.59    0.16
  -6  -3  -2    0.30    0.07
   6   3   2    0.35    0.07
  -7  -3  -2    1.62    0.17
   7   3   2    2.09    0.15
   5  -4  -2    0.29    0.07
  -5   4   2    0.15    0.07
   4  -4  -2    7.85    0.27
  -4   4   2    8.00    0.29
   3  -4  -2    6.01    0.21
  -3   4   2    6.03    0.22
   2  -4  -2    7.61    0.22
  -2   4   2    7.62    0.22
   1  -4  -2    2.12    0.10
  -1   4   2    2.31    0.10
   0  -4  -2   17.35    0.27
   0  -4  -2   17.12    0.33
   0   4   2   17.50    0.32
  -1  -4  -2    0.33    0.04
  -1  -4  -2    0.28    0.03
  -2  -4  -2   30.17    0.48
  -2  -4  -2   29.40    0.49
  -2  -4  -2   30.24    0.53
  -3  -4  -2    1.91    0.09
  -4  -4  -2    0.19    0.05
  -5  -4  -2    0.59    0.08
   5   4   2    0.47    0.07
  -6  -4  -2    3.22    0.17
  -6  -4  -2    3.36    0.18
  -6  -4  -2    3.74    0.18
  -6  -4  -2    3.14    0.18
   6   4   2    3.41    0.17
  -7  -4  -2    0.08    0.05
  -7  -4  -2    0.27    0.08
  -7  -4  -2    0.30    0.08
  -7  -4  -2    0.10    0.06
   7   4   2    0.18    0.06
   5  -5  -2    0.78    0.11
  -5   5   2    0.61    0.11
   4  -5  -2    0.08    0.05
  -4   5   2    0.19    0.06
   3  -5  -2    0.21    0.06
  -3   5   2    0.16    0.05
   2  -5  -2    4.28    0.17
  -2   5   2    4.49    0.17
   1  -5  -2    0.48    0.03
   1  -5  -2    0.48    0.06
  -1   5   2    0.48    0.06
   0  -5  -2    3.15    0.09
   0  -5  -2    3.28    0.13
   0   5   2    3.07    0.11
  -1  -5  -2   13.96    0.26
  -1  -5  -2   14.39    0.31
  -1  -5  -2   13.95    0.30
  -2  -5  -2    0.34    0.05
  -3  -5  -2   19.96    0.37
  -3  -5  -2   19.60    0.39
  -3  -5  -2   19.10    0.39
  -3  -5  -2   19.52    0.42
  -4  -5  -2   22.79    0.46
  -4  -5  -2   22.08    0.49
  -4  -5  -2   21.64    0.44
  -4  -5  -2   22.48    0.47
  -5  -5  -2    3.92    0.16
  -5  -5  -2    3.86    0.18
  -5  -5  -2    3.49    0.17
  -5  -5  -2    3.98    0.19
  -6  -5  -2    0.40    0.08
  -6  -5  -2    0.66    0.11
  -6  -5  -2    0.63    0.09
  -6  -5  -2    0.47    0.09
  -7  -5  -2    0.31    0.08
  -7  -5  -2    0.18    0.06
  -7  -5  -2    0.27    0.08
   4  -6  -2    4.45    0.22
  -4   6   2    4.76    0.23
   3  -6  -2    4.35    0.20
  -3   6   2    3.98    0.19
   2  -6  -2   17.88    0.42
  -2   6   2   17.58    0.41
   1  -6  -2    0.87    0.09
  -1   6   2    0.63    0.07
   0  -6  -2    3.94    0.11
   0  -6  -2    4.13    0.16
   0   6   2    4.04    0.13
  -1  -6  -2    2.33    0.12
  -1  -6  -2    2.30    0.09
  -1  -6  -2    2.38    0.12
  -2  -6  -2    4.55    0.15
  -3  -6  -2    4.63    0.14
  -3  -6  -2    4.91    0.18
  -4  -6  -2   10.59    0.30
  -4  -6  -2   10.17    0.29
  -5  -6  -2    1.17    0.12
  -5  -6  -2    1.23    0.12
  -6  -6  -2    2.81    0.17
  -6  -6  -2    2.59    0.17
  -7  -6  -2    1.80    0.17
  -7  -6  -2    2.14    0.18
   4  -7  -2    4.23    0.22
  -4   7   2    4.21    0.22
   3  -7  -2    1.48    0.15
  -3   7   2    1.63    0.15
   2  -7  -2    6.70    0.25
  -2   7   2    6.48    0.23
   1  -7  -2    1.87    0.12
  -1   7   2    1.77    0.11
   0  -7  -2    0.92    0.10
   0   7   2    0.86    0.08
  -1  -7  -2    0.05    0.03
  -1  -7  -2    0.04    0.04
  -1  -7  -2    0.08    0.03
  -2  -7  -2    3.86    0.15
  -3  -7  -2    1.66    0.11
  -4  -7  -2    0.07    0.05
  -5  -7  -2    1.61    0.15
  -6  -7  -2    1.93    0.17
   3  -8  -2    5.00    0.24
   2  -8  -2    2.69    0.17
   1  -8  -2    1.05    0.12
   0  -8  -2    7.35    0.26
  -1  -8  -2   38.22    0.63
  -1  -8  -2   38.17    0.73
  -2  -8  -2    0.07    0.04
  -2  -8  -2    0.14    0.05
  -2  -8  -2    0.02    0.03
  -3  -8  -2    3.39    0.16
  -4  -8  -2    2.00    0.13
  -5  -8  -2    0.61    0.10
  -6  -8  -2    0.22    0.07
   2  -9  -2    0.16    0.06
   1  -9  -2    0.11    0.05
   0  -9  -2    3.33    0.18
  -1  -9  -2    4.95    0.22
  -2  -9  -2    1.85    0.16
  -2  -9  -2    1.91    0.12
  -2  -9  -2    1.75    0.15
  -3  -9  -2    2.07    0.13
  -4  -9  -2   -0.01    0.04
  -5  -9  -2    1.08    0.13
   0 -10  -2    0.70    0.11
  -1 -10  -2    0.40    0.09
  -2 -10  -2    0.00    0.04
  -2 -10  -2   -0.04    0.04
  -3 -10  -2    3.47    0.20
  -3 -10  -2    3.58    0.20
   3   8  -3    1.91    0.17
   2   8  -3    0.23    0.07
  -2  -8   3    0.33    0.08
  -2  -8   3    0.44    0.08
  -2  -8   3    0.56    0.09
   1   8  -3    0.60    0.10
  -1  -8   3    0.54    0.09
  -1  -8   3    0.68    0.10
  -1  -8   3    0.70    0.10
   0   8  -3    0.10    0.05
   0  -8   3    0.24    0.07
   0  -8   3    0.14    0.05
  -1   8  -3    0.27    0.08
   1  -8   3    0.24    0.06
   1  -8   3    0.19    0.06
   4   7  -3    0.20    0.06
  -4  -7   3    0.24    0.07
   3   7  -3    2.10    0.14
  -3  -7   3    2.04    0.14
   2   7  -3    1.00    0.12
   1   7  -3    0.13    0.05
  -1  -7   3    0.16    0.06
  -1  -7   3    0.16    0.05
  -1  -7   3    0.12    0.05
   0   7  -3    1.28    0.13
   0  -7   3    1.19    0.11
   0  -7   3    1.41    0.13
  -1   7  -3    1.11    0.13
   1  -7   3    1.34    0.12
   1  -7   3    1.42    0.13
  -2   7  -3    0.14    0.06
   2  -7   3    0.09    0.05
   2  -7   3    0.12    0.06
  -3   7  -3    1.85    0.17
   3  -7   3    1.99    0.17
  -5  -6   3    1.71    0.16
   4   6  -3    0.07    0.04
  -4  -6   3    0.04    0.04
   3   6  -3    0.04    0.04
  -3  -6   3    0.09    0.05
   2   6  -3    0.63    0.09
  -2  -6   3    0.59    0.09
   1   6  -3   33.21    0.68
  -1  -6   3   35.43    0.65
   0   6  -3    5.00    0.21
   0  -6   3    4.95    0.19
   0  -6   3    4.99    0.19
  -1   6  -3    0.27    0.07
   1  -6   3    0.25    0.06
   1  -6   3    0.37    0.06
  -2   6  -3    1.14    0.12
   2  -6   3    1.00    0.10
   2  -6   3    1.02    0.11
  -3   6  -3    4.43    0.21
   3  -6   3    5.00    0.19
   3  -6   3    4.31    0.20
  -4   6  -3    0.58    0.10
   4  -6   3    0.53    0.09
  -5  -5   3    5.02    0.23
   4   5  -3   -0.01    0.03
  -4  -5   3    0.05    0.04
   3   5  -3    2.72    0.14
  -3  -5   3    2.58    0.15
   2   5  -3    3.34    0.16
  -2  -5   3    3.40    0.16
   1   5  -3    6.69    0.23
  -1  -5   3    6.79    0.22
   0   5  -3    1.86    0.12
   0  -5   3    1.81    0.10
   0  -5   3    1.84    0.10
   0  -5   3    2.08    0.11
  -1   5  -3    5.52    0.21
   1  -5   3    5.57    0.19
   1  -5   3    5.35    0.18
  -2   5  -3    4.53    0.19
   2  -5   3    5.09    0.19
   2  -5   3    4.83    0.18
  -3   5  -3   10.77    0.32
  -3   5  -3   11.26    0.32
   3  -5   3   10.76    0.29
   3  -5   3   10.81    0.30
  -4   5  -3    0.53    0.09
  -4   5  -3    0.53    0.08
   4  -5   3    0.61    0.09
   4  -5   3    0.60    0.08
  -5   5  -3    1.72    0.18
   5  -5   3    2.05    0.15
   6   4  -3    5.69    0.26
  -6  -4   3    6.33    0.27
  -5  -4   3    0.20    0.06
   4   4  -3    0.11    0.04
  -4  -4   3    0.13    0.05
   3   4  -3   -0.01    0.03
  -3  -4   3    0.03    0.03
   2   4  -3    9.08    0.25
  -2  -4   3    8.90    0.25
   1   4  -3    0.46    0.06
  -1  -4   3    0.33    0.06
   0   4  -3   12.63    0.31
   0   4  -3   12.51    0.23
   0  -4   3   12.52    0.27
   0  -4   3   11.96    0.27
   0  -4   3   12.52    0.29
  -1   4  -3    2.15    0.09
  -1   4  -3    2.07    0.12
   1  -4   3    2.27    0.11
   1  -4   3    2.12    0.10
  -2   4  -3    0.50    0.07
  -2   4  -3    0.64    0.08
   2  -4   3    0.60    0.07
   2  -4   3    0.57    0.07
  -3   4  -3   34.19    0.64
  -3   4  -3   33.79    0.66
   3  -4   3   33.42    0.60
   3  -4   3   34.28    0.62
  -4   4  -3    0.01    0.03
  -4   4  -3   -0.01    0.04
   4  -4   3   -0.01    0.03
   4  -4   3    0.01    0.03
  -5   4  -3    0.22    0.08
   5  -4   3    0.42    0.08
  -6  -3   3    6.49    0.27
   5   3  -3    0.05    0.04
  -5  -3   3   -0.01    0.04
   4   3  -3    2.77    0.14
   4   3  -3    2.58    0.12
  -4  -3   3    2.55    0.14
  -4  -3   3    2.70    0.13
   3   3  -3   14.78    0.32
   3   3  -3   15.21    0.34
  -3  -3   3   15.21    0.35
  -3  -3   3   15.40    0.30
   2   3  -3   41.52    0.70
  -2  -3   3   41.49    0.70
   1   3  -3   16.37    0.34
  -1  -3   3   15.05    0.33
   0   3  -3    3.29    0.13
   0   3  -3    3.41    0.10
   0  -3   3    3.40    0.13
  -1   3  -3    1.22    0.07
  -1   3  -3    1.01    0.09
   1  -3   3    0.99    0.07
   1  -3   3    1.08    0.07
  -2   3  -3    0.16    0.04
  -2   3  -3    0.17    0.04
   2  -3   3    0.20    0.04
   2  -3   3    0.15    0.04
  -3   3  -3   -0.01    0.03
  -3   3  -3    0.03    0.03
   3  -3   3    0.04    0.03
   3  -3   3    0.02    0.03
  -4   3  -3    9.59    0.31
  -4   3  -3   10.35    0.27
   4  -3   3   10.11    0.27
   4  -3   3    9.76    0.27
  -5   3  -3   -0.01    0.04
   5  -3   3    0.02    0.04
  -6   3  -3    0.05    0.06
   6  -3   3    0.07    0.05
   6   2  -3    0.10    0.05
  -6  -2   3    0.09    0.06
  -6  -2   3    0.02    0.05
   5   2  -3    0.33    0.07
  -5  -2   3    0.39    0.07
  -5  -2   3    0.38    0.07
   4   2  -3    1.02    0.07
   4   2  -3    1.17    0.11
  -4  -2   3    1.16    0.10
  -4  -2   3    1.06    0.10
   3   2  -3   11.27    0.28
   3   2  -3   11.47    0.26
  -3  -2   3   11.53    0.27
  -3  -2   3   11.41    0.28
   2   2  -3    0.25    0.04
   2   2  -3    0.30    0.04
  -2  -2   3    0.26    0.04
  -2  -2   3    0.24    0.05
   1   2  -3    5.68    0.17
  -1  -2   3    5.52    0.16
   0   2  -3   10.32    0.24
   0  -2   3   10.43    0.23
  -1   2  -3    4.53    0.15
  -1   2  -3    4.78    0.14
   1  -2   3    4.64    0.12
   1  -2   3    4.58    0.14
  -2   2  -3    8.23    0.22
  -2   2  -3    7.96    0.21
   2  -2   3    8.13    0.20
   2  -2   3    8.27    0.19
  -3   2  -3    0.71    0.09
  -3   2  -3    0.69    0.07
   3  -2   3    0.77    0.07
   3  -2   3    0.73    0.07
  -4   2  -3    1.85    0.10
  -4   2  -3    1.59    0.12
   4  -2   3    1.79    0.10
   4  -2   3    1.80    0.11
  -5   2  -3    0.41    0.08
   5  -2   3    0.57    0.08
  -6   2  -3    3.81    0.22
   6  -2   3    3.74    0.18
   6   1  -3    1.57    0.15
  -6  -1   3    1.64    0.14
  -6  -1   3    1.53    0.15
   5   1  -3    0.46    0.08
  -5  -1   3    0.26    0.06
  -5  -1   3    0.41    0.07
   4   1  -3    0.21    0.04
   4   1  -3    0.20    0.05
  -4  -1   3    0.18    0.05
  -4  -1   3    0.18    0.05
  -4  -1   3    0.27    0.05
   3   1  -3    0.02    0.03
   3   1  -3    0.02    0.02
  -3  -1   3    0.03    0.03
  -3  -1   3    0.05    0.03
   2   1  -3    9.15    0.21
   2   1  -3    9.67    0.22
  -2  -1   3    8.99    0.21
  -2  -1   3    9.54    0.22
   1   1  -3    0.76    0.07
   1   1  -3    0.78    0.05
  -1  -1   3    0.88    0.06
  -1  -1   3    0.79    0.05
   0   1  -3   12.78    0.26
   0  -1   3   12.53    0.24
  -1   1  -3    0.94    0.06
  -1   1  -3    0.87    0.06
   1  -1   3    1.02    0.04
   1  -1   3    0.96    0.06
  -2   1  -3   32.39    0.54
  -2   1  -3   33.16    0.58
   2  -1   3   33.36    0.50
   2  -1   3   32.69    0.53
  -3   1  -3    1.09    0.07
  -3   1  -3    1.05    0.10
   3  -1   3    1.04    0.07
   3  -1   3    1.13    0.07
  -4   1  -3    1.31    0.07
  -4   1  -3    1.29    0.13
   4  -1   3    1.37    0.08
  -5   1  -3    0.02    0.04
   5  -1   3    0.00    0.03
  -6   1  -3    0.66    0.11
   6  -1   3    0.74    0.09
  -7   1  -3    3.05    0.22
   7  -1   3    3.41    0.18
   6   0  -3    0.37    0.08
  -6   0   3    0.31    0.08
   5   0  -3    0.24    0.06
  -5   0   3    0.24    0.06
  -5   0   3    0.17    0.05
   4   0  -3    3.11    0.15
   4   0  -3    3.23    0.12
  -4   0   3    3.28    0.16
  -4   0   3    3.30    0.13
   3   0  -3    4.47    0.16
   3   0  -3    4.84    0.14
  -3   0   3    4.85    0.15
  -3   0   3    4.46    0.16
   2   0  -3   18.44    0.34
   2   0  -3   18.39    0.34
  -2   0   3   17.76    0.36
  -2   0   3   18.28    0.33
   1   0  -3    4.53    0.11
   1   0  -3    4.58    0.13
  -1   0   3    4.58    0.12
  -1   0   3    4.39    0.13
   0   0  -3    1.32    0.04
   0   0  -3    1.36    0.07
   0   0   3    1.30    0.06
  -1   0  -3   36.33    0.57
   1   0   3   35.88    0.55
   1   0   3   36.57    0.49
  -2   0  -3   58.95    0.94
  -2   0  -3   59.45    0.88
   2   0   3   60.88    0.87
   2   0   3   59.80    0.83
  -3   0  -3    0.92    0.05
  -3   0  -3    0.74    0.08
   3   0   3    0.81    0.07
   3   0   3    0.86    0.05
  -4   0  -3    3.14    0.09
  -4   0  -3    3.22    0.16
   4   0   3    3.16    0.12
  -5   0  -3    4.16    0.20
   5   0   3    4.41    0.17
  -6   0  -3    0.52    0.10
   6   0   3    0.84    0.10
  -7   0  -3    0.43    0.10
   7   0   3    0.34    0.07
   6  -1  -3    0.08    0.05
  -6   1   3    0.07    0.06
   5  -1  -3    0.05    0.04
  -5   1   3    0.05    0.05
   4  -1  -3    7.28    0.24
   4  -1  -3    7.46    0.20
  -4   1   3    7.49    0.20
  -4   1   3    7.35    0.25
   3  -1  -3   12.35    0.29
   3  -1  -3   12.27    0.26
  -3   1   3   12.32    0.25
  -3   1   3   12.52    0.31
   2  -1  -3   50.77    0.80
   2  -1  -3   52.16    0.80
  -2   1   3   51.50    0.84
  -2   1   3   53.56    0.75
   1  -1  -3   23.61    0.38
   1  -1  -3   24.10    0.41
  -1   1   3   23.30    0.42
  -1   1   3   24.14    0.36
  -1   1   3   23.73    0.42
   0  -1  -3   22.22    0.38
   0  -1  -3   22.42    0.33
   0   1   3   22.53    0.39
   0   1   3   22.24    0.34
   0   1   3   22.38    0.38
  -1  -1  -3   54.05    0.72
  -1  -1  -3   53.68    0.80
   1   1   3   53.98    0.76
  -2  -1  -3    0.07    0.03
  -2  -1  -3    0.07    0.02
   2   1   3    0.13    0.03
   2   1   3    0.10    0.02
  -3  -1  -3   18.78    0.31
  -3  -1  -3   19.36    0.41
   3   1   3   19.91    0.34
  -4  -1  -3    6.13    0.12
  -4  -1  -3    5.98    0.22
   4   1   3    6.30    0.17
  -5  -1  -3    0.34    0.07
   5   1   3    0.31    0.05
  -6  -1  -3    3.48    0.20
   6   1   3    3.62    0.17
  -7  -1  -3    0.12    0.07
   7   1   3    0.25    0.06
   6  -2  -3    0.12    0.06
  -6   2   3    0.05    0.05
   5  -2  -3    0.76    0.10
  -5   2   3    0.60    0.10
   4  -2  -3    4.64    0.19
   4  -2  -3    4.76    0.16
  -4   2   3    4.93    0.21
   3  -2  -3    2.57    0.12
   3  -2  -3    2.44    0.11
  -3   2   3    2.60    0.13
  -3   2   3    2.61    0.09
   2  -2  -3    7.48    0.19
   2  -2  -3    7.03    0.19
  -2   2   3    7.18    0.14
  -2   2   3    6.84    0.20
   1  -2  -3   36.77    0.58
   1  -2  -3   37.42    0.60
  -1   2   3   37.62    0.51
  -1   2   3   37.23    0.62
   0  -2  -3   26.02    0.40
   0  -2  -3   26.18    0.44
   0   2   3   26.68    0.45
   0   2   3   26.84    0.38
  -1  -2  -3   47.47    0.72
   1   2   3   47.46    0.67
  -2  -2  -3   22.94    0.38
  -3  -2  -3   13.44    0.24
  -3  -2  -3   13.23    0.31
   3   2   3   13.42    0.26
  -4  -2  -3    1.98    0.05
  -4  -2  -3    1.91    0.12
   4   2   3    1.86    0.09
  -5  -2  -3   15.89    0.41
   5   2   3   15.99    0.35
  -6  -2  -3   13.38    0.40
  -7  -2  -3    2.63    0.19
   7   2   3    2.75    0.16
   6  -3  -3    0.20    0.07
  -6   3   3    0.07    0.05
   5  -3  -3    6.99    0.26
  -5   3   3    7.01    0.29
   4  -3  -3    0.81    0.10
   4  -3  -3    0.92    0.09
  -4   3   3    0.84    0.11
   3  -3  -3    0.18    0.05
  -3   3   3    0.28    0.06
   2  -3  -3    0.02    0.03
  -2   3   3    0.09    0.03
  -2   3   3    0.08    0.01
   1  -3  -3    6.13    0.17
  -1   3   3    6.40    0.18
   0  -3  -3   26.40    0.43
   0   3   3   26.62    0.46
  -1  -3  -3   23.80    0.39
  -1  -3  -3   23.95    0.38
  -3  -3  -3    2.41    0.11
  -3  -3  -3    2.25    0.08
  -4  -3  -3   17.82    0.28
  -4  -3  -3   17.09    0.40
   4   3   3   17.24    0.35
  -5  -3  -3    4.57    0.20
   5   3   3    4.46    0.17
  -6  -3  -3    9.78    0.33
   6   3   3    9.59    0.29
  -7  -3  -3    0.82    0.12
   7   3   3    1.20    0.13
   5  -4  -3    1.70    0.16
  -5   4   3    1.79    0.17
   4  -4  -3    1.01    0.11
  -4   4   3    0.90    0.11
   3  -4  -3   10.09    0.29
  -3   4   3    9.66    0.30
   2  -4  -3    1.28    0.09
  -2   4   3    1.14    0.10
   1  -4  -3    1.31    0.08
  -1   4   3    1.34    0.08
   0  -4  -3    6.23    0.17
   0  -4  -3    6.22    0.11
   0   4   3    6.38    0.17
  -1  -4  -3    2.23    0.09
  -1  -4  -3    2.45    0.10
  -3  -4  -3    3.42    0.14
  -4  -4  -3    0.06    0.04
  -5  -4  -3    0.52    0.08
   5   4   3    0.48    0.07
  -6  -4  -3   14.34    0.40
   6   4   3   15.04    0.38
  -7  -4  -3    0.20    0.07
   7   4   3    0.26    0.07
   5  -5  -3    2.25    0.16
  -5   5   3    2.05    0.19
   4  -5  -3    3.13    0.18
  -4   5   3    2.93    0.18
   3  -5  -3    5.27    0.21
  -3   5   3    5.20    0.22
   2  -5  -3    0.03    0.04
  -2   5   3    0.05    0.04
   1  -5  -3    0.01    0.03
  -1   5   3    0.00    0.02
   0  -5  -3    2.12    0.11
   0  -5  -3    2.20    0.06
   0   5   3    2.06    0.10
  -1  -5  -3   14.37    0.30
  -1  -5  -3   14.03    0.30
  -1  -5  -3   14.18    0.26
  -2  -5  -3    0.86    0.07
  -2  -5  -3    0.89    0.07
  -2  -5  -3    0.72    0.07
  -3  -5  -3    0.09    0.04
  -4  -5  -3    0.60    0.08
  -5  -5  -3    4.49    0.19
  -6  -5  -3    1.17    0.14
  -6  -5  -3    1.25    0.13
  -6  -5  -3    1.00    0.12
  -6  -5  -3    1.18    0.12
  -7  -5  -3    0.06    0.05
  -7  -5  -3    0.19    0.07
  -7  -5  -3    0.07    0.06
  -7  -5  -3    0.14    0.07
   4  -6  -3    0.47    0.09
  -4   6   3    0.38    0.08
   3  -6  -3    1.82    0.13
  -3   6   3    2.07    0.14
   2  -6  -3    2.73    0.15
  -2   6   3    2.67    0.14
   1  -6  -3   25.76    0.51
  -1   6   3   24.94    0.50
   0  -6  -3   56.76    0.93
   0   6   3   57.48    0.92
  -1  -6  -3    4.04    0.12
  -1  -6  -3    4.41    0.16
  -1  -6  -3    4.11    0.16
  -2  -6  -3    2.32    0.10
  -3  -6  -3    5.31    0.18
  -3  -6  -3    4.95    0.19
  -3  -6  -3    5.13    0.17
  -3  -6  -3    5.37    0.18
  -4  -6  -3   23.63    0.49
  -4  -6  -3   22.57    0.46
  -4  -6  -3   23.98    0.48
  -4  -6  -3   23.41    0.52
  -5  -6  -3    0.03    0.04
  -5  -6  -3    0.01    0.04
  -5  -6  -3    0.06    0.04
  -5  -6  -3    0.02    0.04
  -6  -6  -3    3.71    0.19
  -6  -6  -3    3.77    0.19
  -7  -6  -3    0.07    0.05
  -7  -6  -3   -0.02    0.04
  -7  -6  -3    0.04    0.05
   4  -7  -3    1.65    0.16
  -4   7   3    1.54    0.16
   3  -7  -3    0.58    0.10
  -3   7   3    0.79    0.11
   2  -7  -3    0.54    0.09
  -2   7   3    0.59    0.09
   1  -7  -3    6.29    0.23
  -1   7   3    6.46    0.21
   0  -7  -3    1.14    0.11
   0   7   3    1.12    0.08
  -1  -7  -3   -0.01    0.02
  -1  -7  -3    0.00    0.02
  -2  -7  -3    2.59    0.14
  -2  -7  -3    2.66    0.12
  -2  -7  -3    2.76    0.14
  -3  -7  -3   20.65    0.43
  -4  -7  -3   26.76    0.54
  -4  -7  -3   26.47    0.55
  -5  -7  -3    1.73    0.15
  -5  -7  -3    1.94    0.16
  -6  -7  -3    0.08    0.05
  -6  -7  -3   -0.01    0.03
   3  -8  -3    0.06    0.06
  -3   8   3    0.01    0.05
   2  -8  -3    0.54    0.10
  -2   8   3    0.82    0.10
   1  -8  -3    4.25    0.20
  -1   8   3    4.49    0.18
   0  -8  -3    4.35    0.19
  -1  -8  -3    0.40    0.07
  -2  -8  -3   17.05    0.42
  -2  -8  -3   16.78    0.42
  -2  -8  -3   16.94    0.36
  -3  -8  -3    7.46    0.24
  -4  -8  -3    6.38    0.24
  -5  -8  -3    0.34    0.08
  -6  -8  -3    0.07    0.05
   2  -9  -3   18.21    0.50
   1  -9  -3   -0.01    0.04
   0  -9  -3    3.48    0.19
  -1  -9  -3    0.88    0.11
  -2  -9  -3    0.23    0.06
  -2  -9  -3    0.13    0.05
  -3  -9  -3    0.73    0.09
  -3  -9  -3    0.91    0.11
  -3  -9  -3    0.95    0.11
  -4  -9  -3    0.70    0.10
  -5  -9  -3    0.52    0.09
   0 -10  -3    0.55    0.10
  -1 -10  -3    0.88    0.12
  -2 -10  -3    2.19    0.18
  -3 -10  -3    0.02    0.04
  -3 -10  -3    0.06    0.05
  -4 -10  -3    1.12    0.13
   3   7  -4    0.10    0.06
  -3  -7   4    0.17    0.06
   2   7  -4    1.99    0.15
  -2  -7   4    2.19    0.15
   1   7  -4    0.36    0.08
  -1  -7   4    0.46    0.08
  -1  -7   4    0.53    0.09
  -1  -7   4    0.33    0.07
   0   7  -4    2.62    0.17
   0  -7   4    2.86    0.16
   0  -7   4    2.58    0.15
  -1   7  -4    2.05    0.15
   1  -7   4    2.01    0.14
   1  -7   4    2.36    0.14
  -2   7  -4    0.05    0.05
   2  -7   4    0.02    0.04
  -4  -6   4    3.48    0.20
   3   6  -4    5.35    0.22
  -3  -6   4    5.24    0.23
   2   6  -4    0.19    0.06
  -2  -6   4    0.30    0.07
   1   6  -4    1.26    0.13
  -1  -6   4    1.32    0.12
  -1  -6   4    1.57    0.11
   0   6  -4    0.00    0.04
   0  -6   4   -0.01    0.03
   0  -6   4    0.02    0.04
  -1   6  -4    0.17    0.06
   1  -6   4    0.21    0.06
   1  -6   4    0.20    0.05
  -2   6  -4    0.73    0.10
   2  -6   4    0.69    0.09
   2  -6   4    0.60    0.09
  -3   6  -4    0.18    0.07
   3  -6   4    0.31    0.07
  -5  -5   4    0.11    0.06
   4   5  -4   19.14    0.44
  -4  -5   4   19.19    0.48
   3   5  -4    5.51    0.22
  -3  -5   4    5.75    0.23
   2   5  -4    9.30    0.29
   1   5  -4    3.31    0.17
  -1  -5   4    3.80    0.17
   0   5  -4   10.85    0.32
   0  -5   4   11.01    0.28
   0  -5   4   10.88    0.30
   0  -5   4   11.13    0.28
  -1   5  -4    5.77    0.23
   1  -5   4    6.08    0.21
   1  -5   4    6.00    0.19
  -2   5  -4   21.93    0.51
   2  -5   4   22.35    0.46
   2  -5   4   23.08    0.48
  -3   5  -4    6.72    0.26
   3  -5   4    7.24    0.24
   3  -5   4    7.08    0.23
  -4   5  -4    0.31    0.07
   4  -5   4    0.41    0.07
  -5  -4   4    1.78    0.16
   4   4  -4    2.00    0.12
  -4  -4   4    1.89    0.13
   3   4  -4    1.59    0.11
  -3  -4   4    1.64    0.11
   2   4  -4    0.16    0.05
  -2  -4   4    0.07    0.04
   1   4  -4    5.63    0.21
  -1  -4   4    5.71    0.20
   0   4  -4    7.19    0.24
   0  -4   4    6.92    0.19
   0  -4   4    6.59    0.21
   0  -4   4    7.20    0.20
  -1   4  -4   10.74    0.30
   1  -4   4   10.45    0.27
   1  -4   4   10.74    0.25
  -2   4  -4    4.75    0.17
  -2   4  -4    4.86    0.19
   2  -4   4    5.13    0.17
   2  -4   4    4.56    0.17
  -3   4  -4    0.73    0.09
  -3   4  -4    0.63    0.09
   3  -4   4    0.62    0.08
   3  -4   4    0.59    0.08
  -4   4  -4    1.45    0.14
  -4   4  -4    1.42    0.13
   4  -4   4    1.31    0.12
   4  -4   4    1.38    0.12
  -5   4  -4    2.25    0.17
   5  -4   4    2.08    0.14
   5   3  -4    0.72    0.10
  -5  -3   4    0.67    0.09
   4   3  -4   -0.02    0.03
   4   3  -4    0.02    0.03
  -4  -3   4    0.00    0.03
   3   3  -4   11.75    0.30
  -3  -3   4   11.06    0.30
   2   3  -4    5.02    0.18
  -2  -3   4    4.98    0.18
   1   3  -4   10.65    0.28
  -1  -3   4   10.84    0.27
   0   3  -4   15.64    0.30
   0   3  -4   15.85    0.36
   0  -3   4   15.34    0.33
  -1   3  -4   18.72    0.36
  -1   3  -4   18.40    0.40
   1  -3   4   18.06    0.37
  -2   3  -4    3.06    0.14
  -2   3  -4    3.29    0.15
   2  -3   4    3.11    0.13
   2  -3   4    3.20    0.12
  -3   3  -4    0.04    0.04
  -3   3  -4    0.00    0.03
   3  -3   4    0.02    0.03
   3  -3   4    0.00    0.03
  -4   3  -4    0.97    0.10
  -4   3  -4    1.13    0.13
   4  -3   4    1.19    0.10
   4  -3   4    1.07    0.11
  -5   3  -4    4.06    0.22
   5  -3   4    3.79    0.17
   5  -3   4    4.16    0.19
  -6   3  -4    1.51    0.18
   6   2  -4    1.89    0.17
  -6  -2   4    2.11    0.15
   5   2  -4   -0.01    0.04
  -5  -2   4    0.01    0.04
  -5  -2   4    0.03    0.04
   4   2  -4    5.07    0.17
   4   2  -4    5.04    0.20
  -4  -2   4    5.29    0.19
  -4  -2   4    4.92    0.19
   3   2  -4    0.00    0.03
   3   2  -4    0.01    0.03
  -3  -2   4    0.07    0.03
  -3  -2   4    0.10    0.04
   2   2  -4    0.32    0.05
   2   2  -4    0.29    0.05
  -2  -2   4    0.32    0.05
  -2  -2   4    0.35    0.05
   1   2  -4   11.20    0.27
  -1  -2   4   10.91    0.26
   0   2  -4    2.15    0.11
   0  -2   4    2.14    0.10
  -1   2  -4    2.87    0.11
  -1   2  -4    2.75    0.12
   1  -2   4    2.91    0.09
   1  -2   4    2.83    0.12
  -2   2  -4    1.35    0.09
  -2   2  -4    1.43    0.09
   2  -2   4    1.41    0.07
   2  -2   4    1.55    0.09
  -3   2  -4    1.46    0.11
  -3   2  -4    1.30    0.09
   3  -2   4    1.41    0.08
   3  -2   4    1.37    0.09
  -4   2  -4    0.06    0.03
  -4   2  -4   -0.01    0.04
   4  -2   4    0.10    0.04
   4  -2   4    0.09    0.04
  -5   2  -4   10.08    0.35
   5  -2   4   10.15    0.28
  -6   2  -4    0.26    0.08
  -6  -1   4    1.39    0.15
   5   1  -4    4.14    0.19
  -5  -1   4    3.90    0.18
  -5  -1   4    4.08    0.19
   4   1  -4    0.87    0.10
   4   1  -4    1.05    0.09
  -4  -1   4    1.09    0.11
  -4  -1   4    1.10    0.08
  -4  -1   4    1.00    0.10
   3   1  -4    1.02    0.07
   3   1  -4    0.99    0.09
  -3  -1   4    0.98    0.09
  -3  -1   4    0.97    0.09
   2   1  -4    0.31    0.05
   2   1  -4    0.31    0.05
  -2  -1   4    0.27    0.04
  -2  -1   4    0.33    0.05
   1   1  -4    7.46    0.21
   1   1  -4    7.22    0.17
  -1  -1   4    8.04    0.20
   0   1  -4   49.56    0.79
   0  -1   4   48.61    0.75
  -1   1  -4   46.93    0.77
   1  -1   4   48.43    0.74
   1  -1   4   49.95    0.68
  -2   1  -4    0.04    0.03
  -2   1  -4    0.11    0.04
   2  -1   4    0.07    0.02
   2  -1   4    0.05    0.02
  -3   1  -4   13.54    0.34
  -3   1  -4   13.59    0.29
   3  -1   4   13.08    0.26
   3  -1   4   13.01    0.30
  -4   1  -4   15.30    0.32
  -4   1  -4   15.20    0.40
   4  -1   4   14.88    0.35
   4  -1   4   14.61    0.31
  -5   1  -4   19.43    0.50
   5  -1   4   18.94    0.40
  -6   1  -4    0.03    0.04
   6  -1   4   -0.01    0.04
   6   0  -4    1.84    0.16
  -6   0   4    2.33    0.17
   5   0  -4    0.32    0.07
  -5   0   4    0.27    0.06
  -5   0   4    0.33    0.08
   4   0  -4    1.66    0.10
   4   0  -4    2.00    0.12
  -4   0   4    1.51    0.11
  -4   0   4    1.66    0.10
   3   0  -4    0.84    0.08
   3   0  -4    0.82    0.08
  -3   0   4    0.62    0.07
  -3   0   4    0.58    0.06
  -3   0   4    0.72    0.08
   2   0  -4    3.01    0.12
   2   0  -4    3.03    0.12
  -2   0   4    3.20    0.11
  -2   0   4    3.20    0.13
   1   0  -4    9.45    0.19
   1   0  -4    9.75    0.23
  -1   0   4    8.91    0.20
   0   0  -4    1.10    0.07
   0   0  -4    1.08    0.04
   0   0   4    1.25    0.06
  -1   0  -4    2.63    0.11
   1   0   4    2.66    0.10
  -2   0  -4    2.24    0.10
  -2   0  -4    2.33    0.11
   2   0   4    2.43    0.06
   2   0   4    2.38    0.10
  -3   0  -4   28.45    0.57
  -3   0  -4   28.81    0.49
   3   0   4   28.85    0.51
   3   0   4   29.16    0.46
  -4   0  -4   43.65    0.82
  -4   0  -4   44.06    0.68
   4   0   4   43.30    0.74
   4   0   4   42.79    0.69
  -5   0  -4    3.25    0.19
   5   0   4    3.80    0.15
  -6   0  -4    0.10    0.06
   6   0   4    0.18    0.05
  -7   0  -4   -0.03    0.05
   7   0   4    0.01    0.04
   6  -1  -4    6.06    0.26
  -6   1   4    6.08    0.28
   5  -1  -4    0.12    0.05
  -5   1   4    0.15    0.06
   4  -1  -4    0.40    0.06
   4  -1  -4    0.39    0.07
  -4   1   4    0.47    0.08
  -4   1   4    0.34    0.05
   3  -1  -4    1.15    0.08
   3  -1  -4    1.11    0.10
  -3   1   4    1.11    0.07
  -3   1   4    1.24    0.11
   2  -1  -4   65.95    1.02
   2  -1  -4   65.79    0.99
  -2   1   4   67.41    0.95
  -2   1   4   65.67    1.06
   1  -1  -4    9.43    0.19
  -1   1   4    9.60    0.23
  -1   1   4    9.58    0.23
  -1   1   4    9.34    0.19
   0  -1  -4   34.02    0.49
   0  -1  -4   34.43    0.57
   0   1   4   34.09    0.51
  -1  -1  -4    2.98    0.11
   1   1   4    3.24    0.10
  -2  -1  -4    7.06    0.18
   2   1   4    7.17    0.12
   2   1   4    7.08    0.18
  -3  -1  -4   16.08    0.37
  -3  -1  -4   16.06    0.30
   3   1   4   15.87    0.33
   3   1   4   16.36    0.28
  -4  -1  -4    1.49    0.11
  -4  -1  -4    1.75    0.07
   4   1   4    1.76    0.09
   4   1   4    1.74    0.08
  -5  -1  -4    7.12    0.27
   5   1   4    7.47    0.21
  -6  -1  -4    0.79    0.12
   6   1   4    0.88    0.09
  -7  -1  -4    0.34    0.09
   7   1   4    0.44    0.08
   6  -2  -4    0.50    0.09
  -6   2   4    0.42    0.09
   5  -2  -4    0.04    0.05
  -5   2   4   -0.02    0.04
   4  -2  -4    0.33    0.07
   4  -2  -4    0.36    0.06
  -4   2   4    0.51    0.08
   3  -2  -4    4.26    0.16
   3  -2  -4    4.33    0.16
  -3   2   4    3.77    0.17
  -3   2   4    4.21    0.12
   2  -2  -4  219.52    3.02
   2  -2  -4  217.14    3.07
  -2   2   4  225.86    2.89
  -2   2   4  216.24    3.17
   1  -2  -4   17.00    0.31
   1  -2  -4   17.15    0.35
  -1   2   4   16.49    0.35
  -1   2   4   17.11    0.27
   0  -2  -4    6.91    0.19
   0  -2  -4    7.22    0.15
   0   2   4    7.05    0.19
   0   2   4    7.28    0.14
  -1  -2  -4   14.52    0.30
  -1  -2  -4   14.71    0.23
   1   2   4   15.20    0.26
  -2  -2  -4   13.77    0.27
   2   2   4   14.05    0.27
  -3  -2  -4    8.23    0.24
  -3  -2  -4    8.17    0.18
   3   2   4    8.12    0.17
  -4  -2  -4   19.00    0.33
  -4  -2  -4   19.95    0.45
   4   2   4   19.51    0.36
  -5  -2  -4    4.99    0.22
   5   2   4    5.35    0.17
  -6  -2  -4    0.02    0.05
   6   2   4    0.06    0.04
  -7  -2  -4    0.10    0.07
   7   2   4    0.18    0.06
   5  -3  -4    0.22    0.06
  -5   3   4    0.19    0.07
   4  -3  -4    7.46    0.23
   4  -3  -4    7.13    0.25
  -4   3   4    7.26    0.27
   3  -3  -4    4.81    0.18
   3  -3  -4    5.00    0.19
  -3   3   4    4.98    0.20
   2  -3  -4   80.69    1.22
   2  -3  -4   78.43    1.19
  -2   3   4   77.86    1.05
  -2   3   4   78.93    1.26
   1  -3  -4    0.83    0.07
   1  -3  -4    0.79    0.08
  -1   3   4    0.76    0.03
  -1   3   4    0.82    0.08
   0  -3  -4    4.02    0.11
   0  -3  -4    3.98    0.14
   0   3   4    3.98    0.09
   0   3   4    3.94    0.14
  -1  -3  -4   15.89    0.27
  -1  -3  -4   15.44    0.32
  -2  -3  -4   67.35    1.01
  -3  -3  -4    2.17    0.09
  -3  -3  -4    2.19    0.12
  -4  -3  -4   45.14    0.68
  -4  -3  -4   44.87    0.82
   4   3   4   46.14    0.72
  -5  -3  -4    0.70    0.10
   5   3   4    0.52    0.07
  -6  -3  -4    2.69    0.18
   6   3   4    2.76    0.14
  -7  -3  -4    0.13    0.06
   7   3   4    0.12    0.05
   5  -4  -4    0.02    0.04
  -5   4   4    0.08    0.06
   4  -4  -4    0.12    0.05
   4  -4  -4    0.12    0.06
  -4   4   4    0.20    0.06
   3  -4  -4    0.51    0.07
   3  -4  -4    0.49    0.08
  -3   4   4    0.37    0.07
   2  -4  -4    1.10    0.10
  -2   4   4    1.01    0.10
   1  -4  -4   15.43    0.32
  -1   4   4   14.82    0.34
   0  -4  -4    0.51    0.06
   0   4   4    0.69    0.07
  -1  -4  -4    2.83    0.10
  -3  -4  -4    0.01    0.03
  -4  -4  -4    0.93    0.10
  -4  -4  -4    0.84    0.06
  -5  -4  -4    0.34    0.08
  -6  -4  -4    3.38    0.19
   6   4   4    3.28    0.16
  -7  -4  -4    0.72    0.12
   7   4   4    0.85    0.11
   5  -5  -4    0.87    0.12
  -5   5   4    1.21    0.15
   4  -5  -4    0.02    0.04
  -4   5   4    0.05    0.05
   3  -5  -4    0.70    0.09
  -3   5   4    0.66    0.09
   2  -5  -4    0.63    0.08
  -2   5   4    0.64    0.09
   1  -5  -4    4.18    0.16
  -1   5   4    4.36    0.17
   0  -5  -4    3.30    0.13
   0  -5  -4    3.42    0.07
   0   5   4    3.33    0.14
  -1  -5  -4   14.68    0.31
  -4  -5  -4    0.13    0.05
  -5  -5  -4    2.18    0.14
  -6  -5  -4    0.09    0.06
  -7  -5  -4    0.84    0.12
   4  -6  -4    0.55    0.10
  -4   6   4    0.69    0.11
   3  -6  -4    1.91    0.14
  -3   6   4    1.62    0.15
   2  -6  -4    1.01    0.11
  -2   6   4    0.98    0.11
   1  -6  -4    1.16    0.11
  -1   6   4    1.17    0.11
   0  -6  -4    0.03    0.03
   0   6   4    0.02    0.03
  -1  -6  -4    1.47    0.07
  -1  -6  -4    1.65    0.10
  -2  -6  -4    8.29    0.20
  -2  -6  -4    8.48    0.21
  -2  -6  -4    8.61    0.23
  -2  -6  -4    8.42    0.23
  -2  -6  -4    8.38    0.22
  -3  -6  -4   22.12    0.44
  -3  -6  -4   21.96    0.46
  -3  -6  -4   22.12    0.42
  -4  -6  -4    0.16    0.05
  -5  -6  -4    0.49    0.08
  -6  -6  -4   -0.02    0.04
  -6  -6  -4   -0.03    0.04
  -6  -6  -4   -0.01    0.04
  -6  -6  -4   -0.01    0.04
  -7  -6  -4    1.40    0.15
  -7  -6  -4    1.37    0.16
  -7  -6  -4    1.16    0.13
  -7  -6  -4    1.52    0.15
   3  -7  -4    8.00    0.30
  -3   7   4    8.82    0.31
   2  -7  -4    0.81    0.11
  -2   7   4    0.80    0.10
   1  -7  -4    0.09    0.05
  -1   7   4    0.10    0.04
   0  -7  -4   -0.02    0.03
   0   7   4    0.03    0.03
  -1  -7  -4    7.52    0.24
  -2  -7  -4   11.90    0.27
  -2  -7  -4   11.69    0.31
  -2  -7  -4   12.03    0.31
  -3  -7  -4   20.08    0.42
  -3  -7  -4   20.18    0.41
  -3  -7  -4   20.29    0.45
  -4  -7  -4    0.70    0.09
  -4  -7  -4    0.43    0.08
  -4  -7  -4    0.56    0.08
  -4  -7  -4    0.70    0.08
  -5  -7  -4    1.20    0.13
  -5  -7  -4    1.23    0.12
  -5  -7  -4    1.20    0.13
  -6  -7  -4    5.37    0.24
  -6  -7  -4    5.85    0.25
  -6  -7  -4    5.00    0.25
   3  -8  -4    4.12    0.22
  -3   8   4    3.99    0.21
   2  -8  -4    0.05    0.05
  -2   8   4    0.02    0.04
   1  -8  -4    1.14    0.12
  -1   8   4    1.25    0.12
   0  -8  -4    1.11    0.12
   0   8   4    1.32    0.10
  -1  -8  -4    0.43    0.08
  -2  -8  -4    0.01    0.03
  -2  -8  -4    0.02    0.04
  -2  -8  -4    0.09    0.04
  -3  -8  -4   -0.01    0.03
  -4  -8  -4    0.65    0.09
  -5  -8  -4    5.54    0.23
  -5  -8  -4    5.75    0.24
  -6  -8  -4    0.62    0.10
  -6  -8  -4    0.62    0.10
   2  -9  -4    0.39    0.09
   1  -9  -4    6.76    0.27
   0  -9  -4   15.68    0.42
  -1  -9  -4    2.67    0.16
  -2  -9  -4    0.63    0.09
  -3  -9  -4    0.15    0.05
  -3  -9  -4    0.12    0.05
  -3  -9  -4    0.03    0.04
  -4  -9  -4    0.19    0.06
  -5  -9  -4    0.26    0.08
   0 -10  -4    5.65    0.25
  -1 -10  -4   -0.02    0.04
  -2 -10  -4    0.58    0.10
  -3 -10  -4    0.81    0.11
  -3 -10  -4    0.55    0.10
   1   7  -5    0.04    0.05
  -1  -7   5   -0.03    0.04
   0   7  -5    0.05    0.06
   0  -7   5    0.18    0.06
   1  -7   5    2.02    0.14
   3   6  -5    1.39    0.14
   2   6  -5    2.05    0.15
  -2  -6   5    1.81    0.16
   1   6  -5    3.69    0.20
  -1  -6   5    3.83    0.17
  -1  -6   5    3.61    0.18
  -1  -6   5    3.68    0.17
   0   6  -5    0.46    0.09
   0  -6   5    0.35    0.07
  -1   6  -5    1.44    0.15
   1  -6   5    1.31    0.13
  -2   6  -5    0.77    0.11
   2  -6   5    0.63    0.09
  -4  -5   5    0.84    0.11
   3   5  -5    2.75    0.16
   2   5  -5   14.17    0.39
  -2  -5   5   13.72    0.38
   1   5  -5    1.03    0.12
  -1  -5   5    1.10    0.11
   0   5  -5    1.40    0.13
   0  -5   5    1.61    0.11
   0  -5   5    1.75    0.11
   0  -5   5    1.34    0.10
  -1   5  -5    0.11    0.05
   1  -5   5    0.15    0.05
  -2   5  -5    2.27    0.15
   2  -5   5    2.14    0.13
  -3   5  -5    0.00    0.04
   3  -5   5    0.03    0.04
  -4   5  -5    1.79    0.16
   4  -5   5    1.60    0.14
  -5  -4   5    1.05    0.12
  -4  -4   5    1.58    0.15
   3   4  -5    0.04    0.04
  -3  -4   5    0.01    0.04
   2   4  -5    6.96    0.25
  -2  -4   5    7.22    0.24
   1   4  -5    9.58    0.29
  -1  -4   5    9.29    0.28
   0   4  -5    5.52    0.22
   0  -4   5    5.40    0.20
   0  -4   5    5.54    0.17
   0  -4   5    5.64    0.18
  -1   4  -5    0.34    0.07
   1  -4   5    0.29    0.06
   1  -4   5    0.26    0.05
  -2   4  -5   10.64    0.32
   2  -4   5   11.04    0.30
  -3   4  -5    4.14    0.19
  -3   4  -5    4.10    0.19
   3  -4   5    4.11    0.18
  -4   4  -5    2.72    0.17
  -4   4  -5    2.79    0.16
   4  -4   5    2.79    0.16
  -5   4  -5    0.08    0.06
   5  -4   5    0.03    0.05
   5   3  -5    0.01    0.04
  -5  -3   5    0.03    0.05
   4   3  -5   -0.04    0.03
  -4  -3   5    0.00    0.04
   3   3  -5    8.76    0.27
  -3  -3   5    8.79    0.27
   2   3  -5    0.16    0.05
  -2  -3   5    0.20    0.05
   1   3  -5   17.67    0.42
  -1  -3   5   18.49    0.40
   0   3  -5    0.91    0.10
   0   3  -5    0.92    0.07
   0  -3   5    0.81    0.08
  -1   3  -5    1.03    0.09
  -1   3  -5    0.98    0.10
   1  -3   5    0.98    0.09
   1  -3   5    1.03    0.06
  -2   3  -5   41.51    0.76
  -2   3  -5   42.28    0.75
   2  -3   5   41.78    0.73
  -3   3  -5    1.95    0.12
  -3   3  -5    2.34    0.14
   3  -3   5    2.09    0.13
  -4   3  -5    1.62    0.12
  -4   3  -5    1.70    0.15
   4  -3   5    1.59    0.12
  -5   3  -5    0.58    0.11
   5  -3   5    0.52    0.09
   5   2  -5    3.28    0.18
  -5  -2   5    2.83    0.16
   4   2  -5    4.35    0.19
   4   2  -5    4.22    0.17
  -4  -2   5    4.28    0.18
  -4  -2   5    4.49    0.19
   3   2  -5    6.72    0.21
   3   2  -5    6.80    0.22
  -3  -2   5    6.88    0.23
   2   2  -5    9.18    0.26
   1   2  -5    0.22    0.05
  -1  -2   5    0.24    0.05
   0   2  -5    0.03    0.03
   0  -2   5    0.07    0.03
  -1   2  -5    5.89    0.18
  -1   2  -5    5.97    0.20
   1  -2   5    5.68    0.14
   1  -2   5    6.11    0.19
  -2   2  -5    1.38    0.10
  -2   2  -5    1.24    0.11
   2  -2   5    1.40    0.09
   2  -2   5    1.31    0.07
  -3   2  -5    5.05    0.19
  -3   2  -5    5.24    0.21
   3  -2   5    4.99    0.18
  -4   2  -5    1.17    0.10
  -4   2  -5    1.37    0.14
   4  -2   5    1.11    0.11
  -5   2  -5   -0.03    0.05
   5  -2   5    0.03    0.04
  -6   2  -5    0.03    0.06
   5   1  -5    0.16    0.05
  -5  -1   5    0.10    0.05
  -5  -1   5    0.04    0.04
   4   1  -5    2.60    0.14
   4   1  -5    2.46    0.13
  -4  -1   5    2.26    0.13
  -4  -1   5    2.77    0.15
  -4  -1   5    2.43    0.13
   3   1  -5    3.03    0.14
   3   1  -5    2.75    0.13
  -3  -1   5    2.62    0.13
  -3  -1   5    3.00    0.14
   2   1  -5    1.46    0.10
   2   1  -5    1.38    0.08
  -2  -1   5    0.98    0.09
  -2  -1   5    1.39    0.09
   1   1  -5    0.00    0.02
  -1  -1   5    0.00    0.02
   0   1  -5    4.95    0.18
   0  -1   5    4.99    0.15
  -1   1  -5   -0.02    0.02
   1  -1   5   -0.01    0.02
   1  -1   5    0.02    0.01
  -2   1  -5    0.35    0.06
  -2   1  -5    0.41    0.06
   2  -1   5    0.43    0.06
   2  -1   5    0.48    0.04
  -3   1  -5    0.00    0.03
  -3   1  -5   -0.07    0.03
   3  -1   5   -0.01    0.02
   3  -1   5   -0.01    0.02
  -4   1  -5    2.45    0.12
  -4   1  -5    2.76    0.16
   4  -1   5    2.66    0.14
  -5   1  -5    2.33    0.17
  -6   1  -5    0.67    0.11
   5   0  -5    0.55    0.09
  -5   0   5    0.80    0.11
   4   0  -5    0.03    0.04
   4   0  -5    0.06    0.04
  -4   0   5   -0.02    0.03
  -4   0   5    0.03    0.03
   3   0  -5    4.09    0.17
   3   0  -5    4.17    0.16
  -3   0   5    4.63    0.18
  -3   0   5    4.24    0.15
  -3   0   5    4.40    0.17
   2   0  -5    1.81    0.11
   2   0  -5    2.02    0.10
  -2   0   5    2.11    0.10
  -2   0   5    2.02    0.11
   1   0  -5    0.16    0.04
   1   0  -5    0.13    0.03
  -1   0   5    0.17    0.04
  -1   0   5    0.23    0.04
   0   0  -5    0.73    0.08
   0   0   5    0.87    0.06
  -1   0  -5   44.11    0.74
   1   0   5   45.13    0.70
  -2   0  -5    2.69    0.13
  -2   0  -5    2.79    0.12
   2   0   5    2.94    0.12
  -3   0  -5    8.80    0.23
  -3   0  -5    9.37    0.28
   3   0   5    9.31    0.18
   3   0   5    9.55    0.25
  -4   0  -5    6.88    0.26
  -4   0  -5    6.41    0.19
   4   0   5    6.46    0.17
   4   0   5    6.33    0.21
  -5   0  -5    1.64    0.16
  -6   0  -5    1.38    0.16
   5  -1  -5    0.42    0.08
  -5   1   5    0.37    0.08
   4  -1  -5    2.37    0.13
   4  -1  -5    2.45    0.14
  -4   1   5    2.52    0.15
   3  -1  -5    9.14    0.26
   3  -1  -5    9.99    0.27
  -3   1   5    9.39    0.28
  -3   1   5    9.19    0.23
   2  -1  -5    8.17    0.23
   2  -1  -5    7.96    0.21
  -2   1   5    8.32    0.24
  -2   1   5    7.84    0.19
  -2   1   5    7.87    0.23
   1  -1  -5    0.30    0.05
   1  -1  -5    0.44    0.05
  -1   1   5    0.41    0.06
  -1   1   5    0.44    0.06
  -1   1   5    0.39    0.04
   0  -1  -5   32.34    0.57
   0  -1  -5   30.99    0.46
   0   1   5   31.25    0.50
  -1  -1  -5   24.60    0.46
   1   1   5   24.92    0.42
  -2  -1  -5    7.60    0.21
   2   1   5    7.68    0.20
  -3  -1  -5    5.47    0.17
  -3  -1  -5    5.83    0.21
   3   1   5    5.83    0.13
   3   1   5    5.98    0.18
  -4  -1  -5   14.70    0.29
  -4  -1  -5   14.63    0.39
   4   1   5   14.10    0.34
   4   1   5   14.23    0.28
  -5  -1  -5    0.33    0.08
   5   1   5    0.38    0.06
  -6  -1  -5    3.61    0.21
  -7  -1  -5    8.21    0.35
   5  -2  -5    1.73    0.15
  -5   2   5    1.63    0.16
   4  -2  -5    1.02    0.10
   4  -2  -5    1.19    0.12
  -4   2   5    1.08    0.12
   3  -2  -5   15.35    0.36
   3  -2  -5   15.55    0.36
  -3   2   5   14.94    0.39
   2  -2  -5    5.44    0.19
   2  -2  -5    5.44    0.17
  -2   2   5    5.39    0.14
  -2   2   5    5.64    0.20
   1  -2  -5   10.62    0.27
   1  -2  -5   10.78    0.23
  -1   2   5   10.57    0.20
   0  -2  -5   37.55    0.63
   0  -2  -5   35.75    0.54
   0   2   5   36.89    0.55
   0   2   5   35.61    0.63
  -1  -2  -5    0.83    0.03
  -1  -2  -5    0.74    0.07
   1   2   5    0.98    0.09
   1   2   5    0.94    0.06
  -2  -2  -5    2.51    0.11
   2   2   5    2.61    0.10
   2   2   5    2.60    0.11
  -3  -2  -5    5.96    0.21
  -3  -2  -5    6.15    0.17
   3   2   5    5.90    0.17
   3   2   5    5.70    0.18
  -4  -2  -5    0.48    0.05
  -4  -2  -5    0.50    0.08
   4   2   5    0.44    0.05
  -5  -2  -5    4.10    0.21
   5   2   5    4.12    0.15
  -6  -2  -5    2.17    0.17
   6   2   5    2.40    0.13
  -7  -2  -5    0.25    0.09
   5  -3  -5    1.41    0.14
  -5   3   5    1.17    0.15
   4  -3  -5    2.92    0.16
  -4   3   5    3.05    0.18
   3  -3  -5    5.84    0.21
   3  -3  -5    5.80    0.20
  -3   3   5    5.54    0.23
   2  -3  -5    1.28    0.09
   2  -3  -5    1.05    0.10
  -2   3   5    1.29    0.10
   1  -3  -5    9.41    0.25
   1  -3  -5    8.78    0.21
  -1   3   5    9.06    0.16
   0  -3  -5    4.78    0.17
   0  -3  -5    4.47    0.13
   0   3   5    4.41    0.11
   0   3   5    4.43    0.16
  -1  -3  -5   14.76    0.33
  -1  -3  -5   14.80    0.26
   1   3   5   14.98    0.27
  -2  -3  -5   39.16    0.66
  -3  -3  -5    3.79    0.13
  -4  -3  -5    6.79    0.17
  -4  -3  -5    6.78    0.24
  -5  -3  -5   22.24    0.54
   5   3   5   22.82    0.44
  -6  -3  -5    1.95    0.18
   6   3   5    1.65    0.11
  -7  -3  -5    0.00    0.05
   5  -4  -5    0.01    0.05
  -5   4   5    0.11    0.06
   4  -4  -5    0.18    0.06
  -4   4   5    0.23    0.07
   3  -4  -5    1.18    0.11
   3  -4  -5    1.16    0.11
  -3   4   5    1.26    0.13
   2  -4  -5    5.54    0.19
   2  -4  -5    5.21    0.20
  -2   4   5    5.18    0.21
   1  -4  -5    1.32    0.10
   1  -4  -5    1.30    0.09
  -1   4   5    1.34    0.10
   0  -4  -5    2.38    0.12
   0  -4  -5    2.29    0.10
   0   4   5    2.34    0.12
  -1  -4  -5    1.77    0.10
  -1  -4  -5    1.61    0.08
  -2  -4  -5    4.31    0.12
  -2  -4  -5    4.32    0.12
  -2  -4  -5    4.30    0.15
  -3  -4  -5    5.99    0.18
  -4  -4  -5   12.47    0.34
  -4  -4  -5   12.22    0.27
  -5  -4  -5   10.01    0.32
  -6  -4  -5    3.52    0.20
  -7  -4  -5    0.04    0.06
   7   4   5    0.01    0.04
   4  -5  -5    1.48    0.14
  -4   5   5    1.31    0.15
   3  -5  -5    0.06    0.04
   3  -5  -5   -0.03    0.03
  -3   5   5    0.05    0.04
   2  -5  -5    0.67    0.08
  -2   5   5    0.75    0.10
   1  -5  -5    0.00    0.03
  -1   5   5    0.06    0.03
   0  -5  -5    3.13    0.13
   0   5   5    3.26    0.14
  -1  -5  -5    1.97    0.09
  -2  -5  -5    0.70    0.07
  -2  -5  -5    0.65    0.06
  -4  -5  -5    2.00    0.13
  -4  -5  -5    2.28    0.11
  -5  -5  -5   30.09    0.65
  -6  -5  -5   -0.01    0.04
  -7  -5  -5    0.44    0.10
   4  -6  -5    0.53    0.10
  -4   6   5    0.57    0.11
   3  -6  -5    0.81    0.11
  -3   6   5    0.61    0.10
   2  -6  -5    0.54    0.09
  -2   6   5    0.62    0.09
   1  -6  -5    4.67    0.19
  -1   6   5    4.68    0.19
   0  -6  -5    7.52    0.22
   0   6   5    7.43    0.24
  -1  -6  -5    3.93    0.15
  -1  -6  -5    3.81    0.11
  -1  -6  -5    3.77    0.12
  -1  -6  -5    3.59    0.11
  -2  -6  -5    0.16    0.04
  -2  -6  -5    0.12    0.04
  -4  -6  -5    5.45    0.21
  -5  -6  -5    0.16    0.06
  -6  -6  -5    0.30    0.08
  -7  -6  -5    0.49    0.10
   3  -7  -5    0.00    0.05
  -3   7   5    0.06    0.05
   2  -7  -5    9.29    0.31
  -2   7   5    9.42    0.31
   1  -7  -5   12.30    0.34
  -1   7   5   11.84    0.34
   0  -7  -5    1.25    0.11
   0   7   5    1.20    0.11
  -1  -7  -5    0.01    0.03
  -2  -7  -5    2.23    0.12
  -2  -7  -5    2.24    0.11
  -2  -7  -5    2.07    0.12
  -2  -7  -5    2.39    0.10
  -2  -7  -5    2.13    0.10
  -3  -7  -5   13.05    0.32
  -3  -7  -5   13.33    0.34
  -3  -7  -5   13.26    0.31
  -4  -7  -5   -0.03    0.03
  -4  -7  -5    0.07    0.04
  -4  -7  -5   -0.02    0.03
  -4  -7  -5   -0.01    0.03
  -5  -7  -5    2.75    0.16
  -5  -7  -5    2.42    0.15
  -5  -7  -5    2.77    0.15
  -5  -7  -5    2.41    0.16
  -6  -7  -5    0.33    0.08
  -6  -7  -5    0.22    0.07
  -6  -7  -5    0.13    0.06
   2  -8  -5    1.96    0.17
  -2   8   5    2.19    0.15
   1  -8  -5    0.03    0.04
  -1   8   5    0.08    0.05
   0  -8  -5    0.79    0.10
   0   8   5    0.62    0.09
  -1  -8  -5    0.03    0.04
  -2  -8  -5   10.50    0.31
  -3  -8  -5   30.36    0.57
  -3  -8  -5   29.48    0.60
  -3  -8  -5   30.34    0.55
  -3  -8  -5   29.83    0.61
  -4  -8  -5    1.53    0.14
  -4  -8  -5    1.14    0.12
  -4  -8  -5    0.98    0.11
  -5  -8  -5    1.04    0.12
  -5  -8  -5    1.15    0.13
  -5  -8  -5    0.94    0.11
  -6  -8  -5    0.58    0.10
  -6  -8  -5    0.61    0.11
  -6  -8  -5    0.73    0.11
   1  -9  -5    6.52    0.26
  -1   9   5    5.86    0.24
   0  -9  -5    2.16    0.15
  -1  -9  -5    6.33    0.25
  -2  -9  -5    8.97    0.30
  -3  -9  -5    3.59    0.18
  -3  -9  -5    3.13    0.17
  -4  -9  -5    0.09    0.05
  -5  -9  -5    0.01    0.04
   0 -10  -5   -0.01    0.05
  -1 -10  -5    0.93    0.12
  -2 -10  -5    0.01    0.05
  -3 -10  -5    0.13    0.06
  -3 -10  -5   -0.02    0.04
  -4 -10  -5    0.02    0.05
  -4 -10  -5    0.09    0.06
   2   6  -6    0.76    0.11
  -2  -6   6    0.88    0.12
   1   6  -6    0.45    0.09
  -1  -6   6    0.38    0.08
   0   6  -6    0.36    0.08
   0  -6   6    0.43    0.08
  -1   6  -6    0.67    0.11
   1  -6   6    0.58    0.09
   3   5  -6    2.37    0.16
  -3  -5   6    2.47    0.16
   2   5  -6    3.23    0.19
  -2  -5   6    3.38    0.18
   1   5  -6    0.39    0.08
  -1  -5   6    0.44    0.08
   0   5  -6    1.90    0.14
   0  -5   6    1.81    0.13
  -1   5  -6    0.05    0.04
   1  -5   6    0.07    0.04
  -2   5  -6    1.97    0.17
   2  -5   6    1.76    0.13
  -3   5  -6    0.61    0.10
   3  -5   6    0.56    0.09
  -4  -4   6    1.09    0.13
   3   4  -6    3.17    0.17
   2   4  -6    4.78    0.21
  -2  -4   6    4.91    0.21
   1   4  -6    3.80    0.19
  -1  -4   6    3.79    0.18
   0   4  -6    0.81    0.11
   0  -4   6    0.81    0.10
  -1   4  -6   19.74    0.49
   1  -4   6   19.40    0.45
  -2   4  -6    3.45    0.18
   2  -4   6    3.22    0.17
  -3   4  -6    0.29    0.07
   3  -4   6    0.24    0.06
  -4   4  -6    0.13    0.06
   4  -4   6    0.14    0.06
  -4  -3   6    0.03    0.04
   3   3  -6    0.66    0.09
   2   3  -6    0.09    0.05
  -2  -3   6    0.08    0.04
   1   3  -6    6.17    0.23
  -1  -3   6    6.32    0.22
   0   3  -6   17.19    0.43
   0  -3   6   17.87    0.40
  -1   3  -6    5.53    0.22
   1  -3   6    5.73    0.21
  -2   3  -6    0.99    0.11
  -2   3  -6    1.04    0.11
   2  -3   6    1.13    0.11
  -3   3  -6    1.10    0.11
  -3   3  -6    1.04    0.12
   3  -3   6    1.08    0.11
  -4   3  -6    0.95    0.12
  -4   3  -6    0.96    0.11
   4  -3   6    0.96    0.11
  -5   3  -6    0.07    0.07
   5  -3   6    0.10    0.06
   5   2  -6    0.07    0.05
  -5  -2   6    0.22    0.07
   4   2  -6   11.82    0.33
  -4  -2   6   11.38    0.33
   3   2  -6    2.21    0.12
   3   2  -6    1.90    0.13
   2   2  -6   -0.01    0.03
  -2  -2   6    0.04    0.03
   1   2  -6    8.84    0.27
  -1  -2   6    8.23    0.25
   0   2  -6    2.65    0.14
   0  -2   6    2.62    0.13
  -1   2  -6    6.07    0.22
  -1   2  -6    6.07    0.20
   1  -2   6    5.80    0.20
  -2   2  -6    2.41    0.13
  -2   2  -6    2.43    0.14
   2  -2   6    2.51    0.13
  -3   2  -6    3.32    0.17
  -3   2  -6    3.52    0.16
   3  -2   6    3.25    0.16
  -4   2  -6    1.32    0.12
  -4   2  -6    1.44    0.15
   4  -2   6    1.12    0.11
  -5   2  -6    0.68    0.11
   5  -2   6    0.52    0.09
   4   1  -6    0.06    0.04
  -4  -1   6    0.04    0.04
  -4  -1   6    0.02    0.05
  -4  -1   6    0.13    0.05
   3   1  -6    0.18    0.05
   3   1  -6    0.09    0.04
  -3  -1   6    0.13    0.04
  -3  -1   6    0.14    0.05
   2   1  -6   11.13    0.31
   2   1  -6   11.17    0.26
  -2  -1   6   10.98    0.28
   1   1  -6    0.56    0.08
  -1  -1   6    0.56    0.07
   0   1  -6   12.50    0.32
   0  -1   6   12.27    0.29
  -1   1  -6    0.05    0.03
   1  -1   6    0.03    0.03
  -2   1  -6   -0.01    0.03
  -2   1  -6    0.01    0.03
   2  -1   6    0.06    0.03
  -3   1  -6    1.56    0.12
  -3   1  -6    1.37    0.10
   3  -1   6    1.19    0.11
  -4   1  -6   22.20    0.54
  -4   1  -6   22.44    0.47
   4  -1   6   22.64    0.50
  -5   1  -6    1.73    0.17
   5  -1   6    1.70    0.15
  -6   1  -6    0.05    0.06
   5   0  -6    0.51    0.09
  -5   0   6    0.44    0.09
   4   0  -6    0.34    0.07
  -4   0   6    0.32    0.06
  -4   0   6    0.36    0.07
   3   0  -6    0.27    0.06
   3   0  -6    0.17    0.05
  -3   0   6    0.21    0.05
  -3   0   6    0.29    0.06
  -3   0   6    0.27    0.06
   2   0  -6    0.03    0.03
   2   0  -6    0.01    0.03
  -2   0   6    0.04    0.03
  -2   0   6    0.03    0.03
   1   0  -6   20.52    0.36
   1   0  -6   20.97    0.45
  -1   0   6   21.22    0.40
   0   0  -6    7.22    0.23
   0   0   6    7.26    0.20
  -1   0  -6    1.94    0.11
   1   0   6    1.77    0.10
  -2   0  -6    2.22    0.12
   2   0   6    2.26    0.11
  -3   0  -6   26.82    0.51
  -3   0  -6   27.06    0.57
   3   0   6   25.91    0.51
  -4   0  -6   17.58    0.46
  -4   0  -6   18.17    0.38
   4   0   6   17.35    0.41
  -5   0  -6    1.11    0.13
   5   0   6    1.32    0.13
  -6   0  -6    2.18    0.20
   5  -1  -6    1.16    0.13
  -5   1   6    0.85    0.12
   4  -1  -6    0.29    0.06
  -4   1   6    0.35    0.08
   3  -1  -6    2.58    0.13
   3  -1  -6    2.54    0.14
  -3   1   6    2.60    0.15
  -3   1   6    2.70    0.12
   2  -1  -6    0.05    0.03
   2  -1  -6    0.03    0.03
  -2   1   6    0.09    0.04
  -2   1   6    0.02    0.03
  -2   1   6    0.03    0.04
   1  -1  -6    1.16    0.07
   1  -1  -6    1.14    0.11
  -1   1   6    1.35    0.07
  -1   1   6    1.52    0.11
  -1   1   6    1.47    0.10
   0  -1  -6   15.32    0.25
   0  -1  -6   15.01    0.35
   0   1   6   14.86    0.30
  -1  -1  -6   11.30    0.29
   1   1   6   11.50    0.26
  -2  -1  -6    9.20    0.25
   2   1   6    9.17    0.24
  -3  -1  -6   21.94    0.50
  -3  -1  -6   22.35    0.44
   3   1   6   21.62    0.44
  -4  -1  -6    7.66    0.21
  -4  -1  -6    7.95    0.28
   4   1   6    7.77    0.24
  -5  -1  -6    0.29    0.08
  -6  -1  -6   -0.02    0.05
   5  -2  -6    1.19    0.13
  -5   2   6    0.87    0.12
   4  -2  -6    0.04    0.05
  -4   2   6    0.05    0.04
   3  -2  -6   13.43    0.33
   3  -2  -6   12.59    0.34
  -3   2   6   13.39    0.37
   2  -2  -6    4.74    0.16
   2  -2  -6    4.72    0.19
  -2   2   6    4.74    0.19
  -2   2   6    4.60    0.13
   1  -2  -6    3.68    0.16
   1  -2  -6    3.62    0.12
  -1   2   6    3.86    0.16
  -1   2   6    3.44    0.11
   0  -2  -6    1.16    0.10
   0  -2  -6    0.99    0.05
   0   2   6    0.90    0.06
   0   2   6    0.95    0.10
  -1  -2  -6   16.88    0.37
   1   2   6   16.62    0.32
   1   2   6   17.08    0.38
  -2  -2  -6   15.31    0.35
   2   2   6   15.91    0.36
   2   2   6   15.68    0.32
  -3  -2  -6   12.83    0.35
  -3  -2  -6   12.67    0.30
   3   2   6   13.34    0.31
   3   2   6   13.30    0.31
  -4  -2  -6    6.38    0.19
  -4  -2  -6    6.75    0.25
   4   2   6    6.95    0.20
  -5  -2  -6    0.13    0.06
  -6  -2  -6    0.14    0.07
  -7  -2  -6    2.69    0.20
   5  -3  -6    0.05    0.05
  -5   3   6    0.02    0.04
   4  -3  -6    2.33    0.15
  -4   3   6    2.28    0.16
   3  -3  -6   66.02    1.10
   3  -3  -6   66.87    1.08
  -3   3   6   65.80    1.17
   2  -3  -6    2.53    0.14
   2  -3  -6    2.72    0.13
  -2   3   6    2.61    0.15
   1  -3  -6    9.79    0.23
   1  -3  -6    9.54    0.28
  -1   3   6    9.52    0.19
  -1   3   6    9.45    0.28
   0  -3  -6    1.55    0.07
   0  -3  -6    1.46    0.10
   0   3   6    1.49    0.10
   0   3   6    1.59    0.07
  -1  -3  -6   15.81    0.36
  -1  -3  -6   16.32    0.27
   1   3   6   16.26    0.30
  -2  -3  -6    3.94    0.09
  -2  -3  -6    3.97    0.15
   2   3   6    3.79    0.13
  -3  -3  -6   39.98    0.68
  -4  -3  -6    6.26    0.25
  -4  -3  -6    6.20    0.19
  -5  -3  -6    1.75    0.16
  -6  -3  -6    0.83    0.12
   4  -4  -6    1.16    0.13
  -4   4   6    0.94    0.13
   3  -4  -6   16.83    0.41
   3  -4  -6   17.24    0.43
  -3   4   6   16.25    0.45
   2  -4  -6    0.30    0.07
   2  -4  -6    0.45    0.07
  -2   4   6    0.33    0.07
   1  -4  -6    0.05    0.03
   1  -4  -6    0.02    0.03
  -1   4   6    0.03    0.03
   0  -4  -6    3.97    0.17
   0  -4  -6    3.90    0.13
   0   4   6    3.70    0.16
   0   4   6    3.82    0.10
  -1  -4  -6   11.00    0.23
  -1  -4  -6   11.13    0.29
   1   4   6   11.29    0.23
  -2  -4  -6    0.90    0.09
  -2  -4  -6    0.72    0.05
  -3  -4  -6   25.56    0.49
  -4  -4  -6    1.82    0.10
  -4  -4  -6    1.81    0.13
  -5  -4  -6    5.68    0.25
  -6  -4  -6    0.51    0.10
  -7  -4  -6   -0.03    0.05
   4  -5  -6    0.02    0.05
  -4   5   6   -0.01    0.05
   3  -5  -6    3.14    0.17
   3  -5  -6    2.94    0.17
  -3   5   6    2.93    0.18
   2  -5  -6    2.46    0.15
   2  -5  -6    2.74    0.14
  -2   5   6    2.75    0.16
   1  -5  -6    2.04    0.13
   1  -5  -6    2.06    0.12
  -1   5   6    1.91    0.12
   0  -5  -6    1.79    0.12
   0  -5  -6    1.78    0.10
   0   5   6    1.84    0.12
  -1  -5  -6   31.61    0.54
  -1  -5  -6   32.49    0.62
  -2  -5  -6    0.58    0.08
  -2  -5  -6    0.58    0.06
  -3  -5  -6    5.23    0.19
  -4  -5  -6    0.13    0.05
  -4  -5  -6    0.22    0.05
  -5  -5  -6    0.18    0.07
  -6  -5  -6    2.50    0.18
  -7  -5  -6   -0.02    0.05
   3  -6  -6    0.03    0.04
   3  -6  -6    0.01    0.04
  -3   6   6   -0.01    0.04
   2  -6  -6    0.14    0.05
   2  -6  -6    0.17    0.06
  -2   6   6    0.02    0.04
   1  -6  -6    0.01    0.03
  -1   6   6    0.02    0.03
   0  -6  -6    1.70    0.10
   0   6   6    1.42    0.11
  -1  -6  -6    1.55    0.10
  -2  -6  -6    0.05    0.03
  -3  -6  -6    0.26    0.06
  -4  -6  -6    0.01    0.03
  -4  -6  -6    0.04    0.04
  -5  -6  -6   -0.02    0.04
  -6  -6  -6    0.38    0.09
  -7  -6  -6    0.53    0.11
   3  -7  -6    0.02    0.05
   3  -7  -6    0.01    0.04
  -3   7   6   -0.01    0.04
   2  -7  -6    2.67    0.16
  -2   7   6    2.63    0.17
   1  -7  -6    0.01    0.04
  -1   7   6    0.00    0.04
   0  -7  -6    0.07    0.04
   0   7   6    0.01    0.04
  -1  -7  -6    7.37    0.23
  -2  -7  -6   22.25    0.46
  -3  -7  -6    0.20    0.05
  -3  -7  -6    0.14    0.04
  -4  -7  -6    2.04    0.14
  -5  -7  -6    0.07    0.05
  -6  -7  -6    3.64    0.21
   2  -8  -6    0.36    0.09
  -2   8   6    0.37    0.08
   1  -8  -6    0.10    0.05
  -1   8   6    0.08    0.05
   0  -8  -6    0.96    0.11
   0   8   6    1.05    0.12
  -1  -8  -6    7.56    0.25
  -2  -8  -6   11.27    0.31
  -3  -8  -6    1.38    0.10
  -3  -8  -6    1.50    0.10
  -3  -8  -6    1.48    0.13
  -3  -8  -6    1.55    0.11
  -3  -8  -6    1.32    0.12
  -4  -8  -6    2.97    0.15
  -4  -8  -6    2.68    0.16
  -4  -8  -6    3.12    0.17
  -4  -8  -6    2.32    0.14
  -5  -8  -6    5.42    0.23
  -5  -8  -6    4.90    0.23
  -5  -8  -6    5.24    0.22
  -6  -8  -6    0.00    0.05
  -6  -8  -6   -0.01    0.05
  -6  -8  -6    0.00    0.05
   1  -9  -6    0.98    0.13
  -1   9   6    0.91    0.12
   0  -9  -6    2.04    0.15
   0   9   6    2.05    0.14
  -1  -9  -6   -0.02    0.04
  -2  -9  -6    1.75    0.15
  -3  -9  -6    0.13    0.05
  -3  -9  -6    0.13    0.05
  -4  -9  -6    2.78    0.16
  -4  -9  -6    2.61    0.15
  -4  -9  -6    2.33    0.15
  -4  -9  -6    2.40    0.15
  -5  -9  -6    0.43    0.09
  -5  -9  -6    0.21    0.08
  -5  -9  -6    0.30    0.08
   0 -10  -6    0.66    0.11
  -1 -10  -6    0.02    0.05
  -2 -10  -6    0.48    0.09
  -3 -10  -6    0.05    0.05
  -4 -10  -6    0.00    0.05
  -4 -10  -6    0.02    0.05
   1   5  -7    0.03    0.05
  -1  -5   7    0.06    0.05
   0   5  -7    0.03    0.05
   0  -5   7    0.01    0.04
  -1   5  -7    0.07    0.06
   1  -5   7    0.00    0.04
  -2   5  -7    0.04    0.05
   2  -5   7    0.07    0.05
   3   4  -7    4.32    0.22
  -3  -4   7    4.55    0.22
   2   4  -7    3.15    0.18
  -2  -4   7    3.15    0.18
   1   4  -7    4.12    0.21
  -1  -4   7    3.90    0.19
   0   4  -7    0.03    0.05
   0  -4   7    0.03    0.04
  -1   4  -7    0.08    0.05
   1  -4   7    0.13    0.05
  -2   4  -7    0.09    0.05
   2  -4   7    0.03    0.04
  -3   4  -7    0.56    0.10
   3  -4   7    0.51    0.09
   3   3  -7    8.68    0.31
  -3  -3   7    8.45    0.30
   2   3  -7    3.26    0.18
  -2  -3   7    2.98    0.17
   1   3  -7    1.51    0.14
  -1  -3   7    1.50    0.13
   0   3  -7    0.43    0.08
   0  -3   7    0.32    0.07
  -1   3  -7   12.57    0.37
   1  -3   7   12.73    0.35
  -2   3  -7    2.65    0.16
   2  -3   7    2.79    0.15
  -3   3  -7    6.12    0.25
   3  -3   7    6.68    0.25
  -4   3  -7    0.01    0.04
  -4   3  -7    0.03    0.06
   4  -3   7    0.03    0.05
   4   2  -7    1.71    0.15
  -4  -2   7    1.66    0.14
   3   2  -7    0.78    0.10
  -3  -2   7    0.49    0.08
   2   2  -7    4.41    0.20
  -2  -2   7    4.23    0.18
   1   2  -7    1.19    0.12
  -1  -2   7    1.37    0.12
   0   2  -7    0.32    0.07
   0  -2   7    0.35    0.07
  -1   2  -7   18.15    0.41
  -1   2  -7   17.16    0.43
   1  -2   7   17.57    0.41
  -2   2  -7    1.76    0.13
  -2   2  -7    1.81    0.12
   2  -2   7    1.75    0.12
  -3   2  -7   -0.01    0.04
  -3   2  -7    0.11    0.05
   3  -2   7    0.11    0.05
  -4   2  -7    1.31    0.13
  -4   2  -7    1.47    0.16
   4  -2   7    1.47    0.13
  -5   2  -7    0.11    0.06
   5  -2   7    0.05    0.05
   4   1  -7    3.09    0.16
  -4  -1   7    3.18    0.17
   3   1  -7    0.33    0.07
   3   1  -7    0.44    0.07
  -3  -1   7    0.32    0.06
  -3  -1   7    0.36    0.07
   2   1  -7    0.02    0.04
  -2  -1   7   -0.02    0.03
   1   1  -7    2.73    0.15
  -1  -1   7    2.65    0.13
   0   1  -7    3.46    0.17
   0  -1   7    3.77    0.16
  -1   1  -7    0.55    0.08
   1  -1   7    0.44    0.07
  -2   1  -7    2.98    0.15
  -2   1  -7    2.91    0.15
   2  -1   7    2.63    0.14
  -3   1  -7    0.01    0.04
  -3   1  -7   -0.03    0.03
   3  -1   7    0.02    0.03
  -4   1  -7   -0.01    0.03
  -4   1  -7    0.02    0.05
   4  -1   7    0.00    0.03
  -5   1  -7    0.13    0.07
   5  -1   7    0.16    0.06
   4   0  -7    1.50    0.13
  -4   0   7    1.57    0.15
   3   0  -7    3.09    0.15
   3   0  -7    3.20    0.17
  -3   0   7    2.74    0.16
  -3   0   7    2.90    0.14
  -3   0   7    3.04    0.16
   2   0  -7    0.07    0.04
   2   0  -7    0.08    0.04
  -2   0   7    0.09    0.05
  -2   0   7    0.09    0.05
  -2   0   7    0.10    0.04
   1   0  -7    0.47    0.08
  -1   0   7    0.51    0.06
   0   0  -7    0.00    0.03
   0   0   7    0.12    0.04
  -1   0  -7    0.99    0.11
   1   0   7    1.29    0.09
  -2   0  -7    1.03    0.10
   2   0   7    0.82    0.09
  -3   0  -7    0.03    0.04
  -3   0  -7    0.13    0.06
   3   0   7    0.13    0.05
  -4   0  -7    0.19    0.05
  -4   0  -7    0.29    0.08
   4   0   7    0.12    0.05
  -5   0  -7    0.11    0.07
   5   0   7    0.19    0.06
  -6   0  -7    0.03    0.05
   4  -1  -7    0.94    0.11
  -4   1   7    0.81    0.11
   3  -1  -7    0.09    0.05
   3  -1  -7    0.02    0.04
  -3   1   7    0.09    0.05
   2  -1  -7    0.67    0.09
   2  -1  -7    0.71    0.07
  -2   1   7    0.69    0.07
  -2   1   7    0.59    0.08
  -2   1   7    0.64    0.09
   1  -1  -7    1.55    0.08
   1  -1  -7    1.55    0.11
  -1   1   7    1.42    0.09
  -1   1   7    1.23    0.12
   0  -1  -7   22.27    0.49
   0   1   7   22.28    0.42
  -1  -1  -7    0.42    0.07
   1   1   7    0.31    0.05
  -2  -1  -7   19.04    0.42
   2   1   7   18.34    0.39
  -3  -1  -7    3.60    0.16
  -3  -1  -7    3.40    0.18
   3   1   7    3.36    0.15
  -4  -1  -7    4.31    0.21
  -4  -1  -7    4.36    0.17
   4   1   7    4.06    0.18
  -5  -1  -7    2.55    0.18
  -6  -1  -7    1.10    0.15
   4  -2  -7    6.39    0.24
  -4   2   7    5.45    0.25
   3  -2  -7    1.03    0.10
   3  -2  -7    0.83    0.10
  -3   2   7    0.66    0.10
   2  -2  -7    0.58    0.07
   2  -2  -7    0.43    0.07
  -2   2   7    0.54    0.08
   1  -2  -7    1.81    0.12
   1  -2  -7    1.90    0.09
  -1   2   7    1.88    0.12
  -1   2   7    1.70    0.09
   0  -2  -7    3.52    0.16
   0   2   7    3.35    0.12
   0   2   7    3.32    0.17
  -1  -2  -7    0.28    0.06
   1   2   7    0.51    0.08
   1   2   7    0.44    0.06
  -2  -2  -7    0.77    0.09
   2   2   7    0.67    0.07
   2   2   7    0.83    0.10
  -3  -2  -7    4.85    0.18
   3   2   7    4.69    0.19
   3   2   7    4.71    0.17
  -4  -2  -7    0.67    0.11
  -4  -2  -7    0.76    0.08
   4   2   7    0.70    0.09
   4   2   7    0.66    0.08
  -5  -2  -7    3.50    0.21
  -6  -2  -7    6.62    0.30
   4  -3  -7    4.57    0.21
  -4   3   7    4.31    0.23
   3  -3  -7    6.53    0.25
   3  -3  -7    6.73    0.23
  -3   3   7    6.32    0.26
   2  -3  -7    7.00    0.25
   2  -3  -7    7.02    0.21
  -2   3   7    6.79    0.25
   1  -3  -7    3.30    0.16
   1  -3  -7    3.35    0.13
  -1   3   7    3.38    0.17
   0  -3  -7    5.41    0.14
   0  -3  -7    5.44    0.21
   0   3   7    5.07    0.15
  -1  -3  -7    6.96    0.23
   1   3   7    7.19    0.19
  -2  -3  -7    0.13    0.04
   2   3   7    0.12    0.03
  -3  -3  -7    0.02    0.03
   3   3   7   -0.02    0.02
  -4  -3  -7   13.03    0.31
  -4  -3  -7   12.66    0.38
  -5  -3  -7    2.02    0.16
  -6  -3  -7    2.72    0.20
   4  -4  -7    5.90    0.25
  -4   4   7    5.74    0.27
   3  -4  -7    0.41    0.08
   3  -4  -7    0.40    0.07
  -3   4   7    0.29    0.07
   2  -4  -7    0.36    0.06
   2  -4  -7    0.47    0.08
  -2   4   7    0.26    0.07
   1  -4  -7    2.47    0.12
   1  -4  -7    2.22    0.14
  -1   4   7    2.33    0.14
   0  -4  -7   16.90    0.33
   0  -4  -7   17.31    0.42
   0   4   7   18.17    0.31
  -1  -4  -7   17.23    0.31
  -1  -4  -7   18.08    0.42
   1   4   7   17.29    0.33
  -2  -4  -7    0.40    0.07
   2   4   7    0.57    0.06
  -3  -4  -7    2.24    0.13
  -4  -4  -7    9.88    0.33
  -4  -4  -7   10.76    0.28
  -5  -4  -7    1.85    0.17
  -6  -4  -7    0.05    0.06
  -7  -4  -7    0.97    0.15
   3  -5  -7    0.95    0.11
   3  -5  -7    1.34    0.14
  -3   5   7    0.75    0.11
   2  -5  -7    1.86    0.12
   2  -5  -7    1.77    0.16
  -2   5   7    1.90    0.14
   1  -5  -7    0.93    0.11
   1  -5  -7    0.90    0.09
  -1   5   7    0.82    0.11
   0  -5  -7    0.18    0.06
   0  -5  -7    0.24    0.05
   0   5   7    0.30    0.06
  -1  -5  -7    0.92    0.10
  -1  -5  -7    0.89    0.07
  -2  -5  -7    9.59    0.22
  -2  -5  -7    9.83    0.29
  -3  -5  -7   11.19    0.30
  -4  -5  -7   19.40    0.49
  -4  -5  -7   19.40    0.42
  -5  -5  -7    5.84    0.26
  -6  -5  -7    1.05    0.14
   3  -6  -7    0.03    0.05
   3  -6  -7    0.11    0.06
  -3   6   7    0.22    0.07
   2  -6  -7    1.08    0.13
   2  -6  -7    1.27    0.13
  -2   6   7    1.17    0.13
   1  -6  -7    2.33    0.16
   1  -6  -7    2.75    0.14
  -1   6   7    2.44    0.15
   0  -6  -7    0.27    0.05
   0  -6  -7    0.28    0.07
   0   6   7    0.32    0.07
  -1  -6  -7    0.05    0.03
  -1  -6  -7    0.01    0.04
  -2  -6  -7    0.93    0.11
  -2  -6  -7    0.88    0.08
  -3  -6  -7    3.64    0.17
  -3  -6  -7    3.44    0.14
  -3  -6  -7    3.51    0.13
  -4  -6  -7   19.08    0.43
  -5  -6  -7    0.68    0.11
  -6  -6  -7    0.10    0.06
   2  -7  -7    0.32    0.08
   2  -7  -7    0.34    0.08
  -2   7   7    0.38    0.08
   1  -7  -7    1.13    0.12
   1  -7  -7    0.96    0.12
  -1   7   7    0.95    0.12
   0  -7  -7    0.38    0.07
   0   7   7    0.37    0.08
  -1  -7  -7    1.07    0.10
  -2  -7  -7    0.04    0.03
  -2  -7  -7    0.06    0.04
  -3  -7  -7    1.59    0.10
  -3  -7  -7    1.66    0.14
  -3  -7  -7    1.49    0.10
  -4  -7  -7    1.40    0.13
  -5  -7  -7    1.61    0.16
  -6  -7  -7    0.02    0.06
   2  -8  -7    5.72    0.25
   2  -8  -7    5.51    0.26
  -2   8   7    5.79    0.26
   1  -8  -7    2.27    0.15
  -1   8   7    2.24    0.16
   0  -8  -7    0.18    0.06
   0   8   7    0.25    0.07
  -1  -8  -7   -0.01    0.03
  -2  -8  -7    9.97    0.29
  -3  -8  -7    0.51    0.08
  -4  -8  -7    3.54    0.18
  -4  -8  -7    3.62    0.17
  -4  -8  -7    3.55    0.17
  -5  -8  -7    2.75    0.18
   1  -9  -7    0.02    0.05
  -1   9   7    0.00    0.05
   0  -9  -7    0.02    0.04
  -1  -9  -7    8.64    0.29
  -2  -9  -7   15.93    0.41
  -3  -9  -7    2.94    0.16
  -4  -9  -7    1.11    0.12
  -4  -9  -7    1.34    0.14
  -5  -9  -7    0.05    0.05
  -5  -9  -7    0.08    0.06
  -5  -9  -7    0.07    0.05
  -1 -10  -7    3.29    0.19
  -2 -10  -7    2.61    0.17
  -3 -10  -7    0.00    0.05
   1   4  -8    0.20    0.07
  -1  -4   8    0.10    0.05
   0   4  -8    0.05    0.05
   0  -4   8    0.07    0.04
  -1   4  -8    0.61    0.10
   1  -4   8    0.57    0.09
  -2   4  -8    0.66    0.11
   2  -4   8    0.53    0.09
   2   3  -8    0.30    0.08
  -2  -3   8    0.50    0.08
   1   3  -8    1.25    0.14
  -1  -3   8    1.20    0.12
   0   3  -8   10.21    0.35
   0  -3   8   10.16    0.32
  -1   3  -8    5.30    0.24
   1  -3   8    5.25    0.22
  -2   3  -8    0.01    0.04
   2  -3   8    0.01    0.04
  -3   3  -8    0.03    0.05
   3  -3   8    0.01    0.04
   3   2  -8    0.31    0.08
  -3  -2   8    0.52    0.09
   2   2  -8    7.29    0.28
  -2  -2   8    7.55    0.27
   1   2  -8    6.81    0.27
  -1  -2   8    6.87    0.24
   0   2  -8    9.02    0.31
   0  -2   8    9.23    0.29
  -1   2  -8    1.41    0.14
   1  -2   8    1.07    0.11
  -2   2  -8    0.08    0.05
  -2   2  -8    0.00    0.05
   2  -2   8    0.04    0.04
  -3   2  -8    1.24    0.14
  -3   2  -8    1.44    0.14
   3  -2   8    1.16    0.12
  -4   2  -8    0.05    0.05
  -4   2  -8   -0.04    0.05
   4  -2   8   -0.04    0.03
   3   1  -8    0.04    0.04
  -3  -1   8    0.05    0.04
  -3  -1   8    0.06    0.06
   2   1  -8    1.15    0.13
  -2  -1   8    1.15    0.11
   1   1  -8    2.41    0.16
  -1  -1   8    2.48    0.14
   0   1  -8    1.75    0.15
   0  -1   8    1.41    0.12
  -1   1  -8    1.88    0.14
   1  -1   8    1.69    0.12
  -2   1  -8    0.63    0.09
  -2   1  -8    0.69    0.10
   2  -1   8    0.60    0.08
  -3   1  -8    1.33    0.13
  -3   1  -8    1.38    0.14
   3  -1   8    1.43    0.13
  -4   1  -8    1.56    0.14
  -4   1  -8    1.64    0.17
   4  -1   8    1.62    0.14
  -5   1  -8    1.03    0.15
   5  -1   8    0.81    0.11
   3   0  -8    2.87    0.17
  -3   0   8    2.99    0.18
  -3   0   8    2.96    0.15
   2   0  -8    1.04    0.12
  -2   0   8    1.06    0.10
  -2   0   8    1.06    0.13
   1   0  -8    6.00    0.24
  -1   0   8    5.94    0.21
   0   0  -8    1.82    0.13
   0   0   8    1.81    0.11
  -1   0  -8    0.01    0.03
   1   0   8    0.02    0.03
  -2   0  -8    0.11    0.05
   2   0   8    0.13    0.05
  -3   0  -8   20.16    0.51
  -3   0  -8   20.37    0.47
   3   0   8   20.40    0.46
  -4   0  -8    0.52    0.08
  -4   0  -8    0.39    0.09
   4   0   8    0.48    0.08
  -5   0  -8    0.04    0.06
   5   0   8    0.04    0.05
  -4   1   8    1.74    0.17
   3  -1  -8    0.02    0.04
  -3   1   8    0.03    0.05
   2  -1  -8    2.19    0.15
  -2   1   8    2.25    0.14
  -2   1   8    2.22    0.15
  -2   1   8    2.11    0.11
   1  -1  -8    2.02    0.14
  -1   1   8    2.08    0.11
  -1   1   8    1.94    0.14
   0  -1  -8    0.38    0.08
   0   1   8    0.48    0.06
   0   1   8    0.54    0.09
  -1  -1  -8    0.05    0.05
   1   1   8    0.11    0.04
  -2  -1  -8    8.75    0.28
   2   1   8    8.29    0.25
  -3  -1  -8   10.67    0.34
  -3  -1  -8   10.44    0.30
   3   1   8   10.85    0.30
  -4  -1  -8    0.12    0.06
  -4  -1  -8    0.03    0.04
   4   1   8    0.11    0.05
  -5  -1  -8    1.28    0.15
   5   1   8    1.21    0.13
  -6  -1  -8    0.13    0.07
   4  -2  -8    0.03    0.05
  -4   2   8    0.11    0.06
   3  -2  -8    0.17    0.06
  -3   2   8    0.05    0.05
   2  -2  -8    0.19    0.06
  -2   2   8    0.08    0.05
   1  -2  -8   10.89    0.34
  -1   2   8   11.35    0.27
   0  -2  -8    0.59    0.09
   0   2   8    0.72    0.07
   0   2   8    0.55    0.09
  -1  -2  -8    1.00    0.11
   1   2   8    1.14    0.08
   1   2   8    1.11    0.12
  -2  -2  -8   19.94    0.46
   2   2   8   20.00    0.42
   2   2   8   20.09    0.47
  -3  -2  -8   14.40    0.36
   3   2   8   14.04    0.35
   3   2   8   13.30    0.36
  -4  -2  -8    0.04    0.05
  -4  -2  -8   -0.04    0.03
   4   2   8    0.00    0.04
   4   2   8    0.03    0.04
  -5  -2  -8    1.47    0.16
  -6  -2  -8    0.10    0.07
   3  -3  -8    2.22    0.14
   3  -3  -8    2.02    0.15
  -3   3   8    2.39    0.16
   2  -3  -8    3.43    0.18
  -2   3   8    3.41    0.19
   1  -3  -8    2.21    0.15
  -1   3   8    2.46    0.15
   0  -3  -8    0.94    0.11
   0   3   8    1.23    0.08
  -1  -3  -8   12.82    0.35
   1   3   8   12.74    0.29
  -2  -3  -8    5.74    0.22
   2   3   8    5.92    0.19
  -3  -3  -8    1.11    0.11
   3   3   8    1.32    0.10
  -4  -3  -8    0.05    0.04
  -4  -3  -8    0.15    0.06
  -5  -3  -8    1.19    0.14
  -6  -3  -8    2.90    0.21
   3  -4  -8    0.02    0.05
   3  -4  -8    0.03    0.05
  -3   4   8    0.03    0.04
   2  -4  -8    1.37    0.12
   2  -4  -8    1.14    0.13
  -2   4   8    1.49    0.15
   1  -4  -8    0.16    0.06
  -1   4   8    0.19    0.06
   0  -4  -8    1.07    0.12
  -1  -4  -8    0.24    0.06
   1   4   8    0.20    0.04
  -2  -4  -8   19.45    0.46
   2   4   8   19.91    0.40
  -3  -4  -8    0.34    0.07
  -4  -4  -8    1.67    0.11
  -4  -4  -8    1.44    0.15
  -5  -4  -8   -0.04    0.04
  -6  -4  -8    2.42    0.19
   3  -5  -8    1.54    0.14
   3  -5  -8    1.27    0.14
  -3   5   8    1.65    0.17
   2  -5  -8    0.06    0.05
   2  -5  -8    0.15    0.06
  -2   5   8    0.21    0.07
   1  -5  -8    0.08    0.04
   1  -5  -8    0.05    0.05
  -1   5   8    0.06    0.05
   0  -5  -8    4.07    0.20
  -1  -5  -8    5.66    0.24
  -2  -5  -8   15.49    0.40
  -3  -5  -8    0.01    0.03
  -4  -5  -8    4.40    0.18
  -5  -5  -8    0.08    0.05
  -6  -5  -8    0.07    0.06
   2  -6  -8    0.50    0.10
   2  -6  -8    0.50    0.09
  -2   6   8    0.34    0.08
   1  -6  -8    0.36    0.07
   1  -6  -8    0.23    0.07
  -1   6   8    0.15    0.06
   0  -6  -8   13.90    0.41
   0  -6  -8   15.37    0.35
  -1  -6  -8    0.51    0.09
  -2  -6  -8    5.67    0.23
  -3  -6  -8    3.69    0.18
  -4  -6  -8    0.29    0.07
  -5  -6  -8    0.48    0.10
  -6  -6  -8    0.34    0.09
   2  -7  -8   -0.05    0.04
   2  -7  -8    0.00    0.05
  -2   7   8   -0.06    0.04
   1  -7  -8    2.33    0.15
   1  -7  -8    2.06    0.19
  -1   7   8    1.97    0.15
   0  -7  -8    0.32    0.08
   0  -7  -8    0.33    0.07
  -1  -7  -8    1.24    0.11
  -1  -7  -8    1.25    0.14
  -2  -7  -8    1.53    0.16
  -3  -7  -8    0.10    0.05
  -4  -7  -8    0.64    0.09
  -5  -7  -8    1.62    0.17
  -6  -7  -8    1.36    0.17
   1  -8  -8    0.38    0.09
   1  -8  -8    0.39    0.09
  -1   8   8    0.43    0.09
   0  -8  -8    6.54    0.24
   0  -8  -8    5.92    0.27
  -1  -8  -8    6.98    0.29
  -1  -8  -8    6.77    0.23
  -2  -8  -8    0.64    0.09
  -2  -8  -8    0.60    0.10
  -3  -8  -8    0.22    0.07
  -4  -8  -8    0.97    0.12
  -5  -8  -8    1.92    0.19
   0  -9  -8    1.58    0.15
  -1  -9  -8   11.83    0.34
  -2  -9  -8    4.61    0.20
  -3  -9  -8    0.62    0.11
  -4  -9  -8    1.02    0.13
   0   3  -9    0.32    0.09
   0  -3   9    0.38    0.08
  -1   3  -9    0.11    0.06
   1  -3   9    0.10    0.06
   1   2  -9    0.62    0.11
  -1  -2   9    0.53    0.09
   0   2  -9    4.17    0.22
   0  -2   9    4.19    0.20
  -1   2  -9    0.63    0.10
   1  -2   9    0.63    0.09
  -2   2  -9    2.81    0.18
   2  -2   9    2.36    0.16
  -3   2  -9    0.06    0.05
   3  -2   9    0.15    0.06
   2   1  -9    0.26    0.08
  -2  -1   9    0.30    0.07
   1   1  -9    0.05    0.05
  -1  -1   9    0.09    0.05
   0   1  -9   10.97    0.36
   0  -1   9   10.73    0.32
  -1   1  -9    0.17    0.07
   1  -1   9    0.19    0.05
  -2   1  -9    0.52    0.10
  -2   1  -9    0.51    0.09
   2  -1   9    0.40    0.08
  -3   1  -9    0.38    0.09
  -3   1  -9    0.45    0.09
   3  -1   9    0.39    0.07
  -4   1  -9    0.35    0.09
  -4   1  -9    0.29    0.07
   4  -1   9    0.33    0.08
   2   0  -9    0.36    0.08
  -2   0   9    0.50    0.10
  -2   0   9    0.52    0.08
   1   0  -9    0.48    0.09
  -1   0   9    0.41    0.07
   0   0  -9    0.31    0.07
   0   0   9    0.21    0.06
  -1   0  -9    3.32    0.19
   1   0   9    2.85    0.15
  -2   0  -9    0.25    0.07
   2   0   9    0.15    0.05
  -3   0  -9    1.40    0.14
  -3   0  -9    1.20    0.14
   3   0   9    1.20    0.12
  -4   0  -9    0.06    0.05
  -4   0  -9    0.04    0.05
   4   0   9    0.05    0.04
   3  -1  -9    0.22    0.07
  -3   1   9    0.28    0.08
   2  -1  -9    0.45    0.09
  -2   1   9    0.23    0.08
   1  -1  -9    0.56    0.10
  -1   1   9    0.70    0.08
  -1   1   9    0.51    0.10
   0  -1  -9    0.17    0.06
   0   1   9    0.19    0.05
   0   1   9    0.15    0.06
  -1  -1  -9    0.05    0.04
   1   1   9    0.03    0.03
  -2  -1  -9    0.78    0.11
   2   1   9    0.80    0.09
  -3  -1  -9    0.88    0.11
  -3  -1  -9    1.04    0.13
   3   1   9    1.14    0.12
  -4  -1  -9    0.03    0.05
  -4  -1  -9    0.08    0.05
   4   1   9    0.18    0.06
  -5  -1  -9    0.03    0.06
   5   1   9    0.02    0.04
   3  -2  -9    0.03    0.05
  -3   2   9    0.04    0.05
   2  -2  -9    1.08    0.13
  -2   2   9    1.14    0.13
   1  -2  -9    2.73    0.17
   0  -2  -9    0.76    0.10
   0   2   9    0.56    0.10
   0   2   9    0.74    0.08
  -1  -2  -9    6.11    0.25
   1   2   9    6.44    0.21
   1   2   9    6.03    0.25
  -2  -2  -9    2.70    0.16
   2   2   9    2.55    0.14
   2   2   9    2.50    0.16
  -3  -2  -9    0.58    0.09
   3   2   9    0.47    0.09
   3   2   9    0.30    0.06
  -4  -2  -9    1.90    0.18
  -4  -2  -9    2.71    0.16
   4   2   9    2.79    0.16
   4   2   9    2.68    0.16
  -5  -2  -9    0.34    0.10
   3  -3  -9    0.20    0.07
  -3   3   9    0.23    0.08
   2  -3  -9    0.05    0.05
  -2   3   9   -0.02    0.04
   1  -3  -9    3.81    0.20
   0  -3  -9   -0.03    0.03
   0   3   9    0.05    0.03
  -1  -3  -9    2.81    0.17
   1   3   9    3.05    0.14
  -2  -3  -9    0.12    0.05
   2   3   9    0.13    0.05
  -3  -3  -9    0.05    0.04
   3   3   9   -0.01    0.03
  -4  -3  -9    1.38    0.15
  -4  -3  -9    1.35    0.13
   4   3   9    1.04    0.11
  -5  -3  -9    8.62    0.35
  -6  -3  -9    0.07    0.07
   2  -4  -9   -0.01    0.05
  -2   4   9   -0.04    0.04
   1  -4  -9    0.68    0.10
   0  -4  -9    8.20    0.30
  -1  -4  -9   -0.02    0.03
   1   4   9    0.04    0.03
  -2  -4  -9    1.31    0.14
   2   4   9    1.31    0.09
  -3  -4  -9    8.56    0.29
   3   4   9    8.42    0.26
  -4  -4  -9    0.10    0.06
  -4  -4  -9    0.10    0.05
  -5  -4  -9    2.19    0.20
  -6  -4  -9    0.02    0.06
   2  -5  -9    2.03    0.18
  -2   5   9    2.47    0.18
   1  -5  -9    3.71    0.21
  -1   5   9    4.24    0.22
   0  -5  -9    2.78    0.18
  -1  -5  -9    0.05    0.05
  -2  -5  -9    2.81    0.17
  -3  -5  -9    7.44    0.27
  -4  -5  -9    4.44    0.20
  -5  -5  -9    0.08    0.06
  -6  -5  -9    0.54    0.12
   2  -6  -9    2.10    0.19
  -2   6   9    1.80    0.18
   1  -6  -9    0.01    0.05
  -1   6   9    0.01    0.05
   0  -6  -9    1.12    0.14
  -1  -6  -9    3.24    0.19
  -2  -6  -9    1.18    0.14
  -3  -6  -9   15.93    0.43
  -4  -6  -9    1.33    0.13
  -5  -6  -9    0.87    0.14
   1  -7  -9    0.23    0.08
  -1   7   9    0.35    0.08
   0  -7  -9    0.66    0.11
  -1  -7  -9    1.79    0.17
  -2  -7  -9    0.07    0.06
  -3  -7  -9    8.56    0.31
  -4  -7  -9   -0.04    0.04
  -5  -7  -9    0.04    0.06
   0  -8  -9    0.17    0.07
  -1  -8  -9    0.53    0.11
  -2  -8  -9    2.97    0.20
  -3  -8  -9    3.35    0.20
  -4  -8  -9    0.19    0.07
  -1  -9  -9    7.18    0.32
  -2  -9  -9    0.14    0.06
  -3  -9  -9    5.57    0.27
   0   1 -10    0.82    0.12
   0  -1  10    0.78    0.10
  -1   1 -10    0.18    0.07
   1  -1  10    0.05    0.04
  -2   1 -10    1.68    0.17
   2  -1  10    1.56    0.14
   1   0 -10    2.24    0.19
  -1   0  10    2.42    0.15
  -1   0  10    2.15    0.20
   0   0 -10    0.29    0.08
   0   0  10    0.52    0.08
  -1   0 -10    1.48    0.16
   1   0  10    1.59    0.14
  -2   0 -10    2.28    0.16
   2   0  10    2.37    0.15
  -3   0 -10    0.39    0.09
  -3   0 -10    0.19    0.07
   3   0  10    0.18    0.06
   1  -1 -10    0.49    0.09
  -1   1  10    0.58    0.08
  -1   1  10    0.84    0.13
   0  -1 -10    0.30    0.08
   0   1  10    0.41    0.10
   0   1  10    0.35    0.07
  -1  -1 -10    0.03    0.05
   1   1  10    0.07    0.04
   1   1  10    0.13    0.07
  -2  -1 -10    8.64    0.31
   2   1  10    8.08    0.32
   2   1  10    8.20    0.28
  -3  -1 -10    0.81    0.11
  -3  -1 -10    0.91    0.13
   3   1  10    0.96    0.13
   3   1  10    0.90    0.11
  -4  -1 -10    0.30    0.09
  -4  -1 -10    0.52    0.09
   4   1  10    0.52    0.09
   4   1  10    0.34    0.09
   2  -2 -10    2.83    0.19
   1  -2 -10    0.23    0.07
   0  -2 -10    0.22    0.07
   0   2  10    0.23    0.06
   0   2  10    0.16    0.07
  -1  -2 -10    3.84    0.21
   1   2  10    3.79    0.17
   1   2  10    3.97    0.22
  -2  -2 -10   10.37    0.35
   2   2  10   10.57    0.31
   2   2  10   10.34    0.36
  -3  -2 -10    0.14    0.06
   3   2  10    0.12    0.06
   3   2  10    0.13    0.07
  -4  -2 -10    2.83    0.17
  -4  -2 -10    2.77    0.20
   4   2  10    2.59    0.17
   4   2  10    2.85    0.17
   2  -3 -10    1.98    0.18
   1  -3 -10    0.10    0.06
   0  -3 -10    1.59    0.16
  -1  -3 -10    8.91    0.33
   1   3  10    9.00    0.26
  -2  -3 -10    6.15    0.26
   2   3  10    6.48    0.23
  -3  -3 -10    0.25    0.07
   3   3  10    0.18    0.06
  -4  -3 -10    0.52    0.09
  -4  -3 -10    0.51    0.10
   4   3  10    0.58    0.09
  -5  -3 -10    0.08    0.07
   1  -4 -10    0.06    0.05
   0  -4 -10    2.03    0.18
  -1  -4 -10    1.55    0.16
  -2  -4 -10    2.25    0.16
   2   4  10    2.35    0.13
  -3  -4 -10    0.73    0.11
   3   4  10    0.45    0.08
  -4  -4 -10    0.19    0.07
  -4  -4 -10    0.15    0.06
  -5  -4 -10    1.47    0.17
   1  -5 -10    0.16    0.07
   0  -5 -10    0.04    0.05
  -1  -5 -10    4.55    0.23
  -2  -5 -10    0.09    0.05
  -3  -5 -10    0.18    0.06
  -4  -5 -10    0.11    0.06
  -5  -5 -10    3.93    0.24
   1  -6 -10    3.74    0.22
   0  -6 -10    1.61    0.17
  -1  -6 -10   12.74    0.41
  -2  -6 -10    0.00    0.04
  -3  -6 -10    0.65    0.10
  -4  -6 -10    0.03    0.05
  -5  -6 -10    0.13    0.07
   0  -7 -10    0.02    0.05
  -1  -7 -10    0.74    0.12
  -2  -7 -10    3.15    0.20
  -3  -7 -10   -0.06    0.04
  -4  -7 -10    0.22    0.07
  -1  -8 -10    0.02    0.06
  -2  -8 -10    0.02    0.05
  -3  -8 -10    0.03    0.05
  -1  -1 -11    0.77    0.12
   1   1  11    0.58    0.11
   1   1  11    0.78    0.10
  -2  -1 -11    0.49    0.10
   2   1  11    0.34    0.09
   2   1  11    0.38    0.08
   0  -2 -11    0.17    0.07
  -1  -2 -11    0.27    0.08
   1   2  11    0.53    0.09
   1   2  11    0.55    0.11
  -2  -2 -11    0.10    0.06
   2   2  11   -0.04    0.05
   2   2  11    0.02    0.04
  -3  -2 -11    0.83    0.12
   3   2  11    0.88    0.13
   3   2  11    1.02    0.12
   0  -3 -11    3.97    0.23
  -1  -3 -11    4.04    0.23
  -2  -3 -11    0.35    0.09
   2   3  11    0.31    0.07
  -3  -3 -11    0.30    0.08
   3   3  11    0.36    0.07
   0  -4 -11    1.24    0.15
  -1  -4 -11    0.10    0.06
  -2  -4 -11    0.07    0.05
  -3  -4 -11    2.46    0.17
   3   4  11    2.21    0.14
  -4  -4 -11    6.60    0.31
  -4  -4 -11    6.03    0.26
   0  -5 -11    0.07    0.06
  -1  -5 -11    0.13    0.07
  -2  -5 -11    4.30    0.23
  -3  -5 -11    0.57    0.11
  -4  -5 -11    1.45    0.15
  -1  -6 -11    0.06    0.06
  -2  -6 -11    6.90    0.30
  -3  -6 -11    1.97    0.18
   0   0   0    0.00    0.00
;
_shelx_hkl_checksum              79592
_shelx_res_file
;
TITL pag088 in P-1
    pag088.res
    created by SHELXL-2016/6 at 10:16:29 on 07-Aug-2017
CELL 0.71073 6.0946 8.5197 9.2814 68.259 75.957 74.816
ZERR 1.00 0.0006 0.0008 0.0009 0.003 0.003 0.003
LATT 1
SFAC C H N O
UNIT 10 16 14 4
LIST 6 ! automatically inserted. Change 6 to 4 for CHECKCIF!!
TEMP -123.000
SIZE 0.040 0.120 0.180
ACTA
L.S. 8
FMAP 2
PLAN 5
CONF
EQIV $1 x, y, z-1
EQIV $2 -x+1, -y, -z+1
HTAB N1S O11_$1
HTAB N1S O11_$2
WPDB -2
BOND $H
WGHT    0.043200    0.105300
FVAR       0.27635
N1    3    0.595471    0.362411    0.874508    11.00000    0.02157    0.02077 =
         0.02069   -0.00825   -0.00056   -0.00395
N2    3    0.733482    0.440452    0.905876    11.00000    0.02271    0.02907 =
         0.02597   -0.01359   -0.00252   -0.00608
N3    3    0.699083    0.601798    0.811861    11.00000    0.02636    0.02663 =
         0.02702   -0.01156   -0.00136   -0.00778
N4    3    0.543335    0.629525    0.720925    11.00000    0.02583    0.02450 =
         0.02460   -0.01002   -0.00180   -0.00827
C5    1    0.479145    0.478755    0.761600    11.00000    0.02137    0.02079 =
         0.01967   -0.00842   -0.00072   -0.00421
C6    1    0.313262    0.449176    0.691855    11.00000    0.02111    0.01871 =
         0.02046   -0.00858    0.00125   -0.00467
O7    4    0.254522    0.293423    0.744313    11.00000    0.02930    0.01928 =
         0.02745   -0.00394   -0.00992   -0.00786
N8    3    0.093428    0.305869    0.652168    11.00000    0.02830    0.02320 =
         0.02628   -0.00675   -0.00933   -0.00731
C9    1    0.076498    0.465211    0.558844    11.00000    0.02059    0.02083 =
         0.01995   -0.00956    0.00017   -0.00449
N10   3    0.209411    0.560406    0.578194    11.00000    0.02243    0.01994 =
         0.02191   -0.00771   -0.00274   -0.00557
O11   4    0.584466    0.200081    0.947502    11.00000    0.03264    0.01829 =
         0.02505   -0.00609   -0.00408   -0.00443
N1S   3    0.260505    0.046142    0.198499    11.00000    0.03012    0.01776 =
         0.02539   -0.00676   -0.00094   -0.00618
AFIX  23
H1SA  2    0.344680    0.128501    0.137883    11.00000   -1.20000
H1SB  2    0.312665   -0.045306    0.162814    11.00000   -1.20000
AFIX   0
C2S   1    0.016425    0.114930    0.179620    11.00000    0.03443    0.02753 =
         0.05871   -0.01098   -0.01720   -0.00346
AFIX 137
H2SA  2   -0.075472    0.026667    0.243664    11.00000   -1.50000
H2SB  2    0.002362    0.147390    0.068857    11.00000   -1.50000
H2SC  2   -0.039593    0.216384    0.213810    11.00000   -1.50000
AFIX   0
C3S   1    0.299066   -0.008990    0.362713    11.00000    0.04516    0.02506 =
         0.02694   -0.00770   -0.00705   -0.00573
AFIX 137
H3SA  2    0.232927    0.086212    0.404837    11.00000   -1.50000
H3SB  2    0.464886   -0.042153    0.365781    11.00000   -1.50000
H3SC  2    0.224951   -0.107586    0.426403    11.00000   -1.50000
AFIX   0
HKLF 4
REM  pag088 in P-1
REM R1 =  0.0319 for    1490 Fo > 4sig(Fo)  and  0.0380 for all    1737 data
REM    129 parameters refined using      0 restraints
END
WGHT      0.0433      0.1048
REM Highest difference peak  0.271,  deepest hole -0.235,  1-sigma level  0.041
Q1    1   0.0000  0.5000  0.5000  10.50000  0.05    0.27
Q2    1   0.3938  0.4627  0.7311  11.00000  0.05    0.24
Q3    1   0.5521  0.5324  0.6962  11.00000  0.05    0.17
Q4    1   0.5279  0.4178  0.8000  11.00000  0.05    0.16
Q5    1   0.1753  0.5094  0.5465  11.00000  0.05    0.15
;
_shelx_res_checksum              2473
_shelxl_version_number           2016/6
loop_
_space_group_symop_operation_xyz
'x, y, z'
'-x, -y, -z'
loop_
_atom_site_type_symbol
_atom_site_label
_atom_site_fract_x
_atom_site_fract_y
_atom_site_fract_z
_atom_site_U_iso_or_equiv
_atom_site_adp_type
_atom_site_calc_flag
_atom_site_occupancy
N N1 0.59547(17) 0.36241(13) 0.87451(12) 0.0211(2) Uani d 1
N N2 0.73348(18) 0.44045(14) 0.90588(12) 0.0246(3) Uani d 1
N N3 0.69908(19) 0.60180(14) 0.81186(13) 0.0259(3) Uani d 1
N N4 0.54333(18) 0.62953(14) 0.72093(12) 0.0241(2) Uani d 1
C C5 0.4791(2) 0.47875(15) 0.76160(14) 0.0205(3) Uani d 1
C C6 0.3133(2) 0.44918(15) 0.69185(14) 0.0201(3) Uani d 1
O O7 0.25452(15) 0.29342(11) 0.74431(10) 0.0248(2) Uani d 1
N N8 0.09343(19) 0.30587(14) 0.65217(13) 0.0249(3) Uani d 1
C C9 0.0765(2) 0.46521(15) 0.55884(13) 0.0201(3) Uani d 1
N N10 0.20941(17) 0.56041(13) 0.57819(11) 0.0210(2) Uani d 1
O O11 0.58447(16) 0.20008(11) 0.94750(10) 0.0258(2) Uani d 1
N N1S 0.26051(19) 0.04614(13) 0.19850(12) 0.0249(3) Uani d 1
H H1SA 0.344680 0.128501 0.137883 0.030 Uiso calc 1
H H1SB 0.312665 -0.045306 0.162814 0.030 Uiso calc 1
C C2S 0.0164(3) 0.11493(19) 0.1796(2) 0.0399(4) Uani d 1
H H2SA -0.075472 0.026667 0.243664 0.060 Uiso calc 1
H H2SB 0.002362 0.147390 0.068857 0.060 Uiso calc 1
H H2SC -0.039593 0.216384 0.213810 0.060 Uiso calc 1
C C3S 0.2991(3) -0.00899(18) 0.36271(16) 0.0326(3) Uani d 1
H H3SA 0.232927 0.086212 0.404837 0.049 Uiso calc 1
H H3SB 0.464886 -0.042153 0.365781 0.049 Uiso calc 1
H H3SC 0.224951 -0.107586 0.426403 0.049 Uiso calc 1
loop_
_atom_site_aniso_label
_atom_site_aniso_U_11
_atom_site_aniso_U_22
_atom_site_aniso_U_33
_atom_site_aniso_U_12
_atom_site_aniso_U_13
_atom_site_aniso_U_23
N1 0.0216(5) 0.0208(5) 0.0207(5) -0.0039(4) -0.0006(4) -0.0083(4)
N2 0.0227(5) 0.0291(6) 0.0260(5) -0.0061(4) -0.0025(4) -0.0136(5)
N3 0.0264(6) 0.0266(6) 0.0270(6) -0.0078(4) -0.0014(4) -0.0116(5)
N4 0.0258(5) 0.0245(5) 0.0246(5) -0.0083(4) -0.0018(4) -0.0100(4)
C5 0.0214(6) 0.0208(6) 0.0197(6) -0.0042(5) -0.0007(5) -0.0084(5)
C6 0.0211(6) 0.0187(6) 0.0205(6) -0.0047(5) 0.0013(5) -0.0086(5)
O7 0.0293(5) 0.0193(4) 0.0275(5) -0.0079(4) -0.0099(4) -0.0039(4)
N8 0.0283(6) 0.0232(5) 0.0263(5) -0.0073(4) -0.0093(4) -0.0068(4)
C9 0.0206(6) 0.0208(6) 0.0199(6) -0.0045(5) 0.0002(5) -0.0096(5)
N10 0.0224(5) 0.0199(5) 0.0219(5) -0.0056(4) -0.0027(4) -0.0077(4)
O11 0.0326(5) 0.0183(4) 0.0250(5) -0.0044(4) -0.0041(4) -0.0061(3)
N1S 0.0301(6) 0.0178(5) 0.0254(5) -0.0062(4) -0.0009(4) -0.0068(4)
C2S 0.0344(8) 0.0275(7) 0.0587(10) -0.0035(6) -0.0172(7) -0.0110(7)
C3S 0.0452(8) 0.0251(7) 0.0269(7) -0.0057(6) -0.0071(6) -0.0077(5)
loop_
_atom_type_symbol
_atom_type_description
_atom_type_scat_dispersion_real
_atom_type_scat_dispersion_imag
_atom_type_scat_source
C C 0.0033 0.0016 'International Tables Vol C Tables 4.2.6.8 and 6.1.1.4'
H H 0.0000 0.0000 'International Tables Vol C Tables 4.2.6.8 and 6.1.1.4'
N N 0.0061 0.0033 'International Tables Vol C Tables 4.2.6.8 and 6.1.1.4'
O O 0.0106 0.0060 'International Tables Vol C Tables 4.2.6.8 and 6.1.1.4'
loop_
_geom_angle_atom_site_label_1
_geom_angle_atom_site_label_2
_geom_angle_atom_site_label_3
_geom_angle_site_symmetry_3
_geom_angle
O11 N1 N2 . 122.67(10)
O11 N1 C5 . 129.09(11)
N2 N1 C5 . 108.24(10)
N3 N2 N1 . 106.11(10)
N2 N3 N4 . 111.33(10)
C5 N4 N3 . 105.34(10)
N4 C5 N1 . 108.98(11)
N4 C5 C6 . 124.29(11)
N1 C5 C6 . 126.73(12)
N10 C6 O7 . 113.91(11)
N10 C6 C5 . 126.23(11)
O7 C6 C5 . 119.86(11)
C6 O7 N8 . 105.99(9)
C9 N8 O7 . 102.47(10)
N8 C9 N10 . 116.05(11)
N8 C9 C9 2_566 121.02(14)
N10 C9 C9 2_566 122.94(13)
C6 N10 C9 . 101.58(10)
C2S N1S C3S . 113.54(12)
C2S N1S H1SA . 108.9
C3S N1S H1SA . 108.9
C2S N1S H1SB . 108.9
C3S N1S H1SB . 108.9
H1SA N1S H1SB . 107.7
N1S C2S H2SA . 109.5
N1S C2S H2SB . 109.5
H2SA C2S H2SB . 109.5
N1S C2S H2SC . 109.5
H2SA C2S H2SC . 109.5
H2SB C2S H2SC . 109.5
N1S C3S H3SA . 109.5
N1S C3S H3SB . 109.5
H3SA C3S H3SB . 109.5
N1S C3S H3SC . 109.5
H3SA C3S H3SC . 109.5
H3SB C3S H3SC . 109.5
loop_
_geom_bond_atom_site_label_1
_geom_bond_atom_site_label_2
_geom_bond_site_symmetry_2
_geom_bond_distance
N1 O11 . 1.3071(13)
N1 N2 . 1.3377(15)
N1 C5 . 1.3440(16)
N2 N3 . 1.3207(15)
N3 N4 . 1.3390(16)
N4 C5 . 1.3334(16)
C5 C6 . 1.4410(18)
C6 N10 . 1.2964(16)
C6 O7 . 1.3460(14)
O7 N8 . 1.4115(14)
N8 C9 . 1.3049(16)
C9 N10 . 1.3671(16)
C9 C9 2_566 1.463(2)
N1S C2S . 1.4767(18)
N1S C3S . 1.4780(17)
N1S H1SA . 0.9100
N1S H1SB . 0.9100
C2S H2SA . 0.9800
C2S H2SB . 0.9800
C2S H2SC . 0.9800
C3S H3SA . 0.9800
C3S H3SB . 0.9800
C3S H3SC . 0.9800
loop_
_geom_hbond_atom_site_label_D
_geom_hbond_atom_site_label_H
_geom_hbond_atom_site_label_A
_geom_hbond_site_symmetry_A
_geom_hbond_distance_DH
_geom_hbond_distance_HA
_geom_hbond_distance_DA
_geom_hbond_angle_DHA
N1S H1SA O11 1_554 0.91 2.01 2.8118(14) 145.9
N1S H1SB O11 2_656 0.91 1.85 2.7524(14) 169.0
loop_
_geom_torsion_atom_site_label_1
_geom_torsion_atom_site_label_2
_geom_torsion_atom_site_label_3
_geom_torsion_atom_site_label_4
_geom_torsion_site_symmetry_1
_geom_torsion_site_symmetry_4
_geom_torsion
O11 N1 N2 N3 . . -179.65(9)
C5 N1 N2 N3 . . -0.10(13)
N1 N2 N3 N4 . . -0.09(13)
N2 N3 N4 C5 . . 0.25(13)
N3 N4 C5 N1 . . -0.31(13)
N3 N4 C5 C6 . . -179.59(11)
O11 N1 C5 N4 . . 179.77(10)
N2 N1 C5 N4 . . 0.26(13)
O11 N1 C5 C6 . . -1.0(2)
N2 N1 C5 C6 . . 179.52(11)
N4 C5 C6 N10 . . 2.38(19)
N1 C5 C6 N10 . . -176.77(11)
N4 C5 C6 O7 . . -177.99(10)
N1 C5 C6 O7 . . 2.86(18)
N10 C6 O7 N8 . . 0.34(13)
C5 C6 O7 N8 . . -179.34(10)
C6 O7 N8 C9 . . -0.33(12)
O7 N8 C9 N10 . . 0.24(13)
O7 N8 C9 C9 . 2_566 -179.89(13)
O7 C6 N10 C9 . . -0.18(13)
C5 C6 N10 C9 . . 179.47(11)
N8 C9 N10 C6 . . -0.05(14)
C9 C9 N10 C6 2_566 . -179.91(14)

_cod_database_fobs_code 2242423
