#------------------------------------------------------------------------------
#$Date: 2018-11-14 05:30:28 +0200 (Wed, 14 Nov 2018) $
#$Revision: 211942 $
#$URL: file:///home/coder/svn-repositories/cod/cif/2/24/27/2242738.cif $
#------------------------------------------------------------------------------
#
# This file is available in the Crystallography Open Database (COD),
# http://www.crystallography.net/. The original data for this entry
# were provided by IUCr Journals, http://journals.iucr.org/.
#
# The file may be used within the scientific community so long as
# proper attribution is given to the journal article from which the
# data were obtained.
#
data_2242738
loop_
_publ_author_name
Asma
'Kalluraya, Balakrishna'
'Yathirajan, Hemmige S.'
'Rathore, Ravindranath S.'
'Glidewell, Christopher'
_publ_section_title
;
 Four 1-aryl-1<i>H</i>-pyrazole-3,4-dicarboxylate derivatives: synthesis,
 molecular conformation and hydrogen bonding
;
_journal_coeditor_code           ZL2741
_journal_issue                   12
_journal_name_full               'Acta Crystallographica Section E'
_journal_page_first              1783
_journal_page_last               1789
_journal_paper_doi               10.1107/S2056989018015864
_journal_volume                  74
_journal_year                    2018
_chemical_formula_iupac          'C14 H14 N2 O4'
_chemical_formula_moiety         'C14 H14 N2 O4'
_chemical_formula_sum            'C14 H14 N2 O4'
_chemical_formula_weight         274.27
_chemical_name_systematic
;
Dimethyl 1-(4-methylphenyl)-1<i>H</i>-pyrazole-3,4-dicarboxylate
;
_space_group_crystal_system      triclinic
_space_group_IT_number           2
_space_group_name_Hall           '-P 1'
_space_group_name_H-M_alt        'P -1'
_symmetry_space_group_name_Hall  '-P 1'
_symmetry_space_group_name_H-M   'P -1'
_atom_sites_solution_hydrogens   geom
_audit_creation_method           SHELXL-2014
_cell_angle_alpha                78.988(3)
_cell_angle_beta                 85.527(3)
_cell_angle_gamma                87.548(4)
_cell_formula_units_Z            2
_cell_length_a                   7.6546(5)
_cell_length_b                   8.0959(5)
_cell_length_c                   11.3065(6)
_cell_measurement_reflns_used    2526
_cell_measurement_temperature    296(2)
_cell_measurement_theta_max      25.459
_cell_measurement_theta_min      2.564
_cell_volume                     685.40(7)
_computing_cell_refinement
;
APEX2/SAINT (Bruker, 2004)
;
_computing_data_collection
;
APEX2 (Bruker, 2004)
;
_computing_data_reduction
;
SAINT/XPREP (Bruker, 2004)
;
_computing_molecular_graphics
;
PLATON (Spek, 2009)
;
_computing_publication_material
;
SHELXL2014 (Sheldrick, 2015) and PLATON (Spek, 2009)
;
_computing_structure_refinement
;
SHELXL2014 (Sheldrick, 2015)
;
_computing_structure_solution
;
SHELXS97 (Sheldrick, 2008b)
;
_diffrn_ambient_temperature      296(2)
_diffrn_measured_fraction_theta_full 1.000
_diffrn_measured_fraction_theta_max 0.994
_diffrn_measurement_device_type  'Bruker Kappa APEXII CCD'
_diffrn_measurement_method       '\f and \w scans'
_diffrn_radiation_monochromator  graphite
_diffrn_radiation_type           MoK\a
_diffrn_radiation_wavelength     0.71073
_diffrn_reflns_av_R_equivalents  0.0303
_diffrn_reflns_av_unetI/netI     0.0253
_diffrn_reflns_limit_h_max       9
_diffrn_reflns_limit_h_min       -9
_diffrn_reflns_limit_k_max       9
_diffrn_reflns_limit_k_min       -9
_diffrn_reflns_limit_l_max       13
_diffrn_reflns_limit_l_min       -13
_diffrn_reflns_number            12818
_diffrn_reflns_theta_full        25.242
_diffrn_reflns_theta_max         25.459
_diffrn_reflns_theta_min         2.564
_diffrn_source                   'fine focus sealed tube'
_diffrn_standards_decay_%        0
_diffrn_standards_interval_count 0
_diffrn_standards_interval_time  0
_diffrn_standards_number         0
_exptl_absorpt_coefficient_mu    0.099
_exptl_absorpt_correction_T_max  0.988
_exptl_absorpt_correction_T_min  0.955
_exptl_absorpt_correction_type   multi-scan
_exptl_absorpt_process_details
;
(SADABS; Sheldrick, 2008a)
;
_exptl_crystal_colour            brown
_exptl_crystal_density_diffrn    1.329
_exptl_crystal_description       block
_exptl_crystal_F_000             288
_exptl_crystal_size_max          0.160
_exptl_crystal_size_mid          0.150
_exptl_crystal_size_min          0.120
_refine_diff_density_max         0.237
_refine_diff_density_min         -0.241
_refine_ls_extinction_coef       0.024(4)
_refine_ls_extinction_expression Fc^*^=kFc[1+0.001xFc^2^\l^3^/sin(2\q)]^-1/4^
_refine_ls_extinction_method
;
SHELXL2014 (Sheldrick, 2015)
;
_refine_ls_goodness_of_fit_ref   1.046
_refine_ls_hydrogen_treatment    constr
_refine_ls_matrix_type           full
_refine_ls_number_parameters     196
_refine_ls_number_reflns         2526
_refine_ls_number_restraints     7
_refine_ls_restrained_S_all      1.050
_refine_ls_R_factor_all          0.0716
_refine_ls_R_factor_gt           0.0444
_refine_ls_shift/su_max          0.000
_refine_ls_shift/su_mean         0.000
_refine_ls_structure_factor_coef Fsqd
_refine_ls_weighting_details
'w=1/[\s^2^(Fo^2^)+(0.0529P)^2^+0.2439P] where P=(Fo^2^+2Fc^2^)/3'
_refine_ls_weighting_scheme      calc
_refine_ls_wR_factor_gt          0.1089
_refine_ls_wR_factor_ref         0.1277
_reflns_number_gt                1777
_reflns_number_total             2526
_reflns_threshold_expression     'I > 2\s(I)'
_cod_data_source_file            zl2741sup1.cif
_cod_data_source_block           III
_cod_database_code               2242738
_shelx_space_group_comment
;
The symmetry employed for this shelxl refinement is uniquely defined
by the following loop, which should always be used as a source of
symmetry information in preference to the above space-group names.
They are only intended as comments.
;
_shelx_estimated_absorpt_t_min   0.984
_shelx_estimated_absorpt_t_max   0.988
_shelx_hkl_file
;
  -1   0   0  250.87    4.90
  -1   0   0  245.48    5.00
  -1   0   0  221.18    4.20
  -1   0   0  259.57    4.60
   1   0   0  229.88    4.20
   1   0   0  252.47    4.70
   1   0   0  219.98    4.90
   1   0   0  253.47    4.50
  -2   0   0   47.20    1.80
  -2   0   0   44.10    1.90
  -2   0   0   47.80    1.70
  -2   0   0   45.40    1.80
  -2   0   0   45.50    1.20
  -2   0   0   47.70    1.80
   2   0   0   46.70    1.80
   2   0   0   46.00    1.70
   2   0   0   45.20    1.20
   2   0   0   45.70    1.60
   2   0   0   46.20    2.00
   2   0   0   46.30    1.80
  -3   0   0  135.89    4.20
  -3   0   0  133.89    3.90
  -3   0   0  125.09    3.50
  -3   0   0  131.49    2.80
  -3   0   0  128.99    3.90
  -3   0   0  128.59    3.70
   3   0   0  124.89    4.20
   3   0   0  126.39    3.80
   3   0   0  125.79    3.40
   3   0   0  130.29    2.80
   3   0   0  129.89    3.70
   3   0   0  129.09    3.80
  -4   0   0  214.28    6.30
  -4   0   0  218.58    5.80
  -4   0   0  208.28    5.40
  -4   0   0  207.78    5.70
  -4   0   0  215.78    6.00
  -4   0   0  210.68    4.40
   4   0   0  214.08    5.90
   4   0   0  212.58    5.60
   4   0   0  194.98    5.70
   4   0   0  211.28    5.30
   4   0   0  218.88    6.50
  -5   0   0   84.09    3.70
  -5   0   0   76.99    3.30
  -5   0   0   86.79    3.80
  -5   0   0   84.69    3.90
  -5   0   0   83.09    2.30
   5   0   0   87.49    4.30
   5   0   0   85.99    3.70
   5   0   0   81.49    3.70
  -6   0   0   22.10    1.20
  -6   0   0   23.10    2.40
  -6   0   0   24.90    2.10
  -6   0   0   24.50    2.50
   6   0   0   25.10    2.50
   6   0   0   27.80    2.70
  -7   0   0   -0.80    0.80
  -7   0   0    0.60    0.90
   7   0   0   -0.20    1.20
   7   0   0   -0.30    1.30
  -8   0   0    7.60    1.80
  -8   0   0    2.30    1.40
   8   0   0    8.50    2.30
   8   0   0    9.60    2.30
  -9   0   0   14.50    2.30
  -9   0   0   10.80    2.20
   9   0   0    8.20    2.70
   9   0   0   13.30    2.80
   9  -1   0    5.30    2.20
   9  -1   0    2.20    1.90
  -9   1   0    2.30    1.60
  -9   1   0    1.20    1.70
   8  -1   0    0.10    1.60
   8  -1   0    1.30    1.80
  -8   1   0    0.20    1.40
   7  -1   0   31.20    3.30
   7  -1   0   28.70    3.10
  -7   1   0   32.00    2.90
   6  -1   0    4.20    1.50
   6  -1   0    5.20    1.70
   6  -1   0    5.20    1.60
  -6   1   0    3.90    1.40
  -6   1   0    4.70    0.50
  -6   1   0    4.20    1.50
   5  -1   0   28.80    2.50
   5  -1   0   27.10    2.10
   5  -1   0   28.00    2.50
   5  -1   0   25.70    2.40
  -5   1   0   26.10    1.10
  -5   1   0   24.60    2.50
  -5   1   0   25.50    2.20
  -5   1   0   28.20    2.20
  -5   1   0   23.00    2.10
   4  -1   0  144.79    4.30
   4  -1   0  140.79    4.10
   4  -1   0  145.29    4.90
   4  -1   0  146.59    4.60
   4  -1   0  137.69    4.90
  -4   1   0  140.09    5.00
  -4   1   0  144.69    4.50
  -4   1   0  138.89    3.10
  -4   1   0  137.89    4.20
  -4   1   0  141.69    4.40
   3  -1   0  220.88    5.80
   3  -1   0  218.58    6.00
   3  -1   0  218.68    5.50
   3  -1   0  221.98    5.30
   3  -1   0  218.88    5.10
  -3   1   0  224.08    6.10
  -3   1   0  216.68    4.30
  -3   1   0  216.78    5.20
  -3   1   0  222.78    5.50
  -3   1   0  217.98    5.30
   2  -1   0   64.49    2.60
   2  -1   0   61.19    2.20
   2  -1   0   58.29    1.90
   2  -1   0   63.89    2.00
  -2   1   0   62.19    2.20
  -2   1   0   64.69    2.60
  -2   1   0   60.79    2.00
  -2   1   0   59.29    2.00
   1  -1   0 1309.77   24.00
   1  -1   0 1300.87   21.70
   1  -1   0 1281.77   21.80
   1  -1   0 1274.17   22.40
  -1   1   0 1294.07   21.70
  -1   1   0 1289.97   22.40
  -1   1   0 1323.87   24.00
  -1   1   0 1291.57   21.80
   0  -1   0  146.49    2.90
   0  -1   0  145.79    3.20
   0  -1   0  147.39    3.20
   0   1   0  147.09    3.10
   0   1   0  140.19    3.20
   0   1   0  145.09    2.90
  -1  -1   0   48.70    1.40
  -1  -1   0   48.80    1.50
  -1  -1   0   46.80    1.70
   1   1   0   46.90    1.40
   1   1   0   45.80    1.40
   1   1   0   49.70    1.70
   1   1   0   49.70    1.50
  -2  -1   0 2404.96   44.40
  -2  -1   0 2431.96   40.60
  -2  -1   0 2415.26   45.20
  -2  -1   0 2495.35   40.90
  -2  -1   0 2486.55   41.50
   2   1   0 2419.06   44.50
   2   1   0 2447.96   40.60
   2   1   0 2468.05   40.90
   2   1   0 2388.16   42.30
   2   1   0 2481.05   41.50
  -3  -1   0   24.40    1.70
  -3  -1   0   22.50    1.40
  -3  -1   0   22.30    1.80
  -3  -1   0   22.10    1.30
  -3  -1   0   23.80    1.20
  -3  -1   0   24.40    1.30
   3   1   0   21.70    1.70
   3   1   0   25.40    1.40
   3   1   0   23.60    1.60
   3   1   0   24.40    1.20
   3   1   0   26.10    1.60
  -4  -1   0  134.19    4.90
  -4  -1   0  122.89    3.30
  -4  -1   0  123.69    4.10
  -4  -1   0  120.19    3.40
  -4  -1   0  121.89    3.90
  -4  -1   0  126.09    3.90
   4   1   0  120.89    3.20
   4   1   0  122.09    3.70
   4   1   0  126.89    4.10
   4   1   0  120.29    4.70
   4   1   0  121.69    4.20
  -5  -1   0    0.90    1.00
  -5  -1   0    0.30    0.60
  -5  -1   0   -1.00    0.70
  -5  -1   0    0.00    0.60
  -5  -1   0    1.90    0.90
  -5  -1   0    0.20    0.80
   5   1   0    1.30    0.50
   5   1   0   -0.20    1.00
   5   1   0    0.80    0.90
  -6  -1   0    2.30    1.30
  -6  -1   0    1.30    0.90
  -6  -1   0    0.00    0.90
  -6  -1   0    0.80    0.70
  -6  -1   0    0.70    1.00
   6   1   0    2.80    1.40
   6   1   0    1.60    1.10
   6   1   0    2.20    0.60
  -7  -1   0   -0.50    1.10
  -7  -1   0    0.10    0.90
  -7  -1   0   -1.90    0.90
   7   1   0   -0.40    1.50
   7   1   0    1.10    1.40
  -8  -1   0    6.30    1.60
  -8  -1   0    7.90    2.00
   8   1   0    7.90    2.40
   8   1   0    5.80    2.10
  -9  -1   0   -2.10    1.50
  -9  -1   0   -0.20    1.30
   9   1   0   -1.00    1.70
   9   1   0   -1.20    1.70
   8  -2   0   11.40    2.30
   8  -2   0   10.60    2.30
  -8   2   0   12.10    2.20
   7  -2   0   10.10    2.10
   7  -2   0    7.00    1.90
  -7   2   0    8.20    1.70
  -7   2   0    8.50    1.90
   6  -2   0    3.90    1.60
   6  -2   0    4.10    1.80
   6  -2   0    5.10    1.50
  -6   2   0    2.10    1.20
  -6   2   0    3.40    1.50
  -6   2   0    4.40    0.50
   5  -2   0   10.20    2.00
   5  -2   0    7.10    1.60
   5  -2   0    7.30    1.30
   5  -2   0    8.80    1.60
  -5   2   0    9.80    0.90
  -5   2   0    8.60    1.50
  -5   2   0    8.90    1.50
  -5   2   0    8.10    1.60
   4  -2   0    2.50    0.90
   4  -2   0    4.00    1.00
   4  -2   0    1.80    0.80
   4  -2   0    2.90    0.90
   4  -2   0    2.70    1.00
  -4   2   0    1.10    0.90
  -4   2   0    0.20    0.80
  -4   2   0    1.90    1.00
  -4   2   0    2.50    0.80
   3  -2   0    4.50    1.10
   3  -2   0    6.50    1.10
   3  -2   0    6.60    0.90
   3  -2   0    6.90    1.00
  -3   2   0    8.40    1.10
  -3   2   0    5.90    1.10
  -3   2   0    6.60    1.20
  -3   2   0    8.70    1.10
   2  -2   0  197.08    4.60
   2  -2   0  194.98    4.90
   2  -2   0  195.78    5.60
   2  -2   0  199.48    4.60
  -2   2   0  198.28    5.60
  -2   2   0  200.98    4.80
  -2   2   0  198.08    4.50
  -2   2   0  193.58    4.60
   1  -2   0 4809.72   80.69
   1  -2   0 4726.83   81.69
   1  -2   0 4581.34   84.59
   1  -2   0 4759.22   84.59
  -1   2   0 4732.63   81.09
  -1   2   0 4997.10   84.69
  -1   2   0 4652.03   80.19
  -1   2   0 4505.55   84.69
   0  -2   0 2019.40   34.30
   0  -2   0 2082.59   37.40
   0  -2   0 2114.99   37.10
   0  -2   0 2074.09   34.30
   0   2   0 2059.39   37.40
   0   2   0 2049.89   37.00
   0   2   0 2029.60   34.30
   0   2   0 2086.39   35.50
   0   2   0 2054.19   34.30
  -1  -2   0 1728.73   31.00
  -1  -2   0 1704.23   29.00
  -1  -2   0 1714.13   29.20
  -1  -2   0 1734.23   31.80
  -1  -2   0 1707.73   30.10
   1   2   0 1724.83   31.80
   1   2   0 1733.83   29.10
   1   2   0 1730.03   30.10
   1   2   0 1738.63   31.00
   1   2   0 1772.42   29.00
  -2  -2   0   24.30    0.80
  -2  -2   0   27.50    1.60
  -2  -2   0   28.10    1.20
  -2  -2   0   24.50    1.40
  -2  -2   0   25.20    1.70
  -2  -2   0   26.80    1.50
   2   2   0   25.90    1.50
   2   2   0   25.30    1.30
   2   2   0   26.40    1.90
   2   2   0   25.30    1.40
  -3  -2   0    7.60    1.10
  -3  -2   0    6.70    1.20
  -3  -2   0    8.90    0.90
  -3  -2   0    8.40    1.20
  -3  -2   0    7.30    1.00
  -3  -2   0    8.00    0.70
   3   2   0    6.60    1.00
   3   2   0    9.00    1.30
   3   2   0    8.30    1.30
   3   2   0    8.20    0.90
   3   2   0    7.50    1.00
  -4  -2   0    6.00    0.80
  -4  -2   0    5.30    1.00
  -4  -2   0    4.00    1.10
  -4  -2   0    7.40    1.30
  -4  -2   0    5.30    1.20
  -4  -2   0    7.40    1.00
   4   2   0    5.00    1.00
   4   2   0    4.50    0.80
   4   2   0    4.60    1.20
   4   2   0    6.90    1.30
   4   2   0    6.40    1.20
  -5  -2   0   18.30    2.20
  -5  -2   0   10.90    1.30
  -5  -2   0   13.90    1.40
  -5  -2   0   13.20    1.30
  -5  -2   0   13.10    1.70
   5   2   0   13.80    1.90
   5   2   0   14.20    1.30
   5   2   0   12.30    2.10
  -6  -2   0    5.40    1.10
  -6  -2   0    6.00    1.70
  -6  -2   0    6.60    1.30
  -6  -2   0    4.90    1.40
  -6  -2   0    6.00    1.10
   6   2   0    3.60    1.40
   6   2   0    5.10    1.00
   6   2   0    7.80    1.60
  -7  -2   0    1.30    1.30
  -7  -2   0    1.40    1.00
   7   2   0    3.90    1.60
   7   2   0    1.80    1.40
  -8  -2   0    3.00    1.20
  -8  -2   0    1.40    1.20
   8   2   0   -1.30    1.40
   8   2   0    1.60    1.80
  -9  -2   0    2.00    1.40
  -9  -2   0    6.30    1.80
   9   2   0    4.00    2.00
   9   2   0    5.70    2.60
   8  -3   0    1.50    1.40
   8  -3   0    0.80    1.90
  -8   3   0    4.00    1.90
   7  -3   0    7.40    1.80
   7  -3   0    8.00    1.90
   7  -3   0    8.80    2.20
  -7   3   0    7.90    1.70
  -7   3   0    5.90    1.80
   6  -3   0   21.30    2.70
   6  -3   0   21.10    2.50
   6  -3   0   20.50    3.00
  -6   3   0   18.40    1.30
  -6   3   0   20.20    1.30
  -6   3   0   22.10    2.40
  -6   3   0   19.40    2.10
   5  -3   0   24.60    2.40
   5  -3   0   21.30    2.00
   5  -3   0   19.70    2.70
   5  -3   0   23.40    2.50
  -5   3   0   23.10    2.20
  -5   3   0   21.30    1.40
  -5   3   0   22.60    2.10
   4  -3   0   19.80    2.60
   4  -3   0   17.70    1.50
   4  -3   0   16.50    2.00
  -4   3   0   20.40    1.90
  -4   3   0   18.20    1.90
  -4   3   0   19.50    1.80
   3  -3   0  142.19    5.50
   3  -3   0  153.68    4.30
   3  -3   0  148.29    4.10
   3  -3   0  134.09    4.50
  -3   3   0  144.89    4.10
  -3   3   0  141.29    4.20
  -3   3   0  141.09    4.40
  -3   3   0  142.89    5.40
   2  -3   0   14.50    1.30
   2  -3   0   11.70    1.70
   2  -3   0   12.10    1.00
  -2   3   0   17.50    1.50
  -2   3   0   16.50    1.80
  -2   3   0   13.90    1.20
  -2   3   0   12.50    1.10
  -2   3   0   13.90    1.20
   1  -3   0    2.50    0.70
   1  -3   0    3.10    0.70
   1  -3   0    2.80    0.80
   1  -3   0    2.20    1.10
  -1   3   0    2.70    0.60
  -1   3   0    3.50    0.80
  -1   3   0    1.80    0.90
  -1   3   0    2.40    0.80
  -1   3   0    3.60    0.80
   0  -3   0   17.80    1.40
   0  -3   0   19.20    1.60
   0  -3   0   19.00    1.20
   0  -3   0   24.10    1.60
   0   3   0   20.80    1.50
   0   3   0   20.10    1.40
   0   3   0   20.40    1.40
   0   3   0   18.90    1.20
   0   3   0   21.10    1.50
  -1  -3   0   69.29    2.40
  -1  -3   0   71.59    2.50
  -1  -3   0   72.99    2.40
  -1  -3   0   70.09    2.80
   1   3   0   71.39    2.40
   1   3   0   71.29    2.30
   1   3   0   68.29    2.70
   1   3   0   66.69    2.40
   1   3   0   68.59    2.80
  -2  -3   0  433.96    9.40
  -2  -3   0  442.56    9.20
  -2  -3   0  443.16   10.40
  -2  -3   0  435.66    8.40
  -2  -3   0  443.66    8.20
  -2  -3   0  439.36    8.90
   2   3   0  432.36    9.30
   2   3   0  440.96    8.80
   2   3   0  434.96    9.10
   2   3   0  434.56   10.30
  -3  -3   0  272.57    6.60
  -3  -3   0  288.57    7.00
  -3  -3   0  284.77    7.00
  -3  -3   0  286.07    6.10
  -3  -3   0  293.37    8.20
   3   3   0  288.17    6.90
   3   3   0  298.47    6.90
   3   3   0  291.27    6.70
   3   3   0  281.97    8.00
  -4  -3   0   10.80    0.50
  -4  -3   0   11.40    1.50
  -4  -3   0   12.90    1.60
  -4  -3   0   14.10    1.80
  -4  -3   0   13.60    1.20
  -4  -3   0   13.20    0.50
   4   3   0   14.30    1.50
   4   3   0   13.60    1.70
   4   3   0   15.60    1.60
   4   3   0    9.90    1.70
  -5  -3   0  118.09    3.80
  -5  -3   0  114.19    4.00
  -5  -3   0  111.49    4.10
  -5  -3   0  114.59    2.90
  -5  -3   0  113.99    4.60
   5   3   0  113.49    3.90
   5   3   0  112.19    4.40
   5   3   0  116.59    5.40
  -6  -3   0   17.50    1.20
  -6  -3   0   15.20    1.80
  -6  -3   0   17.90    2.20
   6   3   0   15.80    1.60
   6   3   0   16.20    2.30
   6   3   0   14.00    2.40
  -7  -3   0    0.20    1.20
  -7  -3   0   -0.10    0.90
   7   3   0   -1.30    1.60
   7   3   0   -0.80    0.90
  -8  -3   0    1.70    1.50
  -8  -3   0    1.60    1.20
   8   3   0    4.30    1.60
   8   3   0    4.00    2.20
   8  -4   0    4.20    2.30
   8  -4   0    6.30    1.90
  -8   4   0    8.10    2.40
  -8   4   0    5.30    1.80
   7  -4   0   -2.10    1.00
   7  -4   0   -1.20    1.50
   7  -4   0   -0.90    1.80
  -7   4   0    0.40    1.40
  -7   4   0   -0.70    1.10
   6  -4   0    8.80    2.20
   6  -4   0    8.50    2.20
   6  -4   0    8.50    1.80
  -6   4   0    7.90    1.90
  -6   4   0   11.10    1.80
   5  -4   0   56.09    3.50
   5  -4   0   58.19    4.50
   5  -4   0   55.79    3.30
  -5   4   0   57.59    2.60
  -5   4   0   51.09    3.10
  -5   4   0   54.39    3.00
   4  -4   0    0.70    0.70
   4  -4   0    0.90    1.20
   4  -4   0    0.00    1.40
  -4   4   0    1.30    1.10
  -4   4   0   -0.90    0.70
  -4   4   0    1.10    0.80
   3  -4   0   16.30    2.00
   3  -4   0   20.10    1.80
   3  -4   0   20.40    1.60
   3  -4   0   15.10    2.10
  -3   4   0   15.80    1.80
  -3   4   0   17.40    1.60
  -3   4   0   16.20    1.80
  -3   4   0   15.80    1.60
   2  -4   0   24.80    2.30
   2  -4   0   26.30    1.90
   2  -4   0   26.30    1.90
  -2   4   0   22.80    1.60
  -2   4   0   26.10    2.00
  -2   4   0   27.10    2.00
  -2   4   0   26.20    2.50
  -2   4   0   24.50    1.70
   1  -4   0 1909.41   32.70
   1  -4   0 1901.91   34.90
   1  -4   0 1831.02   32.80
   1  -4   0 1873.11   36.20
  -1   4   0 1873.21   36.20
  -1   4   0 1894.21   32.70
  -1   4   0 1879.51   33.70
  -1   4   0 1868.71   32.60
  -1   4   0 1877.71   33.40
   0  -4   0   26.70    2.10
   0  -4   0   26.00    1.80
   0  -4   0   29.90    1.70
   0  -4   0   28.50    2.00
   0   4   0   25.70    1.80
   0   4   0   29.00    2.00
   0   4   0   28.90    1.90
   0   4   0   30.30    1.90
   0   4   0   27.30    1.70
  -1  -4   0   -0.70    0.70
  -1  -4   0    0.70    0.60
  -1  -4   0    0.60    0.80
  -1  -4   0    0.30    0.70
   1   4   0    0.20    0.60
   1   4   0    1.30    0.90
   1   4   0   -0.30    0.50
   1   4   0   -0.60    0.40
   1   4   0   -0.20    0.60
  -2  -4   0  271.77    6.70
  -2  -4   0  253.07    6.30
  -2  -4   0  258.67    7.60
  -2  -4   0  266.97    5.90
   2   4   0  265.07    7.50
   2   4   0  260.87    6.50
   2   4   0  266.47    6.40
   2   4   0  269.97    6.90
   2   4   0  269.97    5.80
  -3  -4   0   82.19    3.50
  -3  -4   0   80.09    2.80
  -3  -4   0   80.19    4.10
  -3  -4   0   79.29    3.20
   3   4   0   77.19    3.90
   3   4   0   82.89    3.50
   3   4   0   76.89    3.10
   3   4   0   82.69    3.40
  -4  -4   0  161.68    4.50
  -4  -4   0  159.38    5.00
  -4  -4   0  168.78    5.60
   4   4   0  166.08    5.40
   4   4   0  166.98    6.50
   4   4   0  166.98    5.30
  -5  -4   0  100.59    4.40
  -5  -4   0   99.79    3.60
  -5  -4   0  100.89    4.20
   5   4   0   99.19    5.20
   5   4   0  103.49    4.50
  -6  -4   0   -2.00    1.00
  -6  -4   0   -0.10    0.90
   6   4   0   -1.70    1.60
   6   4   0    0.50    1.20
  -7  -4   0    2.90    1.20
  -7  -4   0    0.10    1.40
   7   4   0    2.30    2.00
   7   4   0    3.90    1.80
  -8  -4   0   13.10    2.20
  -8  -4   0   18.80    2.80
   8   4   0    5.00    2.60
   8   4   0   16.30    2.60
   7  -5   0   -2.90    2.10
   7  -5   0    1.80    1.60
   7  -5   0    0.10    1.30
  -7   5   0   -1.20    1.00
  -7   5   0    0.20    1.50
   6  -5   0   16.50    2.60
   6  -5   0   10.90    2.70
   6  -5   0   12.90    2.00
  -6   5   0   16.10    2.50
  -6   5   0   11.90    1.90
   5  -5   0    0.80    1.40
   5  -5   0    2.80    1.60
  -5   5   0    1.30    1.10
  -5   5   0    1.80    1.00
  -5   5   0    3.00    1.30
   4  -5   0    3.20    1.00
   4  -5   0    3.60    1.30
   4  -5   0    1.50    1.40
  -4   5   0    5.20    1.30
  -4   5   0    2.10    1.00
  -4   5   0    0.70    1.00
   3  -5   0   34.70    2.80
   3  -5   0   35.70    3.20
  -3   5   0   31.60    2.10
  -3   5   0   34.70    2.50
  -3   5   0   33.40    2.30
   2  -5   0   75.59    3.30
   2  -5   0   85.59    4.60
   2  -5   0   75.99    3.50
   2  -5   0   76.59    3.30
  -2   5   0   74.39    3.30
  -2   5   0   77.49    3.00
  -2   5   0   80.49    3.50
   1  -5   0    2.50    1.20
   1  -5   0    1.10    1.00
   1  -5   0    0.00    0.80
   1  -5   0    0.30    0.90
  -1   5   0   -0.50    0.60
  -1   5   0   -0.40    0.80
  -1   5   0    0.00    0.90
  -1   5   0    0.30    0.90
  -1   5   0   -0.20    0.80
   0  -5   0    5.80    1.50
   0  -5   0    6.20    1.30
   0  -5   0    7.80    1.40
   0  -5   0    4.50    1.10
   0   5   0    6.60    1.40
   0   5   0    7.00    1.20
   0   5   0    5.70    1.20
   0   5   0    9.70    1.40
  -1  -5   0   74.59    3.20
  -1  -5   0   72.29    3.50
  -1  -5   0   74.39    3.30
  -1  -5   0   74.69    3.30
   1   5   0   70.09    3.40
   1   5   0   73.89    3.10
   1   5   0   76.19    3.20
  -2  -5   0   46.80    2.70
  -2  -5   0   49.80    2.60
  -2  -5   0   51.99    3.40
  -2  -5   0   47.10    2.30
   2   5   0   46.00    2.60
   2   5   0   48.10    3.20
   2   5   0   48.60    2.10
  -3  -5   0   80.59    3.70
  -3  -5   0   74.59    2.10
  -3  -5   0   74.49    3.40
   3   5   0   72.39    3.30
   3   5   0   73.09    4.30
  -4  -5   0   42.70    2.70
  -4  -5   0   43.10    3.00
   4   5   0   46.50    3.90
   4   5   0   46.60    3.00
  -5  -5   0    1.00    1.00
  -5  -5   0    0.20    1.20
   5   5   0   -1.70    0.90
   5   5   0   -0.80    1.20
  -6  -5   0   39.80    3.20
  -6  -5   0   34.10    2.60
   6   5   0   41.00    4.30
   6   5   0   31.00    3.10
  -7  -5   0    9.80    2.00
  -7  -5   0   11.30    1.90
   7   5   0   13.20    2.50
   7   5   0    7.10    2.30
  -8  -5   0    0.90    1.40
   8   5   0    0.20    2.30
   7  -6   0   -6.30    2.00
  -7   6   0   -0.10    1.30
   6  -6   0    1.90    1.60
   6  -6   0    2.00    1.30
   6  -6   0   -3.00    2.10
  -6   6   0    2.80    1.50
  -6   6   0    0.00    1.30
   5  -6   0    0.70    1.60
   5  -6   0   -3.00    1.80
  -5   6   0   -0.70    1.20
  -5   6   0   -2.00    0.80
   4  -6   0    0.20    1.50
   4  -6   0   -0.70    1.70
  -4   6   0   -0.90    1.20
  -4   6   0    0.50    0.90
   3  -6   0    1.90    1.20
   3  -6   0    3.40    1.60
   3  -6   0    3.10    2.10
  -3   6   0    4.90    1.30
  -3   6   0    2.00    0.90
   2  -6   0   61.19    3.70
   2  -6   0   67.89    3.60
   2  -6   0   63.69    4.50
  -2   6   0   70.79    3.60
  -2   6   0   66.99    3.10
   1  -6   0    3.90    1.50
   1  -6   0    2.70    1.20
   1  -6   0    4.40    1.60
  -1   6   0    5.50    1.20
  -1   6   0    4.60    1.20
   0  -6   0    7.40    1.70
   0  -6   0    8.90    1.50
   0  -6   0    8.10    1.60
   0   6   0    7.20    1.30
   0   6   0    9.30    1.60
  -1  -6   0   22.40    2.00
  -1  -6   0   21.20    2.00
  -1  -6   0   23.40    2.40
   1   6   0   23.90    2.00
   1   6   0   22.90    2.60
   1   6   0   23.50    2.20
  -2  -6   0   15.30    1.90
  -2  -6   0   16.50    1.90
  -2  -6   0   19.30    1.90
   2   6   0   19.40    1.90
   2   6   0   14.40    1.50
   2   6   0   12.80    2.00
  -3  -6   0    3.60    1.20
   3   6   0    4.40    1.30
   3   6   0    5.60    1.70
  -4  -6   0   19.30    2.10
   4   6   0   16.90    2.80
   4   6   0   18.70    2.30
  -5  -6   0    0.70    1.40
   5   6   0    1.80    1.40
   5   6   0    0.40    1.80
  -6  -6   0   10.00    2.20
   6   6   0    6.70    2.40
   6   6   0    6.90    2.00
  -7  -6   0    2.50    1.90
  -7  -6   0   -0.90    1.30
   7   6   0   -1.50    1.50
   7   6   0    1.80    1.80
   6  -7   0   -0.80    1.80
   6  -7   0   -2.40    2.60
  -6   7   0   -2.00    1.60
   5  -7   0   -3.40    2.20
   5  -7   0    1.70    1.80
  -5   7   0    0.70    1.50
  -5   7   0    0.70    1.00
   4  -7   0   -2.10    1.30
   4  -7   0    1.00    1.70
  -4   7   0    0.30    1.30
  -4   7   0    0.50    1.00
   3  -7   0   -0.60    1.80
   3  -7   0   -0.60    0.90
  -3   7   0    0.40    0.90
  -3   7   0    0.70    1.40
   2  -7   0    0.00    1.80
   2  -7   0    1.40    1.60
  -2   7   0    3.70    1.10
  -2   7   0    1.60    1.40
   1  -7   0    2.30    1.50
   1  -7   0    6.90    2.10
  -1   7   0    3.90    1.20
  -1   7   0    4.20    1.30
   0  -7   0    2.50    1.70
   0  -7   0    1.70    1.20
   0   7   0    1.50    1.30
   0   7   0   -0.50    0.90
  -1  -7   0   17.30    2.40
  -1  -7   0   14.70    2.20
   1   7   0   15.60    2.20
   1   7   0   16.80    1.90
  -2  -7   0    6.50    1.80
  -2  -7   0    7.20    1.50
   2   7   0    9.00    1.30
   2   7   0    7.40    1.70
   2   7   0    9.50    2.20
  -3  -7   0    0.60    1.30
   3   7   0   -1.20    1.60
   3   7   0    0.30    0.90
  -4  -7   0   16.00    2.50
   4   7   0   11.60    2.20
   4   7   0   12.60    2.50
  -5  -7   0    9.30    2.20
   5   7   0    3.50    1.90
   5   7   0   11.80    2.30
  -6  -7   0   -2.60    1.40
   6   7   0    1.30    1.30
   6   7   0   -3.60    1.30
   4  -8   0   -4.00    2.20
   4  -8   0    0.50    1.90
  -4   8   0   -1.70    1.50
   3  -8   0   -1.60    2.20
   3  -8   0    1.40    1.40
  -3   8   0    0.20    1.50
  -3   8   0    1.30    1.00
   2  -8   0    8.90    2.60
   2  -8   0   11.20    2.40
  -2   8   0    8.20    1.80
  -2   8   0    8.60    1.60
   1  -8   0    5.70    2.00
   1  -8   0    0.60    1.80
  -1   8   0    2.50    1.20
  -1   8   0    4.60    1.80
   0  -8   0    0.30    1.50
   0  -8   0    0.30    1.50
   0   8   0   -0.60    0.90
   0   8   0   -0.30    1.20
  -1  -8   0    4.90    1.60
  -1  -8   0    5.90    1.90
   1   8   0    5.80    1.60
  -2  -8   0    1.20    1.40
  -2  -8   0    3.20    1.60
   2   8   0    2.90    1.70
   2   8   0    2.10    1.80
  -3  -8   0    6.30    1.70
   3   8   0    5.90    1.80
   3   8   0    6.00    2.00
  -4  -8   0   20.60    2.90
   4   8   0   14.60    2.60
   4   8   0   12.50    3.00
  -5  -8   0    1.10    1.80
   5   8   0   -2.10    2.20
   5   8   0    0.30    1.60
   2  -9   0    0.80    1.40
   2  -9   0   -2.90    2.20
  -2   9   0   -0.60    1.20
   1  -9   0   -3.30    1.50
   1  -9   0    1.00    2.30
  -1   9   0    1.20    1.30
  -1   9   0    0.50    1.50
   0  -9   0   -4.50    1.60
   0  -9   0   -3.50    1.40
   0   9   0    0.50    1.70
   0   9   0    0.10    1.00
  -1  -9   0    1.80    1.90
  -1  -9   0   -2.30    1.60
   1   9   0   -0.50    1.50
   1   9   0    3.30    1.30
  -2  -9   0    1.50    1.80
   2   9   0    6.60    2.10
  -3  -9   0   13.70    2.80
   3   9   0   13.60    3.10
   3   9   0   14.10    2.50
   2   9  -1    3.30    2.00
  -2  -9   1    1.30    1.90
   1   9  -1    0.10    1.60
   1   9  -1    2.50    1.10
  -1  -9   1   -0.30    1.80
   0   9  -1   -0.20    1.60
   0  -9   1   -1.30    1.60
   0  -9   1   -3.00    1.60
  -1   9  -1   -0.20    1.70
   1  -9   1   -2.50    1.70
   1  -9   1   -3.10    1.90
  -2   9  -1   -1.50    1.60
   2  -9   1   -1.90    1.20
   2  -9   1   -1.20    2.10
   5   8  -1   -1.90    1.60
   4   8  -1    1.10    1.70
   4   8  -1    3.40    1.80
  -4  -8   1    4.20    1.60
   3   8  -1   16.40    2.50
   3   8  -1    8.30    2.60
  -3  -8   1   10.40    2.10
   2   8  -1    9.50    2.10
  -2  -8   1    6.30    2.00
  -2  -8   1    3.40    1.60
   1   8  -1   -0.80    1.30
  -1  -8   1   -0.30    1.10
   0   8  -1    1.70    0.90
   0   8  -1    1.10    1.50
   0  -8   1    3.30    1.80
   0  -8   1    3.30    1.90
  -1   8  -1   -1.10    1.00
  -1   8  -1    0.50    0.90
   1  -8   1   -2.60    1.60
   1  -8   1   -1.70    0.90
  -2   8  -1    2.70    1.10
  -2   8  -1    3.50    1.70
   2  -8   1    1.20    2.20
   2  -8   1   -0.30    1.10
   3  -8   1   -1.70    2.10
   3  -8   1    2.00    1.90
  -4   8  -1   -1.10    1.10
   4  -8   1   -2.00    2.30
   4  -8   1   -2.20    1.10
   6   7  -1    1.10    2.60
   6   7  -1   12.20    2.60
  -6  -7   1    8.40    2.40
   5   7  -1   -1.60    1.30
   5   7  -1    1.10    1.20
  -5  -7   1    1.60    1.40
   4   7  -1   46.50    4.60
   4   7  -1   55.49    3.90
  -4  -7   1   49.60    3.50
   3   7  -1   16.70    2.50
   3   7  -1   14.40    2.70
  -3  -7   1   14.60    2.30
  -3  -7   1   10.90    1.50
   2   7  -1   -0.20    1.20
   2   7  -1    1.10    1.30
  -2  -7   1   -1.20    1.10
  -2  -7   1   -1.00    1.20
   1   7  -1    0.00    0.90
   1   7  -1    0.20    0.90
  -1  -7   1   -0.80    1.20
  -1  -7   1   -3.40    1.10
   0   7  -1    7.00    1.70
   0   7  -1    6.50    1.30
   0  -7   1    3.60    1.70
   0  -7   1    4.60    1.70
  -1   7  -1    7.60    1.30
  -1   7  -1    8.70    1.90
   1  -7   1    7.30    2.20
   1  -7   1   11.50    2.10
  -2   7  -1    0.90    0.80
  -2   7  -1    1.80    1.20
   2  -7   1   -0.10    1.80
   2  -7   1    1.90    1.30
  -3   7  -1    0.80    0.90
   3  -7   1    0.90    1.50
   3  -7   1   -2.70    1.80
  -4   7  -1   -0.90    1.10
  -4   7  -1   -0.20    0.90
   4  -7   1   -1.40    1.40
   4  -7   1   -3.40    1.20
  -5   7  -1    0.50    1.20
   5  -7   1   -1.30    2.40
   5  -7   1   -0.90    1.30
   7   6  -1   -0.60    1.70
   7   6  -1   -3.00    1.40
  -7  -6   1   -1.70    1.60
   6   6  -1   -3.30    1.80
   6   6  -1    0.70    1.60
  -6  -6   1   -0.10    1.40
   5   6  -1   43.50    4.60
   5   6  -1   39.10    3.40
  -5  -6   1   38.30    3.30
   4   6  -1   53.19    3.60
   4   6  -1   49.20    4.40
  -4  -6   1   61.19    3.70
   3   6  -1   17.00    2.70
   3   6  -1   19.50    2.40
  -3  -6   1   14.90    2.20
  -3  -6   1   18.90    1.70
   2   6  -1    4.70    1.30
   2   6  -1    4.60    1.50
   2   6  -1    4.20    1.00
  -2  -6   1    3.90    1.20
  -2  -6   1    2.80    1.10
   1   6  -1   -0.80    0.60
   1   6  -1   -0.30    1.00
  -1  -6   1   -1.70    1.00
  -1  -6   1   -0.10    1.20
   0   6  -1   49.30    3.20
   0   6  -1   50.39    3.00
   0  -6   1   54.99    3.30
   0  -6   1   52.79    3.60
  -1   6  -1   21.20    2.30
  -1   6  -1   18.10    1.60
   1  -6   1   20.30    2.40
   1  -6   1   19.30    2.60
  -2   6  -1    1.90    1.30
  -2   6  -1    1.40    0.80
   2  -6   1    1.20    1.70
   2  -6   1    0.50    1.30
   2  -6   1    1.20    1.30
  -3   6  -1    4.60    1.00
   3  -6   1    5.70    1.80
   3  -6   1    3.30    2.20
  -4   6  -1    1.40    0.90
  -4   6  -1   -0.10    1.30
   4  -6   1   -0.30    2.00
   4  -6   1    1.80    1.20
  -5   6  -1    2.50    1.30
  -5   6  -1    0.20    1.00
   5  -6   1   -1.40    2.00
   5  -6   1    0.40    1.20
  -6   6  -1   -0.70    1.10
  -6   6  -1   -0.70    1.50
   6  -6   1   -3.20    2.00
   6  -6   1   -2.50    1.40
   7   5  -1    0.20    1.10
   7   5  -1   -1.00    1.30
  -7  -5   1   -0.50    1.10
  -7  -5   1   -0.20    1.10
   6   5  -1    7.90    2.50
   6   5  -1    5.30    1.90
  -6  -5   1    5.60    1.80
  -6  -5   1    4.00    1.30
   5   5  -1   68.39    5.00
   5   5  -1   65.89    4.00
  -5  -5   1   69.89    4.10
  -5  -5   1   68.09    3.90
   4   5  -1   12.30    2.00
   4   5  -1   15.50    2.30
  -4  -5   1   16.80    2.20
  -4  -5   1   15.20    2.20
  -4  -5   1   14.20    0.80
   3   5  -1    2.90    1.20
   3   5  -1    2.00    1.30
  -3  -5   1    2.20    1.10
  -3  -5   1    1.40    1.20
  -3  -5   1    3.20    0.80
  -3  -5   1    2.30    1.00
   2   5  -1   51.69    3.20
   2   5  -1   51.59    2.90
  -2  -5   1   57.99    3.30
  -2  -5   1   47.60    2.70
  -2  -5   1   48.10    2.70
  -2  -5   1   53.19    2.60
   1   5  -1   12.80    1.50
   1   5  -1   11.80    1.80
   1   5  -1   15.50    1.60
  -1  -5   1   14.20    1.50
  -1  -5   1   12.20    1.80
  -1  -5   1   14.90    1.80
  -1  -5   1   14.20    1.80
   0   5  -1    0.80    0.80
   0   5  -1    1.60    0.80
   0   5  -1    1.90    0.80
   0  -5   1   -0.30    0.60
   0  -5   1    1.20    1.20
   0  -5   1    0.90    0.80
   0  -5   1    0.10    0.70
  -1   5  -1   -0.30    0.50
  -1   5  -1   -1.50    0.80
  -1   5  -1    1.20    1.00
  -1   5  -1    0.10    0.60
  -1   5  -1   -0.20    0.80
   1  -5   1   -1.20    0.90
   1  -5   1   -0.20    0.60
   1  -5   1   -2.30    1.00
   1  -5   1    0.70    0.90
  -2   5  -1   16.60    1.90
  -2   5  -1   13.40    1.80
  -2   5  -1   14.60    1.30
   2  -5   1   15.50    2.10
   2  -5   1   16.60    1.90
   2  -5   1   12.70    2.20
  -3   5  -1    0.40    1.00
  -3   5  -1    0.00    0.70
  -3   5  -1   -0.60    0.60
   3  -5   1    1.30    1.60
   3  -5   1    1.50    1.20
  -4   5  -1   -1.00    0.90
  -4   5  -1   -0.40    0.80
  -4   5  -1   -0.20    0.80
   4  -5   1    1.00    0.60
   4  -5   1   -1.00    1.10
   4  -5   1    0.80    1.40
  -5   5  -1    1.30    1.00
  -5   5  -1    4.20    1.20
  -5   5  -1    3.80    1.50
   5  -5   1   -0.10    2.10
   5  -5   1    3.00    1.00
   5  -5   1    3.90    1.80
  -6   5  -1    3.90    1.70
  -6   5  -1    2.70    1.30
   6  -5   1    1.30    2.10
   6  -5   1    7.50    2.20
  -7   5  -1    0.90    1.30
  -7   5  -1    3.10    2.00
   7  -5   1    2.50    1.60
   7  -5   1   -1.80    2.30
   7  -5   1    3.90    2.20
   8   4  -1   -1.50    2.10
   8   4  -1   -0.20    1.80
  -8  -4   1    0.20    1.60
  -8  -4   1    0.40    1.20
   7   4  -1    4.50    1.90
   7   4  -1    3.70    1.60
  -7  -4   1    7.80    1.50
  -7  -4   1    7.00    1.80
   6   4  -1    1.30    1.20
   6   4  -1    0.10    1.30
  -6  -4   1    1.50    1.10
  -6  -4   1    1.90    1.00
  -6  -4   1    1.70    1.40
   5   4  -1    1.70    1.40
   5   4  -1    3.00    1.50
  -5  -4   1    2.80    1.40
  -5  -4   1    2.40    0.40
  -5  -4   1    3.10    1.10
  -5  -4   1    2.00    0.30
  -5  -4   1    2.20    1.00
   4   4  -1   14.00    2.30
   4   4  -1   15.50    2.10
  -4  -4   1   16.30    0.90
  -4  -4   1   15.60    2.00
  -4  -4   1   13.70    1.90
  -4  -4   1   17.70    2.20
  -4  -4   1   15.60    1.50
   3   4  -1   27.20    2.00
   3   4  -1   24.80    1.90
   3   4  -1   27.30    2.70
  -3  -4   1   26.10    2.20
  -3  -4   1   24.80    1.90
  -3  -4   1   21.60    2.30
  -3  -4   1   25.40    1.40
   2   4  -1   29.20    1.90
   2   4  -1   33.40    2.60
   2   4  -1   28.60    2.10
   2   4  -1   26.50    2.10
  -2  -4   1   27.20    1.70
  -2  -4   1   29.40    2.10
  -2  -4   1   29.40    2.40
  -2  -4   1   27.50    1.80
  -2  -4   1   24.40    2.00
   1   4  -1   43.40    2.20
   1   4  -1   45.50    2.50
   1   4  -1   47.30    2.30
   1   4  -1   48.90    2.30
   1   4  -1   45.50    2.60
  -1  -4   1   42.20    2.30
  -1  -4   1   48.00    2.40
  -1  -4   1   44.50    2.60
  -1  -4   1   44.20    2.40
   0   4  -1   -0.90    0.70
   0   4  -1    0.10    0.60
   0   4  -1    0.20    0.80
   0   4  -1   -1.00    0.50
   0  -4   1    1.00    0.70
   0  -4   1   -0.20    0.80
   0  -4   1   -0.30    0.60
   0  -4   1   -1.20    0.70
   0  -4   1    0.00    0.60
  -1   4  -1    3.70    1.10
  -1   4  -1    3.80    0.90
  -1   4  -1    5.30    0.80
  -1   4  -1    1.90    1.20
  -1   4  -1    5.00    1.00
   1  -4   1    3.50    1.30
   1  -4   1    4.80    1.10
   1  -4   1    5.00    0.90
   1  -4   1    3.50    0.90
  -2   4  -1   67.09    2.90
  -2   4  -1   74.09    3.10
  -2   4  -1   64.99    2.30
  -2   4  -1   74.39    3.80
  -2   4  -1   70.19    2.90
   2  -4   1   67.69    3.80
   2  -4   1   64.59    2.80
   2  -4   1   70.49    3.20
  -3   4  -1    0.00    0.70
  -3   4  -1   -0.30    0.60
  -3   4  -1   -0.40    0.60
  -3   4  -1    0.60    0.70
   3  -4   1    1.40    0.90
   3  -4   1    0.30    0.50
   3  -4   1    0.00    1.00
  -4   4  -1    4.50    1.00
  -4   4  -1    6.50    1.10
  -4   4  -1    7.10    1.50
   4  -4   1    5.40    1.00
   4  -4   1    6.90    1.60
   4  -4   1    5.10    1.60
  -5   4  -1    2.60    0.80
  -5   4  -1    2.60    1.10
  -5   4  -1    2.60    1.10
   5  -4   1    3.40    1.30
   5  -4   1    2.80    0.90
   5  -4   1    2.10    1.90
  -6   4  -1    1.00    1.30
  -6   4  -1    1.50    1.10
   6  -4   1   -0.20    1.80
   6  -4   1    2.60    1.30
   6  -4   1    0.40    1.20
  -7   4  -1   -0.80    1.10
  -7   4  -1    1.10    1.50
   7  -4   1   -0.90    1.40
   7  -4   1   -0.60    1.10
   7  -4   1   -0.80    1.60
  -8   4  -1    3.70    2.00
   8  -4   1    2.50    1.60
   8  -4   1    0.00    2.30
   8  -4   1    4.50    2.10
   8   3  -1    6.30    2.10
   8   3  -1    0.50    2.00
  -8  -3   1    4.20    1.30
  -8  -3   1    6.80    2.00
   7   3  -1   37.50    3.80
   7   3  -1   43.30    3.70
  -7  -3   1   44.80    3.00
  -7  -3   1   43.80    3.40
  -7  -3   1   39.40    2.50
   6   3  -1    9.10    1.50
   6   3  -1    8.80    2.00
   6   3  -1    8.00    1.70
  -6  -3   1    8.00    1.60
  -6  -3   1    9.50    1.90
  -6  -3   1    7.70    1.30
  -6  -3   1    8.50    1.20
   5   3  -1   23.40    2.00
   5   3  -1   24.10    2.50
   5   3  -1   26.70    3.10
  -5  -3   1   27.80    2.60
  -5  -3   1   20.30    2.20
  -5  -3   1   25.30    1.60
  -5  -3   1   25.80    1.70
  -5  -3   1   26.90    2.40
   4   3  -1   66.69    3.00
   4   3  -1   68.29    3.90
   4   3  -1   68.89    3.20
  -4  -3   1   68.49    3.30
  -4  -3   1   70.99    2.50
  -4  -3   1   68.59    3.00
  -4  -3   1   66.29    2.20
  -4  -3   1   71.99    3.20
   3   3  -1   52.39    2.50
   3   3  -1   52.09    2.50
   3   3  -1   56.39    3.20
   3   3  -1   46.90    2.50
   3   3  -1   54.79    2.50
  -3  -3   1   54.59    2.80
  -3  -3   1   52.29    1.90
  -3  -3   1   52.19    1.90
  -3  -3   1   51.19    2.40
  -3  -3   1   54.49    2.70
  -3  -3   1   55.89    3.10
   2   3  -1    1.30    0.80
   2   3  -1    4.10    1.00
   2   3  -1    2.90    0.70
   2   3  -1    2.50    0.90
  -2  -3   1    1.60    0.60
  -2  -3   1    2.20    1.00
  -2  -3   1    1.60    0.70
  -2  -3   1    1.20    0.70
  -2  -3   1    1.40    0.80
   1   3  -1   34.90    1.90
   1   3  -1   37.70    1.80
   1   3  -1   41.40    2.10
   1   3  -1   37.30    1.80
   1   3  -1   40.20    2.20
  -1  -3   1   37.30    2.10
  -1  -3   1   37.30    1.90
  -1  -3   1   35.30    1.80
  -1  -3   1   38.30    2.10
  -1  -3   1   40.10    2.00
   0   3  -1    4.00    0.80
   0   3  -1    4.20    0.80
   0   3  -1    3.80    0.80
   0   3  -1    4.40    0.90
   0  -3   1    4.20    0.90
   0  -3   1    4.60    1.00
   0  -3   1    4.50    1.00
   0  -3   1    4.20    0.80
   0  -3   1    6.10    1.00
  -1   3  -1  189.08    5.50
  -1   3  -1  177.88    4.50
  -1   3  -1  185.68    4.70
  -1   3  -1  184.18    4.10
  -1   3  -1  190.58    4.70
   1  -3   1  177.08    5.50
   1  -3   1  176.58    4.70
   1  -3   1  184.78    4.60
  -2   3  -1  255.97    6.10
  -2   3  -1  255.27    7.30
  -2   3  -1  254.57    5.40
  -2   3  -1  264.87    5.90
  -2   3  -1  258.17    6.10
   2  -3   1  249.28    7.30
   2  -3   1  245.78    5.90
   2  -3   1  248.78    6.20
   2  -3   1  255.67    5.60
  -3   3  -1   24.80    2.40
  -3   3  -1   28.30    1.50
  -3   3  -1   26.50    1.70
  -3   3  -1   29.90    1.90
  -3   3  -1   26.60    1.60
   3  -3   1   27.50    1.50
   3  -3   1   26.80    1.70
   3  -3   1   25.90    1.90
   3  -3   1   25.70    2.60
  -4   3  -1    1.70    0.60
  -4   3  -1    1.20    0.80
  -4   3  -1    2.70    0.80
  -4   3  -1    0.90    0.70
   4  -3   1    1.70    0.90
   4  -3   1    1.60    0.60
   4  -3   1    0.80    1.10
  -5   3  -1   12.30    1.90
  -5   3  -1   17.50    1.80
  -5   3  -1   15.10    1.20
  -5   3  -1   18.30    2.20
   5  -3   1   19.30    2.40
   5  -3   1   17.00    1.70
   5  -3   1   14.70    2.00
   5  -3   1   14.00    2.40
  -6   3  -1   50.59    3.30
  -6   3  -1   49.40    1.50
  -6   3  -1   60.09    3.30
  -6   3  -1   49.80    1.50
   6  -3   1   54.89    3.70
   6  -3   1   58.49    3.90
   6  -3   1   55.49    4.40
  -7   3  -1    8.30    1.80
  -7   3  -1    5.20    1.90
   7  -3   1    4.20    2.30
   7  -3   1    5.10    2.00
   7  -3   1    4.90    1.80
  -8   3  -1    2.80    1.70
   8  -3   1   -2.50    1.80
   8  -3   1    2.00    2.00
   8  -3   1   -1.50    1.30
   8   2  -1    5.40    2.10
   8   2  -1    3.60    2.10
  -8  -2   1    3.30    1.20
  -8  -2   1    2.20    1.70
   7   2  -1    3.90    1.90
   7   2  -1    3.10    1.40
  -7  -2   1    0.30    1.30
  -7  -2   1    1.20    0.90
  -7  -2   1    0.50    1.00
   6   2  -1   80.69    4.20
   6   2  -1  101.09    5.30
   6   2  -1   92.89    3.50
  -6  -2   1   97.39    4.10
  -6  -2   1   88.69    3.20
  -6  -2   1   83.29    3.50
   5   2  -1  164.68    6.40
   5   2  -1  165.78    4.80
   5   2  -1  172.78    5.80
  -5  -2   1  167.68    4.90
  -5  -2   1  164.98    4.80
  -5  -2   1  166.28    4.30
  -5  -2   1  170.58    5.30
  -5  -2   1  160.08    5.70
   4   2  -1  103.49    3.40
   4   2  -1  105.39    3.70
   4   2  -1  106.49    3.90
   4   2  -1  103.69    3.90
   4   2  -1  105.19    4.60
  -4  -2   1  107.29    3.80
  -4  -2   1  103.79    4.50
  -4  -2   1  104.69    3.00
  -4  -2   1  105.49    4.10
  -4  -2   1  104.99    3.20
  -4  -2   1  106.59    3.60
   3   2  -1  683.33   13.30
   3   2  -1  662.03   13.10
   3   2  -1  680.43   13.60
   3   2  -1  685.83   15.00
   3   2  -1  668.73   13.50
  -3  -2   1  667.73   13.10
  -3  -2   1  694.93   15.10
  -3  -2   1  699.93   13.40
  -3  -2   1  682.03   13.60
  -3  -2   1  707.63   11.70
   2   2  -1   47.60    2.00
   2   2  -1   44.90    2.00
   2   2  -1   45.00    1.80
   2   2  -1   46.20    2.10
   2   2  -1   47.10    2.50
  -2  -2   1   44.70    2.00
  -2  -2   1   48.50    2.40
  -2  -2   1   48.90    2.20
  -2  -2   1   42.80    2.00
   1   2  -1  453.65    8.80
   1   2  -1  455.25    9.70
   1   2  -1  450.75    8.70
   1   2  -1  453.95    9.10
  -1  -2   1  458.65    8.90
  -1  -2   1  463.45    8.70
  -1  -2   1  452.55    9.10
  -1  -2   1  452.25    9.70
  -1  -2   1  452.75    9.10
   0   2  -1 2760.02   49.30
   0   2  -1 2753.32   46.60
   0   2  -1 2675.23   45.10
   0   2  -1 2725.73   45.10
   0  -2   1 2703.53   50.49
   0  -2   1 2741.43   46.70
   0  -2   1 2677.13   45.10
   0  -2   1 2708.53   45.20
   0  -2   1 2782.42   49.30
  -1   2  -1  255.57    6.40
  -1   2  -1  259.77    5.00
  -1   2  -1  261.07    5.40
  -1   2  -1  256.27    5.50
   1  -2   1  260.57    6.50
   1  -2   1  259.07    5.50
   1  -2   1  254.17    5.50
   1  -2   1  256.17    5.40
  -2   2  -1  229.38    5.30
  -2   2  -1  229.78    6.40
  -2   2  -1  238.38    5.40
  -2   2  -1  239.08    4.90
  -2   2  -1  231.88    5.00
   2  -2   1  231.48    6.50
   2  -2   1  242.18    5.00
   2  -2   1  238.78    5.50
   2  -2   1  244.18    5.30
  -3   2  -1  108.19    2.70
  -3   2  -1  110.99    3.60
  -3   2  -1  106.49    3.10
  -3   2  -1  112.79    3.40
  -3   2  -1  117.09    4.40
   3  -2   1  108.59    3.60
   3  -2   1  110.09    3.40
   3  -2   1  111.19    4.30
   3  -2   1  109.69    3.10
  -4   2  -1  163.68    4.90
  -4   2  -1  149.09    4.40
  -4   2  -1  153.68    3.40
  -4   2  -1  148.59    4.50
  -4   2  -1  158.78    5.80
   4  -2   1  159.08    4.40
   4  -2   1  152.78    5.60
   4  -2   1  148.79    4.80
   4  -2   1  157.68    4.50
  -5   2  -1   96.79    3.80
  -5   2  -1   89.09    1.90
  -5   2  -1   88.89    1.90
  -5   2  -1  100.49    3.70
  -5   2  -1   95.99    4.00
   5  -2   1   91.59    4.10
   5  -2   1   95.19    4.40
   5  -2   1   84.59    3.40
   5  -2   1   91.89    4.80
  -6   2  -1    1.80    1.30
  -6   2  -1    3.20    1.30
   6  -2   1    6.30    1.90
   6  -2   1    5.20    1.50
   6  -2   1    6.00    1.70
  -7   2  -1    3.40    1.60
   7  -2   1    2.10    1.40
   7  -2   1    0.40    1.70
   7  -2   1    2.20    1.70
  -8   2  -1   13.20    2.20
   8  -2   1   15.90    2.90
   8  -2   1   13.00    2.60
   8  -2   1   12.10    2.80
   9   1  -1    0.00    1.80
   9   1  -1    1.60    1.40
  -9  -1   1    1.70    1.40
  -9  -1   1    0.80    1.70
   8   1  -1   17.30    2.90
   8   1  -1   15.80    2.70
  -8  -1   1   14.90    2.50
  -8  -1   1   15.30    2.00
   7   1  -1    0.60    1.50
   7   1  -1    0.70    1.60
  -7  -1   1    0.20    1.40
  -7  -1   1   -1.30    1.00
  -7  -1   1    1.50    0.90
  -7  -1   1    0.40    0.80
   6   1  -1  138.39    4.10
   6   1  -1  145.19    5.60
   6   1  -1  152.38    6.30
  -6  -1   1  135.29    5.10
  -6  -1   1  142.79    4.30
  -6  -1   1  138.59    5.10
  -6  -1   1  137.39    4.10
   5   1  -1   21.50    2.50
   5   1  -1   18.90    1.40
   5   1  -1   18.60    2.20
  -5  -1   1   21.90    1.60
  -5  -1   1   20.20    2.20
  -5  -1   1   20.40    1.90
  -5  -1   1   21.40    2.00
  -5  -1   1   21.10    1.50
  -5  -1   1   19.20    1.90
   4   1  -1   66.29    2.40
   4   1  -1   62.69    2.60
   4   1  -1   60.59    3.00
   4   1  -1   64.79    3.40
   4   1  -1   61.09    2.80
  -4  -1   1   62.99    2.90
  -4  -1   1   60.39    2.70
  -4  -1   1   60.39    3.20
  -4  -1   1   58.59    2.70
  -4  -1   1   61.49    2.30
  -4  -1   1   64.79    2.20
   3   1  -1  255.77    6.90
   3   1  -1  259.57    5.80
   3   1  -1  263.87    6.30
   3   1  -1  254.37    6.30
   3   1  -1  267.37    6.00
  -3  -1   1  265.17    6.10
  -3  -1   1  274.27    7.10
  -3  -1   1  266.17    5.80
  -3  -1   1  261.97    6.40
  -3  -1   1  263.17    6.00
  -3  -1   1  262.87    5.10
   2   1  -1   78.69    2.40
   2   1  -1   78.49    2.50
   2   1  -1   82.29    2.90
   2   1  -1   81.49    2.60
   2   1  -1   78.89    2.40
  -2  -1   1   80.39    2.40
  -2  -1   1   79.09    2.70
  -2  -1   1   78.89    2.90
  -2  -1   1   78.79    2.40
   1   1  -1  494.35    9.30
   1   1  -1  490.95    9.00
   1   1  -1  497.65    9.10
   1   1  -1  494.85    9.20
   1   1  -1  496.15    9.90
  -1  -1   1  502.65    9.20
  -1  -1   1  501.35   10.00
  -1  -1   1  504.85    9.30
  -1  -1   1  493.65    9.00
   0   1  -1  265.07    5.20
   0   1  -1  274.57    5.00
   0   1  -1  258.37    5.00
   0   1  -1  265.07    5.60
   0  -1   1  269.47    5.20
   0  -1   1  266.97    5.60
   0  -1   1  263.77    5.00
   0  -1   1  261.37    5.00
  -1   1  -1  762.32   13.20
  -1   1  -1  762.92   13.30
  -1   1  -1  767.22   14.90
  -1   1  -1  773.12   13.40
  -1   1  -1  768.52   13.30
   1  -1   1  779.42   13.30
   1  -1   1  770.22   13.40
   1  -1   1  774.92   13.40
   1  -1   1  766.92   13.20
   1  -1   1  774.82   15.00
  -2   1  -1   99.59    2.70
  -2   1  -1  106.99    2.90
  -2   1  -1  104.19    2.70
  -2   1  -1  106.19    2.20
  -2   1  -1  108.09    3.50
   2  -1   1  104.59    3.50
   2  -1   1  102.99    2.90
   2  -1   1  110.49    2.80
   2  -1   1  110.29    2.70
  -3   1  -1  385.06    9.20
  -3   1  -1  382.46    8.10
  -3   1  -1  384.46    6.70
  -3   1  -1  375.66    7.80
  -3   1  -1  376.56    8.00
   3  -1   1  401.16    7.80
   3  -1   1  387.16    8.20
   3  -1   1  390.86    8.00
   3  -1   1  385.46    9.30
  -4   1  -1   21.00    1.70
  -4   1  -1   22.40    2.10
  -4   1  -1   22.30    1.70
  -4   1  -1   21.40    1.80
   4  -1   1   22.10    2.20
   4  -1   1   26.20    1.60
   4  -1   1   21.80    1.60
   4  -1   1   22.30    1.70
   4  -1   1   23.70    2.10
  -5   1  -1   17.00    2.00
  -5   1  -1   18.10    2.20
  -5   1  -1   16.20    1.80
   5  -1   1   18.20    1.70
   5  -1   1   16.80    2.00
   5  -1   1   15.80    2.00
   5  -1   1   16.80    2.10
  -6   1  -1   10.20    1.60
  -6   1  -1   11.50    1.80
   6  -1   1    8.80    1.80
   6  -1   1    6.70    1.50
   6  -1   1    5.50    1.60
  -7   1  -1   35.40    2.90
   7  -1   1   31.30    3.30
   7  -1   1   37.00    3.00
   7  -1   1   35.90    3.60
  -8   1  -1    9.30    2.00
   8  -1   1    9.20    2.20
   8  -1   1    6.10    2.20
  -9   1  -1    1.00    1.40
  -9   1  -1    2.30    1.40
   9  -1   1    0.00    1.60
   9  -1   1   -0.70    1.70
   9   0  -1    3.30    2.20
   9   0  -1    1.40    1.90
  -9   0   1    4.00    1.50
  -9   0   1    2.40    1.60
   8   0  -1    1.90    1.70
   8   0  -1    0.90    1.40
  -8   0   1    0.70    1.20
  -8   0   1   -0.10    1.00
   7   0  -1   15.10    2.50
   7   0  -1   10.00    2.00
  -7   0   1   18.30    2.50
  -7   0   1   15.80    1.90
  -7   0   1   13.50    1.40
   6   0  -1   15.60    2.20
   6   0  -1   19.20    2.50
  -6   0   1   17.20    2.20
  -6   0   1   17.50    2.20
  -6   0   1   16.50    1.40
   5   0  -1   69.49    3.40
   5   0  -1   73.09    3.80
  -5   0   1   71.19    2.40
  -5   0   1   72.69    3.30
  -5   0   1   70.09    3.40
  -5   0   1   65.59    3.10
  -5   0   1   71.49    3.50
  -5   0   1   69.09    3.60
   4   0  -1   64.19    2.80
   4   0  -1   63.19    3.10
   4   0  -1   62.79    2.60
   4   0  -1   63.49    2.10
   4   0  -1   65.09    3.20
  -4   0   1   62.19    3.00
  -4   0   1   60.89    2.90
  -4   0   1   60.49    2.70
  -4   0   1   60.19    2.90
  -4   0   1   64.69    3.10
  -4   0   1   61.39    2.10
   3   0  -1    2.60    0.90
   3   0  -1    3.60    0.60
   3   0  -1    3.80    0.80
   3   0  -1    2.80    0.70
   3   0  -1    3.50    0.70
  -3   0   1    3.00    0.60
  -3   0   1    2.90    0.80
  -3   0   1    2.90    0.80
  -3   0   1    3.60    0.90
  -3   0   1    3.30    0.70
  -3   0   1    4.00    0.80
   2   0  -1  574.84   11.00
   2   0  -1  573.04   11.60
   2   0  -1  594.64   11.10
   2   0  -1  579.54   10.70
   2   0  -1  582.24   10.60
  -2   0   1  586.54   11.20
  -2   0   1  575.04   11.60
  -2   0   1  573.44   10.60
  -2   0   1  595.14   11.00
  -2   0   1  596.64   10.70
  -2   0   1  585.44   11.60
   1   0  -1 2161.68   35.40
   1   0  -1 2153.48   37.10
   1   0  -1 2077.49   37.70
   1   0  -1 2142.79   40.20
   1   0  -1 2182.78   36.20
  -1   0   1 2083.89   35.20
  -1   0   1 2159.58   36.70
  -1   0   1 2176.58   35.40
  -1   0   1 2177.68   39.70
  -1   0   1 2070.79   37.80
   0   0   1    0.10    0.10
   0   0   1    0.00    0.10
   0   0   1    0.20    0.10
  -1   0  -1   51.69    1.30
  -1   0  -1   57.99    1.40
  -1   0  -1   54.89    1.70
   1   0   1   54.69    1.40
   1   0   1   56.79    1.20
   1   0   1   56.59    1.70
   1   0   1   56.99    1.30
  -2   0  -1   94.89    2.80
  -2   0  -1   89.69    2.40
  -2   0  -1   95.79    2.60
   2   0   1   96.69    2.60
   2   0   1   95.69    2.90
   2   0   1   94.99    2.40
   2   0   1   93.59    3.10
   2   0   1   93.39    2.50
  -3   0  -1    3.80    0.90
  -3   0  -1    2.90    0.70
  -3   0  -1    3.50    0.80
   3   0   1    2.70    0.70
   3   0   1    2.10    0.70
   3   0   1    2.40    0.90
   3   0   1    3.30    0.60
   3   0   1    3.30    0.80
  -4   0  -1  133.69    4.50
  -4   0  -1  142.69    4.30
  -4   0  -1  142.59    4.10
   4   0   1  141.49    5.10
   4   0   1  133.49    4.50
   4   0   1  141.09    4.40
   4   0   1  140.99    4.20
   4   0   1  145.09    4.00
  -5   0  -1   32.40    2.10
  -5   0  -1   35.30    2.40
  -5   0  -1   36.40    2.60
   5   0   1   35.30    2.60
   5   0   1   41.80    2.40
   5   0   1   37.80    2.50
   5   0   1   38.80    3.00
  -6   0  -1   61.49    3.60
  -6   0  -1   56.59    3.30
  -6   0  -1   66.39    3.30
   6   0   1   62.09    3.70
   6   0   1   60.89    3.50
   6   0   1   67.09    4.20
  -7   0  -1    2.90    1.40
  -7   0  -1    5.60    1.50
   7   0   1    4.50    1.70
   7   0   1    2.80    1.60
  -8   0  -1   20.50    2.60
  -8   0  -1   18.30    2.40
   8   0   1   19.30    3.20
   8   0   1   20.00    2.90
  -9   0  -1    3.50    1.60
  -9   0  -1    4.50    2.00
   9   0   1    2.90    2.10
   9   0   1    4.00    1.70
   9  -1  -1    4.70    2.20
   9  -1  -1    0.70    1.80
  -9   1   1    3.40    1.60
  -9   1   1    4.90    1.70
   8  -1  -1   -0.60    1.40
   8  -1  -1    2.30    1.90
  -8   1   1    3.80    1.80
   7  -1  -1   36.00    3.40
   7  -1  -1   34.40    3.10
  -7   1   1   33.20    1.60
  -7   1   1   35.90    2.80
  -7   1   1   36.30    3.30
   6  -1  -1   -1.20    1.20
   6  -1  -1    1.30    1.20
  -6   1   1    0.20    1.20
  -6   1   1    0.70    0.50
  -6   1   1    2.20    1.40
   5  -1  -1   18.10    1.90
   5  -1  -1   20.50    2.10
  -5   1   1   23.00    2.20
  -5   1   1   18.00    1.20
  -5   1   1   16.60    2.10
  -5   1   1   19.40    1.80
  -5   1   1   19.20    1.90
   4  -1  -1    0.20    0.70
   4  -1  -1   -0.70    0.40
   4  -1  -1   -0.40    0.60
   4  -1  -1    0.20    0.70
  -4   1   1    0.30    0.50
  -4   1   1   -0.50    0.80
  -4   1   1   -0.70    0.80
  -4   1   1   -0.30    0.50
  -4   1   1    0.40    0.80
   3  -1  -1  214.18    5.60
   3  -1  -1  229.38    5.50
   3  -1  -1  225.68    5.70
   3  -1  -1  217.68    5.20
  -3   1   1  218.88    5.50
  -3   1   1  223.38    5.30
  -3   1   1  225.58    6.20
  -3   1   1  219.38    5.50
  -3   1   1  218.78    4.80
   2  -1  -1  224.78    4.80
   2  -1  -1  214.38    5.00
   2  -1  -1  219.68    5.50
   2  -1  -1  225.38    4.90
   2  -1  -1  218.98    5.00
  -2   1   1  216.18    5.50
  -2   1   1  212.78    4.90
  -2   1   1  216.88    5.00
  -2   1   1  213.68    4.80
   1  -1  -1  238.88    5.00
   1  -1  -1  236.78    4.70
   1  -1  -1  237.08    4.90
   1  -1  -1  233.68    4.60
  -1   1   1  246.28    5.00
  -1   1   1  238.98    4.80
  -1   1   1  244.78    5.50
  -1   1   1  238.48    4.70
   0  -1  -1 1231.88   21.20
   0  -1  -1 1259.27   21.80
   0  -1  -1 1279.87   23.20
   0   1   1 1271.67   21.90
   0   1   1 1263.17   23.20
   0   1   1 1293.27   21.70
  -1  -1  -1  214.78    3.90
  -1  -1  -1  212.08    4.00
  -1  -1  -1  213.98    4.90
   1   1   1  207.78    3.90
   1   1   1  215.38    4.00
   1   1   1  209.18    4.90
  -2  -1  -1  489.35    9.00
  -2  -1  -1  488.05   10.60
  -2  -1  -1  500.95    9.50
  -2  -1  -1  500.25    8.80
  -2  -1  -1  511.35    9.30
   2   1   1  492.15    9.00
   2   1   1  499.65    9.30
   2   1   1  492.75    9.00
   2   1   1  505.85    9.50
   2   1   1  500.45   10.70
  -3  -1  -1   80.59    2.80
  -3  -1  -1   84.29    2.50
  -3  -1  -1   78.89    2.50
  -3  -1  -1   81.39    3.40
  -3  -1  -1   79.29    2.50
   3   1   1   80.39    2.80
   3   1   1   83.19    2.10
   3   1   1   80.29    2.50
   3   1   1   81.29    2.80
   3   1   1   80.19    2.50
   3   1   1   80.79    3.50
  -4  -1  -1    8.70    1.10
  -4  -1  -1    9.90    1.40
  -4  -1  -1    9.20    1.30
  -4  -1  -1   11.20    1.30
  -4  -1  -1   10.10    1.20
   4   1   1    7.40    1.00
   4   1   1    8.60    1.40
   4   1   1   11.80    1.20
   4   1   1    8.80    0.80
   4   1   1   10.60    1.40
   4   1   1    8.40    1.30
  -5  -1  -1   15.60    1.90
  -5  -1  -1   12.20    1.70
  -5  -1  -1   12.70    1.60
  -5  -1  -1   13.60    1.60
  -5  -1  -1   12.30    1.50
   5   1   1   13.50    0.90
   5   1   1   10.40    1.70
   5   1   1   12.30    1.70
   5   1   1   11.10    1.40
  -6  -1  -1   -0.10    1.10
  -6  -1  -1   -0.70    0.80
  -6  -1  -1   -0.20    1.00
  -6  -1  -1   -1.30    0.70
   6   1   1   -1.50    1.00
   6   1   1   -0.40    0.30
   6   1   1   -0.70    0.70
  -7  -1  -1    1.20    1.00
  -7  -1  -1   -0.30    1.20
  -7  -1  -1    1.70    1.10
   7   1   1    1.20    1.60
   7   1   1    0.20    1.30
  -8  -1  -1   12.40    2.00
  -8  -1  -1   18.60    2.30
   8   1   1   13.40    2.50
   8   1   1   16.40    2.80
  -9  -1  -1    5.80    2.10
  -9  -1  -1    9.00    2.10
   9   1   1    6.40    2.20
   9   1   1    4.30    2.10
   8  -2  -1    1.70    1.50
   8  -2  -1    2.90    2.10
  -8   2   1    2.80    1.80
  -8   2   1    4.50    2.00
   7  -2  -1   24.60    3.30
   7  -2  -1   26.80    2.90
  -7   2   1   24.80    1.50
  -7   2   1   31.50    3.10
  -7   2   1   28.40    2.90
   6  -2  -1   23.10    2.60
   6  -2  -1   19.70    2.70
  -6   2   1   19.30    2.40
  -6   2   1   24.10    2.50
  -6   2   1   20.00    1.30
   5  -2  -1   38.10    2.90
   5  -2  -1   38.50    2.60
   5  -2  -1   34.60    2.60
  -5   2   1   33.10    2.30
  -5   2   1   36.40    1.70
  -5   2   1   35.90    2.50
   4  -2  -1   48.00    2.40
   4  -2  -1   46.00    3.10
   4  -2  -1   50.49    2.60
   4  -2  -1   44.30    2.60
   4  -2  -1   46.30    2.30
  -4   2   1   45.10    2.50
  -4   2   1   48.00    2.70
  -4   2   1   49.30    3.00
  -4   2   1   51.29    2.60
   3  -2  -1   18.80    1.70
   3  -2  -1   19.00    2.10
   3  -2  -1   20.60    1.50
   3  -2  -1   22.80    1.50
   3  -2  -1   17.80    1.40
  -3   2   1   23.50    1.70
  -3   2   1   20.80    1.60
  -3   2   1   24.60    2.20
  -3   2   1   21.10    1.60
   2  -2  -1   -0.30    0.40
   2  -2  -1   -0.60    0.60
   2  -2  -1    1.40    1.00
   2  -2  -1    0.40    0.60
  -2   2   1    1.00    0.60
  -2   2   1    0.20    0.50
  -2   2   1    0.00    0.60
   1  -2  -1 8575.84  163.08
   1  -2  -1 9323.67  155.78
   1  -2  -1 9232.18  157.18
   1  -2  -1 9761.82  169.48
  -1   2   1 9999.00  171.28
  -1   2   1 9323.27  156.48
  -1   2   1 8510.45  162.68
  -1   2   1 9324.77  156.58
   0  -2  -1   56.39    2.00
   0  -2  -1   56.29    1.70
   0  -2  -1   58.19    1.80
   0  -2  -1   55.89    1.80
   0   2   1   59.19    1.70
   0   2   1   57.19    1.80
   0   2   1   57.69    1.70
   0   2   1   55.29    2.00
  -1  -2  -1 1212.48   20.80
  -1  -2  -1 1234.38   23.10
  -1  -2  -1 1221.38   21.00
  -1  -2  -1 1271.37   20.00
   1   2   1 1223.98   22.20
   1   2   1 1254.77   20.90
   1   2   1 1232.08   20.90
   1   2   1 1223.78   23.10
  -2  -2  -1    5.70    0.80
  -2  -2  -1    5.70    0.80
  -2  -2  -1    4.70    1.00
  -2  -2  -1    7.30    0.90
   2   2   1    6.30    0.80
   2   2   1    5.80    1.00
   2   2   1    5.70    0.80
   2   2   1    7.20    0.80
  -3  -2  -1  217.88    4.40
  -3  -2  -1  221.48    6.50
  -3  -2  -1  223.58    5.20
  -3  -2  -1  224.98    5.00
  -3  -2  -1  224.08    5.50
   3   2   1  220.98    5.10
   3   2   1  225.58    5.10
   3   2   1  214.68    6.50
   3   2   1  221.18    5.40
  -4  -2  -1   74.29    2.30
  -4  -2  -1   72.49    2.80
  -4  -2  -1   72.59    3.00
  -4  -2  -1   77.99    2.70
  -4  -2  -1   74.69    3.70
   4   2   1   76.59    3.10
   4   2   1   74.99    3.90
   4   2   1   76.19    3.20
   4   2   1   82.29    2.90
   4   2   1   76.99    2.60
  -5  -2  -1    4.80    0.80
  -5  -2  -1    5.90    1.20
  -5  -2  -1    6.10    1.40
  -5  -2  -1    6.60    1.20
   5   2   1    5.40    1.30
   5   2   1    4.00    0.80
   5   2   1    5.00    1.40
  -6  -2  -1   -0.70    0.70
  -6  -2  -1   -0.90    1.00
  -6  -2  -1   -0.70    0.80
  -6  -2  -1    1.00    1.10
   6   2   1   -0.60    0.50
   6   2   1    1.50    1.20
   6   2   1    0.30    1.10
  -7  -2  -1   -0.30    1.10
  -7  -2  -1    0.90    0.90
   7   2   1    0.10    1.20
   7   2   1   -1.30    1.40
  -8  -2  -1    7.60    1.70
  -8  -2  -1   10.40    2.10
   8   2   1    8.40    2.10
   8   2   1    6.20    2.00
  -9  -2  -1    5.80    2.00
  -9  -2  -1    7.50    1.90
   9   2   1    3.60    2.40
   8  -3  -1    3.30    1.90
   8  -3  -1    1.00    1.60
  -8   3   1    0.40    1.70
  -8   3   1    0.80    1.20
   7  -3  -1   14.80    2.80
   7  -3  -1   14.90    2.20
  -7   3   1   19.10    2.70
  -7   3   1   12.80    2.30
   6  -3  -1    1.80    1.10
   6  -3  -1    1.60    1.30
  -6   3   1    1.90    1.10
  -6   3   1    1.80    0.70
  -6   3   1    0.70    1.20
   5  -3  -1    1.20    1.00
   5  -3  -1    0.30    0.90
   5  -3  -1   -2.60    1.20
  -5   3   1   -0.60    0.70
  -5   3   1   -1.20    0.90
   4  -3  -1   87.09    3.50
   4  -3  -1   93.89    3.90
   4  -3  -1   87.79    3.50
   4  -3  -1   93.59    4.70
  -4   3   1   88.89    3.50
  -4   3   1   83.39    3.60
  -4   3   1   93.59    3.60
   3  -3  -1  154.38    4.40
   3  -3  -1  146.69    4.70
   3  -3  -1  147.29    4.40
   3  -3  -1  140.49    5.30
  -3   3   1  140.49    4.30
  -3   3   1  145.59    4.30
  -3   3   1  149.69    4.60
  -3   3   1  139.99    5.30
   2  -3  -1   26.90    2.30
   2  -3  -1   25.50    1.50
   2  -3  -1   26.80    1.70
   2  -3  -1   23.80    1.60
  -2   3   1   26.10    1.60
  -2   3   1   24.60    2.00
  -2   3   1   25.80    1.70
  -2   3   1   27.00    1.60
   1  -3  -1  606.74   11.80
   1  -3  -1  614.04   11.90
   1  -3  -1  605.34   13.10
   1  -3  -1  609.04   11.50
  -1   3   1  618.14   13.30
  -1   3   1  624.04   12.00
  -1   3   1  634.34   11.70
  -1   3   1  608.14   11.60
   0  -3  -1   76.29    2.60
   0  -3  -1   73.59    2.40
   0  -3  -1   68.19    2.30
   0  -3  -1   74.29    2.80
   0   3   1   71.59    2.80
   0   3   1   79.09    2.60
   0   3   1   74.99    2.40
   0   3   1   72.19    2.30
  -1  -3  -1  659.53   12.10
  -1  -3  -1  669.03   12.70
  -1  -3  -1  651.63   12.20
  -1  -3  -1  679.43   13.70
   1   3   1  647.04   12.10
   1   3   1  661.93   12.10
   1   3   1  647.84   13.50
   1   3   1  650.13   12.70
   1   3   1  663.53   12.90
  -2  -3  -1   43.80    1.90
  -2  -3  -1   42.90    1.90
  -2  -3  -1   43.50    1.80
  -2  -3  -1   40.90    2.30
   2   3   1   44.40    2.00
   2   3   1   40.20    2.40
   2   3   1   46.50    2.20
   2   3   1   41.90    1.00
   2   3   1   44.60    1.80
  -3  -3  -1    8.90    1.10
  -3  -3  -1    9.40    1.30
  -3  -3  -1    9.30    1.10
  -3  -3  -1    8.30    1.40
   3   3   1    9.30    1.20
   3   3   1   10.30    1.10
   3   3   1    7.20    1.40
   3   3   1    9.40    1.20
  -4  -3  -1    8.20    1.20
  -4  -3  -1    8.10    1.40
  -4  -3  -1    7.20    1.40
  -4  -3  -1    6.90    1.20
   4   3   1    8.30    1.20
   4   3   1    8.50    1.20
   4   3   1    8.30    1.60
   4   3   1    8.30    1.40
  -5  -3  -1   31.40    2.00
  -5  -3  -1   37.30    2.60
  -5  -3  -1   30.80    2.20
   5   3   1   28.90    1.90
   5   3   1   33.20    2.40
   5   3   1   29.00    2.90
  -6  -3  -1    1.10    0.90
  -6  -3  -1    1.20    1.10
  -6  -3  -1    1.40    0.50
  -6  -3  -1    1.10    1.20
   6   3   1    0.50    0.90
   6   3   1    0.10    1.40
   6   3   1    1.00    0.80
  -7  -3  -1    1.10    1.40
  -7  -3  -1    0.60    1.00
   7   3   1    1.10    1.20
   7   3   1    0.10    1.30
  -8  -3  -1    4.90    1.60
  -8  -3  -1    8.70    2.10
   8   3   1    5.70    1.90
   8   3   1    2.10    2.10
   8  -4  -1    2.00    1.70
  -8   4   1    1.50    1.70
  -8   4   1    0.90    1.60
   7  -4  -1    0.70    1.80
   7  -4  -1   -0.10    1.10
  -7   4   1   -0.30    1.40
  -7   4   1    1.10    1.50
   6  -4  -1   22.00    3.10
   6  -4  -1   19.40    2.20
   6  -4  -1   18.90    3.10
  -6   4   1   18.10    2.40
  -6   4   1   18.30    2.60
   5  -4  -1   -0.20    1.60
   5  -4  -1    0.40    0.80
   5  -4  -1    1.30    1.10
  -5   4   1    1.70    1.00
  -5   4   1    0.40    1.10
   4  -4  -1    6.40    1.40
   4  -4  -1    4.30    1.50
   4  -4  -1    6.00    1.20
  -4   4   1    4.60    1.20
  -4   4   1    4.10    1.10
   3  -4  -1   24.10    1.90
   3  -4  -1   24.90    2.80
   3  -4  -1   21.70    1.70
   3  -4  -1   23.50    2.20
  -3   4   1   23.50    2.00
  -3   4   1   23.40    2.00
  -3   4   1   22.10    1.80
   2  -4  -1 1442.16   26.70
   2  -4  -1 1398.56   26.50
   2  -4  -1 1421.46   26.20
   2  -4  -1 1463.05   29.10
   2  -4  -1 1466.45   25.80
  -2   4   1 1463.15   26.00
  -2   4   1 1438.46   26.50
  -2   4   1 1464.35   25.80
  -2   4   1 1415.86   29.00
   1  -4  -1   13.80    1.80
   1  -4  -1   17.00    1.40
   1  -4  -1   15.70    1.40
   1  -4  -1   17.60    1.50
  -1   4   1   15.80    1.40
  -1   4   1   16.80    1.50
  -1   4   1   16.20    1.30
  -1   4   1   12.20    1.70
   0  -4  -1   60.59    2.90
   0  -4  -1   59.19    2.50
   0  -4  -1   56.79    2.30
   0  -4  -1   58.79    2.60
   0   4   1   61.59    2.50
   0   4   1   57.09    2.30
   0   4   1   58.39    2.70
   0   4   1   59.39    2.60
   0   4   1   61.79    2.40
  -1  -4  -1   22.30    1.90
  -1  -4  -1   23.00    1.50
  -1  -4  -1   20.40    1.60
  -1  -4  -1   20.50    1.50
   1   4   1   19.80    1.40
   1   4   1   21.90    1.50
   1   4   1   26.30    1.90
   1   4   1   22.90    1.90
   1   4   1   16.60    1.40
  -2  -4  -1    0.00    0.70
  -2  -4  -1    1.10    0.80
  -2  -4  -1    0.70    0.70
   2   4   1   -0.30    0.80
   2   4   1    0.00    0.30
   2   4   1    1.10    0.60
   2   4   1    0.20    0.70
   2   4   1    0.00    0.60
  -3  -4  -1   45.20    2.50
  -3  -4  -1   47.80    2.40
  -3  -4  -1   44.40    2.90
  -3  -4  -1   47.30    2.20
   3   4   1   45.90    2.50
   3   4   1   43.30    2.10
   3   4   1   47.20    3.20
   3   4   1   42.60    2.30
  -4  -4  -1   83.89    3.70
  -4  -4  -1   76.89    3.30
  -4  -4  -1   82.59    3.20
   4   4   1   85.39    3.50
   4   4   1   88.09    4.60
   4   4   1   75.19    3.30
  -5  -4  -1    0.40    0.80
  -5  -4  -1    0.70    1.10
  -5  -4  -1   -0.30    0.80
   5   4   1    1.30    1.00
   5   4   1    0.20    1.30
   5   4   1    0.40    1.00
  -6  -4  -1   13.80    2.10
  -6  -4  -1    8.80    1.50
  -6  -4  -1   10.00    2.00
   6   4   1   10.30    2.40
   6   4   1    8.70    1.80
  -7  -4  -1    6.50    1.50
  -7  -4  -1    6.60    1.80
   7   4   1    4.80    2.20
   7   4   1    3.40    1.60
  -8  -4  -1   -1.30    1.00
  -8  -4  -1    0.20    1.50
   8   4   1   -1.30    2.00
   8   4   1   -0.60    1.30
   7  -5  -1    1.90    2.10
  -7   5   1   -1.80    1.30
  -7   5   1   -1.40    1.40
   6  -5  -1    0.60    1.00
   6  -5  -1    0.90    2.10
   6  -5  -1    1.20    1.80
  -6   5   1    0.00    1.20
  -6   5   1    0.00    1.40
   5  -5  -1    6.40    1.40
   5  -5  -1    6.30    2.00
   5  -5  -1    5.20    2.20
  -5   5   1    5.80    1.30
  -5   5   1    6.10    1.50
  -5   5   1    4.30    1.40
   4  -5  -1    2.60    1.50
   4  -5  -1    0.60    1.30
  -4   5   1    2.70    1.00
  -4   5   1    0.10    1.00
  -4   5   1    0.90    1.10
   3  -5  -1   19.20    2.60
   3  -5  -1   20.80    2.10
   3  -5  -1   20.40    1.70
   3  -5  -1   19.70    1.70
  -3   5   1   20.70    1.90
  -3   5   1   22.50    2.20
  -3   5   1   16.90    1.90
   2  -5  -1   63.39    4.00
   2  -5  -1   59.79    2.70
   2  -5  -1   59.69    2.90
   2  -5  -1   58.69    3.20
  -2   5   1   60.99    3.10
  -2   5   1   57.99    2.80
   1  -5  -1   15.30    1.60
   1  -5  -1   18.30    1.80
   1  -5  -1   18.40    2.20
   1  -5  -1   13.40    1.80
  -1   5   1   17.10    1.70
  -1   5   1   13.60    1.90
  -1   5   1   18.00    1.80
  -1   5   1   17.50    1.70
  -1   5   1   15.10    1.60
   0  -5  -1   47.80    2.50
   0  -5  -1   47.90    2.70
   0  -5  -1   45.90    2.90
   0  -5  -1   47.70    2.60
   0   5   1   47.60    2.40
   0   5   1   48.10    2.70
   0   5   1   43.00    2.60
   0   5   1   48.30    2.50
   0   5   1   45.40    2.50
  -1  -5  -1   16.80    1.80
  -1  -5  -1   12.40    1.40
  -1  -5  -1   12.30    1.50
  -1  -5  -1   14.60    1.60
   1   5   1   11.80    1.20
   1   5   1   13.70    1.80
   1   5   1   12.60    1.50
   1   5   1   13.20    1.40
   1   5   1   13.40    1.60
  -2  -5  -1   85.19    3.40
  -2  -5  -1   95.39    4.30
  -2  -5  -1   89.09    3.60
   2   5   1   86.79    4.10
   2   5   1   82.79    3.30
   2   5   1   83.29    2.80
  -3  -5  -1   -0.30    0.80
  -3  -5  -1    1.00    1.00
   3   5   1    0.60    1.00
   3   5   1    0.70    1.30
  -4  -5  -1   26.10    2.40
  -4  -5  -1   29.90    2.40
  -4  -5  -1   24.60    2.00
   4   5   1   31.00    3.00
   4   5   1   27.40    2.30
  -5  -5  -1   10.50    1.80
  -5  -5  -1    8.50    1.70
  -5  -5  -1    7.90    1.60
   5   5   1    6.30    1.60
   5   5   1    8.90    2.30
  -6  -5  -1    4.90    1.60
  -6  -5  -1    2.10    1.30
   6   5   1    3.60    1.60
   6   5   1    4.50    1.80
  -7  -5  -1    0.90    1.30
  -7  -5  -1   -0.20    1.20
   7   5   1    1.40    1.60
   7   5   1   -1.00    1.30
  -8  -5  -1   -0.70    1.20
  -8  -5  -1   -2.20    1.40
   8   5   1   -2.30    2.00
  -7   6   1    2.40    2.00
   6  -6  -1    6.80    2.30
   6  -6  -1    1.00    2.30
  -6   6   1    3.30    1.60
  -6   6   1    6.80    2.00
   5  -6  -1   -0.80    1.50
   5  -6  -1   -0.50    1.50
  -5   6   1   -0.20    0.90
  -5   6   1   -0.50    1.00
   4  -6  -1    2.70    1.10
   4  -6  -1    1.00    2.00
   4  -6  -1    7.10    2.10
  -4   6   1    6.90    1.80
  -4   6   1    4.70    1.30
   3  -6  -1   17.20    2.50
   3  -6  -1   12.40    1.60
   3  -6  -1   15.60    2.90
  -3   6   1   18.40    2.00
  -3   6   1   16.00    2.10
   2  -6  -1  277.77    7.50
   2  -6  -1  288.87    9.30
   2  -6  -1  286.17    8.20
  -2   6   1  290.87    7.80
  -2   6   1  281.27    7.50
   1  -6  -1   14.10    2.00
   1  -6  -1   13.10    2.10
   1  -6  -1   12.10    1.70
   1  -6  -1   13.20    1.80
  -1   6   1   13.90    1.90
  -1   6   1   13.10    1.70
   0  -6  -1   13.80    1.80
   0  -6  -1   11.80    1.70
   0  -6  -1   12.40    1.90
   0  -6  -1   10.80    1.60
   0   6   1   13.80    1.90
   0   6   1   13.90    1.70
   0   6   1   16.30    1.80
  -1  -6  -1    9.50    1.60
  -1  -6  -1   12.30    1.80
  -1  -6  -1   11.90    1.80
  -1  -6  -1    9.00    1.50
   1   6   1   10.70    1.80
   1   6   1    9.30    1.40
   1   6   1    8.00    1.50
  -2  -6  -1    8.00    1.50
  -2  -6  -1    7.70    1.50
   2   6   1    6.40    1.40
   2   6   1   11.30    1.30
   2   6   1    7.00    1.80
  -3  -6  -1   29.10    2.50
  -3  -6  -1   23.60    2.30
   3   6   1   25.10    2.10
   3   6   1   22.40    2.70
  -4  -6  -1   24.70    2.20
  -4  -6  -1   24.70    2.30
   4   6   1   23.40    3.10
   4   6   1   27.00    2.50
  -5  -6  -1    1.00    1.40
   5   6   1    2.20    1.30
   5   6   1   -0.20    1.60
  -6  -6  -1   -1.10    1.20
  -6  -6  -1   -0.60    1.20
   6   6   1    1.90    1.60
   6   6   1   -0.20    1.30
  -7  -6  -1   17.40    2.50
  -7  -6  -1   13.90    2.40
   7   6   1   12.40    3.30
   6  -7  -1    1.50    1.50
  -6   7   1   -1.20    1.10
  -6   7   1   -0.40    1.20
   5  -7  -1   -2.70    2.10
   5  -7  -1    1.70    1.50
  -5   7   1   -0.70    1.20
  -5   7   1    1.40    1.70
   4  -7  -1    3.00    2.40
   4  -7  -1    5.50    2.00
  -4   7   1    3.20    1.60
  -4   7   1    1.00    1.10
   3  -7  -1    3.50    2.30
   3  -7  -1    1.60    1.70
  -3   7   1    6.70    1.50
  -3   7   1    3.50    1.60
   2  -7  -1    1.60    1.20
   2  -7  -1    2.80    2.00
   2  -7  -1    0.90    1.60
  -2   7   1    2.70    1.40
  -2   7   1    1.70    1.10
   1  -7  -1    0.60    1.10
   1  -7  -1   -1.50    0.90
   1  -7  -1    0.10    1.60
  -1   7   1   -2.40    0.70
  -1   7   1    0.30    0.90
   0  -7  -1   38.20    3.10
   0  -7  -1   40.50    3.40
   0   7   1   38.90    2.90
   0   7   1   36.80    2.70
  -1  -7  -1   10.00    1.90
  -1  -7  -1    9.90    1.80
   1   7   1   11.60    1.80
   1   7   1    8.90    1.60
   1   7   1   13.00    2.10
  -2  -7  -1   12.20    1.90
   2   7   1    8.90    1.70
   2   7   1   14.00    1.60
   2   7   1    9.30    2.10
  -3  -7  -1   28.80    2.70
   3   7   1   22.20    2.40
   3   7   1   24.70    2.90
  -4  -7  -1    5.50    1.70
   4   7   1   -0.30    1.70
   4   7   1    5.80    1.70
  -5  -7  -1    5.60    1.90
   5   7   1    1.10    2.00
   5   7   1    5.00    1.40
  -6  -7  -1    2.80    1.70
   6   7   1   -1.40    2.00
   6   7   1    2.40    1.70
   4  -8  -1   -2.10    2.20
   4  -8  -1    0.30    1.40
  -4   8   1    0.40    1.20
  -4   8   1   -1.00    1.30
   3  -8  -1   28.80    4.00
   3  -8  -1   28.20    3.60
  -3   8   1   35.90    3.50
  -3   8   1   26.10    2.50
   2  -8  -1    0.60    1.20
   2  -8  -1   -0.40    1.90
  -2   8   1    0.70    1.50
  -2   8   1   -0.40    1.10
   1  -8  -1    4.50    2.10
   1  -8  -1    2.60    1.50
  -1   8   1    2.60    1.40
  -1   8   1    6.80    1.60
   0  -8  -1    0.60    1.80
   0  -8  -1    3.30    1.70
   0   8   1    4.00    1.50
   0   8   1    2.90    1.30
  -1  -8  -1    1.20    1.60
   1   8   1    0.80    1.30
  -2  -8  -1    9.70    2.00
   2   8   1   11.90    2.10
   2   8   1   12.20    2.40
  -3  -8  -1   17.80    2.40
   3   8   1   15.80    2.90
   3   8   1   23.30    2.80
  -4  -8  -1   -0.70    1.30
   4   8   1   -1.80    1.30
   4   8   1    0.70    1.50
  -5  -8  -1   -0.90    1.60
   5   8   1    0.10    1.70
   5   8   1    1.10    1.60
   3  -9  -1   -3.50    2.10
   3  -9  -1   -0.50    1.90
  -3   9   1    1.50    1.90
   2  -9  -1    0.80    1.90
   2  -9  -1   -1.70    2.00
  -2   9   1    0.80    1.20
   1  -9  -1   -1.60    1.70
   1  -9  -1   -2.30    1.80
  -1   9   1    0.30    1.20
  -1   9   1    0.60    1.20
   0  -9  -1    2.90    1.60
   0   9   1    0.50    1.50
   0   9   1    1.80    1.30
  -1  -9  -1    6.70    2.20
   1   9   1    8.90    1.90
   1   9   1   10.20    2.20
  -2  -9  -1    3.00    1.60
   2   9   1   -0.90    1.80
   2   9   1    0.40    1.50
  -3  -9  -1   -1.20    1.70
   3   9   1    1.00    1.30
   3   9   1    2.30    2.20
   1   9  -2    1.40    1.80
  -1  -9   2   -3.60    1.50
   0   9  -2    5.00    2.10
   0  -9   2   -0.10    2.20
   0  -9   2    3.00    2.00
  -1   9  -2   -0.20    1.70
   1  -9   2    0.00    1.80
   1  -9   2   -3.50    1.80
   4   8  -2    0.70    2.40
   4   8  -2    8.90    2.40
  -4  -8   2    9.80    2.50
   3   8  -2    2.40    1.70
   3   8  -2   -1.70    1.30
  -3  -8   2   -0.60    1.50
   2   8  -2    1.70    1.30
  -2  -8   2    1.50    1.40
  -2  -8   2   -4.30    1.20
   1   8  -2    1.60    1.30
  -1  -8   2   -1.00    1.40
  -1  -8   2    3.40    1.50
   0   8  -2   -0.40    1.30
   0   8  -2    0.40    0.80
   0  -8   2   -0.80    1.70
   0  -8   2   -0.10    1.50
  -1   8  -2    2.50    1.50
   1  -8   2   -1.00    1.90
   1  -8   2    1.50    1.30
  -2   8  -2   -1.70    1.50
   2  -8   2   -1.70    1.50
   2  -8   2   -3.60    1.90
   3  -8   2    2.40    1.90
   3  -8   2   -3.00    2.10
  -4   8  -2    0.60    1.20
   4  -8   2    0.60    2.60
   4  -8   2    5.00    2.00
   5   7  -2   14.70    2.80
   5   7  -2    7.60    2.80
  -5  -7   2   12.20    2.60
   4   7  -2    7.90    2.00
   4   7  -2    3.50    2.30
  -4  -7   2    7.00    2.10
   3   7  -2    5.00    1.70
   3   7  -2    0.90    1.40
  -3  -7   2    0.70    1.10
  -3  -7   2    3.80    1.50
   2   7  -2    0.30    1.30
  -2  -7   2   -0.50    1.10
  -2  -7   2   -0.80    0.90
   1   7  -2    0.60    1.40
  -1  -7   2    1.20    1.60
  -1  -7   2    2.80    1.60
   0   7  -2    6.00    1.70
   0   7  -2    3.60    1.00
   0  -7   2    4.70    2.00
   0  -7   2    6.50    1.80
  -1   7  -2    0.70    0.70
  -1   7  -2    3.80    1.50
   1  -7   2    1.20    1.70
   1  -7   2    2.10    1.50
  -2   7  -2   -0.70    0.60
  -2   7  -2   -3.00    1.10
   2  -7   2   -0.90    1.80
   2  -7   2   -2.10    1.20
  -3   7  -2   -0.30    1.10
  -3   7  -2   -0.30    0.70
   3  -7   2   -2.90    1.70
   3  -7   2   -0.20    1.00
  -4   7  -2    1.60    1.30
   4  -7   2   -1.30    1.50
   4  -7   2   -0.50    1.10
  -5   7  -2    0.50    1.60
   5  -7   2    3.30    1.90
   5  -7   2    0.50    2.00
   6   6  -2   -4.10    1.70
   6   6  -2   -0.40    1.70
  -6  -6   2   -1.10    1.60
   5   6  -2    2.20    1.70
   5   6  -2   -2.50    1.80
  -5  -6   2    1.40    1.70
  -5  -6   2    0.20    1.50
   4   6  -2   26.60    2.60
   4   6  -2   17.40    2.90
  -4  -6   2   25.00    2.80
  -4  -6   2   20.60    2.90
  -4  -6   2   24.30    1.80
   3   6  -2    5.80    1.60
   3   6  -2    5.90    2.20
  -3  -6   2    3.40    1.80
  -3  -6   2    4.70    1.30
  -3  -6   2    5.10    1.20
   2   6  -2    4.50    1.50
   2   6  -2    4.60    1.30
  -2  -6   2    6.50    1.50
  -2  -6   2    5.80    1.60
  -2  -6   2    7.40    1.70
   1   6  -2   11.90    1.80
   1   6  -2   14.10    2.10
  -1  -6   2   13.80    2.10
  -1  -6   2    9.80    1.80
   0   6  -2    2.70    1.10
   0  -6   2    3.00    1.20
   0  -6   2    2.90    1.50
  -1   6  -2    0.60    0.60
  -1   6  -2   -1.60    0.60
   1  -6   2    0.80    0.90
   1  -6   2    0.30    1.50
  -2   6  -2    0.50    1.00
  -2   6  -2    0.40    0.50
   2  -6   2    1.30    1.00
   2  -6   2   -0.90    1.60
  -3   6  -2   -0.40    0.60
  -3   6  -2    0.70    1.00
   3  -6   2    0.20    1.40
   3  -6   2    0.10    1.00
  -4   6  -2    1.70    0.80
  -4   6  -2    3.30    1.60
   4  -6   2    1.90    1.60
   4  -6   2    0.70    1.50
  -5   6  -2    2.40    1.00
  -5   6  -2    5.30    1.80
   5  -6   2    2.70    1.80
   5  -6   2    1.60    2.40
  -6   6  -2    1.00    1.70
   6  -6   2    1.50    1.90
   6  -6   2   -3.10    1.40
   7   5  -2   14.50    2.90
   7   5  -2   10.00    2.70
  -7  -5   2   10.10    2.20
  -7  -5   2   18.20    2.90
   6   5  -2    2.90    1.90
   6   5  -2    2.10    2.10
  -6  -5   2    0.90    1.60
  -6  -5   2    3.00    1.70
   5   5  -2   47.40    4.40
   5   5  -2   54.29    3.80
  -5  -5   2   51.79    3.50
  -5  -5   2   44.40    3.60
  -5  -5   2   46.50    1.90
   4   5  -2   23.10    3.00
   4   5  -2   25.90    2.90
  -4  -5   2   21.40    2.70
  -4  -5   2   24.10    2.60
  -4  -5   2   24.10    1.70
   3   5  -2    6.20    1.90
   3   5  -2    4.90    1.50
  -3  -5   2    3.10    1.00
  -3  -5   2    4.00    1.40
  -3  -5   2    1.90    1.40
   2   5  -2    1.70    1.30
   2   5  -2    0.90    0.80
  -2  -5   2   -0.40    0.80
  -2  -5   2   -1.00    1.10
  -2  -5   2    0.40    0.70
   1   5  -2    0.00    0.70
   1   5  -2    1.10    0.70
  -1  -5   2    1.00    0.70
  -1  -5   2   -0.80    1.10
  -1  -5   2    0.20    0.90
   0   5  -2   24.00    2.10
   0   5  -2   22.60    2.10
   0  -5   2   22.30    2.10
   0  -5   2   23.60    2.30
   0  -5   2   17.10    2.20
   0  -5   2   22.80    2.40
  -1   5  -2    0.00    0.50
  -1   5  -2    0.30    0.70
  -1   5  -2   -0.80    0.80
  -1   5  -2   -1.20    0.70
   1  -5   2    0.10    0.70
   1  -5   2    0.00    0.70
   1  -5   2    0.30    1.30
  -2   5  -2   26.90    2.20
  -2   5  -2   25.70    1.40
  -2   5  -2   28.50    2.10
   2  -5   2   29.00    2.80
   2  -5   2   23.90    2.10
   2  -5   2   26.30    2.40
  -3   5  -2   -0.40    0.50
  -3   5  -2    0.30    0.90
   3  -5   2   -1.20    1.00
   3  -5   2   -0.70    1.40
  -4   5  -2    1.00    1.20
  -4   5  -2   -0.50    0.90
  -4   5  -2    0.20    0.70
   4  -5   2   -2.00    1.50
   4  -5   2   -1.10    1.10
   4  -5   2    1.70    0.60
  -5   5  -2   -0.90    0.90
  -5   5  -2   -0.70    0.80
  -5   5  -2   -0.10    0.70
   5  -5   2   -0.20    1.00
   5  -5   2    0.10    1.40
  -6   5  -2    4.10    1.40
  -6   5  -2    1.70    1.10
   6  -5   2    4.00    1.60
   6  -5   2    1.30    2.30
  -7   5  -2    0.50    1.60
   7  -5   2   -2.20    2.10
   7  -5   2    0.50    1.70
   7  -5   2    2.00    1.70
   8   4  -2   -0.70    2.30
   8   4  -2   -0.10    1.50
  -8  -4   2    0.80    1.70
  -8  -4   2    0.20    1.50
   7   4  -2    1.60    2.10
   7   4  -2   -0.10    1.60
  -7  -4   2   -0.30    1.20
  -7  -4   2    1.10    1.60
   6   4  -2   34.10    4.10
   6   4  -2   32.40    3.30
  -6  -4   2   29.50    3.00
  -6  -4   2   32.10    2.10
  -6  -4   2   34.40    3.00
   5   4  -2  107.69    4.80
   5   4  -2  104.69    5.70
  -5  -4   2  106.49    3.30
  -5  -4   2  108.79    3.50
  -5  -4   2  111.19    3.40
  -5  -4   2  117.99    4.90
  -5  -4   2  119.99    4.80
   4   4  -2   22.30    2.80
   4   4  -2   25.80    2.30
  -4  -4   2   26.10    1.60
  -4  -4   2   24.70    2.10
  -4  -4   2   18.70    2.20
   3   4  -2    0.00    0.70
   3   4  -2   -0.20    1.20
   3   4  -2   -0.30    0.80
  -3  -4   2    0.60    0.70
  -3  -4   2   -0.40    0.60
  -3  -4   2   -1.20    0.90
  -3  -4   2   -0.90    0.60
   2   4  -2    0.10    0.90
   2   4  -2   -0.30    0.50
   2   4  -2    0.60    0.90
   2   4  -2   -0.20    0.80
  -2  -4   2    0.50    0.70
  -2  -4   2   -0.10    0.80
  -2  -4   2   -0.50    0.50
  -2  -4   2    1.90    1.20
  -2  -4   2   -0.80    0.80
   1   4  -2   48.50    2.80
   1   4  -2   49.70    2.70
   1   4  -2   51.69    2.50
   1   4  -2   49.90    2.40
   1   4  -2   47.20    2.40
  -1  -4   2   47.60    2.80
  -1  -4   2   51.69    3.00
  -1  -4   2   49.99    2.40
  -1  -4   2   49.90    2.70
  -1  -4   2   50.99    2.60
   0   4  -2   19.20    1.80
   0   4  -2   22.40    1.90
   0   4  -2   22.70    1.60
   0   4  -2   21.00    1.70
   0  -4   2   21.30    1.90
   0  -4   2   17.80    1.50
   0  -4   2   20.70    1.70
   0  -4   2   22.30    2.10
   0  -4   2   21.10    1.80
  -1   4  -2    1.10    0.90
  -1   4  -2   -0.10    0.50
  -1   4  -2   -0.30    0.70
  -1   4  -2    0.40    0.40
  -1   4  -2    0.10    0.70
   1  -4   2    0.60    0.70
   1  -4   2    0.10    0.60
   1  -4   2    0.50    0.80
   1  -4   2    0.20    1.10
   1  -4   2   -0.10    0.80
  -2   4  -2   -0.10    0.70
  -2   4  -2    0.30    0.80
  -2   4  -2   -0.70    0.90
  -2   4  -2    0.90    0.70
  -2   4  -2    0.10    0.40
   2  -4   2   -0.30    1.10
   2  -4   2    0.10    0.70
   2  -4   2    0.20    0.60
  -3   4  -2    0.20    0.50
  -3   4  -2   -1.30    0.50
  -3   4  -2    0.00    0.60
   3  -4   2   -0.10    0.90
   3  -4   2    0.30    0.40
   3  -4   2   -0.30    1.20
  -4   4  -2    1.50    1.10
  -4   4  -2    1.10    0.80
  -4   4  -2    0.30    1.00
  -4   4  -2    2.10    0.80
   4  -4   2    1.80    1.20
   4  -4   2    1.30    1.60
   4  -4   2    0.70    0.50
  -5   4  -2    4.00    0.90
  -5   4  -2    4.60    1.20
  -5   4  -2    6.90    1.60
   5  -4   2    4.80    1.90
   5  -4   2    4.60    1.60
   5  -4   2    4.50    1.00
  -6   4  -2   15.50    2.30
  -6   4  -2   14.90    1.90
   6  -4   2   17.20    2.70
   6  -4   2   10.60    2.50
  -7   4  -2    1.10    1.20
   7  -4   2    0.90    1.50
   7  -4   2   -1.60    1.30
   7  -4   2   -1.20    1.00
  -8   4  -2    9.00    2.40
   8  -4   2   12.10    2.70
   8  -4   2    9.00    2.60
   8  -4   2    7.70    2.50
   8   3  -2    4.60    2.20
   8   3  -2    1.60    2.10
  -8  -3   2    1.80    1.80
   7   3  -2    2.70    2.00
   7   3  -2    0.00    1.50
  -7  -3   2    3.70    1.70
  -7  -3   2    2.10    1.00
  -7  -3   2    2.30    1.30
   6   3  -2   93.19    4.70
   6   3  -2   97.09    5.60
  -6  -3   2   95.69    3.70
  -6  -3   2   99.29    4.30
  -6  -3   2   97.99    3.30
  -6  -3   2   98.79    4.40
   5   3  -2   72.19    3.90
   5   3  -2   70.19    4.50
  -5  -3   2   69.79    3.60
  -5  -3   2   68.29    2.50
  -5  -3   2   76.39    3.60
  -5  -3   2   67.69    2.80
   4   3  -2   25.10    2.00
   4   3  -2   27.20    2.40
   4   3  -2   24.80    2.70
  -4  -3   2   29.90    2.50
  -4  -3   2   22.60    2.10
  -4  -3   2   24.90    2.00
  -4  -3   2   28.80    1.50
   3   3  -2   97.09    3.50
   3   3  -2   94.89    3.70
   3   3  -2  100.09    4.40
   3   3  -2  105.79    4.00
   3   3  -2  107.49    3.70
  -3  -3   2  103.69    3.90
  -3  -3   2  106.59    3.80
  -3  -3   2  103.29    3.30
  -3  -3   2  106.39    4.00
  -3  -3   2   97.89    4.30
   2   3  -2    0.30    0.50
   2   3  -2    0.40    0.70
   2   3  -2    0.80    0.60
   2   3  -2    0.60    0.60
   2   3  -2   -0.30    0.60
  -2  -3   2    0.40    0.90
  -2  -3   2    0.20    0.60
  -2  -3   2   -0.30    0.60
  -2  -3   2    0.40    0.60
  -2  -3   2    0.50    0.60
   1   3  -2  110.29    3.90
   1   3  -2  114.59    3.40
   1   3  -2  104.99    3.60
   1   3  -2  101.99    3.40
   1   3  -2  105.89    3.50
  -1  -3   2  115.39    3.60
  -1  -3   2  107.19    3.80
  -1  -3   2  104.79    3.30
  -1  -3   2  106.89    4.00
  -1  -3   2  111.99    3.70
   0   3  -2   10.90    1.20
   0   3  -2   10.30    1.30
   0   3  -2   10.70    1.10
   0   3  -2   12.00    1.10
   0  -3   2   11.80    1.40
   0  -3   2   13.10    1.30
   0  -3   2   11.60    1.10
   0  -3   2   11.40    1.50
   0  -3   2   14.00    1.60
  -1   3  -2    3.60    0.80
  -1   3  -2    3.90    0.90
  -1   3  -2    3.70    0.90
  -1   3  -2    3.80    0.50
  -1   3  -2    2.30    0.80
   1  -3   2    2.80    0.90
   1  -3   2    2.80    0.80
   1  -3   2    2.80    1.20
   1  -3   2    3.10    0.70
  -2   3  -2    3.00    0.50
  -2   3  -2    3.50    0.90
  -2   3  -2    4.40    0.80
  -2   3  -2    3.20    0.90
  -2   3  -2    1.60    0.90
   2  -3   2    4.90    1.30
   2  -3   2    3.50    0.90
   2  -3   2    3.00    0.70
   2  -3   2    3.40    0.80
   2  -3   2    3.40    0.50
  -3   3  -2   27.70    1.80
  -3   3  -2   23.30    2.30
  -3   3  -2   23.30    1.80
  -3   3  -2   23.80    1.30
  -3   3  -2   24.20    1.50
   3  -3   2   25.50    2.60
   3  -3   2   24.60    1.90
   3  -3   2   25.70    1.70
   3  -3   2   24.50    1.30
  -4   3  -2    1.20    1.00
  -4   3  -2    0.70    0.90
  -4   3  -2    0.90    0.70
  -4   3  -2    0.60    0.60
   4  -3   2    0.70    0.60
   4  -3   2   -1.50    1.20
   4  -3   2    0.30    1.00
  -5   3  -2   38.10    2.60
  -5   3  -2   37.80    2.30
  -5   3  -2   36.80    1.50
  -5   3  -2   37.90    2.80
   5  -3   2   38.30    2.20
   5  -3   2   38.70    2.90
   5  -3   2   34.30    3.20
  -6   3  -2    0.70    1.20
   6  -3   2   -0.10    1.20
   6  -3   2    2.10    1.40
   6  -3   2    1.30    1.90
  -7   3  -2    1.30    1.40
   7  -3   2    0.10    1.50
   7  -3   2   -0.20    1.80
   7  -3   2   -0.40    1.30
  -8   3  -2    0.80    1.60
   8  -3   2   -1.70    1.90
   8  -3   2    1.70    1.60
   8  -3   2    2.00    1.70
   8   2  -2    3.20    2.00
   8   2  -2   -0.30    1.80
  -8  -2   2    1.50    1.80
  -8  -2   2    1.20    0.90
   7   2  -2   10.00    2.40
   7   2  -2    5.30    1.80
  -7  -2   2   10.10    1.50
  -7  -2   2    8.60    1.70
  -7  -2   2   14.50    2.30
   6   2  -2   59.79    3.70
   6   2  -2   51.19    4.10
   6   2  -2   56.09    2.90
  -6  -2   2   59.79    3.50
  -6  -2   2   53.59    2.40
  -6  -2   2   56.69    3.10
  -6  -2   2   59.49    3.20
   5   2  -2   53.49    3.70
   5   2  -2   51.89    2.70
   5   2  -2   52.59    3.10
  -5  -2   2   53.79    2.70
  -5  -2   2   58.39    2.90
  -5  -2   2   54.09    2.90
  -5  -2   2   58.19    2.20
   4   2  -2    7.10    1.30
   4   2  -2    7.00    1.40
   4   2  -2    6.30    1.40
   4   2  -2    5.30    1.10
   4   2  -2    7.70    1.20
  -4  -2   2    6.10    1.40
  -4  -2   2    6.70    1.30
  -4  -2   2    7.50    1.30
  -4  -2   2    7.00    0.90
  -4  -2   2    4.80    1.20
   3   2  -2   19.90    1.50
   3   2  -2   17.70    1.80
   3   2  -2   15.40    1.50
   3   2  -2   16.40    1.50
   3   2  -2   16.70    1.70
  -3  -2   2   18.00    1.60
  -3  -2   2   19.80    1.60
  -3  -2   2   18.50    1.80
  -3  -2   2   15.10    1.70
   2   2  -2  207.68    5.30
   2   2  -2  215.18    5.10
   2   2  -2  206.68    5.40
   2   2  -2  217.38    6.00
   2   2  -2  220.68    5.20
  -2  -2   2  218.78    5.50
  -2  -2   2  211.98    5.20
  -2  -2   2  215.68    5.50
  -2  -2   2  219.28    6.10
   1   2  -2  107.39    3.60
   1   2  -2  106.69    3.20
   1   2  -2  108.59    3.30
   1   2  -2  108.59    3.00
   1   2  -2  108.49    2.80
  -1  -2   2  105.49    3.00
  -1  -2   2  108.19    3.30
  -1  -2   2  108.49    3.30
  -1  -2   2  103.09    3.20
  -1  -2   2  123.09    3.70
   0   2  -2    1.30    0.60
   0   2  -2    0.20    0.60
   0   2  -2    0.50    0.60
   0   2  -2    0.70    0.40
   0  -2   2    1.00    0.50
   0  -2   2    0.70    0.40
   0  -2   2    0.60    0.50
   0  -2   2    0.30    0.50
  -1   2  -2   -0.10    0.60
  -1   2  -2    1.40    0.60
  -1   2  -2    0.60    0.50
  -1   2  -2    0.30    0.40
  -1   2  -2    1.20    0.20
   1  -2   2    0.70    0.50
   1  -2   2    0.30    0.40
   1  -2   2    0.50    0.60
   1  -2   2    1.10    0.80
  -2   2  -2  116.59    3.30
  -2   2  -2  118.69    2.70
  -2   2  -2  112.89    4.20
  -2   2  -2  116.89    3.10
  -2   2  -2  114.69    3.30
   2  -2   2  120.79    3.50
   2  -2   2  117.79    4.30
   2  -2   2  119.89    2.70
   2  -2   2  119.59    3.30
   2  -2   2  117.19    3.10
  -3   2  -2    0.00    0.70
  -3   2  -2   -0.10    0.40
  -3   2  -2    0.30    0.40
  -3   2  -2    0.80    0.50
  -3   2  -2    0.20    0.80
   3  -2   2    0.10    0.50
   3  -2   2    0.10    0.40
   3  -2   2   -0.70    0.50
   3  -2   2   -0.70    0.90
  -4   2  -2    8.10    0.70
  -4   2  -2    8.90    1.10
  -4   2  -2   10.00    1.40
  -4   2  -2   10.50    1.50
  -4   2  -2    8.00    1.70
   4  -2   2    8.10    1.70
   4  -2   2    9.00    1.00
   4  -2   2    8.60    1.20
   4  -2   2   10.60    1.50
  -5   2  -2   19.10    1.90
  -5   2  -2   18.60    1.80
   5  -2   2   14.80    2.40
   5  -2   2   17.20    1.70
   5  -2   2   16.80    2.10
   5  -2   2   21.40    2.50
  -6   2  -2    0.70    0.80
  -6   2  -2    0.40    1.10
   6  -2   2    0.20    1.10
   6  -2   2   -2.30    1.20
   6  -2   2    1.30    1.10
  -7   2  -2   33.80    2.90
   7  -2   2   34.10    3.60
   7  -2   2   30.70    2.90
   7  -2   2   35.60    3.90
  -8   2  -2   32.70    3.20
   8  -2   2   40.10    4.20
   8  -2   2   35.80    4.20
   8  -2   2   37.80    3.80
   8   1  -2   10.50    2.20
   8   1  -2    8.50    2.40
  -8  -1   2   11.90    2.20
  -8  -1   2   11.80    1.80
   7   1  -2   12.90    2.30
   7   1  -2   19.20    2.70
  -7  -1   2   18.80    1.80
  -7  -1   2   16.90    1.90
  -7  -1   2   20.20    2.50
   6   1  -2    0.60    1.00
   6   1  -2   -0.40    0.60
   6   1  -2   -0.30    1.20
  -6  -1   2   -0.90    0.80
  -6  -1   2   -1.50    1.00
  -6  -1   2   -0.20    0.50
  -6  -1   2   -0.10    1.10
   5   1  -2   24.50    2.50
   5   1  -2   23.80    1.70
   5   1  -2   24.50    2.20
  -5  -1   2   19.00    1.80
  -5  -1   2   25.80    1.90
  -5  -1   2   22.90    2.20
  -5  -1   2   23.70    2.40
  -5  -1   2   24.50    1.50
  -5  -1   2   26.20    2.50
   4   1  -2  124.39    3.80
   4   1  -2  120.29    4.50
   4   1  -2  131.49    4.70
   4   1  -2  128.49    4.30
   4   1  -2  125.79    4.10
  -4  -1   2  124.29    4.10
  -4  -1   2  121.09    4.30
  -4  -1   2  123.09    4.10
  -4  -1   2  129.69    4.80
  -4  -1   2  126.29    3.10
  -4  -1   2  123.69    3.90
  -4  -1   2  121.89    4.50
   3   1  -2   21.10    1.60
   3   1  -2   20.40    1.50
   3   1  -2   24.10    1.90
   3   1  -2   21.30    1.70
   3   1  -2   22.20    1.40
  -3  -1   2   19.20    1.70
  -3  -1   2   19.90    1.70
  -3  -1   2   18.30    1.60
  -3  -1   2   21.00    1.50
  -3  -1   2   21.20    1.60
   2   1  -2   95.09    2.90
   2   1  -2   91.89    3.20
   2   1  -2   93.39    2.80
   2   1  -2   93.59    2.80
   2   1  -2   85.29    3.00
  -2  -1   2   92.29    2.80
  -2  -1   2   93.19    3.20
  -2  -1   2   93.59    3.10
  -2  -1   2   92.99    2.90
  -2  -1   2   91.29    2.90
   1   1  -2  247.28    5.00
   1   1  -2  235.78    4.90
   1   1  -2  241.08    5.30
   1   1  -2  243.58    5.20
   1   1  -2  239.98    5.60
  -1  -1   2  235.58    5.30
  -1  -1   2  237.58    5.00
  -1  -1   2  237.78    5.60
  -1  -1   2  234.88    5.00
  -1  -1   2  238.58    5.20
   0   1  -2  104.79    2.60
   0   1  -2  104.99    2.20
   0   1  -2  111.49    2.60
   0   1  -2  108.29    2.80
   0  -1   2  114.29    2.90
   0  -1   2  112.19    2.60
   0  -1   2  108.69    2.20
   0  -1   2  103.39    3.20
   0  -1   2  110.09    2.60
  -1   1  -2   34.00    1.20
  -1   1  -2   34.90    1.30
  -1   1  -2   34.60    1.80
  -1   1  -2   33.10    1.20
   1  -1   2   36.70    1.90
   1  -1   2   33.20    1.20
   1  -1   2   33.40    1.30
   1  -1   2   35.00    0.80
   1  -1   2   36.50    1.30
  -2   1  -2   17.60    0.80
  -2   1  -2   17.20    1.10
  -2   1  -2   20.20    1.20
  -2   1  -2   18.50    1.60
   2  -1   2   20.70    0.90
   2  -1   2   20.80    1.20
   2  -1   2   18.00    1.00
   2  -1   2   21.00    0.90
   2  -1   2   18.10    1.60
  -3   1  -2    5.60    0.70
  -3   1  -2    4.60    0.90
  -3   1  -2    5.90    0.90
  -3   1  -2    5.10    1.10
  -3   1  -2    5.30    0.40
   3  -1   2    5.80    1.00
   3  -1   2    4.00    1.00
   3  -1   2    4.80    0.80
   3  -1   2    5.60    0.80
  -4   1  -2   90.39    3.30
  -4   1  -2   86.09    3.80
  -4   1  -2   85.09    3.10
   4  -1   2   86.09    3.00
   4  -1   2   85.19    4.00
   4  -1   2   86.59    3.00
   4  -1   2   85.09    3.30
   4  -1   2   83.09    3.90
  -5   1  -2   53.19    3.30
  -5   1  -2   53.49    2.70
  -5   1  -2   53.99    2.90
   5  -1   2   57.89    3.50
   5  -1   2   59.69    3.70
   5  -1   2   52.79    2.60
   5  -1   2   52.69    2.90
  -6   1  -2   23.30    2.10
  -6   1  -2   26.50    2.30
   6  -1   2   21.60    2.50
   6  -1   2   19.70    2.50
   6  -1   2   19.20    2.60
  -7   1  -2   33.00    2.60
   7  -1   2   40.50    3.60
   7  -1   2   35.70    3.40
   7  -1   2   36.30    3.20
  -8   1  -2    3.60    1.70
   8  -1   2    3.60    1.60
   8  -1   2    3.40    1.90
   8  -1   2    2.10    1.80
  -9   1  -2    4.10    1.90
  -9   1  -2    2.10    1.50
   9  -1   2    0.70    1.70
   9   0  -2    0.40    1.80
  -9   0   2    2.50    1.40
   8   0  -2    2.40    1.70
   8   0  -2    2.20    1.90
  -8   0   2    8.80    2.20
  -8   0   2    3.10    1.20
   7   0  -2   15.90    2.50
   7   0  -2   16.30    2.70
  -7   0   2   17.30    1.70
  -7   0   2   15.20    2.40
  -7   0   2   16.50    1.60
   6   0  -2   36.90    3.10
   6   0  -2   35.90    3.10
  -6   0   2   32.00    3.00
  -6   0   2   29.40    2.60
  -6   0   2   28.60    1.90
  -6   0   2   38.20    2.80
   5   0  -2   25.70    2.40
   5   0  -2   26.60    2.30
  -5   0   2   23.20    1.90
  -5   0   2   31.50    2.40
  -5   0   2   24.00    2.30
  -5   0   2   25.20    1.70
  -5   0   2   23.80    2.10
  -5   0   2   25.30    2.40
   4   0  -2  340.97    8.50
   4   0  -2  330.07    8.30
   4   0  -2  333.27    7.70
   4   0  -2  345.27    8.20
   4   0  -2  339.67    7.30
  -4   0   2  330.57    7.80
  -4   0   2  330.07    8.60
  -4   0   2  336.77    8.20
  -4   0   2  332.87    8.40
  -4   0   2  337.57    7.40
  -4   0   2  332.57    8.30
   3   0  -2    4.80    0.90
   3   0  -2    4.20    0.90
   3   0  -2    4.90    1.00
   3   0  -2    4.30    0.70
   3   0  -2    3.50    0.80
  -3   0   2    4.50    0.80
  -3   0   2    6.10    1.20
  -3   0   2    4.90    0.90
  -3   0   2    5.00    0.90
  -3   0   2    4.50    1.00
   2   0  -2  364.56    7.20
   2   0  -2  357.76    7.30
   2   0  -2  366.36    7.70
   2   0  -2  346.97    7.50
   2   0  -2  365.26    7.50
  -2   0   2  337.07    7.40
  -2   0   2  363.76    7.40
  -2   0   2  360.26    7.50
  -2   0   2  371.36    7.30
  -2   0   2  360.16    7.80
   1   0  -2 1800.02   32.60
   1   0  -2 1876.21   30.30
   1   0  -2 1837.42   31.40
   1   0  -2 1793.22   31.60
   1   0  -2 1841.72   30.50
  -1   0   2 1862.31   30.30
  -1   0   2 1788.92   32.70
  -1   0   2 1815.52   31.60
  -1   0   2 1782.32   31.40
  -1   0   2 1843.32   30.50
   0   0  -2    1.50    0.30
   0   0  -2    1.80    0.30
   0   0  -2    1.60    0.30
   0   0  -2    1.60    0.30
   0   0   2    2.00    0.30
   0   0   2    1.80    0.30
   0   0   2    1.60    0.40
   0   0   2    1.50    0.30
  -1   0  -2   15.00    1.00
  -1   0  -2   13.70    0.60
   1   0   2   14.30    0.60
   1   0   2   14.30    0.60
   1   0   2   13.70    0.70
   1   0   2   13.60    1.00
  -2   0  -2   46.70    2.00
  -2   0  -2   46.80    1.50
  -2   0  -2   48.80    1.70
  -2   0  -2   49.30    1.60
   2   0   2   46.70    2.10
   2   0   2   47.50    1.50
   2   0   2   48.10    1.20
   2   0   2   49.00    1.70
  -3   0  -2  328.27    6.70
  -3   0  -2  335.37    7.90
  -3   0  -2  339.37    6.80
  -3   0  -2  340.37    7.00
   3   0   2  329.27    8.40
   3   0   2  335.27    6.70
   3   0   2  330.97    7.10
   3   0   2  322.37    7.90
   3   0   2  337.77    7.10
  -4   0  -2   97.59    3.20
  -4   0  -2   96.59    3.40
  -4   0  -2  100.19    3.90
   4   0   2   95.99    3.00
   4   0   2  104.39    3.40
   4   0   2   93.99    3.80
   4   0   2   99.29    3.50
   4   0   2   98.29    4.20
  -5   0  -2   18.00    1.90
  -5   0  -2   17.20    1.80
  -5   0  -2   18.20    1.70
   5   0   2   14.20    1.80
   5   0   2   15.60    2.10
   5   0   2   15.40    1.70
   5   0   2   16.90    1.80
  -6   0  -2   11.70    1.80
  -6   0  -2   12.40    1.70
  -6   0  -2   11.30    1.80
   6   0   2   15.80    2.10
   6   0   2   13.20    2.30
   6   0   2    8.50    1.90
  -7   0  -2  101.19    4.40
  -7   0  -2   93.29    4.30
  -7   0  -2  105.79    4.50
   7   0   2   91.69    4.70
   7   0   2   96.49    4.70
   7   0   2   97.79    5.70
  -8   0  -2   57.79    3.70
  -8   0  -2   56.39    3.70
   8   0   2   53.29    3.90
   8   0   2   54.49    4.90
   8   0   2   60.39    4.10
  -9   0  -2   -0.60    1.20
  -9   0  -2   -0.60    1.50
   9   0   2   -1.90    1.70
   8  -1  -2    0.10    1.20
   8  -1  -2    0.00    1.40
  -8   1   2   -0.40    1.00
   7  -1  -2   26.10    3.40
   7  -1  -2   18.60    2.50
  -7   1   2   22.40    1.70
  -7   1   2   20.10    2.70
  -7   1   2   22.10    2.60
   6  -1  -2   50.29    3.60
   6  -1  -2   46.30    3.40
  -6   1   2   54.79    3.50
  -6   1   2   48.40    2.30
  -6   1   2   52.69    3.30
   5  -1  -2   28.50    2.30
   5  -1  -2   26.70    2.60
  -5   1   2   28.90    2.20
  -5   1   2   26.80    1.70
  -5   1   2   28.60    2.30
  -5   1   2   31.10    2.70
  -5   1   2   31.10    2.50
   4  -1  -2  123.89    4.50
   4  -1  -2  131.79    4.30
   4  -1  -2  125.29    4.00
   4  -1  -2  133.29    4.40
  -4   1   2  136.49    4.40
  -4   1   2  131.89    4.30
  -4   1   2  125.99    3.70
  -4   1   2  126.59    4.80
  -4   1   2  125.59    4.40
  -4   1   2  127.39    4.10
   3  -1  -2    0.20    0.60
   3  -1  -2   -0.20    0.50
   3  -1  -2    0.60    0.50
   3  -1  -2   -0.30    0.80
  -3   1   2    0.50    0.60
  -3   1   2   -0.40    0.60
  -3   1   2    0.40    0.40
  -3   1   2    0.80    0.70
  -3   1   2    1.40    0.80
  -3   1   2    0.30    0.60
   2  -1  -2    3.00    0.80
   2  -1  -2    2.50    0.50
   2  -1  -2    2.50    0.70
   2  -1  -2    1.80    0.50
  -2   1   2    2.00    0.40
  -2   1   2    2.40    0.70
  -2   1   2    2.20    0.60
  -2   1   2    1.80    0.60
   1  -1  -2  156.18    3.70
   1  -1  -2  158.08    3.40
   1  -1  -2  150.08    3.50
  -1   1   2  152.38    3.50
  -1   1   2  153.28    3.40
  -1   1   2  152.38    3.10
  -1   1   2  157.78    3.70
   0  -1  -2 1288.97   21.30
   0   1   2 1293.87   22.80
   0   1   2 1282.37   21.30
   0   1   2 1313.57   21.20
  -1  -1  -2  165.68    3.00
  -1  -1  -2  164.08    3.80
   1   1   2  164.88    3.00
   1   1   2  167.28    4.20
   1   1   2  169.48    3.00
  -2  -1  -2   35.50    1.40
  -2  -1  -2   37.90    1.50
  -2  -1  -2   35.60    1.50
  -2  -1  -2   30.90    1.50
  -2  -1  -2   33.70    1.20
   2   1   2   34.80    1.30
   2   1   2   31.60    1.10
   2   1   2   41.90    2.10
  -3  -1  -2  408.46    8.10
  -3  -1  -2  422.76    8.10
  -3  -1  -2  414.76    8.80
  -3  -1  -2  427.06    8.40
   3   1   2  412.66   10.10
   3   1   2  413.76    8.40
   3   1   2  423.66    8.90
   3   1   2  414.56    7.80
   3   1   2  415.66    8.00
  -4  -1  -2  168.38    4.70
  -4  -1  -2  169.88    4.80
  -4  -1  -2  174.48    4.50
  -4  -1  -2  168.38    4.60
   4   1   2  174.18    4.90
   4   1   2  169.58    5.90
   4   1   2  171.38    4.40
   4   1   2  172.88    4.90
   4   1   2  171.28    4.80
   4   1   2  168.68    3.60
  -5  -1  -2   28.90    2.00
  -5  -1  -2   32.20    2.00
  -5  -1  -2   25.60    2.00
  -5  -1  -2   30.40    2.10
   5   1   2   27.60    2.10
   5   1   2   29.20    2.10
   5   1   2   29.80    1.10
   5   1   2   28.40    2.80
   5   1   2   30.40    2.30
  -6  -1  -2    1.80    1.10
  -6  -1  -2    1.40    1.10
  -6  -1  -2    0.40    1.00
  -6  -1  -2    1.40    1.10
   6   1   2    2.20    1.00
   6   1   2    3.30    1.10
   6   1   2    3.00    1.30
  -7  -1  -2    4.40    1.60
  -7  -1  -2    3.50    1.50
  -7  -1  -2    2.80    1.30
  -7  -1  -2    0.40    1.20
   7   1   2    1.00    1.70
   7   1   2    4.50    1.60
   7   1   2    2.50    1.30
  -8  -1  -2   19.80    2.50
  -8  -1  -2   17.80    2.40
   8   1   2   18.50    2.70
   8   1   2   16.70    3.10
  -9  -1  -2    8.70    2.10
  -9  -1  -2    9.80    2.30
   9   1   2    4.90    2.30
   8  -2  -2    1.00    1.50
   8  -2  -2    2.70    1.70
  -8   2   2    3.40    1.50
  -8   2   2    0.70    1.60
   7  -2  -2   45.70    3.50
   7  -2  -2   45.40    4.00
  -7   2   2   46.30    3.60
  -7   2   2   43.60    2.20
  -7   2   2   50.19    3.80
   6  -2  -2   38.80    2.90
   6  -2  -2   46.00    3.60
  -6   2   2   42.20    2.20
  -6   2   2   43.10    3.20
  -6   2   2   44.50    3.20
   5  -2  -2   73.29    3.40
   5  -2  -2   71.49    3.90
  -5   2   2   74.49    2.80
  -5   2   2   70.99    3.40
  -5   2   2   79.29    3.70
   4  -2  -2    0.60    0.80
   4  -2  -2    2.10    0.80
   4  -2  -2    1.10    0.70
   4  -2  -2    1.00    0.80
  -4   2   2    1.00    0.80
  -4   2   2    1.30    0.80
  -4   2   2    1.20    1.00
  -4   2   2    0.70    0.60
  -4   2   2    1.80    1.30
   3  -2  -2   39.00    1.80
   3  -2  -2   39.00    1.90
   3  -2  -2   43.70    2.30
   3  -2  -2   39.90    2.10
  -3   2   2   40.50    2.10
  -3   2   2   36.20    2.00
  -3   2   2   38.80    2.00
  -3   2   2   42.30    2.60
   2  -2  -2 1554.14   26.00
   2  -2  -2 1498.15   26.90
   2  -2  -2 1486.85   26.40
   2  -2  -2 1533.45   27.30
  -2   2   2 1478.45   27.20
  -2   2   2 1501.95   26.00
  -2   2   2 1546.85   29.20
  -2   2   2 1489.65   26.30
   1  -2  -2   78.99    2.30
   1  -2  -2   79.89    2.60
   1  -2  -2   74.89    2.40
  -1   2   2   75.89    2.30
  -1   2   2   73.99    2.90
  -1   2   2   76.79    2.20
  -1   2   2   82.49    2.70
   0  -2  -2   10.00    0.80
   0  -2  -2   10.30    0.70
   0  -2  -2   11.30    0.90
   0  -2  -2   10.40    0.80
   0   2   2   10.00    0.70
   0   2   2   10.40    0.70
   0   2   2    9.60    0.70
  -1  -2  -2  163.18    3.50
  -1  -2  -2  168.78    4.10
  -1  -2  -2  171.98    3.80
  -1  -2  -2  167.38    4.40
  -1  -2  -2  172.98    3.60
   1   2   2  168.48    3.50
   1   2   2  177.58    3.50
   1   2   2  158.78    4.40
  -2  -2  -2  258.87    5.10
  -2  -2  -2  253.17    6.60
  -2  -2  -2  262.57    5.50
  -2  -2  -2  249.58    5.30
   2   2   2  249.58    6.70
   2   2   2  257.97    5.30
   2   2   2  260.37    5.20
   2   2   2  259.17    5.10
  -3  -2  -2  625.44   11.90
  -3  -2  -2  635.14   11.60
  -3  -2  -2  612.94   13.90
  -3  -2  -2  615.04   11.50
   3   2   2  637.74   11.90
   3   2   2  632.64   11.90
   3   2   2  628.04   14.10
   3   2   2  630.54   11.60
   3   2   2  617.04   11.80
  -4  -2  -2   59.99    2.70
  -4  -2  -2   62.59    2.10
  -4  -2  -2   63.09    3.40
  -4  -2  -2   61.49    2.50
  -4  -2  -2   58.09    2.40
   4   2   2   56.39    2.30
   4   2   2   60.29    2.60
   4   2   2   63.79    2.20
   4   2   2   61.29    2.10
   4   2   2   59.99    3.60
  -5  -2  -2   73.99    2.70
  -5  -2  -2   75.19    3.30
  -5  -2  -2   76.39    3.10
  -5  -2  -2   71.39    3.10
   5   2   2   70.79    2.40
   5   2   2   72.19    3.20
   5   2   2   74.29    2.70
   5   2   2   63.89    4.00
  -6  -2  -2   13.20    1.50
  -6  -2  -2   17.40    1.90
  -6  -2  -2   13.50    2.00
  -6  -2  -2   16.10    2.00
   6   2   2   14.50    2.50
   6   2   2   15.30    2.00
   6   2   2   15.00    1.20
  -7  -2  -2  107.59    4.40
  -7  -2  -2   93.39    4.40
  -7  -2  -2  112.09    4.50
   7   2   2  106.49    6.00
   7   2   2   99.89    4.70
  -8  -2  -2    8.40    1.90
  -8  -2  -2    3.40    1.20
   8   2   2    5.50    1.80
   8   2   2    5.80    2.00
  -9  -2  -2    0.40    1.60
  -9  -2  -2    2.90    1.60
   9   2   2   -0.40    1.40
   8  -3  -2   17.20    3.10
  -8   3   2   13.30    2.60
  -8   3   2   13.30    2.50
   7  -3  -2    4.20    1.50
   7  -3  -2    3.30    2.00
  -7   3   2    3.70    1.70
  -7   3   2    3.50    1.40
   6  -3  -2   39.10    2.80
   6  -3  -2   34.70    3.10
  -6   3   2   38.00    2.80
  -6   3   2   38.40    2.20
  -6   3   2   39.80    3.10
   5  -3  -2   17.70    2.50
   5  -3  -2   23.40    2.00
  -5   3   2   24.50    2.30
  -5   3   2   24.00    2.40
   4  -3  -2    5.10    0.90
   4  -3  -2    6.90    1.60
   4  -3  -2    4.00    1.00
   4  -3  -2    4.80    1.10
  -4   3   2    7.30    1.30
  -4   3   2    7.70    1.40
   3  -3  -2   -0.10    0.50
   3  -3  -2   -0.30    0.70
   3  -3  -2    0.20    0.50
  -3   3   2   -1.90    0.60
  -3   3   2   -0.60    1.00
  -3   3   2   -0.30    0.60
  -3   3   2    1.00    0.90
   2  -3  -2   54.29    2.60
   2  -3  -2   55.49    2.40
   2  -3  -2   55.99    2.20
  -2   3   2   54.89    2.90
  -2   3   2   59.79    2.50
  -2   3   2   58.99    2.40
  -2   3   2   53.79    2.30
   1  -3  -2  114.69    2.70
   1  -3  -2  108.09    3.30
   1  -3  -2  108.09    3.10
  -1   3   2  112.59    3.90
  -1   3   2  110.29    3.20
  -1   3   2  112.09    3.50
   0  -3  -2    5.80    0.80
   0  -3  -2    5.00    0.80
   0  -3  -2    5.00    0.70
   0   3   2    4.50    0.70
   0   3   2    4.60    0.70
   0   3   2    4.70    0.70
   0   3   2    5.00    0.90
  -1  -3  -2  496.35    9.20
  -1  -3  -2  467.55    9.10
  -1  -3  -2  485.65   10.50
  -1  -3  -2  481.35    9.20
   1   3   2  489.15   10.40
   1   3   2  478.75    9.10
   1   3   2  489.45    9.10
   1   3   2  486.45    9.80
  -2  -3  -2  316.87    6.80
  -2  -3  -2  331.87    6.90
  -2  -3  -2  319.57    6.70
  -2  -3  -2  344.37    8.40
   2   3   2  328.37    6.50
   2   3   2  329.07    8.30
   2   3   2  324.87    6.80
   2   3   2  331.67    6.70
  -3  -3  -2   28.90    2.20
  -3  -3  -2   27.70    1.60
  -3  -3  -2   25.90    1.70
  -3  -3  -2   25.70    1.50
   3   3   2   30.00    1.60
   3   3   2   25.30    2.20
   3   3   2   23.90    1.60
   3   3   2   25.80    1.70
  -4  -3  -2    1.10    0.80
  -4  -3  -2    2.50    1.10
  -4  -3  -2    1.90    0.70
  -4  -3  -2    2.10    0.90
   4   3   2    0.70    0.60
   4   3   2    1.40    0.80
   4   3   2    1.90    0.80
   4   3   2    0.40    1.10
  -5  -3  -2   27.30    2.20
  -5  -3  -2   28.20    2.10
  -5  -3  -2   29.30    2.10
   5   3   2   29.70    2.20
   5   3   2   30.60    2.90
   5   3   2   31.10    1.90
  -6  -3  -2    9.60    1.60
  -6  -3  -2   10.20    1.70
  -6  -3  -2   10.50    1.90
   6   3   2    8.10    1.90
   6   3   2   11.20    1.30
   6   3   2   12.40    1.90
  -7  -3  -2    1.60    1.40
  -7  -3  -2    2.10    1.20
   7   3   2    2.80    1.50
   7   3   2    2.50    1.50
  -8  -3  -2    3.00    1.50
  -8  -3  -2    4.30    1.60
   8   3   2    1.00    1.40
   8   3   2   -0.40    1.60
   8  -4  -2   -1.00    1.90
  -8   4   2   -1.00    1.50
  -8   4   2   -0.50    1.60
   7  -4  -2    3.00    1.70
   7  -4  -2    3.20    1.30
  -7   4   2    4.40    1.50
  -7   4   2    1.50    1.50
   6  -4  -2    2.10    1.00
   6  -4  -2    2.00    1.70
  -6   4   2    3.80    1.70
  -6   4   2    3.00    1.50
   5  -4  -2   31.80    3.10
   5  -4  -2   30.70    2.20
  -5   4   2   36.30    2.80
  -5   4   2   34.40    2.70
   4  -4  -2   52.09    3.10
   4  -4  -2   53.89    2.40
  -4   4   2   55.19    3.00
  -4   4   2   54.99    3.00
   3  -4  -2   39.30    2.70
   3  -4  -2   37.10    2.30
   3  -4  -2   36.80    2.90
   3  -4  -2   36.90    2.30
  -3   4   2   39.30    2.40
  -3   4   2   40.70    2.40
   2  -4  -2  669.23   13.20
   2  -4  -2  688.83   15.50
   2  -4  -2  687.63   14.00
   2  -4  -2  671.23   12.90
   2  -4  -2  664.23   13.70
  -2   4   2  675.73   15.50
  -2   4   2  663.23   13.40
  -2   4   2  642.64   13.10
  -2   4   2  679.13   13.90
   1  -4  -2    2.30    0.80
   1  -4  -2    2.20    0.60
   1  -4  -2    2.20    0.90
  -1   4   2    0.00    0.70
  -1   4   2    1.30    0.80
  -1   4   2    1.40    0.60
  -1   4   2    1.70    0.70
   0  -4  -2  100.69    3.40
   0  -4  -2  102.19    3.20
   0  -4  -2  107.59    3.40
   0   4   2  105.09    3.20
   0   4   2   98.89    3.10
   0   4   2   96.09    3.60
   0   4   2  101.09    3.20
  -1  -4  -2    4.70    0.90
  -1  -4  -2    2.60    0.80
  -1  -4  -2    3.20    0.80
   1   4   2    3.10    0.80
   1   4   2    3.70    0.90
   1   4   2    3.30    0.70
   1   4   2    3.10    0.70
  -2  -4  -2   59.69    2.40
  -2  -4  -2   55.69    2.50
  -2  -4  -2   54.59    3.00
  -2  -4  -2   55.19    2.40
   2   4   2   53.69    1.90
   2   4   2   53.29    3.00
   2   4   2   55.59    2.30
   2   4   2   56.19    2.70
   2   4   2   54.39    2.20
  -3  -4  -2    2.40    0.90
  -3  -4  -2    2.10    0.90
  -3  -4  -2    1.70    0.90
  -3  -4  -2    2.20    0.80
   3   4   2    1.60    0.80
   3   4   2    2.10    1.10
   3   4   2    2.90    0.80
   3   4   2    3.00    1.00
  -4  -4  -2  106.59    3.70
  -4  -4  -2  103.89    3.70
  -4  -4  -2  111.19    4.10
   4   4   2  101.49    3.80
   4   4   2  104.79    4.00
   4   4   2  102.69    5.10
  -5  -4  -2   -0.40    0.90
  -5  -4  -2    0.70    1.00
  -5  -4  -2    0.10    0.80
   5   4   2   -1.00    0.80
   5   4   2   -1.30    0.80
   5   4   2    1.20    1.20
  -6  -4  -2   30.70    2.70
  -6  -4  -2   30.30    2.50
  -6  -4  -2   32.30    2.40
   6   4   2   27.30    2.30
   6   4   2   27.80    2.50
   6   4   2   22.30    3.00
  -7  -4  -2    0.80    1.20
  -7  -4  -2   -0.90    1.10
   7   4   2    0.50    1.20
   7   4   2   -2.00    1.50
  -8  -4  -2    1.10    1.40
  -8  -4  -2    0.10    1.40
   8   4   2    1.60    2.10
   7  -5  -2    0.20    2.00
  -7   5   2    1.60    1.50
  -7   5   2   -1.10    1.40
   6  -5  -2    2.40    1.00
   6  -5  -2    7.00    2.20
  -6   5   2    1.00    1.40
  -6   5   2    0.70    1.50
   5  -5  -2   50.29    3.90
   5  -5  -2   38.20    2.40
  -5   5   2   53.89    3.50
  -5   5   2   47.50    3.20
   4  -5  -2    5.00    1.50
  -4   5   2    5.70    1.40
  -4   5   2    6.20    1.60
   3  -5  -2    3.90    0.80
   3  -5  -2    7.30    1.30
   3  -5  -2    3.70    1.80
   3  -5  -2    4.20    1.50
  -3   5   2    4.00    1.20
  -3   5   2    5.10    1.30
   2  -5  -2  153.58    4.80
   2  -5  -2  149.88    5.10
   2  -5  -2  148.39    5.80
   2  -5  -2  148.99    4.20
  -2   5   2  144.59    4.80
  -2   5   2  141.79    4.70
   1  -5  -2   27.80    2.20
   1  -5  -2   30.60    1.90
   1  -5  -2   30.80    2.80
   1  -5  -2   33.90    2.10
  -1   5   2   29.70    2.00
  -1   5   2   32.60    2.60
  -1   5   2   29.70    2.20
   0  -5  -2   33.50    2.00
   0  -5  -2   36.50    2.10
   0  -5  -2   34.90    2.30
   0   5   2   28.50    1.90
   0   5   2   34.40    2.20
   0   5   2   34.80    2.10
   0   5   2   32.90    2.30
   0   5   2   36.30    2.20
  -1  -5  -2    0.10    0.70
  -1  -5  -2   -0.50    0.80
  -1  -5  -2    1.00    0.80
   1   5   2    1.30    1.10
   1   5   2    0.00    0.60
   1   5   2    1.20    0.90
   1   5   2    1.00    0.80
   1   5   2    0.90    0.70
  -2  -5  -2    4.80    1.30
  -2  -5  -2    5.40    1.00
  -2  -5  -2    4.40    1.10
   2   5   2    4.60    1.00
   2   5   2    3.60    0.70
   2   5   2    5.90    1.30
  -3  -5  -2    2.80    1.20
  -3  -5  -2    5.00    1.20
  -3  -5  -2    3.60    1.10
   3   5   2    2.40    0.90
   3   5   2    1.00    1.20
  -4  -5  -2   26.70    2.20
  -4  -5  -2   27.20    2.20
  -4  -5  -2   31.40    2.40
   4   5   2   29.80    2.20
   4   5   2   19.20    2.60
  -5  -5  -2   -2.40    0.80
  -5  -5  -2    0.70    1.00
  -5  -5  -2   -0.20    0.80
   5   5   2   -0.20    1.40
   5   5   2   -0.60    0.90
  -6  -5  -2   14.10    2.10
  -6  -5  -2   11.90    2.00
   6   5   2   11.10    2.30
   6   5   2   13.10    2.10
  -7  -5  -2    6.40    1.80
  -7  -5  -2    3.80    1.50
   7   5   2    7.70    2.60
   7   5   2    6.60    1.90
  -8  -5  -2   16.40    2.70
  -8  -5  -2   10.40    2.20
   8   5   2   14.90    3.10
  -7   6   2    3.30    1.70
   6  -6  -2   -1.20    1.60
  -6   6   2   -0.60    1.20
  -6   6   2   -1.50    1.40
   5  -6  -2    0.20    1.60
  -5   6   2   -0.70    0.90
  -5   6   2   -0.20    1.30
   4  -6  -2   19.10    2.80
   4  -6  -2   11.70    1.60
  -4   6   2   18.80    2.40
  -4   6   2   16.70    2.20
   3  -6  -2  314.57    7.70
   3  -6  -2  345.97    9.50
   3  -6  -2  333.87   10.70
  -3   6   2  321.17    8.60
  -3   6   2  327.77    8.70
   2  -6  -2    8.10    1.80
   2  -6  -2    5.40    1.10
   2  -6  -2    6.20    2.10
  -2   6   2    7.00    1.50
  -2   6   2    5.40    1.20
   1  -6  -2    1.10    0.80
   1  -6  -2    1.40    1.20
   1  -6  -2    1.60    1.40
   1  -6  -2    1.00    0.90
  -1   6   2    1.30    1.00
  -1   6   2    1.90    0.90
   0  -6  -2    0.20    0.60
   0  -6  -2    0.30    0.70
   0  -6  -2    0.10    1.00
   0   6   2   -0.20    0.90
   0   6   2   -1.30    0.90
   0   6   2    0.40    0.90
   0   6   2    0.50    0.80
  -1  -6  -2    6.90    1.40
  -1  -6  -2   12.50    1.70
  -1  -6  -2    9.60    1.60
   1   6   2    8.80    1.40
   1   6   2   13.00    1.70
   1   6   2   10.80    1.70
  -2  -6  -2   37.40    2.50
  -2  -6  -2   37.40    2.50
   2   6   2   34.30    2.00
   2   6   2   35.90    2.30
   2   6   2   39.90    3.10
  -3  -6  -2   24.60    2.00
  -3  -6  -2   18.60    2.10
   3   6   2   25.80    2.20
   3   6   2   21.90    1.00
   3   6   2   18.40    2.60
  -4  -6  -2   10.30    1.70
  -4  -6  -2    9.30    1.70
   4   6   2    5.50    1.40
   4   6   2    5.00    1.70
  -5  -6  -2    4.50    1.60
  -5  -6  -2    1.10    1.30
  -5  -6  -2    4.70    1.60
   5   6   2    2.90    1.30
   5   6   2    1.20    1.80
  -6  -6  -2   -1.50    1.20
  -6  -6  -2    0.20    1.30
   6   6   2    0.80    1.50
   6   6   2    0.50    1.30
  -7  -6  -2    3.60    1.70
  -7  -6  -2    1.40    1.70
   7   6   2    3.00    2.00
   6  -7  -2    1.00    2.00
  -6   7   2   -2.00    1.30
  -6   7   2    1.30    1.70
   5  -7  -2    4.30    2.20
  -5   7   2   -0.70    1.50
  -5   7   2   -1.00    1.40
   4  -7  -2    7.60    2.30
  -4   7   2    5.10    1.50
  -4   7   2    4.30    1.70
   3  -7  -2   34.20    3.40
  -3   7   2   38.20    3.00
  -3   7   2   35.50    3.10
   2  -7  -2   11.70    2.50
   2  -7  -2   11.30    2.30
   2  -7  -2   10.70    1.60
  -2   7   2   13.80    2.10
   1  -7  -2   11.60    1.70
   1  -7  -2   10.80    2.10
  -1   7   2   11.90    2.00
  -1   7   2   11.50    1.90
   0  -7  -2    2.50    1.20
   0  -7  -2    1.30    1.10
   0   7   2    1.80    1.20
   0   7   2    2.80    1.20
  -1  -7  -2   20.20    2.10
  -1  -7  -2   16.10    2.10
   1   7   2   12.50    1.80
   1   7   2   13.40    1.70
  -2  -7  -2   -0.50    1.10
  -2  -7  -2    1.50    1.00
   2   7   2    0.60    1.00
   2   7   2   -0.70    0.60
   2   7   2    1.30    1.40
  -3  -7  -2    0.10    0.80
  -3  -7  -2    1.20    1.10
   3   7   2   -0.80    1.00
   3   7   2    1.60    1.10
  -4  -7  -2    0.90    1.30
   4   7   2   -0.10    1.70
   4   7   2   -1.90    0.90
  -5  -7  -2    1.10    1.40
   5   7   2    1.90    1.10
   5   7   2    0.70    1.50
  -6  -7  -2    6.10    2.00
   6   7   2    3.60    2.00
   4  -8  -2    9.80    2.50
  -4   8   2   13.90    2.20
  -4   8   2   15.20    2.60
   3  -8  -2   29.20    3.60
  -3   8   2   20.20    2.60
  -3   8   2   19.70    2.60
   2  -8  -2    0.30    1.60
  -2   8   2    1.00    1.20
   1  -8  -2    5.90    1.70
  -1   8   2    5.70    1.70
  -1   8   2    5.30    1.60
   0  -8  -2   -1.00    1.20
   0   8   2   -0.50    0.90
   0   8   2   -1.40    0.90
  -1  -8  -2    1.10    1.50
   1   8   2    1.20    1.20
   1   8   2   -0.50    1.40
  -2  -8  -2    1.10    1.40
   2   8   2    0.70    1.20
   2   8   2    0.00    1.10
  -3  -8  -2    0.10    1.30
   3   8   2    0.40    1.70
   3   8   2    1.00    1.30
  -4  -8  -2    0.80    1.50
   4   8   2   -0.10    1.20
   4   8   2   -2.80    1.80
  -5  -8  -2   -1.80    1.50
   5   8   2   -2.80    1.90
   3  -9  -2    3.10    2.30
  -3   9   2    3.80    1.60
  -3   9   2    3.90    1.90
   2  -9  -2    0.50    1.90
  -2   9   2    0.50    1.20
  -2   9   2    0.20    1.20
   1  -9  -2    2.40    1.50
  -1   9   2    5.00    1.70
  -1   9   2    4.70    1.90
   0  -9  -2    0.70    1.70
   0   9   2   -0.20    1.20
   0   9   2   -0.30    1.50
  -1  -9  -2   -0.30    1.60
   1   9   2    2.20    1.30
   1   9   2   -2.50    1.20
  -2  -9  -2    1.90    1.70
   2   9   2    4.90    2.10
   2   9   2    6.30    1.80
  -3  -9  -2    2.00    1.80
   3   9   2   -1.20    1.80
   3   9   2    1.10    1.50
   4   8  -3   -5.40    1.90
   3   8  -3   -1.70    1.00
  -3  -8   3    1.30    1.70
   2   8  -3    3.90    1.90
  -2  -8   3    2.90    1.90
  -2  -8   3    4.30    2.10
   1   8  -3    2.80    1.80
  -1  -8   3    5.20    2.10
  -1  -8   3    0.00    1.70
   0   8  -3    1.90    1.80
   0  -8   3    1.00    1.60
   0  -8   3   -0.60    1.80
  -1   8  -3    7.40    2.10
   1  -8   3    5.70    2.00
   1  -8   3    5.20    2.40
  -2   8  -3    3.80    1.70
   2  -8   3    4.10    1.70
   2  -8   3    2.70    2.50
  -3   8  -3   -0.90    1.60
   3  -8   3   -1.10    1.60
   3  -8   3   -0.80    1.70
   5   7  -3    2.40    1.70
   5   7  -3   -1.30    1.70
  -5  -7   3    1.20    2.10
  -5  -7   3    1.60    1.50
   4   7  -3    4.40    1.90
   4   7  -3    0.80    1.60
  -4  -7   3    1.30    1.90
  -4  -7   3    2.30    1.70
   3   7  -3   -3.90    1.60
   3   7  -3    1.20    1.60
  -3  -7   3   -0.10    1.40
  -3  -7   3   -2.90    1.50
  -3  -7   3   -1.70    1.10
   2   7  -3    1.40    1.40
  -2  -7   3   -0.70    1.70
  -2  -7   3   -0.60    1.40
  -2  -7   3    1.50    1.40
   1   7  -3    6.10    1.90
  -1  -7   3    5.50    2.00
  -1  -7   3   10.40    2.10
   0   7  -3    1.60    0.70
   0   7  -3    2.20    1.60
   0  -7   3   -1.10    1.30
   0  -7   3    4.40    1.90
  -1   7  -3    0.10    1.40
  -1   7  -3    0.50    0.60
   1  -7   3    0.40    1.70
   1  -7   3   -1.80    1.20
  -2   7  -3   12.00    2.30
   2  -7   3   13.40    2.50
   2  -7   3   13.00    3.00
  -3   7  -3    8.80    2.00
   3  -7   3    9.40    2.00
   3  -7   3    7.00    2.70
  -4   7  -3   -1.40    0.90
   4  -7   3   -3.40    2.00
   4  -7   3    0.10    1.30
  -5   7  -3    3.40    1.90
   5  -7   3    6.40    2.40
   5  -7   3    1.00    2.80
   6   6  -3    3.70    2.00
   6   6  -3   -2.10    2.10
  -6  -6   3   -0.60    1.70
  -6  -6   3   -1.70    1.60
   5   6  -3   12.40    2.50
   5   6  -3    4.60    2.40
  -5  -6   3    5.30    2.20
  -5  -6   3    7.10    2.10
   4   6  -3   10.00    2.20
   4   6  -3    9.30    2.40
  -4  -6   3    8.50    2.00
  -4  -6   3   15.40    2.50
  -4  -6   3    9.40    1.50
   3   6  -3    0.20    1.70
   3   6  -3    4.20    1.60
  -3  -6   3    3.70    1.30
  -3  -6   3    2.10    1.40
  -3  -6   3    3.30    1.60
   2   6  -3    0.10    0.90
   2   6  -3   -1.00    0.80
  -2  -6   3    0.80    1.10
  -2  -6   3    3.00    1.70
  -2  -6   3    0.70    1.00
   1   6  -3    4.40    1.50
   1   6  -3    4.40    1.30
  -1  -6   3    1.70    1.60
  -1  -6   3    3.20    1.50
  -1  -6   3    3.20    1.60
   0   6  -3   14.50    2.00
   0  -6   3   14.60    2.10
   0  -6   3   10.80    1.80
   0  -6   3   10.50    2.20
  -1   6  -3    6.90    1.50
  -1   6  -3    7.00    0.90
   1  -6   3    6.40    1.50
   1  -6   3    7.00    2.00
  -2   6  -3    0.60    0.50
  -2   6  -3    1.50    1.10
   2  -6   3    2.80    1.20
   2  -6   3    1.00    1.70
  -3   6  -3   10.20    2.10
  -3   6  -3   11.00    1.10
   3  -6   3   13.30    2.30
   3  -6   3   12.20    2.80
  -4   6  -3    5.60    1.80
   4  -6   3    3.90    1.70
   4  -6   3    3.60    2.30
  -5   6  -3    2.10    1.60
   5  -6   3    0.60    2.30
   5  -6   3    4.30    1.90
  -6   6  -3    3.50    1.70
   6  -6   3    0.60    2.60
   6  -6   3    4.20    2.20
   7   5  -3   -0.50    1.70
   7   5  -3   -0.10    1.80
  -7  -5   3   -2.30    1.10
  -7  -5   3    1.90    1.80
   6   5  -3    2.50    2.30
   6   5  -3    4.80    1.70
  -6  -5   3    7.80    1.90
  -6  -5   3    5.70    2.00
   5   5  -3   31.10    3.50
   5   5  -3   31.90    3.00
  -5  -5   3   31.10    2.80
  -5  -5   3   33.70    3.30
  -5  -5   3   28.90    2.20
   4   5  -3    8.70    2.00
   4   5  -3    6.00    1.80
  -4  -5   3    5.60    1.20
  -4  -5   3    3.20    1.80
  -4  -5   3    5.00    1.60
   3   5  -3   12.80    2.10
   3   5  -3   12.60    2.20
  -3  -5   3   16.40    1.90
  -3  -5   3   11.90    2.00
  -3  -5   3   13.50    2.00
   2   5  -3   36.90    2.20
   2   5  -3   40.00    2.60
   2   5  -3   36.40    3.00
  -2  -5   3   36.30    2.60
  -2  -5   3   33.80    3.00
  -2  -5   3   34.90    2.50
   1   5  -3   74.79    3.50
   1   5  -3   73.29    3.50
  -1  -5   3   82.39    4.10
  -1  -5   3   67.89    3.40
  -1  -5   3   69.19    3.80
   0   5  -3   18.70    2.00
   0   5  -3   23.80    2.30
   0  -5   3   17.80    2.00
   0  -5   3   18.40    2.00
   0  -5   3   22.50    2.60
  -1   5  -3   16.30    1.00
  -1   5  -3   16.10    1.90
   1  -5   3   12.40    1.90
   1  -5   3   14.60    2.30
   1  -5   3   15.50    1.90
  -2   5  -3    2.90    1.20
  -2   5  -3    2.70    0.50
   2  -5   3    2.70    1.30
   2  -5   3    2.60    1.70
  -3   5  -3    4.70    0.70
  -3   5  -3    4.50    1.20
  -3   5  -3    4.70    1.30
   3  -5   3    4.90    2.00
   3  -5   3    4.60    1.30
  -4   5  -3    1.90    1.10
  -4   5  -3    3.00    1.10
  -4   5  -3    1.40    0.70
   4  -5   3    0.50    1.30
   4  -5   3    3.30    1.30
  -5   5  -3    5.50    1.70
  -5   5  -3    4.20    1.00
   5  -5   3    2.80    1.90
   5  -5   3    6.60    2.00
  -6   5  -3    2.80    1.60
   6  -5   3    5.00    2.00
   6  -5   3    0.20    1.70
  -7   5  -3   -1.20    1.40
   7  -5   3    1.70    2.20
   7  -5   3    2.70    1.80
   7  -5   3    1.30    1.80
   7   4  -3    1.70    1.70
   7   4  -3    1.10    2.10
  -7  -4   3   -0.10    1.40
  -7  -4   3   -0.30    1.60
   6   4  -3   13.20    2.40
   6   4  -3   11.50    2.40
  -6  -4   3   13.30    2.30
  -6  -4   3   12.00    2.20
   5   4  -3   15.00    2.30
   5   4  -3    7.30    2.30
  -5  -4   3   16.50    1.70
  -5  -4   3   12.10    1.90
  -5  -4   3    8.90    2.00
   4   4  -3    0.90    1.30
   4   4  -3    0.40    1.50
  -4  -4   3    2.00    1.40
  -4  -4   3    2.50    1.00
  -4  -4   3    2.10    1.30
   3   4  -3   34.80    2.50
   3   4  -3   37.40    2.30
   3   4  -3   43.50    3.40
  -3  -4   3   36.80    2.40
  -3  -4   3   37.90    2.40
  -3  -4   3   35.60    2.90
   2   4  -3   35.80    2.30
   2   4  -3   34.20    2.60
   2   4  -3   39.10    2.30
   2   4  -3   33.60    1.90
  -2  -4   3   34.50    2.20
  -2  -4   3   34.00    2.50
  -2  -4   3   35.30    2.40
   1   4  -3    9.90    1.50
   1   4  -3   12.60    1.30
   1   4  -3   11.60    1.70
   1   4  -3   11.70    1.10
  -1  -4   3    9.20    1.60
  -1  -4   3   12.80    1.60
  -1  -4   3   13.50    1.80
  -1  -4   3   13.20    1.50
  -1  -4   3    9.60    1.70
   0   4  -3   62.29    2.80
   0   4  -3   64.59    3.00
   0   4  -3   66.29    2.90
   0   4  -3   65.79    3.30
   0  -4   3   68.59    2.90
   0  -4   3   66.29    2.90
   0  -4   3   61.19    3.30
   0  -4   3   69.69    3.40
   0  -4   3   68.09    3.40
  -1   4  -3    1.90    0.90
  -1   4  -3    1.70    0.40
  -1   4  -3   -0.30    0.70
  -1   4  -3    0.20    0.80
  -1   4  -3    0.40    0.80
   1  -4   3    0.80    1.00
   1  -4   3    0.20    0.70
   1  -4   3    2.40    0.90
   1  -4   3    1.10    0.70
   1  -4   3    0.90    0.90
  -2   4  -3    4.30    1.00
  -2   4  -3    5.10    1.20
  -2   4  -3    3.90    0.50
  -2   4  -3    6.90    1.20
   2  -4   3    6.20    1.30
   2  -4   3    5.00    1.20
   2  -4   3    5.10    1.40
  -3   4  -3    0.70    0.80
  -3   4  -3    1.10    0.80
  -3   4  -3    0.80    0.50
  -3   4  -3    0.70    0.90
   3  -4   3    0.10    1.30
   3  -4   3    0.30    0.70
  -4   4  -3   39.20    2.50
  -4   4  -3   35.70    1.70
  -4   4  -3   38.50    2.50
  -4   4  -3   35.80    2.10
  -4   4  -3   36.60    1.80
   4  -4   3   36.90    1.70
   4  -4   3   35.50    3.40
   4  -4   3   33.60    2.70
  -5   4  -3   15.60    2.00
  -5   4  -3   13.70    1.40
   5  -4   3   13.10    1.30
   5  -4   3   19.60    2.50
   5  -4   3    9.50    2.50
  -6   4  -3   -0.90    1.20
   6  -4   3    0.00    1.00
   6  -4   3    2.10    2.10
  -7   4  -3    4.70    1.50
   7  -4   3    2.40    1.90
   7  -4   3    1.00    1.60
   7  -4   3    2.00    1.40
   8   3  -3   10.60    2.70
   8   3  -3    9.60    3.00
  -8  -3   3    9.00    2.10
  -8  -3   3    9.20    2.30
   7   3  -3    1.90    1.90
   7   3  -3    0.60    1.70
  -7  -3   3    1.70    1.60
  -7  -3   3    0.50    1.40
   6   3  -3    6.00    2.10
   6   3  -3    5.00    1.70
  -6  -3   3    4.10    1.40
  -6  -3   3    4.20    1.50
   5   3  -3   18.10    2.50
   5   3  -3   17.50    2.40
  -5  -3   3   22.40    2.40
  -5  -3   3   16.20    1.30
  -5  -3   3   17.60    2.20
   4   3  -3    2.40    1.20
   4   3  -3    6.20    1.60
  -4  -3   3    1.90    1.10
  -4  -3   3    1.90    1.20
   3   3  -3   22.50    1.80
   3   3  -3   22.00    1.90
   3   3  -3   18.50    1.80
   3   3  -3   20.60    1.80
   3   3  -3   22.60    2.50
  -3  -3   3   20.90    1.80
  -3  -3   3   21.50    1.80
  -3  -3   3   21.40    2.20
  -3  -3   3   22.40    2.10
   2   3  -3    1.30    0.70
   2   3  -3    2.40    0.90
   2   3  -3    3.10    0.90
   2   3  -3   -0.50    0.80
   2   3  -3    2.00    0.90
  -2  -3   3    2.60    1.00
  -2  -3   3    3.80    1.00
  -2  -3   3    2.90    1.00
  -2  -3   3    1.40    0.90
  -2  -3   3    1.00    1.00
   1   3  -3    8.70    1.30
   1   3  -3    9.30    1.30
   1   3  -3   10.50    1.00
   1   3  -3   11.30    1.10
  -1  -3   3   10.50    1.40
  -1  -3   3   10.20    1.60
  -1  -3   3    7.50    1.10
  -1  -3   3   10.50    1.30
  -1  -3   3   10.00    1.40
   0   3  -3   15.60    1.30
   0   3  -3   18.30    1.70
   0   3  -3   15.00    1.40
   0   3  -3   13.80    0.80
   0   3  -3   15.00    1.50
   0  -3   3   14.90    1.20
   0  -3   3   19.10    1.80
   0  -3   3   17.10    1.70
   0  -3   3   18.50    1.50
   0  -3   3   16.00    1.90
  -1   3  -3  187.58    4.90
  -1   3  -3  173.58    3.30
  -1   3  -3  191.18    6.00
  -1   3  -3  194.58    5.20
  -1   3  -3  189.88    4.90
   1  -3   3  181.58    5.10
   1  -3   3  195.68    4.90
   1  -3   3  183.58    4.90
   1  -3   3  188.38    6.20
  -2   3  -3    3.90    0.90
  -2   3  -3    2.90    0.80
  -2   3  -3    3.70    1.00
  -2   3  -3    3.60    0.90
   2  -3   3    2.40    0.80
   2  -3   3    4.20    1.00
   2  -3   3    3.70    0.90
   2  -3   3    4.20    1.40
  -3   3  -3   44.40    3.20
  -3   3  -3   44.00    2.30
  -3   3  -3   46.50    2.40
  -3   3  -3   45.10    2.10
   3  -3   3   46.70    3.30
   3  -3   3   44.00    1.60
   3  -3   3   46.30    2.40
  -4   3  -3   18.30    1.90
  -4   3  -3   18.70    1.80
  -4   3  -3   16.60    1.20
  -4   3  -3   15.10    1.20
   4  -3   3   17.70    1.30
   4  -3   3   18.10    2.10
   4  -3   3   17.90    2.50
  -5   3  -3   26.10    1.30
  -5   3  -3   23.50    2.20
  -5   3  -3   24.00    1.40
  -5   3  -3   24.70    2.00
   5  -3   3   25.50    2.20
   5  -3   3   22.80    1.60
   5  -3   3   22.80    3.10
  -6   3  -3    1.30    1.20
   6  -3   3    1.80    1.30
   6  -3   3   -0.10    0.70
   6  -3   3   -0.60    1.30
  -7   3  -3    0.10    1.10
   7  -3   3   -1.50    1.80
   7  -3   3    1.70    1.30
   7  -3   3    1.20    1.50
  -8   3  -3   -1.40    1.40
   8  -3   3   -0.30    1.70
   8  -3   3    0.90    2.10
   8  -3   3    0.50    1.70
   8   2  -3    4.20    2.20
   8   2  -3    2.10    1.60
  -8  -2   3    1.60    1.80
   7   2  -3    4.10    2.00
   7   2  -3    0.60    1.70
  -7  -2   3    1.20    1.30
  -7  -2   3   -0.70    1.50
   6   2  -3   83.59    4.70
   6   2  -3   89.69    4.80
  -6  -2   3   84.49    2.80
  -6  -2   3   81.49    3.90
  -6  -2   3   88.69    4.40
  -6  -2   3   84.39    3.90
   5   2  -3   10.00    2.00
   5   2  -3    6.10    1.80
   5   2  -3    9.10    1.50
  -5  -2   3   10.60    1.00
  -5  -2   3    7.60    1.50
  -5  -2   3    9.40    1.70
   4   2  -3   -0.60    0.70
   4   2  -3   -0.20    0.70
   4   2  -3   -0.50    0.70
   4   2  -3   -0.30    1.00
  -4  -2   3   -0.10    0.40
  -4  -2   3    0.70    1.10
  -4  -2   3    0.50    0.90
  -4  -2   3    0.30    0.70
  -4  -2   3    0.00    0.90
   3   2  -3    8.60    1.30
   3   2  -3    7.90    1.30
   3   2  -3    8.70    1.30
   3   2  -3    7.50    1.20
   3   2  -3    6.30    1.20
  -3  -2   3    9.00    1.50
  -3  -2   3    6.20    1.10
  -3  -2   3    7.50    1.10
  -3  -2   3    6.30    1.30
   2   2  -3    8.20    1.40
   2   2  -3    8.60    1.20
   2   2  -3    8.90    1.20
   2   2  -3    8.40    1.00
   2   2  -3   10.20    1.30
  -2  -2   3    6.80    1.10
  -2  -2   3    7.50    1.20
  -2  -2   3    8.60    1.40
  -2  -2   3    8.00    1.10
   1   2  -3   99.29    2.70
   1   2  -3   95.69    3.10
   1   2  -3   99.49    3.00
   1   2  -3   98.79    3.30
  -1  -2   3   96.99    3.10
  -1  -2   3   96.39    3.40
  -1  -2   3   94.09    3.00
  -1  -2   3   91.99    3.40
  -1  -2   3   98.09    3.60
   0   2  -3  155.68    4.00
   0   2  -3  165.38    4.40
   0   2  -3  161.98    3.30
   0   2  -3  165.08    4.80
   0   2  -3  164.28    4.00
   0  -2   3  164.48    4.50
   0  -2   3  160.58    4.70
   0  -2   3  158.68    4.00
   0  -2   3  154.78    4.10
   0  -2   3  163.28    4.90
  -1   2  -3  156.98    3.90
  -1   2  -3  151.98    4.10
  -1   2  -3  156.68    4.90
  -1   2  -3  155.68    3.90
   1  -2   3  158.78    4.20
   1  -2   3  153.38    3.90
   1  -2   3  156.48    5.20
   1  -2   3  162.38    4.00
  -2   2  -3    0.40    0.60
  -2   2  -3    3.20    1.00
  -2   2  -3    1.30    0.60
  -2   2  -3    1.30    0.50
   2  -2   3    1.70    0.70
   2  -2   3    1.20    0.60
   2  -2   3    0.50    1.00
   2  -2   3    1.20    0.30
   2  -2   3    2.20    0.60
  -3   2  -3    2.20    0.60
  -3   2  -3    1.80    0.80
  -3   2  -3    1.60    0.50
  -3   2  -3    0.70    0.70
  -3   2  -3    2.40    0.70
   3  -2   3    1.50    0.60
   3  -2   3    1.60    0.50
   3  -2   3    1.90    1.20
   3  -2   3    0.80    0.70
   3  -2   3    1.50    0.70
  -4   2  -3   81.49    2.20
  -4   2  -3   82.79    2.60
  -4   2  -3   82.79    3.30
  -4   2  -3   84.49    4.20
  -4   2  -3   88.89    3.20
   4  -2   3   84.29    3.40
   4  -2   3   82.89    2.80
   4  -2   3   79.19    4.40
  -5   2  -3   66.39    2.30
  -5   2  -3   62.89    3.20
  -5   2  -3   70.09    3.20
   5  -2   3   70.79    4.40
   5  -2   3   64.59    2.70
   5  -2   3   66.39    3.40
  -6   2  -3    0.40    1.10
  -6   2  -3   -0.90    1.10
   6  -2   3    1.30    1.60
   6  -2   3    1.60    1.30
   6  -2   3    1.80    1.20
  -7   2  -3   41.30    3.10
   7  -2   3   38.60    3.10
   7  -2   3   40.30    4.00
   7  -2   3   42.40    4.20
  -8   2  -3   34.20    2.90
   8  -2   3   43.80    4.50
   8  -2   3   38.40    3.70
   8  -2   3   35.10    4.10
   8   1  -3    2.20    1.80
   8   1  -3    3.80    1.70
  -8  -1   3    1.70    1.70
   7   1  -3   79.09    5.00
   7   1  -3   80.49    4.90
  -7  -1   3   71.39    3.60
  -7  -1   3   67.49    4.10
  -7  -1   3   75.89    3.00
   6   1  -3   55.79    3.80
   6   1  -3   59.09    2.90
   6   1  -3   56.79    3.90
  -6  -1   3   54.99    3.00
  -6  -1   3   48.20    3.10
  -6  -1   3   54.99    2.30
  -6  -1   3   51.69    3.40
   5   1  -3   27.10    2.00
   5   1  -3   28.20    2.40
   5   1  -3   32.90    2.90
  -5  -1   3   24.30    2.00
  -5  -1   3   27.00    2.40
  -5  -1   3   33.10    2.70
  -5  -1   3   25.90    1.40
  -5  -1   3   28.00    2.10
   4   1  -3    0.40    0.70
   4   1  -3    1.30    1.20
   4   1  -3    0.50    0.90
   4   1  -3   -0.40    0.70
   4   1  -3   -0.60    0.90
  -4  -1   3    2.30    1.10
  -4  -1   3    0.40    0.80
  -4  -1   3    0.80    0.40
  -4  -1   3    0.40    0.70
  -4  -1   3   -0.60    0.60
  -4  -1   3   -0.30    0.80
   3   1  -3    4.20    1.20
   3   1  -3    2.80    0.90
   3   1  -3    3.70    0.80
   3   1  -3    2.50    0.90
   3   1  -3    5.60    1.20
  -3  -1   3    3.90    1.10
  -3  -1   3    3.30    0.90
  -3  -1   3    2.60    0.90
  -3  -1   3    4.40    1.00
  -3  -1   3    2.40    0.90
   2   1  -3   71.09    2.50
   2   1  -3   70.99    2.90
   2   1  -3   76.59    2.80
   2   1  -3   73.39    2.60
   2   1  -3   69.09    2.70
  -2  -1   3   72.09    2.60
  -2  -1   3   74.09    2.80
  -2  -1   3   74.09    2.60
  -2  -1   3   73.29    3.00
  -2  -1   3   72.99    2.80
   1   1  -3  104.69    2.80
   1   1  -3  101.19    3.10
   1   1  -3   99.79    2.80
   1   1  -3   98.89    2.90
  -1  -1   3  104.39    2.80
  -1  -1   3  103.39    3.00
  -1  -1   3   99.69    3.30
  -1  -1   3  104.89    3.30
  -1  -1   3  102.09    2.80
   0   1  -3  192.78    4.20
   0   1  -3  194.28    4.30
   0   1  -3  195.98    3.90
   0   1  -3  199.48    4.70
   0  -1   3  198.78    4.20
   0  -1   3  200.48    5.20
   0  -1   3  192.48    3.90
   0  -1   3  195.48    4.30
   0  -1   3  199.78    4.70
  -1   1  -3  111.49    3.00
  -1   1  -3  108.79    3.70
  -1   1  -3  113.89    2.80
  -1   1  -3  108.59    2.70
   1  -1   3  112.19    2.80
   1  -1   3  108.89    2.70
   1  -1   3  116.19    2.20
   1  -1   3  110.59    3.80
   1  -1   3  115.69    3.10
  -2   1  -3    4.70    1.00
  -2   1  -3    2.70    0.60
  -2   1  -3    2.60    0.50
  -2   1  -3    3.30    0.70
   2  -1   3    3.70    0.50
   2  -1   3    3.80    0.60
   2  -1   3    2.40    0.80
   2  -1   3    4.90    0.70
   2  -1   3    4.00    0.60
  -3   1  -3   51.19    2.00
  -3   1  -3   49.90    2.10
  -3   1  -3   52.09    2.00
  -3   1  -3   51.59    2.70
  -3   1  -3   50.19    1.50
   3  -1   3   47.70    1.80
   3  -1   3   47.50    2.10
   3  -1   3   49.90    1.50
   3  -1   3   48.30    2.90
   3  -1   3   45.80    1.90
  -4   1  -3  447.76    9.30
  -4   1  -3  449.86    8.90
  -4   1  -3  455.05   11.30
  -4   1  -3  451.55    9.50
   4  -1   3  455.35    9.40
   4  -1   3  452.85    9.70
   4  -1   3  432.66   11.30
  -5   1  -3   -0.30    0.70
  -5   1  -3    0.90    1.00
  -5   1  -3   -0.10    0.80
   5  -1   3   -0.80    1.10
   5  -1   3   -0.70    0.60
   5  -1   3   -1.20    1.00
   5  -1   3   -1.60    0.70
  -6   1  -3    9.00    1.60
  -6   1  -3   11.20    1.80
   6  -1   3    6.80    1.80
   6  -1   3    8.50    2.00
   6  -1   3    7.80    1.50
  -7   1  -3    4.20    1.70
  -7   1  -3    7.10    1.50
   7  -1   3    4.50    1.70
   7  -1   3    7.60    2.10
   7  -1   3    5.90    1.90
  -8   1  -3    7.10    1.90
   8  -1   3    3.20    2.00
   8  -1   3   11.50    2.40
   8  -1   3    2.70    2.00
  -9   1  -3    3.40    1.90
   9  -1   3   -2.60    1.70
   9  -1   3   -0.90    1.70
   8   0  -3    7.80    2.20
   8   0  -3    9.90    2.50
  -8   0   3    8.80    2.10
  -8   0   3   12.90    1.80
   7   0  -3   56.59    4.10
   7   0  -3   67.59    4.50
  -7   0   3   58.59    3.80
  -7   0   3   52.79    3.70
  -7   0   3   56.89    3.00
  -7   0   3   63.09    2.90
   6   0  -3   17.40    2.30
   6   0  -3   19.60    2.50
  -6   0   3   20.80    2.60
  -6   0   3   20.60    1.90
  -6   0   3   17.80    2.20
   5   0  -3    1.20    1.30
   5   0  -3   -0.30    0.90
  -5   0   3    0.40    0.70
  -5   0   3   -0.40    0.70
  -5   0   3    1.60    1.30
  -5   0   3    0.80    1.10
  -5   0   3    0.40    0.80
   4   0  -3    0.10    0.80
   4   0  -3   -0.60    0.50
   4   0  -3    0.00    0.70
   4   0  -3   -0.10    0.80
   4   0  -3    0.20    0.60
  -4   0   3    0.50    0.60
  -4   0   3   -1.90    0.60
  -4   0   3    0.40    0.70
  -4   0   3    0.10    0.70
   3   0  -3  349.87    7.60
   3   0  -3  344.77    8.10
   3   0  -3  332.57    8.00
   3   0  -3  336.07    7.60
   3   0  -3  345.97    7.90
  -3   0   3  338.37    7.60
  -3   0   3  335.27    7.50
  -3   0   3  349.96    8.20
  -3   0   3  338.77    7.90
  -3   0   3  351.46    8.10
   2   0  -3   25.50    1.50
   2   0  -3   26.80    1.60
   2   0  -3   26.30    1.40
   2   0  -3   24.80    1.50
   2   0  -3   24.60    1.40
  -2   0   3   24.60    1.50
  -2   0   3   24.90    1.60
  -2   0   3   23.50    1.60
  -2   0   3   23.70    1.50
  -2   0   3   24.50    1.40
   1   0  -3  686.53   12.70
   1   0  -3  673.13   12.30
   1   0  -3  679.63   12.90
   1   0  -3  681.03   12.10
  -1   0   3  681.83   13.10
  -1   0   3  686.33   12.90
  -1   0   3  662.73   12.30
  -1   0   3  670.63   12.60
  -1   0   3  673.93   12.00
   0   0  -3  462.35    8.10
   0   0  -3  449.26    8.90
   0   0  -3  459.65    8.00
   0   0  -3  439.66    8.50
   0   0   3  448.56    8.10
   0   0   3  451.45    8.90
   0   0   3  448.36    8.50
   0   0   3  459.85    7.90
  -1   0  -3    4.60    0.70
  -1   0  -3    4.40    0.70
  -1   0  -3    3.70    0.40
   1   0   3    2.50    0.50
   1   0   3    1.80    0.70
   1   0   3    3.50    0.40
   1   0   3    3.90    0.40
  -2   0  -3  137.79    3.10
  -2   0  -3  140.09    3.60
  -2   0  -3  135.89    3.00
  -2   0  -3  135.89    4.10
   2   0   3  137.09    3.10
   2   0   3  138.99    3.00
   2   0   3  138.59    3.20
   2   0   3  136.29    4.20
  -3   0  -3    4.30    0.90
  -3   0  -3    4.00    0.80
  -3   0  -3    5.90    0.80
  -3   0  -3    4.50    0.90
   3   0   3    3.90    1.00
   3   0   3    4.90    0.80
   3   0   3    4.60    0.70
   3   0   3    4.50    0.50
  -4   0  -3  256.47    6.10
  -4   0  -3  248.08    5.80
  -4   0  -3  253.37    6.00
  -4   0  -3  256.57    7.10
   4   0   3  260.17    6.30
   4   0   3  260.87    6.30
   4   0   3  257.17    7.70
   4   0   3  254.87    7.20
   4   0   3  251.57    5.70
  -5   0  -3   -0.30    0.70
  -5   0  -3    0.60    0.80
  -5   0  -3    0.50    0.80
   5   0   3    0.10    0.70
   5   0   3    0.10    1.10
   5   0   3    0.90    0.90
   5   0   3    0.10    0.90
  -6   0  -3  156.98    5.90
  -6   0  -3  157.28    5.30
  -6   0  -3  151.48    4.90
   6   0   3  155.58    5.50
   6   0   3  153.18    5.90
   6   0   3  160.48    6.80
  -7   0  -3   87.69    4.10
  -7   0  -3  100.59    4.50
  -7   0  -3   93.49    4.20
   7   0   3   95.49    4.90
   7   0   3   83.89    5.50
   7   0   3   90.39    4.50
  -8   0  -3    4.10    1.60
  -8   0  -3    6.30    1.80
   8   0   3    4.50    1.80
   8   0   3    2.10    1.90
   8   0   3    3.20    1.90
  -9   0  -3   -0.80    1.30
  -9   0  -3    0.70    1.10
   9   0   3   -2.30    1.60
   9   0   3   -1.30    1.50
   8  -1  -3   20.90    3.30
   8  -1  -3   16.80    2.70
  -8   1   3   18.10    3.00
  -8   1   3   19.90    2.90
   7  -1  -3   -1.80    1.50
   7  -1  -3   -1.70    1.20
  -7   1   3    0.10    1.40
  -7   1   3   -0.30    0.80
  -7   1   3   -2.80    1.20
   6  -1  -3    2.20    1.20
   6  -1  -3    3.60    1.80
  -6   1   3    1.60    0.90
  -6   1   3    3.10    1.10
  -6   1   3    1.80    1.50
  -6   1   3    3.30    1.50
   5  -1  -3    5.70    1.50
   5  -1  -3    4.30    1.20
  -5   1   3    5.80    1.50
  -5   1   3    4.10    1.00
  -5   1   3    4.70    1.20
  -5   1   3    4.60    1.10
   4  -1  -3  110.09    4.30
   4  -1  -3  107.19    3.70
   4  -1  -3  114.29    3.90
   4  -1  -3  116.29    4.10
  -4   1   3  114.09    3.70
  -4   1   3  118.29    4.70
  -4   1   3  114.79    4.20
  -4   1   3  109.79    4.10
  -4   1   3  105.39    3.80
  -4   1   3  109.59    3.90
   3  -1  -3   12.40    1.10
   3  -1  -3   14.60    1.30
   3  -1  -3   14.10    1.30
   3  -1  -3   15.30    1.70
  -3   1   3   12.60    1.10
  -3   1   3   11.50    1.50
  -3   1   3   13.30    1.30
  -3   1   3   13.20    1.30
  -3   1   3   11.60    1.40
   2  -1  -3    9.20    1.00
   2  -1  -3    9.20    0.90
   2  -1  -3    9.80    0.90
   2  -1  -3    9.20    1.20
  -2   1   3   10.40    1.20
  -2   1   3    9.80    0.80
  -2   1   3   10.20    0.90
  -2   1   3   12.00    1.20
  -2   1   3   13.50    1.20
   1  -1  -3   87.49    2.60
   1  -1  -3   86.29    2.30
   1  -1  -3   87.19    2.70
  -1   1   3   88.39    2.50
  -1   1   3   91.79    2.20
  -1   1   3   83.39    2.30
  -1   1   3   88.89    2.70
   0  -1  -3   49.60    1.40
   0  -1  -3   47.90    1.80
   0   1   3   49.50    1.20
   0   1   3   48.20    1.80
   0   1   3   48.10    1.30
  -1  -1  -3  157.08    3.50
  -1  -1  -3  154.58    3.90
  -2  -1  -3  168.48    4.00
  -2  -1  -3  174.38    4.40
  -2  -1  -3  168.08    3.30
   2   1   3  167.18    3.40
   2   1   3  175.28    4.50
   2   1   3  164.08    4.90
   2   1   3  164.88    3.30
  -3  -1  -3   82.99    2.50
  -3  -1  -3   83.99    2.90
  -3  -1  -3   79.49    2.30
  -3  -1  -3   83.79    2.90
  -3  -1  -3   82.89    3.00
   3   1   3   84.09    3.70
   3   1   3   86.39    3.10
   3   1   3   82.39    2.50
   3   1   3   85.89    2.30
  -4  -1  -3   86.49    3.30
  -4  -1  -3   85.79    2.80
  -4  -1  -3   83.29    2.90
  -4  -1  -3   91.19    3.30
   4   1   3   85.19    3.30
   4   1   3   82.89    3.00
   4   1   3   88.69    4.30
   4   1   3   84.39    2.20
   4   1   3   85.39    2.70
  -5  -1  -3   86.29    3.20
  -5  -1  -3   84.99    3.50
  -5  -1  -3   84.19    3.60
  -5  -1  -3   90.39    3.50
   5   1   3   88.29    3.70
   5   1   3   87.79    3.50
   5   1   3   93.19    3.70
   5   1   3   87.79    4.70
   5   1   3   83.69    2.00
  -6  -1  -3  166.08    5.40
  -6  -1  -3  164.48    5.40
  -6  -1  -3  160.08    5.60
  -6  -1  -3  170.98    5.20
   6   1   3  165.58    5.50
   6   1   3  164.48    5.70
   6   1   3  161.38    7.10
  -7  -1  -3   22.90    2.60
  -7  -1  -3   25.00    2.50
  -7  -1  -3   19.20    2.40
  -7  -1  -3   20.20    2.30
   7   1   3   18.10    3.00
   7   1   3   20.20    2.50
   7   1   3   22.20    2.50
  -8  -1  -3    1.20    1.10
  -8  -1  -3    0.70    1.20
   8   1   3    0.90    1.30
   8   1   3    1.30    1.40
   8   1   3    1.00    1.30
  -9  -1  -3   -0.90    1.30
  -9  -1  -3    2.40    1.70
   9   1   3   -0.10    2.00
   8  -2  -3    1.40    1.30
   8  -2  -3    3.10    2.20
  -8   2   3   -1.60    1.60
  -8   2   3    2.50    1.90
   7  -2  -3   -0.50    1.10
   7  -2  -3    1.20    1.70
  -7   2   3   -2.20    0.80
  -7   2   3   -0.10    0.80
  -7   2   3   -2.70    1.20
   6  -2  -3    2.20    1.70
   6  -2  -3    4.00    1.20
  -6   2   3    5.30    1.70
  -6   2   3    4.10    1.40
  -6   2   3    3.30    1.00
   5  -2  -3   19.10    2.40
   5  -2  -3   18.60    1.90
  -5   2   3   18.10    1.60
  -5   2   3   21.50    1.90
  -5   2   3   18.00    2.20
   4  -2  -3   19.10    1.70
   4  -2  -3   22.80    1.60
   4  -2  -3   25.90    2.40
   4  -2  -3   23.50    2.00
  -4   2   3   21.90    2.50
  -4   2   3   23.80    2.10
  -4   2   3   24.50    1.90
  -4   2   3   21.70    1.80
  -4   2   3   24.90    2.10
   3  -2  -3   87.79    3.10
   3  -2  -3   79.89    3.30
   3  -2  -3   88.69    3.40
   3  -2  -3   84.39    2.50
  -3   2   3   92.79    3.40
  -3   2   3   87.79    3.40
  -3   2   3   85.89    3.90
  -3   2   3   86.49    3.10
   2  -2  -3   37.40    1.90
   2  -2  -3   33.70    1.80
   2  -2  -3   35.40    1.50
   2  -2  -3   36.50    1.70
  -2   2   3   34.90    1.70
  -2   2   3   37.80    1.90
  -2   2   3   34.60    1.80
   1  -2  -3  101.69    3.20
   1  -2  -3  100.29    2.70
   1  -2  -3  101.79    2.90
   1  -2  -3  101.49    2.80
  -1   2   3  106.99    3.30
  -1   2   3  103.79    2.70
  -1   2   3  102.19    2.80
   0  -2  -3   19.00    1.20
   0  -2  -3   21.80    1.00
   0  -2  -3   20.70    0.90
   0  -2  -3   20.80    1.20
   0   2   3   20.10    0.90
   0   2   3   18.70    1.30
   0   2   3   18.90    1.10
   0   2   3   18.50    0.80
  -1  -2  -3  570.14   10.90
  -1  -2  -3  564.84   10.20
  -1  -2  -3  570.74    9.80
   1   2   3  568.14    9.80
   1   2   3  588.34   11.90
   1   2   3  572.34    9.80
  -2  -2  -3   40.80    1.30
  -2  -2  -3   39.10    1.80
  -2  -2  -3   40.20    2.00
  -2  -2  -3   41.60    2.30
   2   2   3   39.30    2.30
   2   2   3   40.10    1.40
   2   2   3   38.80    1.30
  -3  -2  -3   17.40    1.30
  -3  -2  -3   17.50    1.10
  -3  -2  -3   19.90    1.50
  -3  -2  -3   19.90    1.90
   3   2   3   16.90    1.30
   3   2   3   20.00    1.90
   3   2   3   16.90    1.00
   3   2   3   17.70    1.10
  -4  -2  -3   10.00    1.20
  -4  -2  -3   10.00    1.30
  -4  -2  -3   11.60    1.50
   4   2   3   11.10    1.20
   4   2   3   11.60    1.10
   4   2   3   12.10    1.10
   4   2   3   11.20    1.20
   4   2   3   10.00    1.60
  -5  -2  -3  133.89    4.10
  -5  -2  -3  127.99    4.40
  -5  -2  -3  138.89    4.20
  -5  -2  -3  138.09    4.50
   5   2   3  138.19    3.60
   5   2   3  142.19    4.50
   5   2   3  138.99    4.30
   5   2   3  140.09    6.00
  -6  -2  -3  194.18    5.60
  -6  -2  -3  184.58    5.40
  -6  -2  -3  184.88    5.90
  -6  -2  -3  182.08    5.70
   6   2   3  189.28    4.40
   6   2   3  191.38    7.70
   6   2   3  184.58    5.50
   6   2   3  181.38    5.80
  -7  -2  -3   89.19    4.30
  -7  -2  -3  101.69    4.30
   7   2   3   95.99    5.70
   7   2   3   93.99    4.40
   7   2   3   94.69    4.00
  -8  -2  -3    6.60    1.70
  -8  -2  -3   13.10    2.10
   8   2   3    6.10    2.30
  -9  -2  -3    0.00    1.30
  -9  -2  -3    2.00    1.50
   9   2   3    0.80    2.20
   8  -3  -3    6.20    2.10
  -8   3   3    6.10    1.90
  -8   3   3    6.40    2.00
   7  -3  -3    4.90    1.40
   7  -3  -3    4.50    2.10
  -7   3   3    4.40    2.00
  -7   3   3    4.60    1.10
  -7   3   3    6.40    1.90
   6  -3  -3    3.60    1.20
   6  -3  -3    8.10    2.30
  -6   3   3    5.80    1.80
  -6   3   3    6.90    1.60
  -6   3   3    3.80    1.10
   5  -3  -3    5.80    1.10
   5  -3  -3    7.20    1.70
  -5   3   3    7.70    1.50
  -5   3   3    8.30    1.30
  -5   3   3    6.40    1.70
   4  -3  -3   10.60    1.20
   4  -3  -3   13.10    2.00
   4  -3  -3   12.10    1.50
  -4   3   3   11.50    1.70
  -4   3   3   11.90    1.70
   3  -3  -3    2.90    0.80
   3  -3  -3    2.80    1.00
   3  -3  -3    2.10    0.40
   3  -3  -3    2.80    0.90
  -3   3   3    2.60    0.80
  -3   3   3    1.50    0.70
  -3   3   3    3.20    1.10
  -3   3   3    3.20    0.90
   2  -3  -3  120.09    3.50
   2  -3  -3  117.59    3.10
   2  -3  -3  122.69    3.90
   2  -3  -3  118.09    3.90
  -2   3   3  116.59    4.00
  -2   3   3  114.89    3.50
  -2   3   3  121.99    3.70
  -2   3   3  119.19    4.50
   1  -3  -3  226.38    5.10
   1  -3  -3  232.48    5.90
   1  -3  -3  229.48    5.10
   1  -3  -3  220.58    5.40
  -1   3   3  221.28    5.10
  -1   3   3  226.08    5.80
  -1   3   3  229.78    5.30
  -1   3   3  230.88    6.40
   0  -3  -3    0.90    0.50
   0  -3  -3    0.80    0.40
   0  -3  -3    1.10    0.60
   0  -3  -3    0.00    0.50
   0   3   3    1.20    0.50
   0   3   3    0.60    0.50
   0   3   3    0.70    0.70
   0   3   3    1.30    0.50
  -1  -3  -3    0.00    0.70
  -1  -3  -3    1.30    0.50
  -1  -3  -3    1.20    0.60
  -1  -3  -3    1.00    0.40
  -1  -3  -3    0.80    0.60
   1   3   3    1.50    0.50
   1   3   3    1.80    0.60
   1   3   3    1.60    0.40
  -2  -3  -3   37.10    1.80
  -2  -3  -3   37.50    1.60
  -2  -3  -3   33.00    2.20
  -2  -3  -3   36.30    1.50
   2   3   3   36.20    1.40
   2   3   3   36.10    1.50
   2   3   3   36.70    2.40
  -3  -3  -3  597.44   14.10
  -3  -3  -3  627.64   11.50
  -3  -3  -3  604.94   11.80
  -3  -3  -3  610.04   11.80
   3   3   3  625.74   11.80
   3   3   3  634.34   11.50
   3   3   3  608.64   14.30
   3   3   3  612.04   11.60
  -4  -3  -3    7.40    1.20
  -4  -3  -3    3.00    0.90
  -4  -3  -3    6.50    1.10
   4   3   3    4.30    0.60
   4   3   3    5.70    1.50
   4   3   3    6.60    1.10
   4   3   3    6.30    1.10
   4   3   3    5.60    1.00
  -5  -3  -3   67.99    2.90
  -5  -3  -3   68.99    3.20
  -5  -3  -3   72.09    3.30
   5   3   3   68.59    2.80
   5   3   3   68.79    4.50
   5   3   3   67.09    3.10
   5   3   3   68.29    2.20
  -6  -3  -3    0.40    1.10
  -6  -3  -3    0.70    1.10
  -6  -3  -3    0.30    1.10
   6   3   3    0.80    0.70
   6   3   3   -1.70    0.80
   6   3   3    1.70    1.60
  -7  -3  -3   37.10    2.80
  -7  -3  -3   26.10    2.60
   7   3   3   31.50    2.70
   7   3   3   33.40    3.60
  -8  -3  -3    7.60    1.80
  -8  -3  -3    7.00    1.80
   8   3   3    4.90    2.40
   7  -4  -3   13.30    2.60
  -7   4   3   25.30    3.10
  -7   4   3   13.80    2.50
   6  -4  -3   22.50    2.10
   6  -4  -3   23.00    3.10
  -6   4   3   22.50    2.80
  -6   4   3   23.40    2.80
  -6   4   3   26.50    2.20
   5  -4  -3    0.80    1.20
   5  -4  -3    1.40    0.70
  -5   4   3    1.90    1.30
  -5   4   3    0.80    1.00
   4  -4  -3   20.80    1.30
   4  -4  -3   17.90    2.30
  -4   4   3   23.50    2.20
  -4   4   3   22.90    2.30
   3  -4  -3  100.69    4.00
   3  -4  -3  108.89    3.90
   3  -4  -3  102.69    2.30
   3  -4  -3   98.09    2.40
   3  -4  -3   98.99    4.00
  -3   4   3   99.99    3.70
  -3   4   3  111.19    4.10
   2  -4  -3  143.09    3.00
   2  -4  -3  155.48    4.90
   2  -4  -3  152.68    4.90
   2  -4  -3  145.89    4.30
  -2   4   3  140.59    4.30
  -2   4   3  152.08    5.80
  -2   4   3  149.59    4.80
  -2   4   3  154.68    4.60
   1  -4  -3   58.79    2.60
   1  -4  -3   58.39    2.40
   1  -4  -3   58.39    1.90
  -1   4   3   63.39    2.90
  -1   4   3   53.69    3.10
  -1   4   3   58.99    2.40
  -1   4   3   60.59    2.50
   0  -4  -3    3.60    0.80
   0  -4  -3    3.20    0.80
   0  -4  -3    3.20    0.70
   0   4   3    4.60    0.80
   0   4   3    4.60    0.80
   0   4   3    3.50    0.70
   0   4   3    2.10    0.90
   0   4   3    3.20    1.00
  -1  -4  -3   86.99    2.80
  -1  -4  -3   85.99    2.80
  -1  -4  -3   91.19    3.50
   1   4   3   94.19    2.80
   1   4   3   92.89    2.80
   1   4   3   89.59    3.20
   1   4   3   91.39    3.50
  -2  -4  -3  338.47    7.20
  -2  -4  -3  336.67    7.50
  -2  -4  -3  342.87    8.90
  -2  -4  -3  338.47    7.40
   2   4   3  337.57    7.10
   2   4   3  346.27    7.40
   2   4   3  342.57    7.10
   2   4   3  333.77    8.90
  -3  -4  -3   15.40    1.40
  -3  -4  -3   21.40    1.70
  -3  -4  -3   14.50    1.90
  -3  -4  -3   17.60    1.60
   3   4   3   16.60    1.70
   3   4   3   18.90    2.20
   3   4   3   18.70    1.40
   3   4   3   16.80    0.80
   3   4   3   18.10    1.30
   3   4   3   16.30    0.80
  -4  -4  -3    0.60    0.90
  -4  -4  -3    0.30    0.70
  -4  -4  -3    0.10    0.80
   4   4   3   -0.60    1.10
   4   4   3   -0.10    0.80
   4   4   3   -0.20    0.60
  -5  -4  -3   85.69    3.50
  -5  -4  -3   91.29    3.90
  -5  -4  -3   92.99    3.90
   5   4   3   92.49    5.40
   5   4   3   91.99    3.80
   5   4   3   86.39    3.60
  -6  -4  -3  167.28    5.40
  -6  -4  -3  151.88    5.70
  -6  -4  -3  159.98    5.50
   6   4   3  158.38    5.50
   6   4   3  164.38    7.40
   6   4   3  158.48    5.10
  -7  -4  -3    2.50    1.10
  -7  -4  -3    2.80    1.30
   7   4   3    0.20    1.10
   7   4   3    2.20    1.50
  -8  -4  -3    4.60    1.80
  -8  -4  -3    2.00    1.50
   8   4   3    0.50    1.60
   7  -5  -3    1.70    2.00
  -7   5   3   -1.00    1.60
  -7   5   3    0.50    1.30
   6  -5  -3   -1.70    1.70
  -6   5   3    0.10    1.40
  -6   5   3   -1.20    1.20
   5  -5  -3   28.30    2.90
   5  -5  -3   26.70    1.70
  -5   5   3   31.70    2.90
  -5   5   3   26.30    2.80
   4  -5  -3    1.70    0.50
   4  -5  -3    0.80    0.50
   4  -5  -3    3.00    1.70
  -4   5   3    3.20    1.30
  -4   5   3    1.00    1.20
   3  -5  -3   18.60    1.90
   3  -5  -3   19.10    1.10
   3  -5  -3   19.00    2.40
  -3   5   3   19.10    2.10
  -3   5   3   18.30    2.00
   2  -5  -3   -0.10    0.70
   2  -5  -3    1.40    0.70
   2  -5  -3   -0.40    0.40
  -2   5   3   -1.10    0.50
  -2   5   3    0.80    0.90
   1  -5  -3    4.20    1.00
   1  -5  -3    3.40    1.20
   1  -5  -3    2.10    0.70
  -1   5   3    1.40    1.10
  -1   5   3    1.60    1.00
   0  -5  -3   91.89    3.40
   0  -5  -3  105.99    3.50
   0  -5  -3   97.59    3.60
   0   5   3  100.99    4.20
   0   5   3  100.79    3.40
   0   5   3  101.29    4.10
   0   5   3   98.19    3.40
   0   5   3  102.59    3.40
  -1  -5  -3   51.49    2.50
  -1  -5  -3   55.19    2.90
  -1  -5  -3   51.79    2.40
   1   5   3   52.19    2.70
   1   5   3   54.79    2.90
   1   5   3   49.50    2.30
   1   5   3   54.29    2.30
  -2  -5  -3    6.10    1.30
  -2  -5  -3    7.30    1.20
  -2  -5  -3    7.20    1.20
   2   5   3    8.70    1.50
   2   5   3    6.20    1.00
   2   5   3    5.50    0.90
  -3  -5  -3    0.00    1.00
  -3  -5  -3    2.20    0.90
  -3  -5  -3    2.40    0.90
   3   5   3    1.50    0.40
   3   5   3    1.20    0.70
   3   5   3    1.00    1.10
  -4  -5  -3   36.20    2.30
  -4  -5  -3   36.10    2.40
  -4  -5  -3   31.90    2.50
   4   5   3   38.70    3.30
   4   5   3   38.50    2.30
  -5  -5  -3   24.20    2.40
  -5  -5  -3   26.80    2.40
  -5  -5  -3   26.60    2.30
   5   5   3   26.80    2.30
   5   5   3   23.30    3.20
  -6  -5  -3    9.70    1.90
  -6  -5  -3    9.90    1.80
   6   5   3    9.90    1.90
   6   5   3   11.00    2.70
  -7  -5  -3    1.60    1.40
  -7  -5  -3   -1.60    1.20
   7   5   3    0.10    1.70
  -8  -5  -3    9.00    2.20
  -8  -5  -3    9.30    2.20
   8   5   3    8.20    2.80
   6  -6  -3    4.00    2.20
  -6   6   3    5.30    1.90
  -6   6   3    5.60    1.70
   5  -6  -3    4.30    2.00
  -5   6   3    5.60    1.80
  -5   6   3    3.10    1.70
   4  -6  -3    2.40    0.60
   4  -6  -3    1.50    1.70
  -4   6   3    4.50    1.40
  -4   6   3    3.00    1.50
   3  -6  -3    1.40    0.60
   3  -6  -3    4.00    1.70
  -3   6   3    1.40    1.20
  -3   6   3    1.90    1.20
   2  -6  -3    4.50    1.10
   2  -6  -3    4.40    0.80
   2  -6  -3    5.70    1.60
  -2   6   3    5.20    1.40
  -2   6   3    3.70    1.10
   1  -6  -3    8.70    1.50
   1  -6  -3    6.80    1.10
   1  -6  -3    9.00    1.60
  -1   6   3    7.30    1.30
  -1   6   3    6.10    1.50
   0  -6  -3    0.50    0.80
   0  -6  -3    0.70    0.70
   0  -6  -3    0.30    0.70
   0   6   3   -0.70    1.10
   0   6   3    0.80    0.80
   0   6   3    0.60    1.00
   0   6   3    1.60    0.90
  -1  -6  -3   -0.20    0.90
  -1  -6  -3   -1.10    0.70
  -1  -6  -3    0.50    0.80
   1   6   3    1.00    0.80
   1   6   3    0.80    0.90
   1   6   3    0.60    0.90
  -2  -6  -3    3.40    1.10
  -2  -6  -3    3.50    1.10
   2   6   3    2.80    1.00
   2   6   3    2.00    0.70
   2   6   3    5.20    1.50
  -3  -6  -3   56.89    3.00
  -3  -6  -3   59.39    3.00
   3   6   3   56.69    4.00
   3   6   3   54.19    2.80
   3   6   3   57.19    1.90
  -4  -6  -3    2.20    1.20
  -4  -6  -3    4.70    1.40
  -4  -6  -3    3.80    1.30
   4   6   3    3.60    1.40
   4   6   3    4.20    1.20
  -5  -6  -3   78.59    4.10
  -5  -6  -3   88.69    4.10
   5   6   3   78.09    3.80
   5   6   3   74.89    5.00
  -6  -6  -3    9.40    2.10
  -6  -6  -3   10.10    1.90
   6   6   3    9.60    2.60
  -7  -6  -3    1.60    1.50
  -7  -6  -3   -1.70    1.40
   7   6   3    0.80    2.00
  -6   7   3    0.00    1.60
   5  -7  -3    3.70    2.00
  -5   7   3    2.00    1.60
  -5   7   3    4.70    1.90
   4  -7  -3   10.20    2.40
  -4   7   3    6.80    1.80
  -4   7   3    6.30    1.80
   3  -7  -3   12.40    2.40
  -3   7   3   16.60    2.30
  -3   7   3   15.50    2.10
   2  -7  -3    6.90    1.20
   2  -7  -3   12.10    2.30
  -2   7   3    7.40    1.60
  -2   7   3    7.60    1.70
   1  -7  -3    1.20    0.90
   1  -7  -3   -0.10    0.90
  -1   7   3    0.40    1.10
  -1   7   3    1.60    1.20
   0  -7  -3    4.40    1.30
   0  -7  -3    8.10    1.60
   0  -7  -3    5.30    1.60
   0   7   3    6.20    1.50
   0   7   3    5.20    1.50
  -1  -7  -3    0.00    0.90
  -1  -7  -3    0.90    1.10
   1   7   3    0.90    1.20
   1   7   3    1.70    1.00
   1   7   3    0.10    0.90
  -2  -7  -3    9.10    1.60
  -2  -7  -3    9.40    1.70
   2   7   3    9.40    1.90
   2   7   3    6.80    1.30
   2   7   3   10.10    1.60
  -3  -7  -3    1.90    1.10
  -3  -7  -3    1.40    1.20
   3   7   3   -1.20    1.40
   3   7   3    1.20    1.00
  -4  -7  -3    3.50    1.50
   4   7   3    1.70    1.10
   4   7   3    4.10    2.00
  -5  -7  -3    5.20    1.70
   5   7   3    1.80    1.90
  -6  -7  -3    0.80    1.70
  -6  -7  -3    0.00    1.40
   6   7   3   -0.10    2.10
   4  -8  -3   20.90    3.20
  -4   8   3   18.00    2.60
  -4   8   3   21.90    2.90
   3  -8  -3   10.70    2.50
  -3   8   3    9.90    2.00
  -3   8   3    6.80    1.90
   2  -8  -3    4.70    1.70
  -2   8   3    8.10    2.00
  -2   8   3    5.60    1.70
   1  -8  -3   -0.80    1.40
  -1   8   3   -0.60    1.10
  -1   8   3    1.50    1.10
   0  -8  -3    3.90    1.70
   0   8   3    3.70    1.50
   0   8   3    5.80    1.60
  -1  -8  -3    7.40    1.80
   1   8   3    6.30    1.80
   1   8   3    5.70    1.60
   1   8   3    7.00    1.60
  -2  -8  -3   -0.30    1.30
   2   8   3   -1.00    1.40
   2   8   3   -0.30    1.10
  -3  -8  -3    2.50    1.50
   3   8   3   -0.60    1.70
   3   8   3    2.70    1.30
  -4  -8  -3    1.30    1.50
   4   8   3   -1.70    1.70
  -5  -8  -3    0.90    1.50
   5   8   3    1.40    2.10
   3  -9  -3    1.30    1.90
  -3   9   3   -0.30    1.50
  -3   9   3   -0.40    1.10
   2  -9  -3   -1.40    1.70
  -2   9   3    0.40    1.50
  -2   9   3   -0.10    1.10
   1  -9  -3    1.80    1.50
  -1   9   3    1.30    1.60
  -1   9   3    2.20    1.50
   0  -9  -3   -0.30    1.70
   0   9   3    1.40    1.50
   0   9   3    1.60    1.50
  -1  -9  -3    2.60    1.70
   1   9   3    0.80    1.20
   1   9   3   -1.50    1.10
  -2  -9  -3   -1.00    1.50
   2   9   3    1.70    1.20
   2   9   3   -2.80    1.40
  -3  -9  -3    0.30    1.60
   3   9   3   -0.60    1.80
   3   8  -4    5.40    2.00
  -3  -8   4    5.20    2.10
   2   8  -4    0.60    1.80
  -2  -8   4   -0.60    1.50
   1   8  -4   36.20    3.30
  -1  -8   4   39.80    3.80
  -1  -8   4   26.40    3.50
   0   8  -4   13.10    2.50
   0  -8   4   10.40    2.50
   0  -8   4   10.00    2.70
  -1   8  -4    1.70    1.90
   1  -8   4    1.60    1.70
   1  -8   4    2.40    2.20
  -2   8  -4    3.40    1.80
   2  -8   4    0.60    1.80
   2  -8   4    2.10    2.30
  -3   8  -4   -0.50    1.30
   3  -8   4   -0.20    1.90
   3  -8   4    1.00    2.70
   5   7  -4   -2.60    2.10
   4   7  -4    1.90    2.30
   4   7  -4    6.10    2.10
  -4  -7   4    8.30    2.30
  -4  -7   4    5.80    2.40
   3   7  -4   16.50    2.70
  -3  -7   4   15.00    2.90
  -3  -7   4   19.60    2.90
  -3  -7   4   11.50    2.10
   2   7  -4   11.90    2.40
  -2  -7   4   10.80    2.60
  -2  -7   4   10.90    2.30
  -2  -7   4    8.70    2.10
   1   7  -4   -0.10    1.50
  -1  -7   4    1.00    1.60
  -1  -7   4   -1.10    1.30
  -1  -7   4   -3.80    1.40
   0   7  -4    2.20    1.30
   0  -7   4    2.80    1.30
   0  -7   4    2.00    1.40
   0  -7   4   -0.20    1.70
  -1   7  -4   35.40    3.00
   1  -7   4   41.20    4.30
   1  -7   4   36.60    3.10
  -2   7  -4    7.60    1.90
   2  -7   4    8.10    1.90
   2  -7   4    8.60    2.60
  -3   7  -4   -2.10    1.40
   3  -7   4   -1.30    2.00
   3  -7   4    1.10    1.30
  -4   7  -4    2.40    1.40
   4  -7   4   -1.20    1.60
   4  -7   4    3.10    1.60
  -5   7  -4   -1.80    1.00
   5  -7   4   -3.80    2.40
   6   6  -4    4.00    1.80
   6   6  -4    4.80    2.20
  -6  -6   4    5.20    2.30
  -6  -6   4    6.10    2.00
   5   6  -4    2.20    1.40
   5   6  -4   -4.40    1.70
  -5  -6   4    2.40    1.90
  -5  -6   4   -0.30    1.20
   4   6  -4   -0.10    1.50
   4   6  -4   -3.50    1.60
  -4  -6   4    0.80    1.40
  -4  -6   4   -0.90    1.40
  -4  -6   4    0.70    1.10
   3   6  -4    2.90    1.60
  -3  -6   4    5.20    1.80
  -3  -6   4    1.90    1.80
  -3  -6   4    2.40    1.30
   2   6  -4   69.29    4.00
   2   6  -4   54.49    2.80
  -2  -6   4   58.99    3.90
  -2  -6   4   65.79    3.90
  -2  -6   4   67.19    4.20
   1   6  -4   17.10    1.50
   1   6  -4   16.10    2.40
  -1  -6   4   15.40    2.50
  -1  -6   4   14.70    2.30
  -1  -6   4   17.40    2.40
   0   6  -4    0.80    0.60
   0   6  -4    0.00    1.20
   0  -6   4    2.40    1.40
   0  -6   4    4.30    1.80
   0  -6   4    0.40    1.50
  -1   6  -4   10.20    2.00
  -1   6  -4   11.40    0.80
  -1   6  -4   11.70    0.80
   1  -6   4   11.70    2.10
   1  -6   4   12.60    2.30
   1  -6   4    7.70    1.90
  -2   6  -4    0.80    1.00
   2  -6   4   -0.60    1.80
   2  -6   4    0.00    0.90
  -3   6  -4   13.70    2.20
   3  -6   4   14.00    2.40
   3  -6   4   12.30    2.60
  -4   6  -4   12.50    2.20
   4  -6   4   11.70    3.10
   4  -6   4   13.40    2.50
  -5   6  -4    7.20    2.00
   5  -6   4   11.50    2.60
   5  -6   4    2.10    2.50
  -6   6  -4   -0.80    1.60
   6  -6   4    0.10    1.80
   6  -6   4    0.60    2.00
   6   5  -4    1.00    1.70
   6   5  -4    6.90    2.40
  -6  -5   4    5.10    2.00
  -6  -5   4    2.60    1.90
   5   5  -4   -1.30    1.40
   5   5  -4   -3.50    1.60
  -5  -5   4   -0.70    1.40
  -5  -5   4    0.80    1.00
  -5  -5   4   -0.60    1.30
   4   5  -4   20.60    2.60
   4   5  -4   24.40    3.20
  -4  -5   4   19.90    2.20
  -4  -5   4   19.50    2.50
  -4  -5   4   16.20    2.40
   3   5  -4    2.20    1.70
   3   5  -4    3.10    1.50
  -3  -5   4    2.70    1.50
  -3  -5   4    5.40    1.40
  -3  -5   4    2.10    1.70
   2   5  -4    7.30    1.20
   2   5  -4    8.60    1.60
  -2  -5   4    7.80    2.00
  -2  -5   4    6.40    1.40
  -2  -5   4    4.50    1.60
   1   5  -4    2.00    1.00
   1   5  -4    3.10    0.80
  -1  -5   4    4.30    1.70
  -1  -5   4    6.00    1.30
  -1  -5   4    2.50    1.30
   0   5  -4    5.30    1.30
   0   5  -4    4.70    0.70
   0  -5   4    4.20    1.30
   0  -5   4    6.10    1.30
   0  -5   4    4.00    1.60
  -1   5  -4   77.99    3.60
  -1   5  -4   77.89    1.80
  -1   5  -4   75.59    1.80
   1  -5   4   81.39    4.00
   1  -5   4   80.99    3.80
   1  -5   4   79.59    4.60
  -2   5  -4   35.80    2.70
   2  -5   4   40.80    2.90
   2  -5   4   41.90    2.90
   2  -5   4   41.70    3.60
  -3   5  -4    5.70    1.40
   3  -5   4    5.10    2.10
   3  -5   4    5.80    1.60
  -4   5  -4   19.40    2.30
  -4   5  -4   19.30    2.00
  -4   5  -4   17.40    1.50
   4  -5   4   17.00    2.30
   4  -5   4   16.70    3.10
  -5   5  -4   -1.10    1.10
   5  -5   4   -0.80    1.30
   5  -5   4   -1.20    2.10
  -6   5  -4    7.60    1.80
   6  -5   4    4.40    2.80
   6  -5   4    7.40    1.90
  -7   5  -4    2.70    1.80
   7  -5   4    0.90    1.80
   7  -5   4   -0.10    2.60
   7   4  -4   -0.70    1.50
   7   4  -4    0.30    1.20
  -7  -4   4   -4.60    1.20
  -7  -4   4   -0.80    1.10
   6   4  -4   -1.70    1.70
   6   4  -4    1.10    1.40
  -6  -4   4    1.20    1.20
  -6  -4   4   -1.20    1.40
   5   4  -4   20.50    2.90
   5   4  -4   22.80    2.90
  -5  -4   4   27.00    2.30
  -5  -4   4   25.60    2.90
  -5  -4   4   24.50    2.80
   4   4  -4    1.60    1.70
   4   4  -4    0.70    1.40
  -4  -4   4    1.90    1.50
  -4  -4   4    2.80    1.20
  -4  -4   4    3.20    1.20
   3   4  -4    2.40    1.00
   3   4  -4    4.00    1.70
   3   4  -4    2.70    1.40
  -3  -4   4    3.10    1.30
  -3  -4   4    2.00    1.20
  -3  -4   4    2.80    1.20
   2   4  -4   37.40    2.10
   2   4  -4   40.30    2.70
  -2  -4   4   41.60    2.70
  -2  -4   4   40.00    2.80
  -2  -4   4   38.50    2.80
   1   4  -4  108.79    4.20
   1   4  -4  112.39    4.00
   1   4  -4  111.39    3.20
  -1  -4   4  112.99    4.80
  -1  -4   4  111.99    4.60
  -1  -4   4  116.19    4.20
   0   4  -4   -0.30    0.50
   0   4  -4    0.10    0.70
   0   4  -4    0.40    0.90
   0   4  -4    0.70    0.40
   0  -4   4    1.10    0.90
   0  -4   4    2.40    1.30
   0  -4   4    2.40    1.00
  -1   4  -4    2.10    1.00
  -1   4  -4    0.60    0.90
  -1   4  -4    2.40    0.90
   1  -4   4    3.90    1.20
   1  -4   4    0.90    0.70
   1  -4   4    0.00    1.20
  -2   4  -4   77.29    3.40
  -2   4  -4   74.19    3.20
  -2   4  -4   72.19    3.10
   2  -4   4   69.59    3.20
   2  -4   4   75.19    3.40
   2  -4   4   76.79    4.60
  -3   4  -4    7.20    1.30
  -3   4  -4    4.80    1.10
  -3   4  -4    7.00    1.40
   3  -4   4    5.10    1.90
   3  -4   4    4.20    1.10
   3  -4   4    7.20    1.50
  -4   4  -4   30.20    2.00
  -4   4  -4   32.70    1.90
  -4   4  -4   25.90    2.40
  -4   4  -4   33.40    2.50
   4  -4   4   32.30    3.40
   4  -4   4   33.10    2.70
   4  -4   4   33.80    1.40
  -5   4  -4    3.40    0.90
  -5   4  -4    2.80    1.40
   5  -4   4    1.80    1.40
   5  -4   4    6.70    2.50
  -6   4  -4   -0.20    1.20
   6  -4   4    0.10    1.50
   6  -4   4    0.30    0.90
  -7   4  -4   -0.10    1.40
   7  -4   4   -0.70    1.30
   7  -4   4   -4.20    1.90
   7  -4   4    2.40    1.40
   8   3  -4   -2.80    1.90
   7   3  -4   -1.70    1.40
   7   3  -4   -2.20    1.70
  -7  -3   4   -2.20    1.40
  -7  -3   4    0.40    1.40
   6   3  -4   23.50    3.20
   6   3  -4   28.50    2.90
  -6  -3   4   26.80    2.90
  -6  -3   4   27.00    2.60
   5   3  -4    4.20    1.70
   5   3  -4    0.40    1.20
  -5  -3   4    2.30    1.50
  -5  -3   4    3.20    1.40
   4   3  -4   45.80    3.20
   4   3  -4   42.90    3.60
  -4  -3   4   44.30    2.90
  -4  -3   4   45.90    3.20
   3   3  -4   95.89    3.80
   3   3  -4   95.39    3.60
   3   3  -4   99.89    4.10
   3   3  -4   93.49    4.60
  -3  -3   4  100.69    4.30
  -3  -3   4  100.49    4.00
  -3  -3   4   88.69    3.70
   2   3  -4  193.78    6.40
   2   3  -4  190.78    5.90
   2   3  -4  191.58    5.40
   2   3  -4  205.58    5.10
   2   3  -4  191.08    5.70
  -2  -3   4  191.78    5.80
  -2  -3   4  195.78    6.50
  -2  -3   4  190.98    6.00
  -2  -3   4  188.48    5.40
  -2  -3   4  193.28    6.00
   1   3  -4   10.40    1.30
   1   3  -4    8.30    1.30
   1   3  -4   11.50    1.50
   1   3  -4   12.10    1.10
  -1  -3   4   10.50    1.50
  -1  -3   4   11.60    1.30
  -1  -3   4   12.30    1.80
  -1  -3   4   10.00    1.30
  -1  -3   4   10.30    1.60
   0   3  -4  290.27    7.40
   0   3  -4  290.27    6.80
   0   3  -4  297.07    6.90
   0   3  -4  289.57    5.60
   0  -3   4  281.67    7.30
   0  -3   4  290.47    7.00
   0  -3   4  290.47    7.90
   0  -3   4  282.17    6.80
   0  -3   4  292.47    8.30
  -1   3  -4   38.40    2.10
  -1   3  -4   43.10    2.70
  -1   3  -4   44.90    2.20
  -1   3  -4   45.10    2.30
   1  -3   4   41.40    2.20
   1  -3   4   47.00    3.20
   1  -3   4   42.20    2.10
   1  -3   4   38.80    2.40
  -2   3  -4   68.49    2.80
  -2   3  -4   71.69    2.90
  -2   3  -4   67.09    3.70
  -2   3  -4   70.29    2.80
   2  -3   4   67.69    2.90
   2  -3   4   73.19    3.00
   2  -3   4   65.19    2.70
   2  -3   4   67.59    4.00
  -3   3  -4    3.40    0.90
  -3   3  -4    5.30    1.20
   3  -3   4    4.20    1.00
   3  -3   4    3.30    0.40
   3  -3   4    3.50    1.00
   3  -3   4    2.70    1.50
  -4   3  -4    5.40    1.30
  -4   3  -4    6.40    1.00
  -4   3  -4    4.20    0.80
  -4   3  -4    6.40    1.30
   4  -3   4    4.60    0.70
   4  -3   4    4.60    1.10
   4  -3   4    2.70    1.70
  -5   3  -4    2.90    0.60
  -5   3  -4    2.40    1.20
  -5   3  -4    3.60    0.90
  -5   3  -4    2.60    1.00
   5  -3   4    1.60    1.20
   5  -3   4    1.40    1.60
   5  -3   4    2.90    0.80
  -6   3  -4   15.20    2.10
  -6   3  -4   11.40    2.00
   6  -3   4   10.10    2.10
   6  -3   4   12.40    2.80
  -7   3  -4    1.20    1.40
   7  -3   4   -0.40    1.40
   7  -3   4   -0.10    2.00
   7  -3   4    1.30    1.80
  -8   3  -4    7.60    2.10
   8  -3   4    2.80    2.50
   8  -3   4    7.20    2.40
   8   2  -4   -2.70    1.80
   8   2  -4    1.30    1.50
  -8  -2   4    1.90    1.40
  -8  -2   4   -2.50    1.10
   7   2  -4    4.90    2.10
   7   2  -4    1.90    1.80
  -7  -2   4    1.20    1.50
  -7  -2   4    2.70    1.70
   6   2  -4    1.30    1.70
   6   2  -4   -0.10    1.20
  -6  -2   4   -2.30    1.10
  -6  -2   4    0.00    0.90
  -6  -2   4    0.20    1.20
   5   2  -4    3.00    1.40
   5   2  -4    3.20    1.60
  -5  -2   4    2.50    1.30
  -5  -2   4    0.30    1.00
   4   2  -4   48.30    3.40
   4   2  -4   47.00    3.10
  -4  -2   4   45.90    2.80
  -4  -2   4   47.20    2.80
   3   2  -4    2.30    0.80
   3   2  -4    3.50    1.20
   3   2  -4    2.50    0.90
   3   2  -4    3.00    1.10
   3   2  -4    3.10    0.90
  -3  -2   4    2.60    0.90
  -3  -2   4    1.80    0.90
  -3  -2   4    2.90    1.10
  -3  -2   4    3.20    1.20
  -3  -2   4    2.70    1.00
   2   2  -4  114.49    4.00
   2   2  -4  110.89    3.90
   2   2  -4  116.39    3.70
   2   2  -4  119.39    4.40
   2   2  -4  112.19    3.50
  -2  -2   4  109.79    3.50
  -2  -2   4  116.49    4.00
  -2  -2   4  116.19    4.20
  -2  -2   4  115.59    3.70
  -2  -2   4  115.39    4.40
   1   2  -4   80.39    2.50
   1   2  -4   78.79    2.90
   1   2  -4   78.59    3.10
   1   2  -4   84.49    2.90
  -1  -2   4   79.29    3.40
  -1  -2   4   76.39    3.30
  -1  -2   4   76.19    3.20
  -1  -2   4   77.49    2.40
  -1  -2   4   78.49    2.80
  -1  -2   4   72.09    2.80
   0   2  -4  238.18    4.80
   0   2  -4  237.48    5.60
   0   2  -4  242.38    5.50
   0   2  -4  255.87    6.20
   0  -2   4  241.18    5.60
   0  -2   4  239.18    6.20
   0  -2   4  239.48    6.90
   0  -2   4  247.28    5.70
  -1   2  -4  113.69    3.30
  -1   2  -4  108.89    3.20
  -1   2  -4  108.49    4.20
  -1   2  -4  107.49    3.50
   1  -2   4  112.09    3.30
   1  -2   4  112.39    3.60
   1  -2   4  107.09    4.30
   1  -2   4  105.89    3.20
  -2   2  -4   23.70    1.50
  -2   2  -4   25.90    1.50
  -2   2  -4   27.10    2.20
  -2   2  -4   30.50    1.70
   2  -2   4   25.80    1.60
   2  -2   4   27.50    1.50
   2  -2   4   30.80    2.60
   2  -2   4   28.10    1.60
  -3   2  -4  425.46    8.90
  -3   2  -4  411.16   10.90
  -3   2  -4  424.16    8.60
  -3   2  -4  410.06    8.60
  -3   2  -4  411.96    8.70
   3  -2   4  421.86    8.70
   3  -2   4  399.56   11.00
   3  -2   4  411.46    9.00
   3  -2   4  414.36    8.50
   3  -2   4  420.46    7.90
  -4   2  -4   81.09    3.20
  -4   2  -4   77.69    2.80
  -4   2  -4   75.89    2.30
  -4   2  -4   70.89    2.90
   4  -2   4   70.59    3.10
   4  -2   4   77.59    2.40
   4  -2   4   74.19    2.50
   4  -2   4   79.29    4.40
  -5   2  -4    0.80    0.90
  -5   2  -4    0.20    0.60
  -5   2  -4    1.60    1.00
   5  -2   4    0.00    0.70
   5  -2   4    0.90    1.50
   5  -2   4    1.40    1.10
  -6   2  -4   -1.60    0.90
  -6   2  -4   -1.80    0.90
   6  -2   4    0.70    1.60
   6  -2   4    0.10    1.20
   6  -2   4    1.40    1.00
   6  -2   4    0.40    1.40
  -7   2  -4   45.10    3.20
   7  -2   4   46.50    4.40
   7  -2   4   40.10    3.10
   7  -2   4   41.00    4.20
  -8   2  -4    5.20    1.70
   8  -2   4    4.20    2.40
   8  -2   4    1.30    1.90
   8   1  -4    3.40    2.20
   8   1  -4   -1.90    1.60
  -8  -1   4   -0.30    1.50
   7   1  -4   11.10    2.30
   7   1  -4   10.60    2.30
  -7  -1   4   13.30    2.20
  -7  -1   4   12.10    2.00
   6   1  -4   13.90    2.30
   6   1  -4   12.20    2.40
  -6  -1   4   13.00    1.90
  -6  -1   4   14.30    2.20
  -6  -1   4    8.20    1.70
   5   1  -4   -0.50    1.10
   5   1  -4   -0.20    0.80
   5   1  -4   -1.00    1.20
  -5  -1   4   -2.10    1.00
  -5  -1   4   -0.70    1.00
  -5  -1   4    0.20    0.40
  -5  -1   4   -0.40    1.00
   4   1  -4   20.70    2.30
   4   1  -4   24.00    1.90
   4   1  -4   19.50    2.30
   4   1  -4   23.90    1.90
  -4  -1   4   18.60    1.90
  -4  -1   4   22.10    2.10
  -4  -1   4   19.80    1.90
  -4  -1   4   23.80    2.00
   3   1  -4   71.29    3.40
   3   1  -4   80.39    3.20
   3   1  -4   73.29    3.20
   3   1  -4   76.39    3.10
   3   1  -4   76.69    3.00
  -3  -1   4   75.29    3.00
  -3  -1   4   69.29    3.30
  -3  -1   4   80.09    3.40
  -3  -1   4   72.59    3.20
  -3  -1   4   75.19    3.10
   2   1  -4   28.20    2.00
   2   1  -4   26.50    1.70
   2   1  -4   27.40    1.80
   2   1  -4   30.00    1.70
   2   1  -4   30.70    1.70
  -2  -1   4   29.10    1.70
  -2  -1   4   26.60    1.60
  -2  -1   4   30.20    2.00
  -2  -1   4   30.30    1.90
  -2  -1   4   30.80    1.90
   1   1  -4   73.19    2.60
   1   1  -4   73.69    2.40
   1   1  -4   77.09    2.90
   1   1  -4   75.29    2.40
  -1  -1   4   75.89    2.40
  -1  -1   4   79.19    3.00
  -1  -1   4   75.59    2.70
  -1  -1   4   75.39    2.50
  -1  -1   4   74.49    3.00
   0   1  -4  333.67    6.60
   0   1  -4  335.07    7.40
   0   1  -4  335.47    6.70
   0   1  -4  328.97    6.50
   0  -1   4  331.27    7.50
   0  -1   4  329.77    6.80
   0  -1   4  326.47    6.40
   0  -1   4  334.47    6.60
   0  -1   4  322.57    8.10
  -1   1  -4   61.39    2.30
  -1   1  -4   64.59    2.00
  -1   1  -4   62.09    2.00
   1  -1   4   60.89    2.00
   1  -1   4   65.39    2.00
   1  -1   4   59.09    2.40
   1  -1   4   62.49    1.60
   1  -1   4   62.29    3.00
  -2   1  -4   -0.40    0.40
  -2   1  -4   -0.30    0.60
  -2   1  -4    0.50    0.40
  -2   1  -4    0.10    0.50
  -2   1  -4   -0.80    0.40
   2  -1   4   -0.20    0.40
   2  -1   4    0.20    0.50
   2  -1   4    0.60    0.50
   2  -1   4   -0.20    0.90
  -3   1  -4    5.00    0.70
  -3   1  -4    3.50    0.80
  -3   1  -4    4.50    0.80
  -3   1  -4    3.50    1.00
  -3   1  -4    4.40    0.90
   3  -1   4    4.00    1.20
   3  -1   4    3.40    0.80
   3  -1   4    4.10    0.70
   3  -1   4    5.30    0.80
   3  -1   4    4.40    0.70
  -4   1  -4    1.70    0.80
  -4   1  -4    0.10    0.60
  -4   1  -4   -0.20    0.80
  -4   1  -4    1.40    0.80
   4  -1   4    0.80    1.10
   4  -1   4    0.80    0.40
   4  -1   4    1.70    0.60
   4  -1   4    1.50    0.80
   4  -1   4    1.80    0.70
  -5   1  -4   16.10    1.80
  -5   1  -4   19.50    1.60
  -5   1  -4   17.80    1.70
   5  -1   4   15.50    1.60
   5  -1   4   16.90    2.40
   5  -1   4   18.50    1.80
  -6   1  -4   16.30    2.00
  -6   1  -4   16.30    2.00
   6  -1   4   16.70    2.70
   6  -1   4   19.00    2.30
   6  -1   4   13.50    2.40
  -7   1  -4   18.10    2.20
   7  -1   4   15.70    2.70
   7  -1   4   15.60    2.30
   7  -1   4   11.40    2.50
  -8   1  -4    1.80    1.40
   8  -1   4    1.40    1.90
   8  -1   4   -1.40    1.50
   8   0  -4    3.30    1.90
   8   0  -4    0.10    1.90
  -8   0   4    3.80    2.00
   7   0  -4   14.40    2.40
   7   0  -4   16.90    2.70
  -7   0   4   17.30    2.70
  -7   0   4   17.90    2.10
  -7   0   4   16.50    2.40
   6   0  -4    8.50    1.90
   6   0  -4    6.70    1.70
  -6   0   4    7.50    1.50
  -6   0   4    5.80    1.50
  -6   0   4    6.90    1.70
   5   0  -4   -1.50    1.00
   5   0  -4    1.40    1.40
  -5   0   4    1.40    1.20
  -5   0   4    1.90    1.30
  -5   0   4    0.30    0.80
  -5   0   4    1.50    1.00
  -5   0   4   -0.70    1.00
   4   0  -4    1.40    1.20
   4   0  -4    4.50    1.00
   4   0  -4    4.10    0.90
   4   0  -4    2.20    1.00
  -4   0   4    3.10    1.10
  -4   0   4    4.50    1.30
  -4   0   4    3.90    1.00
  -4   0   4    3.20    1.10
   3   0  -4   98.49    3.50
   3   0  -4   98.99    3.80
   3   0  -4   93.69    3.40
   3   0  -4   98.89    3.50
   3   0  -4   94.99    3.30
  -3   0   4   99.09    3.60
  -3   0   4   97.29    3.60
  -3   0   4   89.99    3.60
  -3   0   4   91.89    3.40
  -3   0   4   98.49    3.40
   2   0  -4   54.89    2.30
   2   0  -4   54.39    2.30
   2   0  -4   51.59    2.30
   2   0  -4   55.19    2.20
   2   0  -4   52.19    2.40
  -2   0   4   55.99    2.40
  -2   0   4   54.19    2.50
  -2   0   4   52.89    2.30
  -2   0   4   58.49    2.30
  -2   0   4   53.39    2.30
   1   0  -4   23.50    1.30
   1   0  -4   25.80    1.30
   1   0  -4   24.10    1.60
   1   0  -4   23.40    1.40
  -1   0   4   24.40    1.50
  -1   0   4   22.40    1.30
  -1   0   4   23.60    1.70
  -1   0   4   24.70    1.30
  -1   0   4   23.00    1.40
   0   0  -4    3.00    0.70
   0   0  -4    2.40    0.50
   0   0  -4    1.90    0.40
   0   0  -4    2.60    0.50
   0   0   4    2.60    0.50
   0   0   4    2.70    0.50
   0   0   4    2.20    0.40
   0   0   4    2.50    0.70
  -1   0  -4  246.98    5.60
  -1   0  -4  247.48    4.60
  -1   0  -4  251.57    5.10
   1   0   4  246.88    6.50
   1   0   4  239.08    5.20
   1   0   4  252.37    4.70
   1   0   4  243.58    5.60
   1   0   4  247.78    4.70
  -2   0  -4  473.95    8.50
  -2   0  -4  482.95    9.60
  -2   0  -4  471.25    9.10
   2   0   4  472.85   11.00
   2   0   4  495.05    9.40
   2   0   4  481.65    8.50
   2   0   4  482.15    8.70
  -3   0  -4  509.35   11.70
  -3   0  -4  516.25   10.40
  -3   0  -4  518.05    9.70
  -3   0  -4  509.25    9.50
   3   0   4  525.45    9.90
   3   0   4  519.05    9.50
   3   0   4  505.45   12.00
   3   0   4  519.75    9.70
  -4   0  -4   99.79    3.20
  -4   0  -4   94.09    3.00
  -4   0  -4   95.49    4.00
  -4   0  -4  100.49    3.50
   4   0   4   95.99    2.30
   4   0   4  100.09    4.30
   4   0   4   97.39    3.00
   4   0   4   97.29    3.20
   4   0   4  100.59    3.30
  -5   0  -4    0.50    0.60
  -5   0  -4    0.50    0.90
  -5   0  -4   -0.60    0.70
  -5   0  -4   -0.20    0.70
   5   0   4    1.10    0.90
   5   0   4    0.80    0.90
   5   0   4   -0.40    0.90
   5   0   4    0.00    0.70
  -6   0  -4   38.90    2.60
  -6   0  -4   41.90    2.60
  -6   0  -4   42.50    3.00
   6   0   4   45.70    3.90
   6   0   4   35.80    2.60
   6   0   4   38.70    3.30
  -7   0  -4   39.40    2.80
  -7   0  -4   33.70    2.70
   7   0   4   36.20    2.90
   7   0   4   35.20    3.50
   7   0   4   33.70    3.60
  -8   0  -4    2.60    1.60
  -8   0  -4    3.20    1.40
   8   0   4    3.70    1.90
   8   0   4    0.90    1.70
  -9   0  -4   -0.50    1.40
   8  -1  -4    7.70    2.20
   8  -1  -4    4.70    2.00
  -8   1   4    4.60    2.20
  -8   1   4    8.50    2.10
   7  -1  -4   43.60    3.40
   7  -1  -4   46.80    4.10
  -7   1   4   44.20    3.90
  -7   1   4   43.00    2.80
  -7   1   4   55.19    3.80
   6  -1  -4    1.10    1.20
   6  -1  -4    1.40    1.30
  -6   1   4    1.00    1.10
  -6   1   4    2.60    1.00
  -6   1   4    2.60    1.20
  -6   1   4    0.80    0.90
   5  -1  -4    1.10    1.40
   5  -1  -4   -0.40    0.90
  -5   1   4    0.60    1.20
  -5   1   4   -0.10    1.00
  -5   1   4    0.00    0.60
  -5   1   4    0.10    0.70
   4  -1  -4   14.90    1.60
   4  -1  -4   15.40    1.60
   4  -1  -4   14.10    2.00
  -4   1   4   12.80    1.40
  -4   1   4   12.20    1.60
  -4   1   4   16.40    1.70
  -4   1   4   16.60    1.70
   3  -1  -4  141.89    4.00
   3  -1  -4  142.69    4.50
   3  -1  -4  134.99    4.00
   3  -1  -4  140.99    4.60
  -3   1   4  138.69    4.20
  -3   1   4  140.19    4.10
  -3   1   4  135.69    4.40
  -3   1   4  146.69    4.60
  -3   1   4  141.19    4.50
   2  -1  -4    1.80    0.90
   2  -1  -4    1.60    0.70
   2  -1  -4    2.10    0.70
  -2   1   4    1.10    0.60
  -2   1   4    2.30    0.80
  -2   1   4    2.50    0.80
  -2   1   4    2.10    0.70
  -2   1   4    1.70    0.50
   1  -1  -4  267.77    5.80
   1  -1  -4  271.17    5.50
   1  -1  -4  270.17    6.20
  -1   1   4  263.87    5.50
  -1   1   4  276.27    5.80
  -1   1   4  268.57    6.40
  -1   1   4  263.87    6.20
  -1   1   4  265.87    5.70
   0  -1  -4  194.68    3.90
   0  -1  -4  198.28    4.80
   0  -1  -4  199.98    4.10
   0   1   4  195.08    3.90
   0   1   4  196.48    3.80
   0   1   4  200.28    4.80
  -1  -1  -4   30.40    1.70
  -1  -1  -4   31.90    1.40
  -2  -1  -4   67.79    2.40
  -2  -1  -4   66.99    1.50
  -2  -1  -4   68.69    1.50
  -2  -1  -4   70.29    2.70
   2   1   4   68.99    2.80
   2   1   4   67.59    1.50
   2   1   4   65.69    1.60
  -3  -1  -4  237.38    6.00
  -3  -1  -4  237.18    4.80
  -3  -1  -4  237.88    5.70
   3   1   4  234.18    4.70
   3   1   4  236.48    5.00
   3   1   4  227.28    7.00
   3   1   4  237.18    6.40
  -4  -1  -4   27.50    1.50
  -4  -1  -4   26.60    2.00
  -4  -1  -4   28.70    2.00
  -4  -1  -4   28.30    1.70
  -4  -1  -4   31.10    2.00
   4   1   4   28.60    2.50
   4   1   4   30.90    1.40
   4   1   4   30.20    1.70
   4   1   4   28.50    2.10
  -5  -1  -4  142.69    4.70
  -5  -1  -4  144.19    4.40
  -5  -1  -4  149.29    4.20
  -5  -1  -4  144.59    5.00
   5   1   4  143.79    3.20
   5   1   4  154.38    4.90
   5   1   4  142.89    3.20
   5   1   4  147.89    6.30
   5   1   4  146.79    4.50
   5   1   4  149.69    5.30
  -6  -1  -4   28.70    2.60
  -6  -1  -4   31.20    2.30
  -6  -1  -4   30.60    2.50
  -6  -1  -4   26.70    2.10
   6   1   4   29.50    2.60
   6   1   4   33.40    2.40
   6   1   4   33.40    3.60
  -7  -1  -4   13.50    2.10
  -7  -1  -4   13.50    2.00
   7   1   4   13.90    2.10
   7   1   4   13.50    2.80
   7   1   4   14.90    2.20
  -8  -1  -4   -0.10    1.20
  -8  -1  -4    0.10    1.40
   8   1   4    1.90    1.40
   8   1   4    3.80    2.00
  -9  -1  -4    1.20    1.60
   9   1   4   -0.10    2.00
   8  -2  -4   24.40    3.70
  -8   2   4   37.30    3.70
  -8   2   4   24.90    3.30
   7  -2  -4   -1.40    1.00
   7  -2  -4   -1.50    1.60
  -7   2   4    0.50    1.00
  -7   2   4   -0.70    1.00
  -7   2   4    4.90    2.00
   6  -2  -4    0.40    1.20
   6  -2  -4   -1.40    0.80
  -6   2   4   -1.40    1.30
  -6   2   4   -0.90    0.80
  -6   2   4   -0.20    0.90
   5  -2  -4   -0.10    1.00
   5  -2  -4   -0.20    0.70
  -5   2   4    0.40    0.80
  -5   2   4   -0.20    1.10
  -5   2   4   -1.00    1.10
   4  -2  -4   35.60    2.10
   4  -2  -4   38.40    2.80
   4  -2  -4   32.70    1.90
  -4   2   4   33.30    2.50
  -4   2   4   35.60    1.80
  -4   2   4   31.80    2.20
  -4   2   4   33.30    2.30
   3  -2  -4   52.39    2.70
   3  -2  -4   53.89    2.90
   3  -2  -4   54.19    1.80
   3  -2  -4   51.39    2.40
  -3   2   4   52.79    2.60
  -3   2   4   51.09    2.60
  -3   2   4   58.49    2.90
  -3   2   4   51.49    1.90
  -3   2   4   51.89    2.40
   2  -2  -4    6.50    0.90
   2  -2  -4    5.30    0.90
   2  -2  -4    6.60    1.20
   2  -2  -4    5.90    0.90
  -2   2   4    6.30    0.50
  -2   2   4    5.10    0.90
  -2   2   4    4.80    1.00
  -2   2   4    6.50    1.00
   1  -2  -4   29.00    1.80
   1  -2  -4   28.30    1.30
   1  -2  -4   30.40    1.60
   1  -2  -4   30.20    1.60
  -1   2   4   28.00    1.70
  -1   2   4   28.60    1.40
  -1   2   4   30.60    1.50
   0  -2  -4  209.98    5.00
   0  -2  -4  213.58    4.60
   0  -2  -4  172.68    3.90
   0  -2  -4  208.48    4.30
   0   2   4  214.08    4.10
   0   2   4  203.38    5.30
   0   2   4  212.58    4.20
  -1  -2  -4   95.49    3.20
  -1  -2  -4   90.09    1.90
  -1  -2  -4   90.39    2.70
  -1  -2  -4   95.09    1.90
   1   2   4   95.49    1.90
   1   2   4   92.49    1.90
   1   2   4   93.89    3.30
  -2  -2  -4  550.14    9.60
  -2  -2  -4  551.24    9.40
  -2  -2  -4  560.14   10.50
  -2  -2  -4  544.85   11.20
   2   2   4  556.34    9.50
   2   2   4  544.15    9.40
   2   2   4  556.64   12.50
  -3  -2  -4  567.64   10.10
  -3  -2  -4  568.24   11.80
  -3  -2  -4  571.34   11.10
   3   2   4  565.14   13.40
   3   2   4  574.54   12.00
   3   2   4  558.54   10.10
   3   2   4  559.64   10.30
  -4  -2  -4    0.60    0.70
  -4  -2  -4    2.00    0.80
  -4  -2  -4    1.20    0.80
   4   2   4    0.90    0.60
   4   2   4    1.20    0.70
   4   2   4    2.10    1.00
   4   2   4    1.30    0.50
  -5  -2  -4  124.99    3.80
  -5  -2  -4  121.69    4.10
  -5  -2  -4  125.99    4.50
   5   2   4  132.09    3.50
   5   2   4  126.59    4.10
   5   2   4  115.49    5.70
   5   2   4  127.99    4.40
  -6  -2  -4  103.79    4.00
  -6  -2  -4  107.79    4.50
  -6  -2  -4  109.09    3.90
  -6  -2  -4  109.09    4.10
   6   2   4   99.89    5.60
   6   2   4   99.79    4.00
   6   2   4  102.99    4.10
   6   2   4  106.69    2.90
  -7  -2  -4   -1.00    1.20
  -7  -2  -4   -2.30    0.80
   7   2   4   -0.30    1.00
   7   2   4    0.00    1.00
   7   2   4    1.60    1.80
  -8  -2  -4    1.90    1.30
  -8  -2  -4   -0.20    0.90
   8   2   4    0.70    1.80
   8  -3  -4    1.20    1.60
  -8   3   4    4.10    2.20
  -8   3   4    4.60    2.00
   7  -3  -4   -0.30    1.80
  -7   3   4   -0.40    1.00
  -7   3   4    0.60    1.30
  -7   3   4    0.40    1.50
   6  -3  -4   10.10    2.40
   6  -3  -4    7.00    1.30
  -6   3   4   11.10    2.20
  -6   3   4   12.60    2.20
  -6   3   4    6.50    1.30
   5  -3  -4   -0.90    0.60
   5  -3  -4   -0.90    1.00
  -5   3   4    1.10    1.30
  -5   3   4   -0.80    1.10
  -5   3   4    0.70    0.80
   4  -3  -4   51.99    3.10
   4  -3  -4   53.49    2.80
   4  -3  -4   51.29    1.90
   4  -3  -4   53.89    1.90
  -4   3   4   54.49    3.20
  -4   3   4   54.49    3.00
   3  -3  -4   17.40    1.20
   3  -3  -4   17.30    2.00
   3  -3  -4   17.60    1.70
   3  -3  -4   15.80    1.40
  -3   3   4   19.00    2.00
  -3   3   4   15.50    1.90
  -3   3   4   15.20    1.40
   2  -3  -4    7.20    1.10
   2  -3  -4    4.80    1.10
   2  -3  -4    4.70    1.00
   2  -3  -4    5.20    0.80
  -2   3   4    2.80    0.80
  -2   3   4    4.80    1.10
  -2   3   4    4.10    0.90
  -2   3   4    2.90    1.30
   1  -3  -4   18.70    1.30
   1  -3  -4   18.40    1.40
   1  -3  -4   16.70    1.20
   1  -3  -4   16.40    1.50
  -1   3   4   15.50    1.20
  -1   3   4   16.80    0.50
  -1   3   4   17.10    1.20
  -1   3   4   17.30    1.60
   0  -3  -4    0.50    0.60
   0  -3  -4    0.40    0.50
   0  -3  -4    0.60    0.50
   0   3   4    0.50    0.40
   0   3   4    0.10    0.30
   0   3   4    0.80    0.70
   0   3   4    1.20    0.50
  -1  -3  -4   44.30    1.60
  -1  -3  -4   49.30    2.20
  -1  -3  -4   44.00    1.50
  -1  -3  -4   42.30    2.20
   1   3   4   43.50    2.20
   1   3   4   43.70    1.50
   1   3   4   43.80    1.50
  -2  -3  -4   53.39    2.60
  -2  -3  -4   55.49    2.80
  -2  -3  -4   50.59    2.40
  -2  -3  -4   56.79    1.80
   2   3   4   54.09    1.70
   2   3   4   53.89    1.70
   2   3   4   56.79    2.90
  -3  -3  -4   17.70    2.00
  -3  -3  -4   18.10    1.30
  -3  -3  -4   19.50    1.70
  -3  -3  -4   17.70    1.10
   3   3   4   21.60    2.30
   3   3   4   17.50    1.10
   3   3   4   16.70    1.20
   3   3   4   17.60    1.10
  -4  -3  -4    0.40    0.70
  -4  -3  -4    0.20    0.60
  -4  -3  -4    0.90    0.90
   4   3   4    0.50    0.50
   4   3   4    1.20    1.20
   4   3   4    0.00    0.50
   4   3   4   -0.70    0.40
  -5  -3  -4  235.68    6.60
  -5  -3  -4  226.58    6.10
  -5  -3  -4  220.68    5.70
   5   3   4  233.68    6.10
   5   3   4  232.08    5.70
   5   3   4  234.08    5.90
   5   3   4  234.38    8.40
  -6  -3  -4   60.09    3.30
  -6  -3  -4   57.09    2.90
  -6  -3  -4   58.49    3.40
   6   3   4   58.59    3.00
   6   3   4   63.19    2.60
   6   3   4   58.49    2.60
   6   3   4   61.49    4.70
  -7  -3  -4    1.40    1.20
  -7  -3  -4   -1.30    0.90
   7   3   4   -1.70    1.40
  -8  -3  -4    2.40    1.50
  -8  -3  -4   -0.60    1.10
   8   3   4    0.10    1.80
   7  -4  -4   -0.20    1.30
  -7   4   4   -0.70    1.30
  -7   4   4   -0.80    0.90
  -7   4   4    0.90    1.30
   6  -4  -4    0.40    1.30
  -6   4   4    2.50    1.10
  -6   4   4    0.90    1.60
  -6   4   4    1.90    1.50
   5  -4  -4    2.60    0.60
   5  -4  -4    5.30    1.90
  -5   4   4    4.40    1.60
  -5   4   4    4.60    1.70
   4  -4  -4    7.00    1.60
   4  -4  -4    7.20    0.90
  -4   4   4   10.40    1.60
  -4   4   4    9.20    1.70
   3  -4  -4    6.60    0.90
   3  -4  -4    6.60    1.30
   3  -4  -4    8.00    1.40
  -3   4   4    3.80    1.10
  -3   4   4    7.10    1.50
   2  -4  -4    0.70    0.60
   2  -4  -4    0.20    0.60
   2  -4  -4    0.50    0.70
   2  -4  -4    0.60    0.80
  -2   4   4    1.10    0.80
  -2   4   4   -2.60    1.00
  -2   4   4    0.60    0.70
  -2   4   4   -0.20    0.80
   1  -4  -4   43.10    2.30
   1  -4  -4   39.70    2.10
   1  -4  -4   41.80    2.00
  -1   4   4   43.40    2.90
  -1   4   4   41.30    2.00
  -1   4   4   43.00    2.60
  -1   4   4   41.00    2.00
   0  -4  -4    6.70    1.20
   0  -4  -4    8.10    1.00
   0  -4  -4    6.00    0.80
   0  -4  -4    6.30    1.00
   0   4   4    5.80    1.20
   0   4   4    7.50    1.30
   0   4   4    8.10    0.90
   0   4   4    9.60    1.00
  -1  -4  -4   42.50    1.80
  -1  -4  -4   41.80    2.30
  -1  -4  -4   43.60    1.90
  -1  -4  -4   44.00    2.30
   1   4   4   43.00    1.80
   1   4   4   43.90    1.80
   1   4   4   45.50    2.40
  -2  -4  -4  315.57    7.30
  -2  -4  -4  312.17    6.50
  -2  -4  -4  314.57    6.70
  -2  -4  -4  303.67    8.30
   2   4   4  316.17    8.50
   2   4   4  307.77    6.50
   2   4   4  313.87    6.50
  -3  -4  -4    2.10    1.10
  -3  -4  -4    1.60    0.70
  -3  -4  -4    2.30    0.80
  -3  -4  -4    2.00    1.00
   3   4   4    2.50    1.00
   3   4   4    1.80    0.70
   3   4   4    1.40    0.60
  -4  -4  -4  104.99    3.40
  -4  -4  -4  102.49    3.60
  -4  -4  -4   95.59    3.80
   4   4   4  105.59    5.10
   4   4   4  100.59    2.70
   4   4   4  110.39    4.00
   4   4   4  112.39    3.50
  -5  -4  -4  110.79    3.90
  -5  -4  -4  109.79    4.40
  -5  -4  -4  113.39    4.20
   5   4   4  113.79    4.00
   5   4   4  126.09    6.20
   5   4   4  105.49    4.10
  -6  -4  -4   56.89    3.10
  -6  -4  -4   47.90    3.20
   6   4   4   48.20    2.80
   6   4   4   54.79    3.00
   6   4   4   58.29    4.50
  -7  -4  -4    9.50    1.70
  -7  -4  -4   11.00    2.20
   7   4   4    7.20    2.40
  -8  -4  -4    2.50    1.60
  -8  -4  -4    0.80    1.30
   8   4   4   -0.30    1.90
   7  -5  -4    4.10    2.30
  -7   5   4   -2.90    1.40
  -7   5   4    0.70    1.20
   6  -5  -4   -0.90    1.10
  -6   5   4    0.50    1.40
  -6   5   4    0.50    1.60
   5  -5  -4    9.00    2.30
  -5   5   4    4.20    1.40
  -5   5   4    5.10    1.80
   4  -5  -4   13.80    2.40
  -4   5   4   11.10    1.90
  -4   5   4   12.20    2.10
   3  -5  -4    1.80    1.00
   3  -5  -4    4.30    1.10
  -3   5   4    2.80    1.10
  -3   5   4    1.80    1.10
   2  -5  -4   11.60    1.70
   2  -5  -4   11.40    1.50
  -2   5   4   10.70    1.80
  -2   5   4   12.60    1.60
   1  -5  -4    2.60    1.10
   1  -5  -4    1.50    0.80
   1  -5  -4    2.30    0.60
  -1   5   4    0.20    0.90
  -1   5   4    2.90    0.90
  -1   5   4    1.70    1.00
   0  -5  -4    3.90    0.80
   0  -5  -4    4.40    1.10
   0  -5  -4    5.20    1.00
   0   5   4    3.30    1.10
   0   5   4    5.80    1.00
   0   5   4    4.80    0.90
   0   5   4    5.20    1.30
   0   5   4    6.40    1.00
  -1  -5  -4    0.90    0.80
  -1  -5  -4    2.50    0.80
  -1  -5  -4    2.90    0.90
   1   5   4    1.50    0.90
   1   5   4    1.70    0.80
   1   5   4    1.70    1.00
   1   5   4    2.70    0.80
  -2  -5  -4  152.18    4.80
  -2  -5  -4  150.48    4.30
  -2  -5  -4  155.08    5.60
  -2  -5  -4  158.08    4.50
   2   5   4  151.98    5.50
   2   5   4  157.78    4.70
   2   5   4  156.08    4.30
   2   5   4  157.28    4.30
  -3  -5  -4    1.10    1.20
  -3  -5  -4    0.70    0.80
  -3  -5  -4    1.10    0.90
   3   5   4    0.20    1.10
   3   5   4    1.20    0.70
   3   5   4    0.40    0.50
  -4  -5  -4  214.58    6.40
  -4  -5  -4  226.78    5.90
  -4  -5  -4  225.28    6.20
   4   5   4  225.38    5.90
   4   5   4  220.38    8.20
  -5  -5  -4   20.00    2.00
  -5  -5  -4   20.10    2.10
  -5  -5  -4   19.30    2.40
   5   5   4   15.90    1.70
   5   5   4   19.60    2.90
  -6  -5  -4   17.00    2.40
  -6  -5  -4   15.70    2.10
   6   5   4   10.70    2.50
  -7  -5  -4    0.80    1.20
  -7  -5  -4   -0.60    1.40
   7   5   4    1.00    1.90
  -8  -5  -4    0.60    1.70
   8   5   4    1.00    2.20
   6  -6  -4    0.50    2.00
  -6   6   4   -2.60    1.30
  -6   6   4   -1.00    1.50
   5  -6  -4    3.50    1.70
  -5   6   4    4.70    1.80
  -5   6   4    5.60    1.80
   4  -6  -4   18.30    2.60
  -4   6   4   19.30    2.50
  -4   6   4   17.40    2.50
   3  -6  -4    4.40    1.70
  -3   6   4    5.80    1.60
  -3   6   4    4.10    1.30
   2  -6  -4    2.00    1.10
   2  -6  -4    0.00    1.10
   2  -6  -4    1.50    0.40
  -2   6   4    0.80    1.00
  -2   6   4    0.10    1.10
   1  -6  -4    0.20    0.80
   1  -6  -4    1.80    0.90
   1  -6  -4    0.00    0.50
  -1   6   4   -0.20    0.90
  -1   6   4    0.00    1.00
   0  -6  -4   29.00    2.30
   0  -6  -4   23.20    1.90
   0  -6  -4   23.60    1.90
   0   6   4   24.60    2.40
   0   6   4   27.20    2.00
   0   6   4   27.90    2.10
   0   6   4   25.40    2.60
  -1  -6  -4    9.20    1.50
  -1  -6  -4    6.00    1.20
  -1  -6  -4    6.10    1.20
   1   6   4    5.00    1.20
   1   6   4    4.50    1.30
   1   6   4    6.50    1.20
  -2  -6  -4    9.10    1.70
  -2  -6  -4    8.50    1.60
  -2  -6  -4    7.80    1.50
   2   6   4    5.60    1.20
   2   6   4   10.90    1.40
   2   6   4    7.10    1.50
  -3  -6  -4   14.20    1.70
  -3  -6  -4   12.40    1.80
   3   6   4   12.50    1.60
   3   6   4   15.00    1.30
   3   6   4   12.40    2.10
  -4  -6  -4   78.79    3.50
  -4  -6  -4   69.89    3.40
  -4  -6  -4   75.49    4.00
   4   6   4   73.49    3.30
   4   6   4   69.69    4.50
  -5  -6  -4   75.19    3.90
  -5  -6  -4   78.49    3.80
   5   6   4   78.49    3.60
   5   6   4   80.29    5.40
  -6  -6  -4    1.10    1.60
  -6  -6  -4    1.10    1.30
   6   6   4    3.10    1.60
  -7  -6  -4    2.30    1.60
  -7  -6  -4    1.60    1.60
   7   6   4    0.40    2.00
   5  -7  -4    0.80    1.40
  -5   7   4   -0.40    1.50
  -5   7   4   -0.80    1.50
   4  -7  -4   -0.70    1.20
  -4   7   4    1.80    1.40
  -4   7   4   -0.40    1.40
   3  -7  -4    4.00    1.80
  -3   7   4    6.50    1.60
  -3   7   4    2.10    1.50
   2  -7  -4    3.90    1.60
  -2   7   4    2.40    1.40
  -2   7   4    3.30    1.40
   1  -7  -4    2.90    0.90
   1  -7  -4    1.20    0.80
   1  -7  -4    1.70    1.40
  -1   7   4    2.40    1.30
   0  -7  -4    3.80    1.10
   0  -7  -4    2.10    1.30
   0  -7  -4    5.00    1.30
   0   7   4    3.30    1.20
   0   7   4    4.30    1.60
   0   7   4    2.70    1.10
  -1  -7  -4   15.00    2.10
  -1  -7  -4    9.60    1.70
  -1  -7  -4   11.30    1.70
   1   7   4   10.80    1.60
   1   7   4    8.00    1.60
   1   7   4   10.30    1.80
  -2  -7  -4    1.30    1.20
  -2  -7  -4    1.10    1.00
   2   7   4   -0.40    0.80
   2   7   4   -0.70    0.80
   2   7   4    0.50    1.40
  -3  -7  -4    0.80    1.10
   3   7   4    0.90    1.00
   3   7   4    1.40    1.50
  -4  -7  -4   21.60    2.40
   4   7   4   18.80    2.90
   4   7   4   21.20    2.10
  -5  -7  -4   26.60    2.70
  -5  -7  -4   30.30    2.80
   5   7   4   34.30    4.10
  -6  -7  -4   -1.40    1.50
  -6  -7  -4   -2.10    1.10
   6   7   4   -0.60    1.40
   4  -8  -4    4.00    1.90
  -4   8   4    2.80    1.70
  -4   8   4    1.10    1.50
   3  -8  -4    0.70    1.30
  -3   8   4    1.20    1.40
  -3   8   4    1.00    1.30
   2  -8  -4    0.00    1.50
  -2   8   4    2.30    1.40
  -2   8   4   -1.20    1.10
   1  -8  -4   -0.50    1.00
  -1   8   4    0.50    1.30
   0  -8  -4    5.70    1.80
   0   8   4    0.90    1.10
   0   8   4    2.40    1.50
  -1  -8  -4   10.80    2.00
   1   8   4    5.50    1.80
   1   8   4    5.40    1.40
   1   8   4    4.10    1.50
  -2  -8  -4    6.00    1.70
   2   8   4    2.50    1.20
   2   8   4    2.30    1.60
  -3  -8  -4    4.30    1.60
   3   8   4    5.90    2.10
  -4  -8  -4   54.49    3.60
   4   8   4   55.89    4.80
  -5  -8  -4    5.40    2.00
   5   8   4    2.20    2.20
   2  -9  -4   -0.10    1.90
  -2   9   4    1.00    1.50
  -2   9   4    1.30    1.60
   1  -9  -4    2.10    1.80
  -1   9   4    3.40    1.60
   0  -9  -4   -1.10    1.40
   0   9   4    0.50    1.40
   0   9   4    0.50    1.30
  -1  -9  -4    4.40    1.90
   1   9   4    4.40    1.70
   1   9   4    2.80    1.50
  -2  -9  -4    2.60    1.70
   2   9   4   -1.00    1.70
  -3  -9  -4    2.90    1.70
   3   9   4    0.40    1.90
   1   8  -5   -2.20    1.00
  -1  -8   5   -0.70    1.90
  -1  -8   5    1.60    1.60
  -1  -8   5    0.10    1.50
   0   8  -5    4.40    1.70
   0  -8   5    7.20    2.70
   0  -8   5    3.00    1.60
  -1   8  -5    0.80    1.60
   1  -8   5    0.20    1.70
   1  -8   5   -0.20    2.10
   2  -8   5    0.60    2.40
   4   7  -5    0.20    1.30
  -4  -7   5   -1.40    1.10
  -4  -7   5   -0.90    2.10
   3   7  -5    5.50    1.70
  -3  -7   5    4.10    2.40
  -3  -7   5    7.10    2.20
   2   7  -5   13.50    2.60
  -2  -7   5   17.00    2.70
  -2  -7   5   13.50    2.50
  -2  -7   5    8.70    2.50
   1   7  -5   14.20    2.60
  -1  -7   5   20.10    3.10
  -1  -7   5   19.90    2.90
  -1  -7   5   14.00    2.80
   0   7  -5    2.70    1.60
   0  -7   5    3.80    1.90
   0  -7   5    2.90    1.80
   0  -7   5    4.90    2.10
  -1   7  -5    3.00    1.70
   1  -7   5    1.20    1.70
   1  -7   5   -0.90    1.80
   1  -7   5    2.60    1.70
  -2   7  -5    1.20    1.60
   2  -7   5   -1.00    1.50
   2  -7   5   -1.10    2.00
  -3   7  -5    1.00    1.50
   3  -7   5   -1.20    1.60
   3  -7   5   -0.60    2.10
  -4   7  -5    2.20    1.80
   4  -7   5    1.40    1.90
   4  -7   5   -0.10    1.70
   5   6  -5   -1.60    2.20
   5   6  -5   -0.70    1.70
  -5  -6   5    0.10    1.60
  -5  -6   5    1.30    2.10
   4   6  -5   22.70    3.00
  -4  -6   5   21.00    2.80
  -4  -6   5   21.60    3.10
   3   6  -5    3.80    1.50
  -3  -6   5    1.00    1.10
  -3  -6   5    2.60    2.00
  -3  -6   5    3.20    1.60
   2   6  -5   42.10    3.20
  -2  -6   5   40.90    3.10
  -2  -6   5   40.80    3.70
  -2  -6   5   33.10    3.30
   1   6  -5   10.30    2.20
  -1  -6   5    8.70    2.00
  -1  -6   5   11.50    2.50
  -1  -6   5   12.80    2.40
   0   6  -5   14.10    1.00
   0   6  -5   17.80    2.40
   0  -6   5   10.70    2.40
   0  -6   5   16.30    2.40
   0  -6   5   11.20    2.10
  -1   6  -5   40.00    2.90
   1  -6   5   30.50    2.90
   1  -6   5   33.10    3.00
   1  -6   5   35.10    3.90
  -2   6  -5    0.70    1.40
   2  -6   5   -0.20    1.40
   2  -6   5    1.70    1.50
   2  -6   5   -2.60    1.00
  -3   6  -5    1.10    1.40
   3  -6   5   -0.40    1.90
   3  -6   5    0.80    1.10
  -4   6  -5    1.50    1.50
   4  -6   5    3.20    1.70
   4  -6   5    2.40    2.30
  -5   6  -5    0.90    1.50
   5  -6   5    2.50    2.00
   5  -6   5    4.10    2.60
   6   5  -5   -0.80    1.50
   6   5  -5    2.10    2.00
  -6  -5   5    3.00    2.10
  -6  -5   5    1.20    1.80
   5   5  -5   21.60    3.20
   5   5  -5   16.40    3.20
  -5  -5   5   18.60    2.80
  -5  -5   5   17.90    2.80
   4   5  -5   27.80    2.90
   4   5  -5   25.70    3.40
  -4  -5   5   35.10    3.20
  -4  -5   5   27.70    3.00
  -4  -5   5   31.20    2.80
   3   5  -5   50.59    3.40
  -3  -5   5   55.09    3.40
  -3  -5   5   58.89    4.20
  -3  -5   5   49.30    3.60
   2   5  -5   33.20    2.70
   2   5  -5   37.10    2.20
  -2  -5   5   35.30    2.70
  -2  -5   5   35.80    3.20
  -2  -5   5   36.60    3.50
   1   5  -5    4.60    0.90
   1   5  -5    6.40    1.50
  -1  -5   5    2.60    1.50
  -1  -5   5    3.00    1.70
  -1  -5   5    5.20    1.30
   0   5  -5   66.59    3.40
   0   5  -5   66.69    2.00
   0  -5   5   74.79    4.20
   0  -5   5   78.49    3.80
   0  -5   5   73.09    4.60
  -1   5  -5   18.30    1.90
   1  -5   5   15.60    2.70
   1  -5   5   15.30    2.20
   1  -5   5   14.10    1.90
  -2   5  -5    3.20    1.30
   2  -5   5    3.90    1.50
   2  -5   5    2.00    1.30
   2  -5   5    1.70    1.90
  -3   5  -5   39.20    2.90
   3  -5   5   45.40    4.50
   3  -5   5   39.80    2.90
   3  -5   5   38.50    2.80
  -4   5  -5    7.50    1.70
  -4   5  -5    6.70    1.30
   4  -5   5    5.40    1.70
   4  -5   5    2.10    2.20
  -5   5  -5    0.40    0.90
   5  -5   5    0.80    1.40
   5  -5   5    2.30    2.00
  -6   5  -5   -1.40    1.20
   6  -5   5   -3.00    1.90
   6  -5   5   -1.40    1.30
   7   4  -5    1.90    2.50
   7   4  -5    7.70    2.30
  -7  -4   5    5.60    1.90
  -7  -4   5    1.60    1.90
   6   4  -5   -1.00    1.20
   6   4  -5   -0.80    1.40
  -6  -4   5    0.50    1.10
  -6  -4   5   -3.00    1.40
   5   4  -5    0.00    1.80
   5   4  -5    0.20    1.50
  -5  -4   5    2.40    1.20
  -5  -4   5    1.10    1.50
  -5  -4   5   -1.20    1.00
   4   4  -5   -0.10    1.10
   4   4  -5   -0.80    1.10
  -4  -4   5   -0.30    1.50
  -4  -4   5   -1.00    1.00
  -4  -4   5   -0.80    0.90
   3   4  -5  214.28    7.70
   3   4  -5  217.28    7.10
  -3  -4   5  214.18    7.30
  -3  -4   5  220.58    7.20
  -3  -4   5  225.38    6.80
   2   4  -5   31.60    2.40
   2   4  -5   32.00    2.00
  -2  -4   5   28.20    2.60
  -2  -4   5   38.10    3.00
  -2  -4   5   37.30    2.70
   1   4  -5   47.60    2.90
   1   4  -5   50.49    2.80
   1   4  -5   46.70    2.00
  -1  -4   5   47.80    3.30
  -1  -4   5   46.30    2.80
  -1  -4   5   50.09    3.40
   0   4  -5    1.60    0.40
   0   4  -5    1.50    0.80
   0   4  -5    1.60    1.00
   0  -4   5    2.10    0.80
   0  -4   5    1.60    1.30
   0  -4   5   -0.60    1.10
  -1   4  -5   12.30    1.70
  -1   4  -5   13.80    1.70
   1  -4   5   11.90    1.70
   1  -4   5    9.90    1.70
   1  -4   5   10.90    2.10
  -2   4  -5  127.99    5.20
  -2   4  -5  128.89    4.50
  -2   4  -5  137.19    4.60
   2  -4   5  132.69    6.20
   2  -4   5  125.59    4.70
   2  -4   5  125.69    4.50
  -3   4  -5   23.20    2.20
  -3   4  -5   21.90    2.00
  -3   4  -5   21.20    2.00
   3  -4   5   20.20    2.10
   3  -4   5   21.90    2.20
   3  -4   5   16.30    2.80
  -4   4  -5   21.20    2.20
  -4   4  -5   19.70    1.80
  -4   4  -5   16.90    2.10
  -4   4  -5   20.30    1.70
   4  -4   5   16.90    3.00
   4  -4   5   21.40    2.30
  -5   4  -5   10.60    1.90
   5  -4   5    8.00    2.30
   5  -4   5    9.30    1.90
  -6   4  -5   13.50    2.20
   6  -4   5    9.00    2.90
   6  -4   5   15.00    2.50
  -7   4  -5   15.00    2.50
   7  -4   5   12.40    3.10
   7   3  -5    3.30    2.00
   7   3  -5   -2.30    1.80
  -7  -3   5    1.10    1.60
  -7  -3   5   -1.90    1.70
   6   3  -5   -1.40    1.70
   6   3  -5   -1.30    1.50
  -6  -3   5   -0.90    1.40
  -6  -3   5    0.40    1.40
   5   3  -5   71.29    4.50
   5   3  -5   73.49    4.50
  -5  -3   5   79.79    4.20
  -5  -3   5   76.49    4.40
   4   3  -5   10.80    2.30
   4   3  -5   10.60    1.90
  -4  -3   5   11.80    1.80
  -4  -3   5   15.30    2.30
   3   3  -5   25.80    2.00
   3   3  -5   26.90    2.90
   3   3  -5   26.90    2.60
  -3  -3   5   32.70    2.30
  -3  -3   5   31.10    2.80
  -3  -3   5   32.50    2.70
   2   3  -5  116.39    4.20
   2   3  -5  113.59    4.30
   2   3  -5  124.29    3.90
  -2  -3   5  116.99    4.20
  -2  -3   5  123.19    4.90
  -2  -3   5  121.89    4.80
   1   3  -5  142.89    4.40
   1   3  -5  138.39    3.70
   1   3  -5  133.09    4.50
  -1  -3   5  139.09    5.10
  -1  -3   5  129.99    4.30
  -1  -3   5  139.49    5.40
   0   3  -5  152.48    3.30
   0   3  -5  147.59    4.90
   0   3  -5  157.88    4.60
   0   3  -5  152.48    4.60
   0  -3   5  149.99    5.10
   0  -3   5  150.28    5.70
   0  -3   5  154.18    4.60
  -1   3  -5   19.80    2.20
  -1   3  -5   18.10    1.60
  -1   3  -5   17.70    1.70
  -1   3  -5   18.70    1.50
   1  -3   5   15.00    2.10
   1  -3   5   16.60    1.60
   1  -3   5   14.20    1.80
  -2   3  -5    1.00    0.80
  -2   3  -5   -0.40    0.70
  -2   3  -5   -0.40    0.60
   2  -3   5    0.50    0.90
   2  -3   5    0.20    0.70
   2  -3   5   -1.00    1.10
  -3   3  -5   65.09    2.90
  -3   3  -5   67.99    3.00
  -3   3  -5   69.29    2.90
   3  -3   5   69.09    3.00
   3  -3   5   72.39    3.20
   3  -3   5   65.39    4.40
  -4   3  -5   12.10    1.40
  -4   3  -5   10.80    1.60
  -4   3  -5   11.10    1.50
  -4   3  -5   10.90    1.60
   4  -3   5   10.00    2.40
   4  -3   5   11.50    1.40
   4  -3   5   12.60    1.90
   4  -3   5   10.10    0.80
  -5   3  -5    4.20    0.80
  -5   3  -5    5.70    1.40
  -5   3  -5    4.70    1.10
  -5   3  -5    4.40    1.30
   5  -3   5    3.40    0.70
   5  -3   5    4.90    1.40
   5  -3   5    3.10    1.70
  -6   3  -5    8.40    1.80
   6  -3   5    5.10    1.60
   6  -3   5    5.80    2.00
  -7   3  -5   -0.10    1.30
   7  -3   5   -0.10    1.40
   7  -3   5    2.30    1.70
   7   2  -5   -1.80    1.50
   7   2  -5    1.50    1.40
  -7  -2   5   -1.00    1.00
  -7  -2   5   -2.20    1.20
   6   2  -5   12.50    2.50
   6   2  -5   11.50    2.40
  -6  -2   5   10.70    2.20
  -6  -2   5   10.90    2.20
   5   2  -5    2.10    1.60
   5   2  -5    0.70    1.50
  -5  -2   5    1.50    1.40
  -5  -2   5    0.00    1.20
   4   2  -5   11.80    2.10
   4   2  -5   10.60    1.80
  -4  -2   5   13.80    2.00
  -4  -2   5   10.10    1.60
  -4  -2   5    9.80    1.80
   3   2  -5   48.30    2.60
   3   2  -5   48.80    3.00
   3   2  -5   51.09    3.10
   3   2  -5   49.99    2.60
  -3  -2   5   50.99    2.60
  -3  -2   5   48.40    3.10
  -3  -2   5   48.80    2.60
   2   2  -5   89.09    3.30
   2   2  -5   95.29    3.90
   2   2  -5   93.99    3.60
   2   2  -5  100.19    3.30
  -2  -2   5   89.79    3.40
  -2  -2   5  102.29    4.30
  -2  -2   5   96.89    3.30
  -2  -2   5   95.09    4.00
  -2  -2   5   93.89    3.70
   1   2  -5   21.00    1.90
   1   2  -5   26.10    1.90
   1   2  -5   24.60    1.70
   1   2  -5   25.50    1.40
  -1  -2   5   21.90    2.00
  -1  -2   5   26.30    2.20
  -1  -2   5   26.90    2.30
  -1  -2   5   25.30    1.40
  -1  -2   5   23.30    1.70
  -1  -2   5   24.40    1.80
   0   2  -5  499.85   11.00
   0   2  -5  512.05   10.20
   0   2  -5  499.35   10.00
   0   2  -5  494.15    9.30
   0  -2   5  497.65    9.30
   0  -2   5  500.75   10.10
   0  -2   5  498.25   11.10
   0  -2   5  527.75   12.40
   0  -2   5  490.35   10.20
  -1   2  -5    0.60    0.70
  -1   2  -5   -0.20    0.50
  -1   2  -5    0.10    0.50
   1  -2   5    0.90    1.10
   1  -2   5   -0.20    0.80
   1  -2   5    0.00    0.50
   1  -2   5    0.20    0.50
  -2   2  -5   41.70    2.20
  -2   2  -5   42.70    2.00
  -2   2  -5   42.00    2.80
  -2   2  -5   45.50    2.10
   2  -2   5   36.90    3.00
   2  -2   5   41.30    2.00
   2  -2   5   43.10    2.10
   2  -2   5   46.50    2.30
  -3   2  -5   32.30    1.90
  -3   2  -5   32.30    1.80
  -3   2  -5   30.90    1.80
  -3   2  -5   30.50    1.90
   3  -2   5   29.30    1.90
   3  -2   5   30.80    1.80
   3  -2   5   32.40    1.10
   3  -2   5   29.70    2.70
   3  -2   5   33.40    1.80
  -4   2  -5    9.00    1.40
  -4   2  -5    9.40    1.40
  -4   2  -5    7.90    1.30
  -4   2  -5    9.30    1.10
   4  -2   5    7.90    1.30
   4  -2   5    6.40    0.80
   4  -2   5    4.40    1.70
   4  -2   5    6.50    1.00
  -5   2  -5   -2.20    0.80
  -5   2  -5   -0.10    0.60
  -5   2  -5   -0.10    1.00
   5  -2   5   -0.60    0.60
   5  -2   5    0.10    0.80
   5  -2   5   -0.20    1.40
  -6   2  -5   -1.20    0.90
  -6   2  -5    0.00    1.20
  -6   2  -5   -0.50    0.70
   6  -2   5   -2.00    0.90
   6  -2   5   -0.30    0.80
   6  -2   5    0.10    1.60
  -7   2  -5    0.80    1.20
   7  -2   5    1.70    1.50
   7  -2   5    0.70    1.60
   7  -2   5   -0.30    1.70
  -8   2  -5    1.40    1.40
   8  -2   5   -1.60    1.60
   8  -2   5   -3.00    1.70
   8   1  -5    2.40    1.60
   8   1  -5   -3.60    1.60
  -8  -1   5   -0.90    1.10
   7   1  -5   -1.00    1.60
   7   1  -5   -0.60    1.70
  -7  -1   5   -0.50    1.30
  -7  -1   5   -1.20    1.40
   6   1  -5    1.20    1.80
   6   1  -5    1.20    1.60
  -6  -1   5    1.70    1.30
  -6  -1   5    3.80    1.70
  -6  -1   5    3.00    1.60
   5   1  -5   71.99    4.10
   5   1  -5   72.49    4.30
  -5  -1   5   75.49    4.00
  -5  -1   5   78.19    3.90
  -5  -1   5   74.19    3.80
   4   1  -5  178.18    6.00
   4   1  -5  173.88    5.90
   4   1  -5  173.88    5.50
  -4  -1   5  176.48    6.20
  -4  -1   5  192.08    6.00
  -4  -1   5  179.88    5.80
  -4  -1   5  183.18    5.70
   3   1  -5    7.50    1.20
   3   1  -5    7.60    1.30
   3   1  -5    7.30    1.50
   3   1  -5    7.20    1.50
   3   1  -5    4.90    1.20
  -3  -1   5    6.50    1.30
  -3  -1   5    6.60    1.20
  -3  -1   5    6.20    1.40
  -3  -1   5    6.60    1.10
   2   1  -5   68.89    2.70
   2   1  -5   70.39    3.00
   2   1  -5   64.49    3.00
   2   1  -5   70.79    2.70
  -2  -1   5   71.49    3.00
  -2  -1   5   64.79    2.70
  -2  -1   5   66.99    3.20
  -2  -1   5   66.99    2.70
  -2  -1   5   64.29    3.00
   1   1  -5 1099.99   20.20
   1   1  -5 1092.09   21.00
   1   1  -5 1104.89   19.90
   1   1  -5 1087.89   19.60
  -1  -1   5 1130.49   20.10
  -1  -1   5 1096.49   20.10
  -1  -1   5 1093.59   21.10
  -1  -1   5 1087.99   21.90
  -1  -1   5 1123.69   19.70
   0   1  -5  168.98    4.10
   0   1  -5  175.88    4.30
   0   1  -5  180.88    5.10
   0   1  -5  171.18    4.00
   0  -1   5  174.28    4.30
   0  -1   5  175.58    4.00
   0  -1   5  173.78    5.60
   0  -1   5  171.68    4.20
   0  -1   5  182.98    5.10
  -1   1  -5   68.49    2.20
  -1   1  -5   69.59    2.20
  -1   1  -5   64.29    2.70
   1  -1   5   68.09    2.20
   1  -1   5   66.99    3.50
   1  -1   5   66.29    2.80
   1  -1   5   71.79    1.90
   1  -1   5   69.79    2.20
  -2   1  -5  246.58    5.30
  -2   1  -5  241.08    5.30
  -2   1  -5  244.68    7.20
  -2   1  -5  245.28    5.90
  -2   1  -5  245.38    6.00
   2  -1   5  243.28    5.90
   2  -1   5  246.78    7.50
   2  -1   5  242.08    5.40
   2  -1   5  242.68    5.30
  -3   1  -5    1.50    0.60
  -3   1  -5    1.40    0.60
  -3   1  -5    0.60    0.60
  -3   1  -5    0.70    0.90
  -3   1  -5   -0.30    0.60
   3  -1   5    0.80    0.60
   3  -1   5    1.10    0.60
   3  -1   5    0.40    0.50
   3  -1   5   -1.30    0.90
  -4   1  -5   66.29    2.60
  -4   1  -5   65.09    2.90
  -4   1  -5   65.49    2.70
   4  -1   5   68.69    2.80
   4  -1   5   64.99    2.50
   4  -1   5   62.09    2.50
   4  -1   5   72.29    4.10
   4  -1   5   66.39    2.20
  -5   1  -5    0.10    0.80
  -5   1  -5   -0.90    0.70
  -5   1  -5   -0.30    0.70
   5  -1   5    0.90    1.30
   5  -1   5   -1.10    0.60
   5  -1   5    0.10    0.80
  -6   1  -5    4.70    1.30
  -6   1  -5    3.90    1.40
  -6   1  -5    5.10    1.20
   6  -1   5    3.20    1.70
   6  -1   5    6.30    1.50
   6  -1   5    2.80    1.40
   6  -1   5    4.40    1.30
  -7   1  -5    3.70    1.40
   7  -1   5    3.60    1.90
   7  -1   5    2.90    1.90
   7  -1   5    5.00    1.60
  -8   1  -5    6.20    1.70
  -8   1  -5    8.30    2.20
   8  -1   5    1.10    2.00
   8  -1   5    7.30    2.50
   8   0  -5    1.30    1.50
   8   0  -5   -2.30    1.50
  -8   0   5   -0.50    1.70
  -8   0   5   -1.30    1.10
   7   0  -5   11.10    2.30
   7   0  -5    7.10    2.00
  -7   0   5    9.40    2.30
  -7   0   5   10.70    2.10
  -7   0   5   10.30    1.90
   6   0  -5    0.40    1.40
   6   0  -5   -0.70    1.20
  -6   0   5    1.80    1.30
  -6   0   5    0.10    1.50
  -6   0   5    0.70    1.00
   5   0  -5    5.90    1.50
   5   0  -5    7.30    1.70
  -5   0   5    6.70    1.70
  -5   0   5    4.70    1.50
  -5   0   5    9.70    1.70
  -5   0   5    6.60    1.50
   4   0  -5    6.70    1.30
   4   0  -5    3.50    1.20
   4   0  -5    4.40    1.50
  -4   0   5    4.20    1.20
  -4   0   5    4.30    1.10
  -4   0   5    5.70    1.20
  -4   0   5    4.20    1.20
   3   0  -5   67.59    3.00
   3   0  -5   66.19    2.80
   3   0  -5   60.69    3.10
   3   0  -5   61.99    3.00
   3   0  -5   66.29    3.00
  -3   0   5   68.39    3.10
  -3   0   5   65.59    3.00
  -3   0   5   64.09    2.80
  -3   0   5   64.49    3.10
  -3   0   5   64.49    3.00
   2   0  -5  159.58    4.40
   2   0  -5  172.88    4.80
   2   0  -5  165.28    5.00
   2   0  -5  159.98    4.70
  -2   0   5  156.98    5.00
  -2   0   5  165.48    4.80
  -2   0   5  164.98    4.70
  -2   0   5  161.28    4.40
  -2   0   5  164.18    4.90
   1   0  -5    2.50    0.70
   1   0  -5    3.20    0.70
   1   0  -5    2.60    0.80
   1   0  -5    2.50    0.80
  -1   0   5    2.70    1.00
  -1   0   5    1.70    0.70
  -1   0   5    2.30    0.60
  -1   0   5    3.70    0.80
  -1   0   5    2.40    0.60
   0   0  -5    6.40    0.70
   0   0  -5    5.70    0.80
   0   0  -5    6.20    0.70
   0   0  -5    4.10    0.90
   0   0  -5    6.40    0.90
   0   0   5    6.70    1.00
   0   0   5    6.80    0.80
   0   0   5    7.40    0.70
   0   0   5    5.60    0.80
  -1   0  -5 1117.09   19.80
  -1   0  -5 1100.69   18.40
  -1   0  -5 1104.69   18.50
   1   0   5 1078.59   22.20
   1   0   5 1097.89   20.40
   1   0   5 1074.29   19.90
   1   0   5 1111.39   18.60
   1   0   5 1111.59   18.60
  -2   0  -5  366.86    6.80
  -2   0  -5  368.66    7.60
  -2   0  -5  371.86    8.20
   2   0   5  372.06    6.80
   2   0   5  367.56    7.90
   2   0   5  368.96    9.40
   2   0   5  370.66    6.90
  -3   0  -5   30.70    1.40
  -3   0  -5   31.80    2.30
  -3   0  -5   27.80    1.80
  -3   0  -5   31.60    1.30
  -3   0  -5   26.90    1.80
   3   0   5   33.30    1.50
   3   0   5   31.80    1.30
   3   0   5   30.60    2.50
   3   0   5   29.80    1.50
  -4   0  -5   11.40    1.10
  -4   0  -5   10.40    1.60
  -4   0  -5   10.10    1.10
  -4   0  -5   10.80    1.50
  -4   0  -5   10.40    1.60
   4   0   5    9.40    1.20
   4   0   5   10.00    1.00
   4   0   5   11.70    1.00
   4   0   5   10.80    1.70
  -5   0  -5   10.30    1.60
  -5   0  -5   12.00    1.70
  -5   0  -5    9.00    1.70
  -5   0  -5    9.10    1.30
  -5   0  -5    8.80    1.30
   5   0   5    7.30    1.70
   5   0   5   11.30    1.50
   5   0   5    8.10    0.60
   5   0   5   11.20    2.00
   5   0   5    9.40    1.40
  -6   0  -5   54.09    2.80
  -6   0  -5   55.29    3.20
  -6   0  -5   59.19    2.90
   6   0   5   54.19    4.20
   6   0   5   52.89    3.80
   6   0   5   55.69    3.10
  -7   0  -5   13.50    2.00
  -7   0  -5   11.20    2.00
   7   0   5   13.20    2.00
   7   0   5   13.80    2.80
   7   0   5   14.70    2.60
  -8   0  -5    4.70    1.90
  -8   0  -5    4.60    1.60
   8   0   5    3.70    1.80
   8   0   5   -0.10    1.60
   8  -1  -5    6.30    2.10
  -8   1   5    5.50    1.80
  -8   1   5    4.40    2.30
   7  -1  -5   -1.80    1.10
   7  -1  -5    1.10    1.80
  -7   1   5    0.60    1.80
  -7   1   5   -1.40    0.90
  -7   1   5    1.00    1.60
   6  -1  -5   34.50    3.20
   6  -1  -5   39.40    2.90
  -6   1   5   35.90    3.10
  -6   1   5   42.20    3.00
  -6   1   5   42.10    3.00
  -6   1   5   37.30    2.90
   5  -1  -5   69.89    3.40
   5  -1  -5   54.49    3.50
  -5   1   5   65.69    3.40
  -5   1   5   64.39    3.80
  -5   1   5   69.39    3.40
  -5   1   5   72.09    3.50
   4  -1  -5   -0.50    0.80
   4  -1  -5   -1.00    1.10
   4  -1  -5    0.30    0.80
  -4   1   5   -0.30    0.90
  -4   1   5   -0.40    0.90
  -4   1   5    0.20    0.80
  -4   1   5    0.50    0.60
   3  -1  -5  184.88    5.10
   3  -1  -5  185.18    5.60
   3  -1  -5  183.68    5.60
  -3   1   5  186.38    5.60
  -3   1   5  177.18    5.50
  -3   1   5  181.18    5.10
  -3   1   5  182.58    5.10
  -3   1   5  192.78    5.60
   2  -1  -5   46.20    2.40
   2  -1  -5   56.39    2.60
   2  -1  -5   56.89    2.30
  -2   1   5   54.89    2.20
  -2   1   5   49.40    2.10
  -2   1   5   54.29    2.60
  -2   1   5   54.39    2.40
  -2   1   5   53.59    2.80
   1  -1  -5  332.57    7.00
   1  -1  -5  337.17    7.70
   1  -1  -5  336.57    6.70
  -1   1   5  341.77    6.80
  -1   1   5  330.47    7.00
  -1   1   5  330.57    7.90
  -1   1   5  332.17    7.60
   0  -1  -5  292.27    5.70
   0  -1  -5  289.67    5.60
   0  -1  -5  283.17    6.70
   0   1   5  289.57    5.40
   0   1   5  279.87    6.90
   0   1   5  286.27    5.60
   0   1   5  295.17    6.70
  -1  -1  -5   19.20    1.30
  -1  -1  -5   16.70    1.30
   1   1   5   16.20    0.40
   1   1   5   16.70    0.50
   1   1   5   15.30    1.30
   1   1   5   14.10    1.40
  -2  -1  -5   11.40    1.40
  -2  -1  -5   11.10    0.30
  -2  -1  -5   11.30    0.40
  -2  -1  -5   11.00    1.10
   2   1   5   10.50    1.40
   2   1   5   10.70    0.40
   2   1   5   11.10    0.40
   2   1   5   10.50    1.20
  -3  -1  -5  111.09    3.60
  -3  -1  -5  108.39    2.50
  -3  -1  -5  110.09    3.90
  -3  -1  -5  111.89    2.60
   3   1   5  107.19    2.70
   3   1   5  108.99    2.50
   3   1   5  113.99    3.30
   3   1   5  108.59    4.20
  -4  -1  -5    2.80    0.70
  -4  -1  -5    1.00    1.00
  -4  -1  -5    1.80    0.90
  -4  -1  -5    2.50    0.70
   4   1   5    2.20    0.60
   4   1   5    2.40    1.10
   4   1   5    2.10    0.70
   4   1   5    1.70    0.90
   4   1   5    2.40    0.60
  -5  -1  -5    7.50    1.10
  -5  -1  -5    8.40    1.50
  -5  -1  -5    6.00    1.30
  -5  -1  -5    5.40    1.30
  -5  -1  -5    6.70    1.00
   5   1   5    7.60    0.80
   5   1   5    6.60    1.20
   5   1   5    8.50    1.60
   5   1   5    5.20    1.70
  -6  -1  -5   23.10    2.20
  -6  -1  -5   21.90    2.00
  -6  -1  -5   21.80    1.90
  -6  -1  -5   25.20    2.40
   6   1   5   19.10    2.80
   6   1   5   23.60    2.50
   6   1   5   26.40    2.00
  -7  -1  -5    0.00    1.10
  -7  -1  -5    0.90    1.30
   7   1   5   -0.90    0.90
   7   1   5   -0.80    1.20
  -8  -1  -5   11.00    2.00
  -8  -1  -5   10.90    2.30
   8   1   5    7.50    2.10
   8   1   5    9.90    2.40
   8  -2  -5   -0.20    2.00
  -8   2   5    0.00    1.10
  -8   2   5   -1.60    1.40
   7  -2  -5   10.80    2.70
   7  -2  -5    9.10    1.70
  -7   2   5   12.30    2.00
  -7   2   5    8.60    2.40
  -7   2   5   13.10    2.40
   6  -2  -5    0.10    1.60
   6  -2  -5    0.50    1.10
  -6   2   5    0.30    1.30
  -6   2   5    1.70    1.60
  -6   2   5    1.50    1.10
   5  -2  -5    2.90    1.60
   5  -2  -5    0.70    0.90
  -5   2   5    1.30    0.60
  -5   2   5    1.70    1.40
  -5   2   5    2.30    1.10
  -5   2   5   -0.10    1.20
   4  -2  -5   45.40    2.50
   4  -2  -5   47.00    3.00
   4  -2  -5   43.50    2.10
  -4   2   5   44.60    2.10
  -4   2   5   45.50    2.90
  -4   2   5   46.80    3.00
  -4   2   5   42.40    2.70
   3  -2  -5   58.99    3.10
   3  -2  -5   53.99    3.20
   3  -2  -5   62.69    2.70
  -3   2   5   59.39    2.10
  -3   2   5   60.89    3.30
  -3   2   5   55.99    2.70
  -3   2   5   57.19    3.00
  -3   2   5   56.59    3.00
   2  -2  -5   12.70    1.30
   2  -2  -5   10.90    1.20
   2  -2  -5   15.20    1.50
   2  -2  -5   12.40    1.50
  -2   2   5   10.20    1.10
  -2   2   5   12.50    1.30
  -2   2   5   11.50    0.90
  -2   2   5   15.00    1.60
   1  -2  -5   45.70    2.40
   1  -2  -5   46.80    2.00
   1  -2  -5   46.10    2.20
   1  -2  -5   46.30    1.80
  -1   2   5   46.60    1.90
  -1   2   5   45.60    2.40
  -1   2   5   46.80    1.80
   0  -2  -5   29.60    1.50
   0  -2  -5   30.50    1.30
   0  -2  -5   29.50    1.70
   0   2   5   28.90    1.10
   0   2   5   29.10    1.20
   0   2   5   28.50    1.90
  -1  -2  -5  131.09    4.10
  -1  -2  -5  128.59    3.50
   1   2   5  127.99    2.20
   1   2   5  119.69    2.20
  -2  -2  -5  135.09    4.30
  -2  -2  -5  129.79    3.80
   2   2   5  128.39    4.70
  -3  -2  -5    0.60    0.70
  -3  -2  -5    1.20    0.40
  -3  -2  -5    0.80    0.70
  -3  -2  -5    1.30    0.40
   3   2   5    0.70    0.30
   3   2   5    0.10    0.60
   3   2   5    0.60    0.30
   3   2   5    0.20    0.70
  -4  -2  -5    0.10    0.50
  -4  -2  -5    0.90    0.90
  -4  -2  -5    1.00    1.00
  -4  -2  -5    0.50    0.50
   4   2   5    0.60    0.50
   4   2   5    0.30    0.70
   4   2   5   -0.20    0.40
   4   2   5   -0.50    0.70
  -5  -2  -5   37.50    2.10
  -5  -2  -5   41.50    2.00
  -5  -2  -5   33.40    2.30
   5   2   5   36.10    2.00
   5   2   5   35.20    3.50
   5   2   5   34.70    2.40
  -6  -2  -5    6.40    1.70
  -6  -2  -5    6.00    1.10
  -6  -2  -5    4.70    1.30
   6   2   5    4.80    0.80
   6   2   5    5.80    1.20
   6   2   5    1.90    1.60
   6   2   5    3.00    1.10
  -7  -2  -5    3.30    1.10
  -7  -2  -5    2.30    1.50
   7   2   5    1.70    1.10
   7   2   5    1.10    1.30
  -8  -2  -5    0.20    1.40
  -8  -2  -5    0.80    1.10
   8   2   5   -0.60    1.70
   7  -3  -5    1.60    2.00
  -7   3   5    0.00    1.00
  -7   3   5   -1.80    1.10
  -7   3   5    2.30    1.80
   6  -3  -5   23.20    3.20
   6  -3  -5   23.60    2.00
  -6   3   5   22.10    2.40
  -6   3   5   19.60    2.70
  -6   3   5   25.00    2.40
   5  -3  -5   10.40    1.20
   5  -3  -5   11.90    1.30
   5  -3  -5   18.40    2.70
  -5   3   5   12.10    1.80
  -5   3   5   16.60    2.40
  -5   3   5   14.60    2.10
   4  -3  -5   -0.60    1.10
   4  -3  -5   -0.30    0.60
   4  -3  -5    0.10    0.60
  -4   3   5   -0.10    0.90
  -4   3   5   -0.30    0.60
  -4   3   5    0.20    0.80
   3  -3  -5   13.10    1.50
   3  -3  -5   11.90    1.80
   3  -3  -5   11.40    1.20
  -3   3   5   14.50    1.60
  -3   3   5   13.40    1.80
   2  -3  -5  265.27    6.10
   2  -3  -5  258.07    6.60
   2  -3  -5  265.07    7.20
   2  -3  -5  254.07    6.10
  -2   3   5  251.77    6.10
  -2   3   5  235.68    6.80
  -2   3   5  261.97    6.30
   1  -3  -5    1.60    0.70
   1  -3  -5    0.90    0.70
   1  -3  -5    0.40    0.60
   1  -3  -5    0.90    0.60
  -1   3   5    1.60    0.60
  -1   3   5    1.00    0.30
  -1   3   5    1.30    0.60
  -1   3   5    1.30    0.80
   0  -3  -5    9.90    1.00
   0  -3  -5    9.50    1.30
   0  -3  -5   10.50    0.80
   0   3   5    9.10    1.30
   0   3   5   10.30    0.80
   0   3   5    9.40    0.80
   0   3   5   10.70    1.00
  -1  -3  -5   26.50    1.90
  -1  -3  -5   26.90    1.70
  -1  -3  -5   25.80    1.10
  -1  -3  -5   23.80    1.00
   1   3   5   27.30    1.90
   1   3   5   27.90    1.00
   1   3   5   25.10    1.00
  -2  -3  -5   89.99    2.10
  -2  -3  -5   89.99    3.70
  -2  -3  -5   89.99    2.20
  -2  -3  -5   92.19    3.30
   2   3   5   90.09    2.10
   2   3   5   90.19    2.10
   2   3   5   90.79    3.90
  -3  -3  -5    1.80    0.50
  -3  -3  -5    3.30    1.00
  -3  -3  -5    1.20    0.60
  -3  -3  -5    2.00    0.90
   3   3   5    1.70    0.40
   3   3   5    2.70    0.50
   3   3   5    2.40    0.70
   3   3   5    2.20    1.10
  -4  -3  -5   52.39    2.20
  -4  -3  -5   53.39    2.80
  -4  -3  -5   54.39    2.00
   4   3   5   50.79    2.00
   4   3   5   55.59    2.00
   4   3   5   53.19    3.70
   4   3   5   54.89    2.60
  -5  -3  -5   19.50    1.70
  -5  -3  -5   16.90    2.00
  -5  -3  -5   17.20    1.50
   5   3   5   14.00    1.50
   5   3   5   20.40    1.60
   5   3   5   16.90    1.60
   5   3   5   12.90    2.20
  -6  -3  -5    6.00    1.20
  -6  -3  -5    7.70    1.50
  -6  -3  -5    6.10    1.70
   6   3   5    8.30    1.30
   6   3   5    6.20    1.30
   6   3   5    7.30    1.40
   6   3   5    5.60    1.80
  -7  -3  -5    9.30    1.50
  -7  -3  -5    5.10    1.70
   7   3   5    2.90    1.70
  -8  -3  -5    0.40    1.20
  -8  -3  -5    0.30    1.20
   8   3   5   -0.70    1.20
   7  -4  -5    0.00    1.80
  -7   4   5   -0.10    1.30
  -7   4   5    3.40    1.30
  -7   4   5    4.90    1.70
   6  -4  -5    0.70    1.80
  -6   4   5   -3.40    1.30
  -6   4   5   -0.20    1.40
  -6   4   5    0.30    1.20
   5  -4  -5   -0.10    1.60
  -5   4   5   -0.70    1.10
  -5   4   5    1.20    1.40
  -5   4   5    0.40    1.00
   4  -4  -5    0.60    0.60
   4  -4  -5    2.20    1.20
   4  -4  -5    1.40    1.40
  -4   4   5   -0.20    1.20
  -4   4   5    1.90    1.10
   3  -4  -5    8.40    1.50
   3  -4  -5   10.90    1.20
  -3   4   5    9.00    1.70
  -3   4   5   10.10    1.50
   2  -4  -5   37.80    2.00
   2  -4  -5   41.70    2.20
   2  -4  -5   39.30    2.50
  -2   4   5   42.20    2.70
  -2   4   5   39.10    2.20
   1  -4  -5    0.00    0.50
   1  -4  -5    0.70    0.60
   1  -4  -5   -1.60    0.60
  -1   4   5    0.40    0.90
  -1   4   5    0.10    0.20
  -1   4   5   -0.40    0.50
  -1   4   5    0.00    0.50
   0  -4  -5    7.80    1.10
   0  -4  -5    7.00    0.90
   0  -4  -5    6.40    1.20
   0   4   5    5.60    1.30
   0   4   5    6.10    0.80
   0   4   5    7.30    0.90
   0   4   5    6.50    0.90
  -1  -4  -5  203.78    4.60
  -1  -4  -5  197.08    5.90
  -1  -4  -5  194.08    4.60
  -1  -4  -5  202.18    5.40
   1   4   5  201.98    5.80
   1   4   5  193.98    4.40
   1   4   5  197.28    4.40
  -2  -4  -5   89.39    2.60
  -2  -4  -5   90.29    3.90
  -2  -4  -5   88.79    3.40
  -2  -4  -5   78.59    2.60
   2   4   5   92.79    2.50
   2   4   5   92.69    2.50
   2   4   5   97.39    4.20
  -3  -4  -5    9.30    1.10
  -3  -4  -5    9.90    1.10
  -3  -4  -5   11.80    1.70
   3   4   5    9.50    0.90
   3   4   5   11.10    1.00
   3   4   5    9.90    1.80
  -4  -4  -5   28.80    2.40
  -4  -4  -5   32.20    1.80
  -4  -4  -5   31.20    1.90
   4   4   5   32.70    1.80
   4   4   5   34.30    3.30
   4   4   5   32.60    1.70
  -5  -4  -5   61.39    3.30
  -5  -4  -5   63.49    2.70
  -5  -4  -5   63.49    2.90
   5   4   5   58.19    3.00
   5   4   5   57.59    4.50
   5   4   5   60.99    2.30
   5   4   5   61.09    2.70
  -6  -4  -5    4.20    1.70
  -6  -4  -5    2.90    1.20
   6   4   5    3.30    1.90
  -7  -4  -5    0.90    1.20
  -7  -4  -5    2.00    1.10
   7   4   5   -1.00    1.10
  -8  -4  -5   -0.70    1.40
  -8  -4  -5   -0.60    1.00
   8   4   5   -0.70    2.00
   7  -5  -5    1.10    2.20
  -7   5   5   -1.60    1.70
  -7   5   5    0.60    1.30
   6  -5  -5    3.80    2.30
  -6   5   5    2.90    1.40
  -6   5   5    2.40    1.30
  -6   5   5    2.80    1.80
   5  -5  -5   -0.20    1.60
  -5   5   5    2.00    1.50
  -5   5   5    0.00    1.10
   4  -5  -5    7.60    1.90
  -4   5   5    4.80    1.50
  -4   5   5    7.10    1.90
   3  -5  -5    2.70    0.80
   3  -5  -5    1.10    1.30
   3  -5  -5    1.10    1.00
  -3   5   5    1.10    1.20
  -3   5   5    1.40    1.10
   2  -5  -5    7.50    1.60
   2  -5  -5    7.90    1.20
   2  -5  -5    7.30    1.30
  -2   5   5    6.10    1.20
  -2   5   5    6.50    1.50
   1  -5  -5   11.50    1.40
   1  -5  -5   11.30    1.60
   1  -5  -5   12.90    1.60
  -1   5   5    8.90    1.20
  -1   5   5    9.80    1.70
   0  -5  -5   10.10    1.20
   0  -5  -5    8.80    1.30
   0  -5  -5    8.70    1.50
   0   5   5    9.30    1.70
   0   5   5    9.70    1.10
   0   5   5   10.00    1.20
   0   5   5   10.20    1.80
  -1  -5  -5   13.30    1.50
  -1  -5  -5   16.60    1.70
  -1  -5  -5   16.80    1.40
   1   5   5   17.10    1.30
   1   5   5   20.20    2.10
   1   5   5   16.50    1.30
   1   5   5   14.20    1.70
  -2  -5  -5   13.00    1.70
  -2  -5  -5   15.20    1.40
  -2  -5  -5   18.10    1.50
  -2  -5  -5   15.80    2.00
   2   5   5   18.10    2.10
   2   5   5   16.40    1.30
   2   5   5   17.00    1.80
   2   5   5   16.70    1.20
  -3  -5  -5   14.20    1.40
  -3  -5  -5   11.40    1.30
  -3  -5  -5   11.70    1.90
   3   5   5   12.00    2.00
   3   5   5   12.20    1.20
  -4  -5  -5   52.69    2.70
  -4  -5  -5   57.69    2.60
  -4  -5  -5   57.49    3.20
   4   5   5   55.99    2.50
   4   5   5   56.99    4.20
   4   5   5   54.89    2.10
   4   5   5   54.59    2.10
  -5  -5  -5   48.00    2.60
  -5  -5  -5   46.50    3.20
   5   5   5   46.10    4.30
   5   5   5   49.00    2.50
  -6  -5  -5    1.00    1.20
  -6  -5  -5    2.30    1.20
   6   5   5    3.90    1.80
  -7  -5  -5    1.50    1.30
  -7  -5  -5    0.60    1.10
   7   5   5    1.50    1.60
   6  -6  -5    1.20    2.00
  -6   6   5   -2.20    1.50
  -6   6   5    0.60    1.70
   5  -6  -5    2.60    2.10
  -5   6   5    4.00    1.90
  -5   6   5    6.50    1.70
   4  -6  -5    5.80    2.00
  -4   6   5    7.40    1.90
  -4   6   5    3.50    1.40
   3  -6  -5    8.90    2.00
  -3   6   5    7.40    1.60
  -3   6   5    6.90    1.90
   2  -6  -5    2.20    1.40
   2  -6  -5    0.10    0.90
  -2   6   5    2.00    1.10
  -2   6   5    0.60    1.00
   1  -6  -5    0.30    1.00
   1  -6  -5    0.20    0.80
  -1   6   5   -1.10    0.70
  -1   6   5    0.80    1.20
   0  -6  -5    8.70    1.20
   0  -6  -5    9.60    1.60
   0  -6  -5    9.80    1.40
   0   6   5   10.00    1.80
   0   6   5    7.80    1.20
  -1  -6  -5   91.89    4.00
  -1  -6  -5   97.09    3.50
  -1  -6  -5  103.19    3.80
   1   6   5   95.79    4.00
   1   6   5   99.79    4.40
   1   6   5   98.19    3.50
  -2  -6  -5    2.10    1.00
  -2  -6  -5    2.30    1.10
  -2  -6  -5    2.10    0.90
   2   6   5    2.80    1.20
   2   6   5    1.40    0.80
   2   6   5    0.30    0.90
  -3  -6  -5   12.10    1.60
  -3  -6  -5   17.10    1.80
  -3  -6  -5   17.70    2.40
   3   6   5   14.00    2.30
   3   6   5   11.10    1.40
   3   6   5   14.50    1.50
  -4  -6  -5   35.70    3.10
  -4  -6  -5   36.70    2.40
   4   6   5   36.40    2.20
   4   6   5   35.10    3.60
  -5  -6  -5    5.10    1.40
  -5  -6  -5    5.90    1.70
   5   6   5    3.20    2.00
  -6  -6  -5    2.10    1.70
  -6  -6  -5    2.70    1.40
   6   6   5    5.90    2.30
  -7  -6  -5   -1.40    1.10
  -7  -6  -5   -0.80    1.30
   7   6   5    0.00    1.50
   5  -7  -5    0.70    2.00
  -5   7   5    0.00    1.50
  -5   7   5    0.40    1.10
   4  -7  -5    2.00    1.80
  -4   7   5    1.00    1.50
  -4   7   5    1.80    1.50
   3  -7  -5   -1.30    1.40
  -3   7   5    0.30    1.30
  -3   7   5   -0.30    1.20
   2  -7  -5    1.60    1.50
  -2   7   5    0.00    1.20
  -2   7   5    0.50    0.80
   1  -7  -5   -1.00    1.10
   1  -7  -5    0.10    0.80
  -1   7   5   -1.50    0.90
  -1   7   5    0.40    1.20
   0  -7  -5    0.60    0.70
   0  -7  -5   -1.20    1.00
   0  -7  -5    1.50    0.90
   0   7   5   -0.80    0.80
   0   7   5   -0.10    1.20
  -1  -7  -5   11.50    1.70
  -1  -7  -5    9.90    1.80
  -1  -7  -5    8.50    1.50
   1   7   5    7.80    1.70
   1   7   5    6.80    1.40
   1   7   5    9.50    1.50
   1   7   5    5.70    1.70
  -2  -7  -5    1.60    1.20
   2   7   5   -1.80    0.70
   2   7   5   -0.20    1.20
  -3  -7  -5  103.79    4.10
   3   7   5  106.39    5.50
   3   7   5   97.89    3.80
  -4  -7  -5   22.10    2.40
   4   7   5   21.80    3.10
  -5  -7  -5    0.80    1.10
  -5  -7  -5    0.50    1.60
   5   7   5    0.90    1.70
  -6  -7  -5   -0.60    1.20
  -6  -7  -5   -1.90    1.10
   6   7   5    2.30    1.70
   4  -8  -5   -1.60    1.60
  -4   8   5    0.60    1.60
  -4   8   5   -0.40    1.10
   3  -8  -5    2.60    1.80
  -3   8   5   -1.00    1.40
  -3   8   5   -2.30    1.00
   2  -8  -5    3.50    1.80
  -2   8   5    0.00    0.80
  -2   8   5    1.10    1.40
   1  -8  -5    3.30    1.40
  -1   8   5    2.70    1.50
  -1   8   5    3.50    1.50
   0  -8  -5    6.10    1.80
   0   8   5    3.40    1.50
  -1  -8  -5    2.10    1.50
   1   8   5    0.80    1.20
   1   8   5    4.20    1.60
   1   8   5    4.10    1.30
  -2  -8  -5    5.00    1.60
   2   8   5    1.90    1.60
  -3  -8  -5   22.20    2.60
   3   8   5   17.90    2.70
  -4  -8  -5   11.20    2.00
   4   8   5    9.90    2.50
  -5  -8  -5    2.70    1.50
   5   8   5    7.50    2.30
   2  -9  -5   -0.20    1.60
  -2   9   5    1.00    1.60
   1  -9  -5   -1.30    1.50
  -1   9   5   -1.00    1.20
   0  -9  -5    4.70    1.90
   0   9   5    2.40    1.70
  -1  -9  -5    0.30    1.50
   1   9   5    0.60    1.40
  -2  -9  -5    6.20    2.00
   2   9   5    2.40    1.90
   2   9   5    5.40    1.90
  -3  -9  -5   11.70    2.20
   3   9   5    5.80    2.50
   3   7  -6    8.90    2.60
  -3  -7   6    9.60    2.40
  -3  -7   6    7.70    2.30
   2   7  -6   27.70    3.40
  -2  -7   6   17.30    3.00
  -2  -7   6   20.10    3.30
  -2  -7   6   25.30    3.30
   1   7  -6   21.00    3.00
  -1  -7   6   15.30    2.70
  -1  -7   6   14.60    3.00
  -1  -7   6   12.30    2.50
   0   7  -6    1.60    1.50
   0  -7   6   -1.40    1.70
   0  -7   6    2.30    1.60
   0  -7   6   -0.70    1.70
  -1   7  -6    1.90    1.50
   1  -7   6   -3.60    1.30
   1  -7   6   -0.50    1.90
   1  -7   6   -1.40    1.40
  -2   7  -6    0.30    1.50
   2  -7   6    3.70    2.00
   2  -7   6    0.30    2.20
  -3   7  -6    7.40    2.10
   3  -7   6    5.10    2.90
   3  -7   6    6.70    2.30
   4   6  -6    1.90    2.00
  -4  -6   6    2.90    1.90
  -4  -6   6   -2.00    1.90
   3   6  -6   29.80    3.50
  -3  -6   6   31.20    3.30
  -3  -6   6   24.80    3.20
  -3  -6   6   25.50    3.50
   2   6  -6    6.80    2.00
  -2  -6   6    5.70    1.90
  -2  -6   6    3.30    2.10
  -2  -6   6    3.50    1.90
   1   6  -6   13.50    2.40
  -1  -6   6   12.50    2.40
  -1  -6   6    9.30    2.10
  -1  -6   6   10.40    2.40
   0   6  -6   -0.40    1.40
   0  -6   6    2.80    1.90
   0  -6   6    0.50    1.70
   0  -6   6    0.80    1.40
  -1   6  -6   43.30    3.30
   1  -6   6   37.90    3.30
   1  -6   6   44.60    4.60
   1  -6   6   43.50    3.40
  -2   6  -6    7.30    1.90
   2  -6   6   10.70    2.30
   2  -6   6    6.90    2.30
   2  -6   6    9.60    1.90
  -3   6  -6    3.40    1.50
   3  -6   6    0.60    2.20
   3  -6   6   -1.60    1.30
  -4   6  -6    1.10    1.50
   4  -6   6   -2.00    2.10
   4  -6   6    0.60    1.40
  -5   6  -6    0.80    1.50
   5  -6   6   -1.90    2.50
   5   5  -6    1.80    2.30
   5   5  -6    0.90    1.70
  -5  -5   6    4.30    2.00
  -5  -5   6    2.90    2.10
   4   5  -6   24.90    3.20
  -4  -5   6   21.00    3.20
  -4  -5   6   27.60    3.20
  -4  -5   6   16.20    2.40
   3   5  -6   54.19    3.90
  -3  -5   6   58.19    3.80
  -3  -5   6   41.70    3.60
  -3  -5   6   48.40    3.90
   2   5  -6    4.70    1.70
   2   5  -6    1.40    0.90
  -2  -5   6    5.50    1.60
  -2  -5   6    2.80    1.50
  -2  -5   6    3.50    1.70
   1   5  -6    1.90    0.70
   1   5  -6    2.20    1.40
  -1  -5   6    3.30    1.40
  -1  -5   6    3.20    1.70
  -1  -5   6   -0.40    1.60
   0   5  -6   36.10    2.60
   0   5  -6   32.70    1.00
   0  -5   6   39.20    3.80
   0  -5   6   33.40    3.40
   0  -5   6   34.80    2.70
  -1   5  -6    0.90    0.90
   1  -5   6   -1.10    1.30
   1  -5   6    0.90    1.10
   1  -5   6    0.20    1.60
  -2   5  -6   -0.80    1.10
   2  -5   6   -1.40    1.20
   2  -5   6   -2.00    0.90
   2  -5   6   -0.60    1.80
  -3   5  -6    1.70    1.30
   3  -5   6    0.20    1.90
   3  -5   6   -1.00    1.10
   3  -5   6    1.60    1.40
  -4   5  -6    0.40    1.30
  -4   5  -6   -0.20    0.80
   4  -5   6   -0.80    1.90
   4  -5   6    0.80    1.30
  -5   5  -6    2.80    1.60
   5  -5   6    2.30    1.80
   5  -5   6    4.20    1.90
  -6   5  -6    1.10    1.50
   6  -5   6    0.10    2.40
   6   4  -6   -1.30    1.70
   6   4  -6   -1.80    1.90
  -6  -4   6   -0.30    1.80
  -6  -4   6   -2.50    1.30
   5   4  -6   35.50    3.70
   5   4  -6   46.90    3.70
  -5  -4   6   40.80    3.50
  -5  -4   6   42.80    4.00
  -5  -4   6   40.70    3.30
   4   4  -6   11.70    2.30
  -4  -4   6   10.00    2.30
  -4  -4   6   12.40    2.10
  -4  -4   6   11.80    2.00
   3   4  -6   -0.40    1.40
  -3  -4   6    0.80    1.30
  -3  -4   6    0.50    1.60
  -3  -4   6    0.70    1.30
   2   4  -6   -0.40    0.80
   2   4  -6    0.20    1.20
  -2  -4   6    0.90    1.10
  -2  -4   6   -2.40    1.20
  -2  -4   6    1.60    1.30
   1   4  -6    9.90    1.60
   1   4  -6    9.30    1.10
   1   4  -6    7.80    1.50
  -1  -4   6   10.90    2.10
  -1  -4   6    9.60    1.70
  -1  -4   6    8.80    2.00
   0   4  -6   19.70    2.10
   0   4  -6   24.60    2.10
   0   4  -6   20.40    0.90
   0  -4   6   20.20    2.80
   0  -4   6   20.20    2.50
   0  -4   6   24.40    2.00
  -1   4  -6   -0.20    0.90
  -1   4  -6   -1.10    0.80
   1  -4   6   -0.30    0.80
   1  -4   6   -1.30    1.30
   1  -4   6   -1.40    1.10
  -2   4  -6   49.10    2.80
  -2   4  -6   49.80    2.90
   2  -4   6   54.79    4.40
   2  -4   6   48.70    3.30
   2  -4   6   45.10    2.80
  -3   4  -6   11.30    1.70
  -3   4  -6   11.40    1.70
   3  -4   6   12.10    1.90
   3  -4   6   10.10    1.80
   3  -4   6    7.90    2.30
  -4   4  -6   34.60    2.40
  -4   4  -6   36.60    2.40
  -4   4  -6   33.80    2.60
  -4   4  -6   38.10    2.40
   4  -4   6   34.80    2.80
   4  -4   6   29.80    3.60
   4  -4   6   36.00    2.60
  -5   4  -6    0.50    0.80
  -5   4  -6    1.80    1.30
   5  -4   6    1.80    1.10
   5  -4   6    2.20    2.20
  -6   4  -6    3.40    1.60
   6  -4   6    5.80    2.70
  -7   4  -6    0.90    1.40
   7  -4   6    1.90    2.00
   7   3  -6    5.00    2.00
   7   3  -6    2.20    1.80
  -7  -3   6    1.00    1.90
  -7  -3   6    4.20    1.60
   6   3  -6   11.90    2.50
   6   3  -6   19.90    3.20
  -6  -3   6   26.70    3.20
  -6  -3   6   17.70    2.80
   5   3  -6   31.00    3.00
   5   3  -6   24.10    3.20
  -5  -3   6   26.80    2.80
  -5  -3   6   28.70    2.60
   4   3  -6   98.59    5.40
   4   3  -6  100.49    5.00
  -4  -3   6  104.19    5.10
  -4  -3   6   99.29    4.50
   3   3  -6  125.39    5.10
  -3  -3   6  116.89    5.20
  -3  -3   6  116.79    5.20
  -3  -3   6  112.29    4.60
   2   3  -6    0.30    0.90
   2   3  -6    0.90    0.80
   2   3  -6    1.00    0.70
  -2  -3   6    1.40    1.30
  -2  -3   6    0.30    1.10
  -2  -3   6    3.30    1.20
   1   3  -6    0.30    0.50
   1   3  -6    0.20    0.60
   1   3  -6    0.20    0.60
  -1  -3   6   -0.80    0.70
  -1  -3   6   -1.00    1.00
  -1  -3   6    0.00    1.10
   0   3  -6    4.10    1.10
   0   3  -6    4.70    0.60
   0   3  -6    5.10    1.20
   0  -3   6    5.40    1.00
   0  -3   6    2.20    1.40
   0  -3   6    4.30    1.40
  -1   3  -6    7.10    1.30
  -1   3  -6    7.90    1.30
   1  -3   6    7.30    1.50
   1  -3   6    8.90    1.40
   1  -3   6    5.20    1.50
  -2   3  -6  101.49    4.00
  -2   3  -6   99.79    3.60
  -2   3  -6   95.99    3.50
   2  -3   6   98.39    4.00
   2  -3   6   98.59    5.40
   2  -3   6  104.89    3.80
  -3   3  -6   81.19    3.30
  -3   3  -6   84.59    3.50
  -3   3  -6   80.09    3.40
  -3   3  -6   78.39    3.30
   3  -3   6   79.29    4.80
   3  -3   6   78.49    3.50
   3  -3   6   77.69    3.50
  -4   3  -6   16.80    2.00
  -4   3  -6   20.70    2.00
  -4   3  -6   16.70    1.80
  -4   3  -6   15.20    1.60
   4  -3   6    8.70    2.50
   4  -3   6   13.90    1.60
   4  -3   6   19.10    2.00
   4  -3   6   16.70    0.50
  -5   3  -6   -0.60    0.90
  -5   3  -6    0.20    0.80
   5  -3   6    0.60    1.10
   5  -3   6    2.40    2.00
  -6   3  -6   25.30    2.50
   6  -3   6   17.00    3.20
   6  -3   6   29.10    2.80
  -7   3  -6   30.50    2.90
   7  -3   6   21.90    3.80
   7   2  -6   -2.10    1.70
   7   2  -6    0.50    1.80
  -7  -2   6    0.90    1.60
  -7  -2   6   -1.10    1.40
   6   2  -6   10.20    2.30
   6   2  -6    6.60    2.10
  -6  -2   6    7.10    1.70
  -6  -2   6    7.30    2.00
   5   2  -6   -0.60    1.40
   5   2  -6    2.60    1.40
  -5  -2   6    1.00    1.10
  -5  -2   6    2.70    1.40
  -5  -2   6    1.50    1.40
   4   2  -6  197.68    6.80
   4   2  -6  214.58    7.40
  -4  -2   6  209.38    6.90
  -4  -2   6  214.38    6.60
  -4  -2   6  203.28    6.40
   3   2  -6   19.50    1.80
   3   2  -6   23.00    1.90
   3   2  -6   19.70    2.00
  -3  -2   6   23.10    2.60
  -3  -2   6   21.30    2.00
  -3  -2   6   21.20    2.00
   2   2  -6  163.08    4.70
   2   2  -6  159.78    5.20
   2   2  -6  165.98    5.00
  -2  -2   6  156.48    4.90
  -2  -2   6  160.08    4.70
  -2  -2   6  167.68    5.80
   1   2  -6   20.80    1.40
   1   2  -6   18.90    1.50
   1   2  -6   19.80    1.60
  -1  -2   6   17.10    1.80
  -1  -2   6   16.70    2.20
  -1  -2   6   19.00    2.20
  -1  -2   6   18.90    1.60
  -1  -2   6   17.60    1.30
   0   2  -6   48.50    2.30
   0   2  -6   47.70    1.70
   0   2  -6   46.20    2.70
   0   2  -6   46.30    2.20
   0  -2   6   45.70    2.20
   0  -2   6   43.40    2.80
   0  -2   6   47.20    2.30
   0  -2   6   47.50    1.70
   0  -2   6   45.90    3.30
  -1   2  -6   62.99    2.50
  -1   2  -6   59.89    2.50
  -1   2  -6   62.89    3.00
   1  -2   6   62.59    3.70
   1  -2   6   63.09    2.50
   1  -2   6   60.69    2.50
   1  -2   6   62.59    3.10
   1  -2   6   62.49    1.50
  -2   2  -6  106.09    3.40
  -2   2  -6  103.39    3.30
  -2   2  -6  114.09    3.90
   2  -2   6  109.09    3.50
   2  -2   6  103.99    5.20
   2  -2   6  107.79    3.50
   2  -2   6  103.29    3.80
  -3   2  -6   24.40    1.70
  -3   2  -6   24.80    1.90
  -3   2  -6   27.40    1.80
   3  -2   6   25.10    1.80
   3  -2   6   24.30    3.00
   3  -2   6   24.20    0.90
   3  -2   6   25.60    0.90
   3  -2   6   24.20    1.90
  -4   2  -6   -0.20    0.70
  -4   2  -6    0.00    0.60
  -4   2  -6    0.70    0.90
  -4   2  -6   -0.10    0.50
   4  -2   6   -1.00    1.40
   4  -2   6   -0.10    0.40
   4  -2   6   -0.70    0.70
   4  -2   6    0.40    0.70
  -5   2  -6   69.29    3.20
  -5   2  -6   66.09    3.10
  -5   2  -6   70.89    3.30
   5  -2   6   64.89    3.30
   5  -2   6   74.29    5.00
   5  -2   6   66.99    2.40
   5  -2   6   68.69    2.60
  -6   2  -6   41.80    2.80
  -6   2  -6   41.20    2.60
   6  -2   6   38.70    2.90
   6  -2   6   35.60    4.10
  -7   2  -6   11.10    1.90
   7  -2   6   10.10    2.60
   7  -2   6    5.00    2.40
  -8   2  -6   -0.10    1.30
   8  -2   6    0.10    2.00
   8  -2   6    1.20    1.50
   7   1  -6    2.70    1.80
   7   1  -6    5.20    2.30
  -7  -1   6    8.00    1.90
  -7  -1   6    5.20    2.10
  -7  -1   6    4.90    1.80
   6   1  -6   39.30    3.60
   6   1  -6   52.39    4.10
  -6  -1   6   38.30    3.20
  -6  -1   6   40.10    3.10
  -6  -1   6   48.10    3.60
   5   1  -6    8.10    1.90
   5   1  -6   10.10    2.20
  -5  -1   6    8.70    1.90
  -5  -1   6   12.70    2.10
  -5  -1   6   10.10    2.10
   4   1  -6   36.00    2.60
   4   1  -6   34.30    2.70
   4   1  -6   38.70    3.10
  -4  -1   6   31.20    2.30
  -4  -1   6   37.60    3.00
  -4  -1   6   39.80    2.90
   3   1  -6   70.29    3.20
   3   1  -6   68.89    3.10
   3   1  -6   65.59    3.40
  -3  -1   6   71.09    3.20
  -3  -1   6   68.69    3.60
  -3  -1   6   76.29    3.80
  -3  -1   6   63.29    3.10
   2   1  -6  108.39    3.70
   2   1  -6  101.49    3.80
   2   1  -6  103.19    3.60
  -2  -1   6  100.89    4.10
  -2  -1   6  107.19    4.40
  -2  -1   6  101.59    3.60
  -2  -1   6  105.89    3.60
   1   1  -6    2.20    0.80
   1   1  -6    1.80    0.60
   1   1  -6    1.40    0.70
   1   1  -6    1.70    0.70
  -1  -1   6    1.70    0.80
  -1  -1   6    2.10    0.70
  -1  -1   6    2.30    1.10
  -1  -1   6    1.60    0.70
  -1  -1   6    2.10    0.80
   0   1  -6   33.80    1.70
   0   1  -6   34.50    1.50
   0   1  -6   34.00    1.80
   0   1  -6   32.90    2.20
   0   1  -6   31.00    1.50
   0  -1   6   33.40    2.30
   0  -1   6   35.00    1.60
   0  -1   6   30.60    1.60
   0  -1   6   31.70    2.40
   0  -1   6   33.90    1.80
  -1   1  -6    8.60    1.20
  -1   1  -6   10.00    1.00
  -1   1  -6   10.40    1.00
   1  -1   6    9.10    1.00
   1  -1   6    9.40    0.90
   1  -1   6    5.90    1.10
   1  -1   6    9.30    0.80
   1  -1   6    9.80    1.70
  -2   1  -6    1.00    0.60
  -2   1  -6    1.70    0.70
  -2   1  -6    1.00    0.80
  -2   1  -6    0.50    0.60
   2  -1   6    0.00    0.50
   2  -1   6   -0.10    0.30
   2  -1   6    0.40    0.50
   2  -1   6    2.00    1.10
   2  -1   6    0.90    0.70
  -3   1  -6    0.00    0.60
  -3   1  -6   -0.60    0.50
  -3   1  -6   -0.20    0.50
   3  -1   6    0.00    0.80
   3  -1   6    0.30    0.50
   3  -1   6    0.30    0.60
   3  -1   6   -0.40    0.50
  -4   1  -6   49.10    2.70
  -4   1  -6   53.29    2.40
  -4   1  -6   50.59    2.30
   4  -1   6   52.49    2.10
   4  -1   6   48.60    3.70
   4  -1   6   49.90    2.20
   4  -1   6   48.80    2.30
  -5   1  -6   38.90    2.20
  -5   1  -6   32.50    2.30
  -5   1  -6   33.90    2.10
   5  -1   6   34.30    2.30
   5  -1   6   33.90    1.50
   5  -1   6   35.70    2.10
   5  -1   6   37.60    3.60
  -6   1  -6    6.40    1.40
  -6   1  -6   10.90    1.70
   6  -1   6    6.70    2.10
   6  -1   6    9.00    1.60
   6  -1   6   10.60    2.40
   6  -1   6    7.90    1.40
  -7   1  -6    3.20    1.30
  -7   1  -6    3.40    1.80
   7  -1   6    4.20    1.90
   7  -1   6    3.50    2.10
  -8   1  -6    3.70    1.70
  -8   1  -6    0.40    1.30
   8  -1   6    2.40    1.90
   8  -1   6    2.60    2.10
   7   0  -6    0.70    1.50
   7   0  -6    2.50    2.00
  -7   0   6   -0.80    1.20
  -7   0   6    0.50    1.50
  -7   0   6    1.40    1.70
   6   0  -6    1.30    1.70
   6   0  -6    0.20    1.40
  -6   0   6   -0.30    1.30
  -6   0   6   -0.80    1.10
  -6   0   6   -0.60    1.10
   5   0  -6   29.10    3.10
   5   0  -6   34.80    3.10
  -5   0   6   32.00    2.60
  -5   0   6   38.90    3.00
  -5   0   6   34.60    3.10
   4   0  -6   22.20    2.20
   4   0  -6   24.30    2.10
   4   0  -6   24.10    2.30
  -4   0   6   20.90    2.30
  -4   0   6   23.40    2.10
  -4   0   6   26.90    2.30
  -4   0   6   21.30    2.10
   3   0  -6   23.30    2.20
   3   0  -6   23.30    1.80
  -3   0   6   21.80    1.90
  -3   0   6   20.90    1.90
  -3   0   6   20.40    2.10
  -3   0   6   19.90    1.80
   2   0  -6    1.60    0.80
   2   0  -6    1.10    0.70
   2   0  -6    2.60    0.80
   2   0  -6    1.70    0.80
  -2   0   6    2.20    0.90
  -2   0   6    1.40    0.80
  -2   0   6    1.90    0.90
  -2   0   6    0.70    0.70
  -2   0   6    1.90    0.90
   1   0  -6  319.17    7.10
   1   0  -6  323.57    8.10
   1   0  -6  327.07    6.90
   1   0  -6  322.87    7.50
  -1   0   6  324.17    7.40
  -1   0   6  325.67    8.20
  -1   0   6  323.17    8.00
  -1   0   6  321.57    6.80
  -1   0   6  325.57    7.20
   0   0  -6    0.90    0.50
   0   0  -6    0.40    0.60
   0   0  -6    0.00    0.40
   0   0  -6   -0.10    0.50
   0   0  -6   -0.20    0.40
   0   0   6   -0.10    0.40
   0   0   6    0.00    0.40
   0   0   6   -0.40    0.70
   0   0   6    0.40    0.40
  -1   0  -6  187.08    5.30
  -1   0  -6  183.48    4.40
  -1   0  -6  183.78    3.90
   1   0   6  178.98    4.60
   1   0   6  186.78    6.20
   1   0   6  183.08    4.00
   1   0   6  187.98    3.90
   1   0   6  187.28    5.30
  -2   0  -6  164.28    5.00
  -2   0  -6  160.58    4.40
   2   0   6  166.18    5.90
   2   0   6  158.18    4.70
   2   0   6  159.58    3.50
   2   0   6  164.68    3.60
  -3   0  -6   26.80    2.00
  -3   0  -6   26.90    1.30
  -3   0  -6   24.80    1.90
   3   0   6   23.20    2.20
   3   0   6   26.00    1.70
   3   0   6   28.80    1.40
   3   0   6   26.40    1.20
  -4   0  -6    1.80    0.90
  -4   0  -6    0.60    0.60
  -4   0  -6   -0.30    1.00
  -4   0  -6    0.30    0.60
   4   0   6    0.70    0.60
   4   0   6    1.60    0.60
   4   0   6    0.20    0.80
   4   0   6    1.50    0.50
  -5   0  -6   10.40    1.70
  -5   0  -6   10.50    1.30
  -5   0  -6    8.60    1.80
  -5   0  -6    9.50    1.20
   5   0   6    7.30    1.30
   5   0   6    6.90    1.70
   5   0   6    6.70    1.80
   5   0   6    9.80    1.40
   5   0   6    6.80    0.80
  -6   0  -6   48.20    3.10
  -6   0  -6   56.49    2.70
  -6   0  -6   59.39    3.60
   6   0   6   57.29    3.00
   6   0   6   51.99    4.00
   6   0   6   45.10    4.00
  -7   0  -6    0.50    1.40
  -7   0  -6    1.30    1.20
   7   0   6    0.90    1.60
   7   0   6   -0.80    1.10
  -8   0  -6    0.20    1.30
  -8   0  -6    2.30    1.70
   8   0   6    0.20    1.70
   8   0   6    3.30    2.10
   7  -1  -6   -0.70    1.80
   7  -1  -6   -3.00    1.20
  -7   1   6   -0.20    1.40
  -7   1   6    2.00    1.50
  -7   1   6   -0.20    1.80
   6  -1  -6    3.30    1.50
   6  -1  -6    8.40    2.30
  -6   1   6    6.90    1.80
  -6   1   6    8.00    2.10
  -6   1   6    3.00    1.40
   5  -1  -6   48.50    3.00
   5  -1  -6   55.19    3.90
  -5   1   6   48.00    3.20
  -5   1   6   57.69    3.80
  -5   1   6   53.29    3.10
  -5   1   6   50.79    3.30
   4  -1  -6    0.60    0.80
   4  -1  -6   -0.20    1.20
  -4   1   6   -0.80    1.00
  -4   1   6    0.40    1.10
  -4   1   6    0.20    1.00
  -4   1   6    0.20    0.70
   3  -1  -6    3.40    1.30
   3  -1  -6    3.80    1.00
  -3   1   6    3.10    1.00
  -3   1   6    2.60    1.10
  -3   1   6    3.20    1.00
  -3   1   6    3.90    0.90
   2  -1  -6  267.17    6.20
   2  -1  -6  270.57    7.10
   2  -1  -6  273.37    6.80
  -2   1   6  273.87    6.70
  -2   1   6  278.67    6.40
  -2   1   6  265.67    7.40
  -2   1   6  272.97    7.10
  -2   1   6  267.07    6.60
   1  -1  -6   13.80    1.40
   1  -1  -6   14.20    1.10
   1  -1  -6   13.80    1.20
  -1   1   6   14.20    1.10
  -1   1   6   14.90    1.50
  -1   1   6   11.90    1.60
  -1   1   6   13.20    1.10
   0  -1  -6   -0.10    0.20
   0  -1  -6    0.10    0.50
   0  -1  -6    0.70    0.60
   0  -1  -6    0.60    0.60
   0   1   6    0.50    0.40
   0   1   6   -0.10    0.60
   0   1   6    0.80    0.40
   0   1   6    0.10    0.50
  -1  -1  -6  339.37    8.00
  -1  -1  -6  338.37    5.70
  -1  -1  -6  332.17    6.90
  -1  -1  -6  333.27    5.70
   1   1   6  334.47    5.80
   1   1   6  328.57    8.00
   1   1   6  328.97    5.90
   1   1   6  335.57    7.70
  -2  -1  -6   71.09    2.80
  -2  -1  -6   73.09    3.20
   2   1   6   70.09    2.90
   2   1   6   72.49    3.50
  -3  -1  -6    0.80    1.00
  -3  -1  -6    1.60    0.90
  -3  -1  -6    1.50    0.40
  -3  -1  -6    1.60    0.40
   3   1   6    1.50    0.30
   3   1   6    0.90    0.60
   3   1   6    1.70    1.00
   3   1   6    0.80    0.30
  -4  -1  -6    1.40    0.90
  -4  -1  -6   -0.10    0.40
  -4  -1  -6    1.80    1.10
  -4  -1  -6    1.10    0.50
   4   1   6    1.20    0.60
   4   1   6    0.60    0.40
   4   1   6   -0.40    0.80
   4   1   6    1.10    0.60
   4   1   6    0.20    1.10
  -5  -1  -6    1.20    0.70
  -5  -1  -6    0.70    1.00
  -5  -1  -6    2.60    0.80
  -5  -1  -6    0.90    0.90
   5   1   6    2.40    0.80
   5   1   6    2.20    0.60
   5   1   6    3.30    1.40
   5   1   6    2.20    1.50
  -6  -1  -6    6.10    1.20
  -6  -1  -6    8.60    1.40
  -6  -1  -6    5.70    1.40
   6   1   6    5.40    1.70
   6   1   6    6.80    1.30
   6   1   6    4.60    1.70
   6   1   6    6.60    0.60
  -7  -1  -6    2.40    1.00
  -7  -1  -6    3.00    1.60
   7   1   6    0.90    1.40
   7   1   6    1.10    1.40
  -8  -1  -6    8.20    1.60
  -8  -1  -6    3.60    1.90
   8   1   6    4.90    2.10
   8   1   6    3.20    2.10
   7  -2  -6   -1.40    1.70
  -7   2   6   -0.50    1.40
  -7   2   6    1.00    1.80
  -7   2   6   -0.90    1.20
   6  -2  -6    0.20    1.00
   6  -2  -6   -0.30    1.20
  -6   2   6    3.40    1.60
  -6   2   6    0.00    1.20
  -6   2   6   -1.00    1.20
   5  -2  -6    7.50    2.20
   5  -2  -6    9.20    1.30
  -5   2   6   11.80    2.00
  -5   2   6   12.20    1.90
  -5   2   6   15.20    2.30
  -5   2   6   13.40    1.50
   4  -2  -6   32.70    2.20
   4  -2  -6   35.20    2.90
  -4   2   6   38.50    2.80
  -4   2   6   36.50    2.00
  -4   2   6   30.20    2.40
  -4   2   6   34.80    2.70
   3  -2  -6   16.00    1.50
   3  -2  -6   13.90    1.80
   3  -2  -6   14.60    1.60
  -3   2   6   14.60    1.20
  -3   2   6   14.10    1.60
  -3   2   6   13.30    1.80
  -3   2   6   14.10    1.90
   2  -2  -6   13.60    1.30
   2  -2  -6   13.30    1.40
   2  -2  -6   14.80    1.60
   2  -2  -6   11.90    1.60
  -2   2   6   12.70    1.80
  -2   2   6   13.90    1.30
  -2   2   6   11.90    1.50
  -2   2   6   12.80    1.10
  -2   2   6   12.90    1.70
   1  -2  -6   52.49    2.60
   1  -2  -6   50.09    2.50
   1  -2  -6   49.20    2.20
   1  -2  -6   51.09    1.90
  -1   2   6   50.09    1.90
  -1   2   6   53.09    2.10
  -1   2   6   49.10    2.70
  -1   2   6   49.00    2.60
   0  -2  -6  212.38    4.50
   0  -2  -6  210.18    5.80
   0  -2  -6  212.48    4.90
   0   2   6  207.08    5.80
   0   2   6  210.88    4.30
   0   2   6  207.68    4.40
  -1  -2  -6  436.36    9.90
  -1  -2  -6  457.15    9.00
   1   2   6  455.65   10.20
  -2  -2  -6   35.40    2.10
  -2  -2  -6   40.20    2.40
  -3  -2  -6    5.50    1.20
  -3  -2  -6    3.00    1.10
   3   2   6    4.00    0.30
   3   2   6    4.80    1.30
   3   2   6    3.90    0.20
   3   2   6    4.80    1.10
  -4  -2  -6   33.80    2.50
  -4  -2  -6   37.40    1.50
  -4  -2  -6   38.50    1.50
  -4  -2  -6   38.80    2.40
   4   2   6   34.20    3.20
   4   2   6   38.80    1.40
   4   2   6   40.20    2.60
   4   2   6   38.00    1.50
  -5  -2  -6    6.00    1.00
  -5  -2  -6   10.20    1.80
  -5  -2  -6    9.70    1.10
  -5  -2  -6    8.30    1.70
   5   2   6    7.00    2.00
   5   2   6    9.30    1.10
   5   2   6    7.90    1.50
  -6  -2  -6   20.20    1.70
  -6  -2  -6   13.90    2.10
   6   2   6   18.40    1.70
   6   2   6   16.00    2.70
   6   2   6   21.40    2.30
   6   2   6   22.60    1.40
  -7  -2  -6    1.20    1.10
  -7  -2  -6    0.70    1.50
   7   2   6    0.40    1.20
   7   2   6   -0.20    1.10
  -8  -2  -6    2.40    1.70
  -8  -2  -6    1.30    1.10
   8   2   6    1.80    2.10
   7  -3  -6   11.70    2.90
  -7   3   6    7.60    2.50
  -7   3   6   11.10    2.10
  -7   3   6   10.40    2.50
   6  -3  -6    5.60    2.10
  -6   3   6    7.60    1.80
  -6   3   6    6.90    2.10
  -6   3   6    4.10    1.80
   5  -3  -6    6.10    2.00
   5  -3  -6    4.00    1.10
  -5   3   6    4.20    1.70
  -5   3   6    3.10    1.40
  -5   3   6    5.60    1.70
   4  -3  -6   13.20    1.60
   4  -3  -6   16.40    1.70
   4  -3  -6   13.10    2.20
  -4   3   6   16.60    2.20
  -4   3   6   13.50    2.10
  -4   3   6   14.80    2.00
   3  -3  -6   20.70    2.20
   3  -3  -6   19.50    1.60
   3  -3  -6   23.20    1.70
  -3   3   6   21.70    2.10
  -3   3   6   22.00    1.90
   2  -3  -6    8.80    1.50
   2  -3  -6   10.50    1.30
   2  -3  -6    7.90    1.30
  -2   3   6   10.60    1.30
  -2   3   6    8.80    1.50
  -2   3   6    9.30    0.50
  -2   3   6    7.50    1.50
  -2   3   6    9.20    0.50
   1  -3  -6   79.29    3.20
   1  -3  -6   82.39    3.50
   1  -3  -6   80.29    3.00
  -1   3   6   80.89    2.70
  -1   3   6   80.69    2.40
  -1   3   6   80.79    3.60
  -1   3   6   78.99    2.60
   0  -3  -6   46.80    2.50
   0  -3  -6   50.89    2.00
   0   3   6   54.69    1.80
   0   3   6   50.69    1.70
   0   3   6   53.19    2.30
   0   3   6   48.80    2.80
  -1  -3  -6    3.00    0.50
  -1  -3  -6    3.30    1.00
  -1  -3  -6    3.10    1.00
  -1  -3  -6    3.70    0.40
   1   3   6    2.80    0.90
   1   3   6    2.90    1.00
   1   3   6    4.30    0.50
   1   3   6    3.60    0.40
  -2  -3  -6   32.60    2.10
  -2  -3  -6   27.00    2.10
   2   3   6   29.00    0.70
   2   3   6   27.30    2.30
   2   3   6   27.00    0.60
  -3  -3  -6   35.20    2.60
  -3  -3  -6   34.60    1.10
  -3  -3  -6   34.60    1.10
  -3  -3  -6   35.00    2.20
   3   3   6   34.50    1.00
   3   3   6   35.80    2.30
   3   3   6   33.50    2.90
   3   3   6   35.10    1.00
  -4  -3  -6   19.10    1.10
  -4  -3  -6   16.80    2.20
  -4  -3  -6   20.10    1.20
  -4  -3  -6   25.80    2.30
   4   3   6   19.20    1.80
   4   3   6   20.80    1.10
   4   3   6   19.90    1.10
   4   3   6   15.50    2.40
  -5  -3  -6   34.90    2.80
  -5  -3  -6   40.40    1.80
   5   3   6   38.70    3.80
   5   3   6   38.30    2.50
   5   3   6   43.90    2.00
  -6  -3  -6    1.70    0.90
  -6  -3  -6    1.80    1.50
   6   3   6    1.60    1.00
   6   3   6    0.10    1.50
  -7  -3  -6   17.10    1.90
  -7  -3  -6   18.20    2.60
   7   3   6   18.00    3.00
  -8  -3  -6    0.10    1.40
  -8  -3  -6    0.90    1.00
   8   3   6   -0.90    1.30
   7  -4  -6    1.50    2.10
  -7   4   6   -0.70    1.90
  -7   4   6    1.00    1.70
  -7   4   6    1.20    1.40
   6  -4  -6    0.00    1.30
  -6   4   6    1.40    1.60
  -6   4   6   -0.10    1.30
  -6   4   6    0.10    1.30
   5  -4  -6   10.30    2.40
  -5   4   6    9.70    1.90
  -5   4   6    5.90    2.00
  -5   4   6   10.80    1.90
   4  -4  -6   -1.20    1.00
   4  -4  -6   -0.60    0.90
   4  -4  -6   -0.60    0.70
  -4   4   6    0.80    1.30
  -4   4   6    0.70    1.10
   3  -4  -6    0.20    0.70
   3  -4  -6    0.20    1.10
  -3   4   6    0.70    0.90
  -3   4   6   -0.10    1.10
   2  -4  -6    0.60    0.70
   2  -4  -6   -0.30    0.60
   2  -4  -6   -0.60    1.00
  -2   4   6   -0.10    0.70
  -2   4   6   -0.60    0.60
   1  -4  -6    3.00    1.00
   1  -4  -6    2.60    0.90
   1  -4  -6    4.20    0.90
  -1   4   6    3.10    0.80
  -1   4   6    5.50    1.30
  -1   4   6    4.80    0.50
  -1   4   6    4.90    0.90
   0  -4  -6  119.89    4.40
   0  -4  -6  117.79    3.50
   0  -4  -6  123.59    3.30
   0   4   6  122.89    3.30
   0   4   6  122.89    4.70
   0   4   6  116.59    3.20
   0   4   6  126.49    3.80
  -1  -4  -6   35.90    1.60
  -1  -4  -6   36.80    2.20
  -1  -4  -6   37.20    2.60
   1   4   6   37.30    2.40
   1   4   6   38.80    1.50
   1   4   6   38.20    1.50
   1   4   6   32.90    2.50
  -2  -4  -6    2.30    0.60
  -2  -4  -6   -0.10    1.00
  -2  -4  -6    1.50    0.50
  -2  -4  -6    1.40    0.80
   2   4   6    2.00    0.50
   2   4   6    1.30    0.40
   2   4   6    1.20    0.90
  -3  -4  -6    3.50    1.30
  -3  -4  -6    1.70    0.60
  -3  -4  -6    1.60    1.10
  -3  -4  -6    2.10    0.60
   3   4   6    1.90    1.10
   3   4   6    2.30    0.50
   3   4   6    1.60    0.50
  -4  -4  -6   28.40    1.50
  -4  -4  -6   23.00    2.10
   4   4   6   28.20    2.00
   4   4   6   19.10    2.70
   4   4   6   29.90    1.40
   4   4   6   27.50    1.40
  -5  -4  -6   17.90    1.50
  -5  -4  -6   16.80    2.20
  -5  -4  -6   14.80    1.50
   5   4   6   16.90    1.60
   5   4   6   17.00    1.40
   5   4   6   15.60    2.60
  -6  -4  -6    1.90    0.90
  -6  -4  -6    2.60    1.60
   6   4   6    1.00    1.50
  -7  -4  -6    1.00    1.10
  -7  -4  -6    2.00    1.40
   7   4   6    2.30    1.60
  -8  -4  -6   -1.30    1.60
  -8  -4  -6   -0.30    1.10
   8   4   6    2.80    2.20
   6  -5  -6    0.00    1.40
  -6   5   6   -2.00    1.60
  -6   5   6    1.50    1.40
  -6   5   6    2.60    1.70
   5  -5  -6   -0.50    1.10
  -5   5   6   -0.50    1.50
  -5   5   6   -0.10    1.30
   4  -5  -6    1.00    1.10
  -4   5   6    0.30    1.20
  -4   5   6   -1.20    1.20
   3  -5  -6   25.80    2.10
   3  -5  -6   26.10    2.70
   3  -5  -6   21.70    1.80
  -3   5   6   23.30    2.20
  -3   5   6   25.30    2.70
   2  -5  -6    4.80    1.10
   2  -5  -6    5.10    1.20
   2  -5  -6    5.20    1.50
  -2   5   6    4.40    1.50
  -2   5   6    6.40    1.20
   1  -5  -6   -0.20    0.60
   1  -5  -6    0.10    0.80
   1  -5  -6    1.10    0.90
  -1   5   6    0.40    0.80
  -1   5   6    0.10    0.60
   0  -5  -6    8.40    1.30
   0  -5  -6    9.70    1.20
   0  -5  -6   11.30    1.80
   0   5   6   11.60    1.20
   0   5   6   11.70    1.30
   0   5   6    9.60    1.80
  -1  -5  -6    3.00    1.10
  -1  -5  -6    1.90    0.80
  -1  -5  -6    0.30    0.60
   1   5   6    0.60    0.60
   1   5   6    0.80    0.80
   1   5   6    1.00    0.80
  -2  -5  -6   -0.50    0.60
  -2  -5  -6    0.40    1.20
  -2  -5  -6   -0.60    0.60
   2   5   6    0.10    0.50
   2   5   6   -0.10    0.40
   2   5   6   -0.50    0.70
  -3  -5  -6    5.10    1.00
  -3  -5  -6    6.20    1.00
  -3  -5  -6    5.20    1.60
   3   5   6    4.60    0.80
   3   5   6    5.60    1.40
  -4  -5  -6   13.30    2.20
  -4  -5  -6   17.10    1.50
  -4  -5  -6   17.00    1.50
   4   5   6   17.10    1.50
   4   5   6   17.00    1.30
   4   5   6   19.30    2.80
  -5  -5  -6    1.10    1.40
  -5  -5  -6    2.00    0.90
   5   5   6    0.50    1.10
  -6  -5  -6   12.70    1.60
  -6  -5  -6    7.70    2.00
   6   5   6    6.80    2.10
  -7  -5  -6    1.30    1.60
  -7  -5  -6   -0.10    1.00
   7   5   6   -0.40    1.20
   6  -6  -6   -1.60    1.90
  -6   6   6    0.30    1.20
  -6   6   6   -0.20    1.40
  -6   6   6    0.60    1.30
   5  -6  -6   -0.50    1.80
  -5   6   6    0.10    1.60
  -5   6   6    0.20    1.40
   4  -6  -6    0.10    1.20
  -4   6   6   -1.20    1.00
  -4   6   6   -0.10    1.30
   3  -6  -6   -0.30    0.70
   3  -6  -6   -2.00    1.20
  -3   6   6    0.90    1.00
  -3   6   6   -2.00    1.10
   2  -6  -6   -0.60    0.70
   2  -6  -6    1.50    1.30
  -2   6   6   -0.20    0.90
  -2   6   6   -0.30    1.20
   1  -6  -6    6.60    1.50
   1  -6  -6    7.50    1.40
  -1   6   6    6.10    1.20
  -1   6   6    6.90    1.80
   0  -6  -6   45.50    2.30
   0  -6  -6   45.60    2.70
   0   6   6   41.60    2.30
   0   6   6   47.30    3.50
   0   6   6   43.90    2.30
  -1  -6  -6    7.20    1.30
  -1  -6  -6    6.40    1.20
   1   6   6    6.90    1.70
   1   6   6    6.60    1.30
   1   6   6    6.40    1.70
   1   6   6    6.30    1.10
  -2  -6  -6    6.00    1.20
  -2  -6  -6    5.80    1.10
   2   6   6    3.70    1.30
   2   6   6    3.60    1.30
   2   6   6    4.30    1.00
  -3  -6  -6    6.90    1.20
  -3  -6  -6    7.90    1.30
  -3  -6  -6    9.80    2.00
   3   6   6    5.10    1.20
   3   6   6    5.90    1.00
   3   6   6    5.40    1.60
  -4  -6  -6    6.00    1.20
  -4  -6  -6    5.40    1.80
   4   6   6    8.00    2.10
   4   6   6    8.40    1.10
  -5  -6  -6    9.10    1.50
  -5  -6  -6    9.10    2.20
   5   6   6    6.10    2.10
  -6  -6  -6    0.10    1.10
  -6  -6  -6   -0.40    1.50
   6   6   6   -1.30    1.50
  -7  -6  -6    0.80    1.70
  -7  -6  -6    1.50    1.30
   7   6   6   -0.30    1.50
   5  -7  -6   -0.30    1.30
  -5   7   6    1.70    1.90
  -5   7   6   -1.50    1.40
   4  -7  -6    0.00    1.60
  -4   7   6    0.70    1.50
  -4   7   6    0.50    1.30
   3  -7  -6   -1.00    1.30
  -3   7   6   -1.10    1.10
  -3   7   6   -1.10    0.80
   2  -7  -6    5.30    1.70
  -2   7   6    7.10    2.00
  -2   7   6    5.00    1.40
   1  -7  -6   -2.20    0.90
  -1   7   6    0.20    1.10
  -1   7   6   -0.20    1.30
   0  -7  -6   -0.20    1.00
   0   7   6   -0.40    0.80
   0   7   6   -1.60    0.70
   0   7   6    0.80    1.00
  -1  -7  -6    6.20    1.50
  -1  -7  -6    6.10    1.30
   1   7   6    5.50    1.20
   1   7   6    5.30    1.40
   1   7   6    9.60    2.10
  -2  -7  -6   11.40    1.70
   2   7   6   12.30    2.00
  -3  -7  -6    2.30    1.10
   3   7   6    2.90    1.60
  -4  -7  -6   14.00    2.30
  -4  -7  -6   16.90    2.00
   4   7   6   11.00    2.40
  -5  -7  -6    0.00    1.10
  -5  -7  -6   -0.30    1.60
   5   7   6   -1.50    1.40
  -6  -7  -6    0.80    1.40
  -6  -7  -6    0.60    1.20
   6   7   6    1.80    1.70
  -4   8   6   -0.80    1.50
   3  -8  -6    0.20    1.70
  -3   8   6    0.10    1.00
  -3   8   6   -0.70    1.50
   2  -8  -6    0.50    1.60
  -2   8   6   -1.30    1.30
   1  -8  -6    5.00    1.80
  -1   8   6    3.20    1.60
   0  -8  -6    8.90    2.00
   0   8   6   12.50    2.30
  -1  -8  -6    1.00    1.20
   1   8   6   -2.40    1.00
   1   8   6   -0.80    1.30
  -2  -8  -6    0.20    1.20
   2   8   6   -1.80    1.10
  -3  -8  -6    6.90    1.60
   3   8   6    5.40    2.00
  -4  -8  -6    1.60    1.40
   4   8   6   -0.30    1.60
   5   8   6    0.70    1.40
   1  -9  -6   -0.40    1.40
  -1   9   6    0.70    1.60
   0  -9  -6   -1.90    1.50
   0   9   6    0.10    1.60
  -1  -9  -6   -1.00    1.50
   1   9   6    1.30    1.80
  -2  -9  -6   10.00    2.10
   2   9   6   11.70    2.60
   3   9   6    7.50    2.50
   1   7  -7    1.10    1.40
  -1  -7   7   -1.20    1.80
  -1  -7   7   -0.60    2.10
  -1  -7   7    0.90    1.60
   0   7  -7    0.80    1.30
   0  -7   7   -2.30    1.90
   0  -7   7   -2.00    1.80
   0  -7   7    1.10    1.30
  -1   7  -7    2.60    1.70
   1  -7   7    2.40    2.20
   1  -7   7    3.70    1.90
   1  -7   7    1.80    2.10
  -2   7  -7    0.50    1.60
   2  -7   7    3.50    2.30
   2  -7   7    1.70    1.80
  -4  -6   7   -3.50    2.10
   3   6  -7    3.80    2.00
  -3  -6   7    1.30    1.80
  -3  -6   7    4.80    1.90
  -3  -6   7   -1.00    1.40
   2   6  -7    3.00    1.50
  -2  -6   7    5.70    2.00
  -2  -6   7    5.40    2.20
  -2  -6   7    7.70    2.00
   1   6  -7   11.50    2.10
  -1  -6   7    8.20    2.50
  -1  -6   7    7.30    1.70
  -1  -6   7   14.40    2.80
   0   6  -7    2.00    1.50
   0  -6   7    4.70    2.20
   0  -6   7   -0.70    1.70
   0  -6   7    1.30    1.40
  -1   6  -7    1.80    1.40
   1  -6   7    1.00    1.70
   1  -6   7    2.80    1.60
   1  -6   7    0.50    1.90
  -2   6  -7    1.10    1.40
   2  -6   7    3.20    1.70
   2  -6   7    1.00    1.10
   2  -6   7   -0.50    2.10
  -3   6  -7    4.20    1.70
   3  -6   7    3.40    2.50
   3  -6   7    3.80    1.90
   3  -6   7    3.10    1.90
  -4   6  -7   -0.40    1.40
  -4   6  -7   -0.50    1.20
   4  -6   7   -0.50    1.80
   5   5  -7    3.20    2.00
  -5  -5   7   -0.90    2.10
  -5  -5   7    1.10    1.80
   4   5  -7    0.00    1.50
  -4  -5   7   -2.60    1.60
  -4  -5   7    0.60    1.50
  -4  -5   7    1.90    1.50
   3   5  -7   24.80    3.10
  -3  -5   7   24.20    2.90
  -3  -5   7   18.40    2.90
  -3  -5   7   18.90    2.80
   2   5  -7   53.49    3.80
  -2  -5   7   44.60    3.40
  -2  -5   7   47.90    4.20
  -2  -5   7   44.10    4.00
   1   5  -7    6.60    1.50
  -1  -5   7    8.50    2.30
  -1  -5   7    4.50    2.00
  -1  -5   7    5.20    1.40
   0   5  -7   -0.80    1.10
   0  -5   7    1.20    1.60
   0  -5   7    2.60    1.20
   0  -5   7   -1.30    1.60
  -1   5  -7   18.60    2.00
   1  -5   7   14.70    2.50
   1  -5   7   15.90    3.00
   1  -5   7   18.40    2.40
  -2   5  -7   34.70    2.90
   2  -5   7   35.90    2.70
   2  -5   7   39.00    4.50
   2  -5   7   32.80    3.20
  -3   5  -7    0.20    1.20
   3  -5   7   -0.30    1.10
   3  -5   7   -0.40    1.20
   3  -5   7   -1.20    1.40
  -4   5  -7   24.50    2.80
  -4   5  -7   22.30    2.20
   4  -5   7   23.90    3.70
   4  -5   7   21.00    2.80
   4  -5   7   21.10    2.50
  -5   5  -7    4.10    1.70
   5  -5   7    4.20    2.80
   6   4  -7    3.20    2.30
   6   4  -7    3.20    2.40
  -6  -4   7    4.00    2.00
  -6  -4   7    5.70    2.10
   5   4  -7   24.80    3.30
  -5  -4   7   26.90    3.20
  -5  -4   7   19.40    2.70
  -5  -4   7   18.00    3.10
   4   4  -7    7.70    2.20
  -4  -4   7    6.20    1.90
  -4  -4   7   10.20    2.50
  -4  -4   7    8.00    2.00
   3   4  -7   13.30    2.30
  -3  -4   7   15.20    2.70
  -3  -4   7   13.30    2.40
  -3  -4   7   12.70    2.20
   2   4  -7   -0.60    0.60
   2   4  -7   -0.50    1.20
  -2  -4   7   -1.40    1.20
  -2  -4   7    0.40    1.20
  -2  -4   7   -0.30    1.10
   1   4  -7    7.90    1.70
   1   4  -7    5.60    0.90
  -1  -4   7    8.20    2.10
  -1  -4   7    5.50    2.00
  -1  -4   7   10.80    1.80
   0   4  -7   91.89    4.00
   0   4  -7   83.79    3.70
   0  -4   7   81.89    3.80
   0  -4   7   74.99    4.80
   0  -4   7   79.89    4.30
  -1   4  -7   28.50    2.40
  -1   4  -7   24.70    2.20
   1  -4   7   33.30    3.80
   1  -4   7   23.20    2.20
   1  -4   7   19.20    2.50
  -2   4  -7   -0.50    0.90
  -2   4  -7    0.00    1.00
   2  -4   7    1.30    1.40
   2  -4   7    1.50    1.00
   2  -4   7    1.40    1.40
  -3   4  -7    0.20    1.00
  -3   4  -7   -1.00    0.90
   3  -4   7    1.70    1.30
   3  -4   7    0.60    1.20
   3  -4   7    0.40    1.80
  -4   4  -7   12.90    2.00
  -4   4  -7   13.10    2.00
   4  -4   7   10.90    2.00
   4  -4   7    6.50    2.50
   4  -4   7    9.80    1.70
  -5   4  -7    0.80    1.10
  -5   4  -7   -0.50    1.20
   5  -4   7    1.20    1.70
  -6   4  -7    9.90    2.00
   6  -4   7   16.10    3.70
   6   3  -7   14.70    2.90
   6   3  -7    7.50    2.50
  -6  -3   7    9.40    2.50
  -6  -3   7   11.60    2.20
   5   3  -7   21.80    3.10
  -5  -3   7   16.20    2.60
  -5  -3   7   26.80    3.10
   4   3  -7   53.09    3.60
  -4  -3   7   57.69    3.70
  -4  -3   7   66.59    4.40
   3   3  -7   25.70    2.40
  -3  -3   7   32.70    3.10
  -3  -3   7   26.10    2.50
  -3  -3   7   27.80    3.20
   2   3  -7    3.50    0.90
   2   3  -7    5.50    1.50
   2   3  -7    4.00    1.10
  -2  -3   7    3.60    1.60
  -2  -3   7    4.20    1.10
  -2  -3   7    7.20    1.90
   1   3  -7   49.10    2.90
   1   3  -7   45.20    2.00
   1   3  -7   48.30    2.70
  -1  -3   7   47.60    2.70
  -1  -3   7   49.10    3.80
  -1  -3   7   53.39    3.60
   0   3  -7    7.40    1.30
   0   3  -7    5.90    0.70
   0   3  -7    5.60    1.20
   0  -3   7    5.70    1.20
   0  -3   7    4.80    1.70
   0  -3   7    5.10    1.60
  -1   3  -7   12.60    1.60
  -1   3  -7   10.30    1.50
   1  -3   7    5.10    1.80
   1  -3   7   11.90    1.60
   1  -3   7   10.40    1.80
  -2   3  -7   12.20    1.60
  -2   3  -7   15.50    1.70
   2  -3   7   13.50    1.70
   2  -3   7   14.50    2.00
   2  -3   7   10.70    2.20
  -3   3  -7   -0.60    0.70
  -3   3  -7    1.60    0.90
  -3   3  -7   -0.20    0.70
   3  -3   7    0.10    1.00
   3  -3   7   -0.50    0.80
   3  -3   7    1.00    1.60
  -4   3  -7    2.10    1.30
  -4   3  -7    1.40    0.90
  -4   3  -7    0.00    1.00
  -4   3  -7    0.70    1.00
   4  -3   7    1.40    1.90
   4  -3   7    0.70    1.00
   4  -3   7    1.30    1.00
  -5   3  -7    0.60    0.90
  -5   3  -7   -0.30    1.00
   5  -3   7   -0.40    1.00
   5  -3   7   -0.50    0.80
   5  -3   7    1.80    1.90
  -6   3  -7   23.30    2.40
   6  -3   7   16.80    3.40
  -7   3  -7   -3.20    1.30
   7  -3   7   -1.50    1.80
   7   2  -7   -1.10    1.80
   7   2  -7    0.90    2.00
  -7  -2   7    1.90    1.60
  -7  -2   7   -1.80    1.60
   6   2  -7    8.10    2.50
   6   2  -7    5.90    2.10
  -6  -2   7   11.20    2.30
  -6  -2   7    7.30    2.10
   5   2  -7    9.60    2.30
   5   2  -7    8.60    2.00
  -5  -2   7   10.50    2.00
  -5  -2   7   13.30    2.50
  -5  -2   7   11.50    2.10
   4   2  -7   43.70    3.20
  -4  -2   7   48.30    3.70
  -4  -2   7   38.60    2.90
  -4  -2   7   36.20    2.90
   3   2  -7    4.10    1.50
   3   2  -7    3.00    1.00
  -3  -2   7    3.20    1.30
  -3  -2   7    3.00    1.20
  -3  -2   7    3.60    1.30
   2   2  -7    1.50    0.90
   2   2  -7   -0.10    0.70
   2   2  -7    1.40    1.10
  -2  -2   7    1.10    0.90
  -2  -2   7    2.10    1.10
  -2  -2   7    1.30    0.70
   1   2  -7    1.60    0.90
   1   2  -7    1.10    0.80
   1   2  -7    1.70    0.60
  -1  -2   7    0.40    0.60
  -1  -2   7   -0.40    1.00
  -1  -2   7    1.50    1.20
  -1  -2   7    1.40    0.70
   0   2  -7   68.19    2.30
   0   2  -7   72.79    2.90
   0   2  -7   70.19    2.80
   0  -2   7   67.79    3.60
   0  -2   7   66.59    4.20
   0  -2   7   69.89    2.30
   0  -2   7   68.09    2.80
  -1   2  -7   47.50    2.30
  -1   2  -7   47.80    2.30
   1  -2   7   49.20    2.30
   1  -2   7   45.70    1.40
   1  -2   7   44.10    2.90
   1  -2   7   45.50    3.40
  -2   2  -7    0.90    0.80
  -2   2  -7    1.70    0.90
  -2   2  -7    1.00    0.80
   2  -2   7    1.00    1.00
   2  -2   7    1.40    0.70
   2  -2   7    0.90    1.20
  -3   2  -7  142.89    4.70
  -3   2  -7  145.69    4.30
  -3   2  -7  150.18    5.10
   3  -2   7  150.38    6.80
   3  -2   7  138.39    4.70
   3  -2   7  137.49    2.80
   3  -2   7  139.89    2.80
   3  -2   7  142.89    4.40
  -4   2  -7    7.70    1.50
  -4   2  -7    8.60    1.40
  -4   2  -7    7.00    1.30
   4  -2   7    8.20    1.50
   4  -2   7    5.90    1.20
   4  -2   7    6.30    2.10
   4  -2   7    6.40    0.70
  -5   2  -7   53.59    2.80
  -5   2  -7   57.29    3.30
   5  -2   7   57.39    3.10
   5  -2   7   57.49    2.60
   5  -2   7   56.29    4.80
  -6   2  -7    8.00    1.60
  -6   2  -7    9.60    1.70
   6  -2   7    6.20    2.10
  -7   2  -7    5.50    1.70
   7  -2   7    2.10    2.00
   7  -2   7    6.60    2.40
   7   1  -7    0.10    1.30
   7   1  -7   -2.60    1.50
  -7  -1   7   -0.90    1.60
  -7  -1   7   -0.40    1.10
  -7  -1   7   -0.10    1.00
   6   1  -7   19.70    2.80
   6   1  -7   27.10    3.40
  -6  -1   7   21.90    2.70
  -6  -1   7   19.70    2.90
  -6  -1   7   21.40    2.90
   5   1  -7   99.59    5.10
   5   1  -7   88.79    4.70
  -5  -1   7  105.89    4.80
  -5  -1   7   93.59    4.80
  -5  -1   7  102.99    5.10
   4   1  -7   93.69    4.60
  -4  -1   7   96.19    4.60
  -4  -1   7   92.69    4.10
  -4  -1   7   90.89    4.10
   3   1  -7    2.00    1.00
   3   1  -7    1.30    1.00
  -3  -1   7    0.80    1.00
  -3  -1   7    2.80    1.10
  -3  -1   7    0.80    1.00
   2   1  -7   59.59    2.80
   2   1  -7   61.49    2.80
   2   1  -7   60.09    3.00
  -2  -1   7   63.49    3.60
  -2  -1   7   55.49    3.20
  -2  -1   7   57.09    2.70
  -2  -1   7   57.69    2.80
   1   1  -7   24.00    1.80
   1   1  -7   25.20    1.70
   1   1  -7   25.50    1.70
  -1  -1   7   25.30    1.70
  -1  -1   7   24.90    1.60
  -1  -1   7   27.00    2.40
  -1  -1   7   25.90    2.30
   0   1  -7    3.00    0.70
   0   1  -7    2.00    0.70
   0   1  -7    3.20    0.70
   0   1  -7    2.20    0.80
   0  -1   7    2.20    0.70
   0  -1   7    2.10    0.70
   0  -1   7    1.10    1.00
   0  -1   7    3.00    0.90
   0  -1   7    2.40    1.30
  -1   1  -7  111.59    3.30
  -1   1  -7  111.89    3.20
  -1   1  -7  112.39    4.20
  -1   1  -7  113.99    3.20
   1  -1   7  106.59    3.20
   1  -1   7  107.29    5.00
   1  -1   7  113.19    3.40
   1  -1   7  112.69    4.20
   1  -1   7  114.49    3.10
  -2   1  -7   60.39    2.20
  -2   1  -7   58.69    2.20
  -2   1  -7   56.39    2.60
  -2   1  -7   59.49    2.90
  -2   1  -7   63.79    3.20
   2  -1   7   63.59    4.10
   2  -1   7   63.09    2.30
   2  -1   7   62.99    2.10
   2  -1   7   60.29    3.00
   2  -1   7   62.39    2.30
  -3   1  -7   17.50    2.10
  -3   1  -7   17.40    1.30
  -3   1  -7   17.10    1.30
   3  -1   7   14.80    1.70
   3  -1   7   17.00    1.30
   3  -1   7   17.30    2.50
   3  -1   7   16.80    1.30
  -4   1  -7    8.40    1.60
  -4   1  -7    8.60    1.20
  -4   1  -7    9.70    1.20
   4  -1   7   12.80    2.40
   4  -1   7   10.10    1.10
   4  -1   7    8.70    1.30
   4  -1   7    7.20    1.20
  -5   1  -7   80.99    3.10
  -5   1  -7   74.29    3.80
  -5   1  -7   72.29    3.00
  -5   1  -7   73.59    3.70
   5  -1   7   76.29    5.00
   5  -1   7   74.79    2.90
   5  -1   7   73.29    2.70
   5  -1   7   71.09    3.20
  -6   1  -7   57.19    3.00
  -6   1  -7   57.29    3.80
   6  -1   7   60.69    4.70
  -7   1  -7    9.10    1.60
  -7   1  -7    9.70    1.70
  -7   1  -7    7.40    1.90
   7  -1   7    8.10    2.40
   7  -1   7    5.50    2.20
  -8   1  -7   -1.00    1.60
   8  -1   7   -0.10    1.80
   8  -1   7    0.60    1.50
   7   0  -7   19.60    3.30
   7   0  -7   13.00    2.40
  -7   0   7   18.60    2.70
  -7   0   7   18.10    3.10
  -7   0   7   22.60    3.10
   6   0  -7    2.80    1.90
   6   0  -7   -1.20    1.20
  -6   0   7    0.70    1.60
  -6   0   7    2.70    1.70
  -6   0   7   -1.00    1.30
   5   0  -7   32.90    3.40
  -5   0   7   37.80    3.00
  -5   0   7   34.30    3.20
  -5   0   7   37.40    3.20
   4   0  -7    0.20    1.30
   4   0  -7   -1.50    0.90
  -4   0   7    0.60    1.00
  -4   0   7   -1.00    0.90
  -4   0   7    2.30    1.40
  -4   0   7   -1.30    1.10
   3   0  -7  146.59    4.70
   3   0  -7  145.09    5.10
  -3   0   7  139.19    5.40
  -3   0   7  135.89    4.60
  -3   0   7  138.39    5.10
  -3   0   7  135.99    4.90
   2   0  -7   78.59    3.30
   2   0  -7   70.99    2.90
   2   0  -7   75.09    3.20
  -2   0   7   68.39    3.40
  -2   0   7   72.69    3.60
  -2   0   7   73.89    2.90
  -2   0   7   72.09    3.20
   1   0  -7   38.90    2.10
   1   0  -7   40.50    2.20
   1   0  -7   41.20    2.00
   1   0  -7   41.10    1.60
  -1   0   7   41.60    2.50
  -1   0   7   39.50    2.10
  -1   0   7   38.10    2.20
  -1   0   7   39.60    1.90
  -1   0   7   47.70    3.00
   0   0  -7   46.10    1.90
   0   0  -7   46.60    1.80
   0   0  -7   45.00    1.90
   0   0   7   45.40    2.00
   0   0   7   45.10    1.80
   0   0   7   44.90    2.80
   0   0   7   44.20    2.10
  -1   0  -7    2.60    0.80
  -1   0  -7    1.70    0.90
  -1   0  -7    3.50    0.60
   1   0   7    2.60    0.70
   1   0   7    4.00    0.60
   1   0   7    2.60    0.60
   1   0   7    2.80    1.30
   1   0   7    0.50    0.90
  -2   0  -7   83.29    2.30
  -2   0  -7   90.59    3.80
  -2   0  -7   93.49    3.30
   2   0   7   92.49    2.40
   2   0   7   94.09    2.50
   2   0   7   92.19    3.10
   2   0   7   97.69    4.60
   2   0   7   92.39    3.60
  -3   0  -7    9.20    0.90
  -3   0  -7    8.90    1.50
  -3   0  -7    5.90    0.70
  -3   0  -7    8.00    1.50
   3   0   7    7.90    0.90
   3   0   7    6.90    1.20
   3   0   7    7.90    0.80
   3   0   7    7.60    1.70
  -4   0  -7   75.89    2.50
  -4   0  -7   77.79    3.60
  -4   0  -7   75.69    3.70
   4   0   7   73.79    4.40
   4   0   7   78.29    2.50
   4   0   7   77.59    3.00
   4   0   7   80.09    2.70
  -5   0  -7   49.00    2.20
  -5   0  -7   44.80    2.20
  -5   0  -7   48.20    3.20
  -5   0  -7   40.70    2.90
   5   0   7   48.20    3.80
   5   0   7   45.30    2.40
   5   0   7   46.80    2.10
   5   0   7   41.00    2.30
  -6   0  -7   13.30    1.60
  -6   0  -7   12.20    2.00
  -6   0  -7   14.00    2.30
   6   0   7    8.30    2.20
   6   0   7   15.40    2.90
  -7   0  -7   -0.10    1.00
  -7   0  -7   -1.60    1.30
   7   0   7   -1.10    1.40
   7   0   7    1.60    1.70
  -8   0  -7   -0.70    1.60
  -8   0  -7    0.40    1.10
   8   0   7   -0.10    2.10
   8   0   7   -1.00    1.70
   7  -1  -7   21.80    3.50
  -7   1   7   28.00    3.10
  -7   1   7   18.10    3.10
  -7   1   7   21.60    3.10
   6  -1  -7   28.50    3.10
   6  -1  -7   26.20    2.80
  -6   1   7   28.40    3.10
  -6   1   7   32.00    3.60
  -6   1   7   34.80    3.10
   5  -1  -7   76.49    4.50
  -5   1   7   74.39    4.20
  -5   1   7   78.99    4.00
  -5   1   7   78.89    4.30
  -5   1   7   71.59    3.80
   4  -1  -7   46.50    3.30
   4  -1  -7   43.10    2.70
  -4   1   7   33.00    3.00
  -4   1   7   41.70    2.70
  -4   1   7   38.90    2.90
  -4   1   7   43.00    2.80
   3  -1  -7   56.69    3.20
   3  -1  -7   65.09    3.00
  -3   1   7   66.99    3.70
  -3   1   7   65.19    3.40
  -3   1   7   57.89    2.90
  -3   1   7   64.29    3.00
   2  -1  -7    0.80    0.90
   2  -1  -7    0.70    0.70
   2  -1  -7    0.20    0.70
  -2   1   7    1.50    1.00
  -2   1   7    0.60    0.70
  -2   1   7   -0.30    0.70
  -2   1   7    1.80    0.70
   1  -1  -7   18.20    1.70
   1  -1  -7   16.90    1.40
   1  -1  -7   15.60    1.60
   1  -1  -7   14.60    1.20
  -1   1   7   15.40    1.60
  -1   1   7   17.40    1.20
  -1   1   7   18.00    1.40
  -1   1   7   16.20    1.80
   0  -1  -7   31.20    1.40
   0  -1  -7   32.00    1.70
   0  -1  -7   33.50    2.30
   0   1   7   31.40    2.00
   0   1   7   31.30    1.30
   0   1   7   30.50    1.50
   0   1   7   32.10    2.40
  -1  -1  -7   94.39    2.00
  -1  -1  -7   96.29    2.00
  -1  -1  -7   93.79    3.80
  -1  -1  -7   89.79    3.10
   1   1   7   91.99    2.10
   1   1   7   96.69    3.40
   1   1   7   89.99    2.00
   1   1   7   98.29    3.90
  -2  -1  -7    7.50    1.40
  -2  -1  -7    4.90    1.00
   2   1   7    4.90    1.10
   2   1   7    3.70    0.90
   2   1   7    4.80    1.40
  -3  -1  -7    2.10    0.90
  -3  -1  -7    3.20    0.30
  -3  -1  -7    2.70    0.30
  -3  -1  -7    2.20    1.10
   3   1   7    1.60    1.10
   3   1   7    2.30    0.80
   3   1   7    3.00    0.30
   3   1   7    3.90    0.40
  -4  -1  -7  238.78    6.80
  -4  -1  -7  251.97    5.00
  -4  -1  -7  246.58    5.00
  -4  -1  -7  246.18    7.30
   4   1   7  256.97    8.20
   4   1   7  249.38    5.20
   4   1   7  252.37    5.00
   4   1   7  255.27    6.40
  -5  -1  -7   51.09    3.30
  -5  -1  -7   57.89    3.40
  -5  -1  -7   47.90    2.00
   5   1   7   54.69    4.40
   5   1   7   47.00    2.20
   5   1   7   46.40    3.50
   5   1   7   49.80    2.20
  -6  -1  -7   11.00    1.40
  -6  -1  -7   10.70    2.10
  -6  -1  -7   10.90    2.00
   6   1   7    9.70    2.10
   6   1   7    9.70    2.50
  -7  -1  -7    4.80    1.30
  -7  -1  -7    4.60    1.90
   7   1   7    1.30    1.80
   7   1   7    2.00    1.50
  -8  -1  -7    0.40    1.10
  -8  -1  -7    3.60    1.90
   8   1   7    1.90    2.30
   8   1   7   -0.70    1.40
   7  -2  -7    1.30    2.00
  -7   2   7    1.50    1.60
  -7   2   7    0.60    1.70
  -7   2   7   -0.80    1.90
   6  -2  -7   35.10    3.80
  -6   2   7   28.80    3.00
  -6   2   7   32.20    3.70
  -6   2   7   31.90    3.10
   5  -2  -7    0.40    1.50
  -5   2   7   -0.10    1.20
  -5   2   7   -1.60    1.00
  -5   2   7   -1.20    1.30
   4  -2  -7    7.70    1.50
   4  -2  -7    9.30    1.90
  -4   2   7    6.80    1.50
  -4   2   7    7.00    1.60
  -4   2   7    6.00    1.70
  -4   2   7    5.20    1.00
   3  -2  -7   22.80    1.90
   3  -2  -7   27.00    2.40
   3  -2  -7   23.10    1.90
  -3   2   7   24.80    2.20
  -3   2   7   22.60    1.60
  -3   2   7   23.10    1.90
  -3   2   7   21.30    2.40
   2  -2  -7   96.39    3.80
   2  -2  -7  100.39    3.80
   2  -2  -7  100.99    3.30
  -2   2   7  100.49    4.40
  -2   2   7  101.09    3.40
  -2   2   7  103.79    3.30
  -2   2   7   99.39    4.00
   1  -2  -7  100.79    3.00
   1  -2  -7  101.99    4.00
   1  -2  -7  104.29    3.30
   1  -2  -7  104.39    4.00
  -1   2   7  101.39    4.20
  -1   2   7   99.49    4.00
  -1   2   7  100.39    3.00
  -1   2   7  104.49    3.20
   0  -2  -7   83.39    3.50
   0  -2  -7   84.09    2.40
   0  -2  -7   83.49    2.90
   0   2   7   81.69    2.30
   0   2   7   83.69    3.50
   0   2   7   82.19    3.60
   0   2   7   82.89    2.20
  -1  -2  -7    0.20    0.80
  -1  -2  -7   -0.70    0.60
   1   2   7   -0.30    0.60
  -2  -2  -7  134.89    4.20
  -2  -2  -7  134.79    4.90
  -3  -2  -7   50.19    3.10
  -3  -2  -7   52.89    2.80
   3   2   7   52.49    3.20
   3   2   7   53.69    3.50
  -4  -2  -7   78.89    3.60
  -4  -2  -7   82.09    1.80
  -4  -2  -7   78.89    1.80
  -4  -2  -7   78.89    4.00
   4   2   7   85.39    4.90
   4   2   7   79.69    4.10
   4   2   7   81.89    1.90
   4   2   7   78.89    1.80
  -5  -2  -7  107.39    4.60
  -5  -2  -7  105.89    3.00
  -5  -2  -7  102.69    4.80
  -5  -2  -7  107.89    2.90
   5   2   7  108.89    3.10
   5   2   7  104.79    2.80
   5   2   7  111.49    6.10
   5   2   7  105.59    4.90
   5   2   7  107.19    3.70
  -6  -2  -7    5.60    1.50
  -6  -2  -7    4.10    1.00
   6   2   7    5.40    0.90
   6   2   7    5.60    1.50
   6   2   7    4.90    2.00
  -7  -2  -7    2.70    1.10
  -7  -2  -7    2.10    1.30
   7   2   7    0.80    1.40
   7   2   7   -0.30    1.10
  -8  -2  -7    1.80    1.80
  -8  -2  -7    4.30    1.40
   8   2   7    3.30    1.70
   7  -3  -7    2.40    1.80
  -7   3   7    1.20    1.30
  -7   3   7   -0.80    1.40
  -7   3   7    4.70    1.70
   6  -3  -7   43.60    4.10
  -6   3   7   40.60    3.60
  -6   3   7   39.90    3.40
  -6   3   7   36.60    3.50
   5  -3  -7   41.90    3.70
   5  -3  -7   40.00    2.60
  -5   3   7   39.10    3.30
  -5   3   7   44.80    3.20
  -5   3   7   47.00    3.80
   4  -3  -7   29.60    2.20
   4  -3  -7   27.90    2.90
   4  -3  -7   25.10    2.20
  -4   3   7   28.10    2.20
  -4   3   7   26.10    2.70
  -4   3   7   23.60    2.50
   3  -3  -7   40.60    2.40
   3  -3  -7   34.60    2.80
   3  -3  -7   33.50    2.20
  -3   3   7   35.80    2.40
  -3   3   7   35.30    3.00
  -3   3   7   35.70    1.30
  -3   3   7   35.30    2.90
   2  -3  -7    8.90    1.20
   2  -3  -7    7.80    1.40
   2  -3  -7    8.00    1.40
  -2   3   7    7.00    1.60
  -2   3   7    8.50    1.20
  -2   3   7    7.10    0.80
   1  -3  -7    8.10    1.30
   1  -3  -7    8.90    1.50
   1  -3  -7    8.10    1.00
  -1   3   7    8.00    1.40
  -1   3   7    7.50    1.00
  -1   3   7    8.60    1.00
   0  -3  -7   73.39    2.40
   0  -3  -7   64.69    3.20
   0  -3  -7   67.99    2.90
   0   3   7   73.79    2.20
   0   3   7   72.59    2.20
   0   3   7   75.09    3.50
  -1  -3  -7   21.80    1.70
  -1  -3  -7   25.20    2.20
  -1  -3  -7   23.90    0.70
  -1  -3  -7   24.60    0.70
   1   3   7   25.50    0.70
   1   3   7   25.00    2.20
   1   3   7   25.10    2.00
   1   3   7   23.60    0.70
  -2  -3  -7    9.60    1.70
  -2  -3  -7   13.00    1.70
   2   3   7    8.50    1.50
  -3  -3  -7   95.99    3.90
  -3  -3  -7   95.69    4.40
   3   3   7   88.39    4.00
   3   3   7   95.29    4.80
  -4  -3  -7    6.20    0.50
  -4  -3  -7    7.10    0.50
  -4  -3  -7    8.00    1.70
  -4  -3  -7    7.00    1.70
   4   3   7    6.50    1.70
   4   3   7    6.80    1.50
   4   3   7    7.20    0.50
  -5  -3  -7    0.30    1.00
  -5  -3  -7    1.20    0.60
  -5  -3  -7    0.30    0.50
  -5  -3  -7    1.40    1.10
   5   3   7    1.10    1.50
   5   3   7    0.10    1.00
  -6  -3  -7    1.40    1.20
  -6  -3  -7    0.60    0.70
   6   3   7    1.40    1.70
   6   3   7    0.60    0.90
  -7  -3  -7    4.00    1.10
  -7  -3  -7    1.90    1.60
   7   3   7    3.40    1.70
  -8  -3  -7    5.30    1.40
  -8  -3  -7    3.30    2.00
   8   3   7    7.20    2.60
   6  -4  -7    9.10    2.50
  -6   4   7    9.00    2.20
  -6   4   7   11.10    2.70
  -6   4   7    4.30    1.70
   5  -4  -7    5.80    2.20
  -5   4   7    8.10    2.30
  -5   4   7    4.20    1.60
  -5   4   7    5.30    1.70
   4  -4  -7   20.00    2.10
   4  -4  -7   18.80    1.90
   4  -4  -7   19.00    2.60
  -4   4   7   16.20    2.40
  -4   4   7   17.80    2.70
  -4   4   7   15.90    2.10
   3  -4  -7   45.10    3.20
   3  -4  -7   40.50    2.50
   3  -4  -7   44.00    2.60
  -3   4   7   47.00    3.20
  -3   4   7   48.90    2.70
   2  -4  -7    1.60    0.80
   2  -4  -7    3.40    1.20
   2  -4  -7    3.10    1.20
  -2   4   7    1.90    1.00
  -2   4   7    3.60    0.90
   1  -4  -7   29.10    1.70
   1  -4  -7   27.20    2.20
   1  -4  -7   29.40    2.10
  -1   4   7   31.30    1.40
  -1   4   7   29.30    1.70
  -1   4   7   34.10    2.70
   0  -4  -7   36.20    1.90
   0  -4  -7   34.90    1.60
   0  -4  -7   32.70    2.30
   0   4   7   35.60    2.50
   0   4   7   39.90    2.20
   0   4   7   34.20    1.60
   0   4   7   32.60    1.60
  -1  -4  -7    4.80    1.40
  -1  -4  -7    8.00    0.80
  -1  -4  -7    7.20    1.50
  -1  -4  -7    7.10    0.90
   1   4   7    7.40    0.70
   1   4   7    7.20    0.70
   1   4   7    3.70    1.30
   1   4   7    6.00    1.20
  -2  -4  -7    0.80    0.70
  -2  -4  -7    0.90    0.30
  -2  -4  -7    0.10    0.90
  -2  -4  -7    0.50    0.30
   2   4   7    0.60    0.30
   2   4   7    1.00    0.90
   2   4   7    0.80    0.30
  -3  -4  -7   19.20    2.50
  -3  -4  -7   14.60    0.70
  -3  -4  -7   13.10    1.90
  -3  -4  -7   13.70    0.70
   3   4   7   15.60    2.20
   3   4   7   14.20    0.70
   3   4   7   15.20    0.70
  -4  -4  -7    5.40    1.40
  -4  -4  -7    3.60    0.60
  -4  -4  -7    3.60    1.40
  -4  -4  -7    3.00    0.60
   4   4   7    2.80    1.00
   4   4   7    2.90    1.30
   4   4   7    3.30    0.50
   4   4   7    3.90    0.60
  -5  -4  -7    3.50    0.80
  -5  -4  -7    2.80    1.30
  -5  -4  -7    1.20    0.70
   5   4   7    2.90    1.00
   5   4   7    0.80    1.40
  -6  -4  -7    1.30    1.50
  -6  -4  -7    0.60    0.80
   6   4   7   -0.10    1.50
  -7  -4  -7    3.00    1.00
  -7  -4  -7    3.10    1.50
   7   4   7    1.30    1.50
   6  -5  -7    3.30    2.30
  -6   5   7    0.50    1.40
  -6   5   7    1.50    1.60
  -6   5   7    0.70    1.50
   5  -5  -7   13.50    2.50
  -5   5   7   19.00    2.60
  -5   5   7   17.20    2.60
  -5   5   7   15.30    2.80
   4  -5  -7   31.70    2.30
   4  -5  -7   36.30    3.40
  -4   5   7   26.20    2.30
  -4   5   7   29.60    3.30
   3  -5  -7    0.90    1.30
   3  -5  -7    3.20    1.10
   3  -5  -7    1.80    1.10
  -3   5   7    3.50    1.20
  -3   5   7    2.10    1.20
   2  -5  -7    7.10    1.50
   2  -5  -7    5.40    1.40
   2  -5  -7    6.20    1.20
  -2   5   7    4.10    1.10
  -2   5   7    7.10    1.80
   1  -5  -7   25.50    2.30
   1  -5  -7   22.30    1.60
   1  -5  -7   20.50    2.10
  -1   5   7   20.70    2.60
  -1   5   7   21.80    0.70
  -1   5   7   22.50    1.60
   0  -5  -7    1.70    0.90
   0  -5  -7    3.10    0.80
   0  -5  -7    1.40    1.10
   0   5   7    1.60    0.70
   0   5   7    1.80    0.70
   0   5   7    2.50    1.30
  -1  -5  -7    5.30    1.00
  -1  -5  -7    4.70    1.40
  -1  -5  -7    3.20    0.70
   1   5   7    4.60    0.80
   1   5   7    4.00    1.10
   1   5   7    5.30    1.50
   1   5   7    5.00    0.80
  -2  -5  -7    3.60    1.30
  -2  -5  -7    4.40    1.40
  -2  -5  -7    2.70    0.80
  -2  -5  -7    3.40    0.70
   2   5   7    4.00    1.30
   2   5   7    2.70    0.60
  -3  -5  -7   28.80    1.50
  -3  -5  -7   26.70    2.70
  -3  -5  -7   28.90    2.70
  -3  -5  -7   27.00    1.50
   3   5   7   31.70    3.00
   3   5   7   27.90    1.30
   3   5   7   28.20    1.30
  -4  -5  -7    9.90    1.20
  -4  -5  -7    7.10    1.90
  -4  -5  -7   11.60    1.10
   4   5   7    9.00    1.40
   4   5   7    8.50    2.10
  -5  -5  -7    3.70    1.40
  -5  -5  -7    6.00    1.00
   5   5   7    5.40    2.00
  -6  -5  -7   10.40    2.20
  -6  -5  -7    8.60    1.30
   6   5   7   10.10    2.40
  -7  -5  -7    2.10    1.10
  -7  -5  -7    0.80    1.70
   7   5   7    0.00    1.50
   5  -6  -7    0.60    1.80
  -5   6   7   -0.80    1.30
  -5   6   7    0.40    1.50
   4  -6  -7    5.60    2.10
  -4   6   7    2.00    1.80
  -4   6   7    4.30    1.50
   3  -6  -7    6.00    1.90
   3  -6  -7    0.90    1.00
  -3   6   7    3.90    1.30
  -3   6   7    5.70    1.70
   2  -6  -7   14.90    2.00
   2  -6  -7   14.60    2.10
  -2   6   7   14.10    2.40
  -2   6   7   16.30    1.80
   1  -6  -7   22.80    2.00
   1  -6  -7   30.20    2.50
   1  -6  -7   23.50    2.30
  -1   6   7   24.00    2.00
  -1   6   7   24.20    3.00
   0  -6  -7   -0.60    1.00
   0  -6  -7    0.50    0.80
   0  -6  -7    1.00    1.10
   0   6   7    0.10    0.90
   0   6   7   -0.20    0.60
   0   6   7    0.40    0.60
  -1  -6  -7    0.30    0.70
  -1  -6  -7    1.00    0.90
   1   6   7    0.40    0.70
   1   6   7   -0.20    0.80
   1   6   7    1.10    1.30
  -2  -6  -7    4.50    0.90
  -2  -6  -7    3.60    1.00
   2   6   7    1.20    1.20
  -3  -6  -7   10.90    2.00
  -3  -6  -7   11.70    1.40
   3   6   7    8.00    1.90
  -4  -6  -7   31.10    2.00
  -4  -6  -7   33.30    2.80
   4   6   7   29.90    3.40
   4   6   7   33.40    2.40
  -5  -6  -7   -0.20    0.80
  -5  -6  -7   -1.20    1.40
   5   6   7    0.20    0.90
  -6  -6  -7    4.40    1.70
  -6  -6  -7    3.20    1.10
   6   6   7   -0.20    1.60
   4  -7  -7    0.90    1.90
  -4   7   7    2.00    1.90
   3  -7  -7    8.20    2.10
  -3   7   7    7.20    1.70
  -3   7   7    7.70    2.20
   2  -7  -7    0.30    1.40
  -2   7   7    2.30    1.20
  -2   7   7    2.10    1.30
   1  -7  -7   -0.50    1.30
  -1   7   7   -1.00    0.80
  -1   7   7    0.10    1.30
   0  -7  -7    0.00    1.10
   0   7   7   -0.80    0.80
   0   7   7    0.10    1.30
  -1  -7  -7    2.80    1.10
   1   7   7   -0.70    0.80
   1   7   7    2.40    1.60
  -2  -7  -7   -0.30    1.00
   2   7   7   -0.40    0.80
   2   7   7   -0.50    1.00
  -3  -7  -7    7.10    1.40
   3   7   7    5.30    1.70
  -4  -7  -7   -0.40    0.90
  -4  -7  -7   -1.50    1.50
   4   7   7    0.40    1.30
  -5  -7  -7    5.20    2.20
  -5  -7  -7    4.60    1.30
   5   7   7    2.80    1.80
   3  -8  -7    1.60    1.80
  -3   8   7    0.50    1.70
   2  -8  -7    0.50    1.70
  -2   8   7   -0.70    1.50
   1  -8  -7    2.00    1.50
  -1   8   7    5.80    2.10
   0  -8  -7   -0.90    1.30
   0   8   7    0.10    1.60
  -1  -8  -7    0.90    1.40
   1   8   7   -0.10    1.50
  -2  -8  -7    2.80    1.40
   2   8   7    0.70    1.40
   2   8   7    5.70    2.00
  -3  -8  -7   -0.10    1.30
   3   8   7    0.20    1.50
  -4  -8  -7    0.80    1.20
   4   8   7   -0.80    1.60
   0  -9  -7    0.30    1.50
   0   9   7    1.80    1.90
  -1  -9  -7    2.20    1.60
   1   9   7    2.20    1.60
   2   9   7    0.20    1.20
   2   6  -8    0.60    1.60
  -2  -6   8    0.10    1.90
  -2  -6   8   -1.00    2.00
  -2  -6   8    2.40    1.60
   1   6  -8    1.30    1.50
  -1  -6   8   -2.10    1.80
  -1  -6   8    0.70    1.50
  -1  -6   8   -2.00    1.60
   0   6  -8   16.50    2.60
   0  -6   8   17.20    2.50
   0  -6   8   19.10    3.20
   0  -6   8   16.90    3.30
  -1   6  -8    0.40    1.40
   1  -6   8    2.10    1.80
   1  -6   8   -0.10    1.10
   1  -6   8    1.20    2.10
  -2   6  -8   16.50    2.60
   2  -6   8   18.60    3.70
   2  -6   8   17.90    2.80
  -3   6  -8    1.60    1.60
   3  -6   8    0.00    1.60
   3  -6   8    1.70    2.50
   4   5  -8    3.10    1.80
  -4  -5   8   -0.30    1.40
  -4  -5   8   -0.30    1.40
  -4  -5   8    0.10    2.30
   3   5  -8    5.80    2.00
  -3  -5   8    7.10    2.20
  -3  -5   8    5.00    1.90
  -3  -5   8    5.40    2.10
   2   5  -8    2.40    1.60
  -2  -5   8   -1.10    1.30
  -2  -5   8    0.50    1.80
  -2  -5   8    0.90    1.30
   1   5  -8    0.40    1.20
  -1  -5   8   -2.70    1.60
  -1  -5   8    1.10    1.80
  -1  -5   8    0.60    1.30
   0   5  -8   24.00    2.60
   0  -5   8   18.90    2.70
   0  -5   8   22.20    3.50
   0  -5   8   23.00    2.60
  -1   5  -8   38.20    3.00
   1  -5   8   36.80    3.60
   1  -5   8   27.50    3.90
   1  -5   8   27.80    2.70
  -2   5  -8   10.40    2.00
   2  -5   8    8.90    2.10
   2  -5   8   10.40    2.00
   2  -5   8    6.20    2.60
  -3   5  -8   26.80    2.80
   3  -5   8   19.30    3.60
   3  -5   8   21.40    2.80
  -4   5  -8   46.40    3.40
   4  -5   8   46.50    3.60
   4  -5   8   48.30    5.50
   5   4  -8   -1.60    1.50
  -5  -4   8   -1.00    1.40
  -5  -4   8    0.60    1.50
  -5  -4   8   -0.20    2.10
   4   4  -8    0.60    1.50
  -4  -4   8    3.70    1.90
  -4  -4   8    1.00    1.60
  -4  -4   8   -0.40    1.80
   3   4  -8    3.30    1.60
  -3  -4   8   -0.10    1.80
  -3  -4   8    3.10    1.90
  -3  -4   8    3.10    1.60
   2   4  -8   17.90    2.50
  -2  -4   8   22.80    2.50
  -2  -4   8   14.10    2.70
  -2  -4   8   24.30    3.20
   1   4  -8   34.00    2.80
  -1  -4   8   31.40    3.50
  -1  -4   8   28.90    2.60
  -1  -4   8   32.60    3.70
   0   4  -8   20.60    2.10
   0   4  -8   18.30    2.30
   0  -4   8   21.60    3.20
   0  -4   8   17.00    2.60
   0  -4   8   17.20    2.10
  -1   4  -8   52.89    3.40
  -1   4  -8   46.60    3.00
   1  -4   8   44.90    2.90
   1  -4   8   49.90    4.70
   1  -4   8   51.59    3.80
  -2   4  -8   16.10    2.10
   2  -4   8   17.90    2.50
   2  -4   8   16.90    3.20
   2  -4   8   17.00    2.20
  -3   4  -8    1.00    1.20
  -3   4  -8    2.40    1.20
   3  -4   8    3.90    1.40
   3  -4   8    3.80    1.60
   3  -4   8    3.30    2.30
  -4   4  -8    0.50    1.20
  -4   4  -8   -0.20    1.00
   4  -4   8    0.00    1.30
   4  -4   8    0.50    1.40
  -5   4  -8    8.80    1.80
  -5   4  -8    7.80    1.80
   5  -4   8   11.10    3.10
  -6  -3   8   -3.10    1.60
   5   3  -8    8.80    2.50
  -5  -3   8    2.70    2.10
  -5  -3   8    6.60    1.70
   4   3  -8    0.80    1.60
  -4  -3   8    2.70    1.50
  -4  -3   8    2.60    1.60
  -4  -3   8    4.60    1.60
   3   3  -8   29.80    2.90
  -3  -3   8   32.60    2.80
  -3  -3   8   31.50    3.30
  -3  -3   8   30.80    3.10
   2   3  -8   11.60    1.90
   2   3  -8    8.90    1.40
   2   3  -8   12.50    1.70
  -2  -3   8    7.30    1.60
  -2  -3   8    9.60    2.20
  -2  -3   8    9.80    2.30
   1   3  -8    7.30    1.50
   1   3  -8    7.10    1.00
   1   3  -8    5.50    1.30
  -1  -3   8    6.50    2.00
  -1  -3   8    7.50    1.50
  -1  -3   8    2.60    1.40
   0   3  -8    4.70    1.20
   0   3  -8    2.20    1.10
   0  -3   8    3.60    1.90
   0  -3   8    3.20    1.10
   0  -3   8    2.50    1.50
  -1   3  -8   15.10    1.80
  -1   3  -8   19.50    1.80
   1  -3   8   18.90    2.80
   1  -3   8   19.50    2.40
   1  -3   8   16.60    1.70
  -2   3  -8    0.00    0.80
  -2   3  -8    0.80    0.90
   2  -3   8    0.10    1.20
   2  -3   8   -0.50    0.90
   2  -3   8    3.80    1.70
  -3   3  -8  196.58    6.50
  -3   3  -8  201.58    5.80
   3  -3   8  196.38    8.50
   3  -3   8  193.38    6.00
   3  -3   8  196.48    6.40
  -4   3  -8   88.59    3.80
  -4   3  -8   90.09    4.30
   4  -3   8   87.29    4.00
   4  -3   8   89.19    5.80
  -5   3  -8    1.90    1.20
  -5   3  -8    2.80    1.20
   5  -3   8    2.40    1.70
  -6   3  -8   17.70    2.40
  -6   3  -8   19.60    2.30
   6  -3   8   18.30    3.30
   6   2  -8   23.30    3.30
  -6  -2   8   19.00    2.90
  -6  -2   8   22.30    3.00
   5   2  -8    0.20    1.50
  -5  -2   8   -0.30    1.30
  -5  -2   8    0.10    1.30
  -5  -2   8    0.20    1.60
   4   2  -8    5.10    1.80
  -4  -2   8    2.70    1.40
  -4  -2   8    4.90    1.60
  -4  -2   8    3.00    1.40
   3   2  -8   33.40    2.60
   3   2  -8   31.70    2.90
  -3  -2   8   36.20    2.70
  -3  -2   8   29.70    2.50
  -3  -2   8   35.50    3.40
   2   2  -8    0.50    1.10
   2   2  -8    2.50    1.20
   2   2  -8    0.10    0.70
  -2  -2   8    1.30    0.90
  -2  -2   8    2.20    1.00
  -2  -2   8    3.20    1.60
   1   2  -8   82.09    3.40
   1   2  -8   83.79    3.60
   1   2  -8   80.49    3.00
  -1  -2   8   75.09    3.30
  -1  -2   8   87.19    4.50
  -1  -2   8   77.59    4.80
  -1  -2   8   80.99    3.00
   0   2  -8    2.40    1.00
   0   2  -8    3.30    1.00
   0   2  -8    4.70    0.90
   0  -2   8    1.30    1.30
   0  -2   8    2.40    1.00
   0  -2   8    2.40    1.50
   0  -2   8    3.20    0.70
  -1   2  -8    6.30    1.20
  -1   2  -8    5.70    1.10
   1  -2   8    7.80    2.00
   1  -2   8    2.80    1.30
   1  -2   8    4.50    1.00
   1  -2   8    4.50    0.60
  -2   2  -8    2.50    0.90
  -2   2  -8    3.10    1.30
  -2   2  -8    1.20    0.90
   2  -2   8    2.20    1.20
   2  -2   8    2.40    1.40
   2  -2   8    1.60    0.70
   2  -2   8    2.20    0.20
  -3   2  -8   84.99    3.20
  -3   2  -8   78.49    3.90
   3  -2   8   85.99    3.90
   3  -2   8   73.69    5.30
   3  -2   8   73.09    3.10
  -4   2  -8   10.30    2.00
  -4   2  -8   13.10    1.60
   4  -2   8    8.20    2.20
   4  -2   8   11.30    1.60
   4  -2   8   11.90    1.60
  -5   2  -8    0.60    1.10
  -5   2  -8    0.40    0.90
   5  -2   8   -0.80    0.80
   5  -2   8    1.50    1.90
  -6   2  -8   35.20    2.60
  -6   2  -8   36.40    2.80
   6  -2   8   40.60    4.40
  -7   2  -8   -0.10    1.20
  -7   2  -8    0.60    1.70
   7  -2   8   -1.70    2.00
   6   1  -8    0.00    1.60
  -6  -1   8   -2.60    1.30
  -6  -1   8   -0.60    0.90
  -6  -1   8   -1.00    1.30
   5   1  -8   10.80    2.10
  -5  -1   8   12.10    2.40
  -5  -1   8   11.30    2.30
  -5  -1   8    7.50    1.70
   4   1  -8  132.69    5.50
  -4  -1   8  127.59    5.60
  -4  -1   8  132.59    5.10
  -4  -1   8  119.59    5.10
   3   1  -8   -0.50    1.10
   3   1  -8    1.90    1.10
  -3  -1   8   -0.60    0.80
  -3  -1   8    1.90    1.40
  -3  -1   8   -0.10    1.10
   2   1  -8   24.40    1.90
   2   1  -8   26.70    2.00
   2   1  -8   24.20    2.20
  -2  -1   8   27.30    2.60
  -2  -1   8   27.10    2.00
  -2  -1   8   24.40    2.00
   1   1  -8    6.30    1.30
   1   1  -8   10.90    1.30
   1   1  -8   10.20    1.40
  -1  -1   8    7.20    1.20
  -1  -1   8    9.40    1.30
  -1  -1   8    7.80    1.60
   0   1  -8   94.59    3.30
   0   1  -8   97.09    2.80
   0   1  -8   92.89    3.20
   0  -1   8   88.29    3.10
   0  -1   8   94.39    3.10
   0  -1   8   91.59    4.20
   0  -1   8   90.59    4.90
  -1   1  -8   37.10    1.90
  -1   1  -8   38.50    1.90
  -1   1  -8   37.90    2.10
   1  -1   8   40.20    2.80
   1  -1   8   39.00    1.80
   1  -1   8   39.50    3.30
   1  -1   8   43.50    1.90
  -2   1  -8   81.79    3.90
  -2   1  -8   88.49    2.80
  -2   1  -8   81.69    3.30
  -2   1  -8   88.09    2.80
   2  -1   8   79.59    4.70
   2  -1   8   86.09    2.70
   2  -1   8   91.99    3.90
   2  -1   8   88.19    2.90
  -3   1  -8   72.59    2.60
  -3   1  -8   75.49    2.60
  -3   1  -8   71.19    3.40
  -3   1  -8   65.49    3.60
   3  -1   8   76.39    2.50
   3  -1   8   69.69    4.50
   3  -1   8   66.99    2.60
   3  -1   8   75.29    3.50
  -4   1  -8   16.00    2.20
  -4   1  -8   17.30    2.30
  -4   1  -8   12.50    1.30
  -4   1  -8   12.50    1.30
   4  -1   8   13.40    1.60
   4  -1   8   10.60    2.40
   4  -1   8   15.00    1.40
  -5   1  -8  178.18    6.20
  -5   1  -8  182.68    6.40
  -5   1  -8  187.98    5.10
   5  -1   8  195.98    8.30
   5  -1   8  180.28    5.10
  -6   1  -8    0.40    1.70
  -6   1  -8    0.90    1.00
  -6   1  -8   -1.10    1.00
   6  -1   8   -0.70    1.50
  -7   1  -8    0.50    1.30
  -7   1  -8    1.70    1.20
  -7   1  -8   -1.20    1.50
   7  -1   8    1.00    1.90
   7  -1   8    1.00    1.80
   6   0  -8    3.00    1.80
  -6   0   8    2.60    1.70
  -6   0   8    2.70    1.80
  -6   0   8    1.60    1.70
   5   0  -8   54.39    4.00
  -5   0   8   49.10    3.50
  -5   0   8   48.40    3.80
  -5   0   8   49.50    3.20
   4   0  -8    0.60    0.80
   4   0  -8    0.90    1.40
  -4   0   8    0.00    1.30
  -4   0   8    0.20    1.40
  -4   0   8   -0.20    1.00
   3   0  -8   13.60    1.80
   3   0  -8   12.00    1.90
  -3   0   8   12.60    1.90
  -3   0   8   11.70    1.70
  -3   0   8   14.80    2.30
  -3   0   8   12.40    1.90
   2   0  -8  142.59    4.50
   2   0  -8  146.09    4.80
  -2   0   8  148.69    5.40
  -2   0   8  146.39    4.50
  -2   0   8  145.29    4.90
  -2   0   8  149.09    5.60
   1   0  -8   67.29    2.10
   1   0  -8   72.49    3.10
   1   0  -8   73.49    3.00
   1   0  -8   71.19    2.70
  -1   0   8   70.39    2.70
  -1   0   8   73.59    3.50
  -1   0   8   65.39    3.00
  -1   0   8   69.79    3.80
   0   0  -8  128.89    3.60
   0   0  -8  136.29    3.80
   0   0  -8  137.49    3.60
   0   0   8  136.89    3.60
   0   0   8  139.19    5.10
   0   0   8  133.79    3.90
   0   0   8  142.29    4.30
  -1   0  -8   27.30    1.70
  -1   0  -8   26.80    2.20
  -1   0  -8   22.90    1.30
   1   0   8   22.80    1.40
   1   0   8   18.70    2.10
   1   0   8   24.60    1.70
   1   0   8   26.90    2.60
   1   0   8   23.60    1.20
  -2   0  -8   14.40    2.00
  -2   0  -8   12.90    1.60
  -2   0  -8   12.40    0.90
  -2   0  -8   12.50    0.90
   2   0   8   14.20    1.00
   2   0   8   12.30    1.30
   2   0   8   12.90    1.80
   2   0   8   12.50    0.90
   2   0   8   13.70    2.30
  -3   0  -8   37.50    1.50
  -3   0  -8   40.60    1.50
  -3   0  -8   42.90    2.90
  -3   0  -8   42.20    2.60
   3   0   8   38.20    1.60
   3   0   8   40.50    2.40
   3   0   8   39.10    2.10
   3   0   8   37.40    1.60
   3   0   8   44.00    3.60
  -4   0  -8  139.89    5.10
  -4   0  -8  138.39    3.50
  -4   0  -8  138.49    5.40
  -4   0  -8  136.89    3.50
   4   0   8  134.59    3.70
   4   0   8  135.79    3.50
   4   0   8  131.09    6.30
   4   0   8  139.79    4.50
  -5   0  -8   68.49    3.90
  -5   0  -8   64.79    2.50
  -5   0  -8   60.29    3.50
   5   0   8   67.99    2.80
   5   0   8   65.29    4.60
  -6   0  -8   16.40    2.60
  -6   0  -8   15.80    2.50
  -6   0  -8   14.90    1.60
   6   0   8   14.20    2.70
   6   0   8   19.30    3.30
  -7   0  -8    6.80    1.40
  -7   0  -8    6.80    1.90
  -7   0  -8    7.80    1.90
   7   0   8    6.00    2.20
   7   0   8    6.70    2.20
  -7   1   8    2.70    1.90
   6  -1  -8    7.00    2.30
  -6   1   8   11.30    2.60
  -6   1   8   10.80    2.30
  -6   1   8   10.70    2.30
   5  -1  -8   -1.00    1.30
  -5   1   8   -1.50    1.00
  -5   1   8    0.30    1.00
  -5   1   8   -1.10    1.30
   4  -1  -8   20.50    1.90
   4  -1  -8   27.30    2.80
  -4   1   8   22.30    2.40
  -4   1   8   19.90    2.10
  -4   1   8   23.50    2.30
  -4   1   8   26.70    2.90
   3  -1  -8  156.08    4.90
   3  -1  -8  157.38    5.50
  -3   1   8  159.58    5.70
  -3   1   8  155.78    6.10
  -3   1   8  148.79    5.20
  -3   1   8  154.68    4.90
   2  -1  -8    5.90    1.10
   2  -1  -8    6.80    1.30
  -2   1   8    7.20    1.20
  -2   1   8    4.00    1.20
  -2   1   8    6.80    1.70
  -2   1   8    4.70    1.30
   1  -1  -8    0.10    0.70
   1  -1  -8    1.10    0.60
   1  -1  -8    1.20    0.80
   1  -1  -8    0.30    0.90
  -1   1   8    0.80    0.60
  -1   1   8    1.00    0.80
  -1   1   8    1.00    0.90
  -1   1   8    1.20    0.80
   0  -1  -8   19.70    1.90
   0  -1  -8   24.70    1.60
   0  -1  -8   22.40    1.30
   0   1   8   23.30    2.30
   0   1   8   27.50    1.50
   0   1   8   23.70    1.90
   0   1   8   23.00    1.20
  -1  -1  -8   19.20    0.80
  -1  -1  -8   18.30    1.60
  -1  -1  -8   19.30    1.90
  -1  -1  -8   17.50    0.80
   1   1   8   19.20    0.90
   1   1   8   18.20    2.10
   1   1   8   19.80    1.70
   1   1   8   18.20    0.80
  -2  -1  -8  121.59    4.00
  -2  -1  -8  126.69    4.90
   2   1   8  118.99    5.40
   2   1   8  117.99    4.50
   2   1   8  120.49    4.20
  -3  -1  -8   19.40    2.00
  -3  -1  -8   18.00    2.30
   3   1   8   17.30    1.80
   3   1   8   18.10    2.50
  -4  -1  -8    1.60    0.40
  -4  -1  -8    1.50    1.20
  -4  -1  -8    1.50    0.40
  -4  -1  -8    0.40    1.20
   4   1   8    2.00    0.40
   4   1   8    1.50    0.40
   4   1   8    1.40    0.90
   4   1   8    1.10    1.10
  -5  -1  -8   65.99    3.90
  -5  -1  -8   68.39    2.20
  -5  -1  -8   70.29    4.00
  -5  -1  -8   70.29    2.20
   5   1   8   60.29    2.90
   5   1   8   70.59    5.10
   5   1   8   67.19    4.40
  -6  -1  -8   37.20    3.30
  -6  -1  -8   40.30    2.00
  -6  -1  -8   32.90    3.10
   6   1   8   41.40    4.00
   6   1   8   49.70    3.90
  -7  -1  -8    7.30    2.20
  -7  -1  -8    6.60    1.30
   7   1   8    3.50    1.60
   7   1   8    1.80    1.90
   6  -2  -8    2.40    1.90
  -6   2   8   -2.00    1.70
  -6   2   8    1.70    1.60
  -6   2   8    0.90    1.10
   5  -2  -8    2.40    1.70
  -5   2   8    0.70    1.40
  -5   2   8    1.50    1.80
  -5   2   8    0.40    1.30
   4  -2  -8   11.30    1.80
   4  -2  -8   10.80    2.10
   4  -2  -8    7.70    1.60
  -4   2   8   10.20    1.70
  -4   2   8   12.00    2.30
  -4   2   8    9.50    1.80
   3  -2  -8    1.60    1.10
   3  -2  -8   -0.80    1.00
   3  -2  -8   -1.10    1.00
  -3   2   8    0.70    1.30
  -3   2   8    1.70    1.30
  -3   2   8    0.20    0.60
  -3   2   8   -0.70    0.80
   2  -2  -8   45.90    2.90
   2  -2  -8   43.70    2.60
   2  -2  -8   44.20    2.20
  -2   2   8   45.90    2.30
  -2   2   8   41.00    2.30
  -2   2   8   53.29    3.50
  -2   2   8   43.60    2.80
   1  -2  -8   50.09    2.40
   1  -2  -8   52.89    3.10
   1  -2  -8   52.39    2.10
  -1   2   8   53.69    3.00
  -1   2   8   50.99    2.30
  -1   2   8   45.90    3.20
  -1   2   8   50.69    2.10
   0  -2  -8    0.10    0.50
   0  -2  -8    0.00    0.40
   0  -2  -8   -1.20    0.60
   0  -2  -8   -1.20    0.80
   0   2   8    0.70    0.80
   0   2   8    0.00    0.40
   0   2   8    0.10    0.70
   0   2   8    0.10    0.30
  -1  -2  -8   64.09    3.50
  -1  -2  -8   70.99    2.90
   1   2   8   72.49    3.30
   1   2   8   65.59    3.40
  -2  -2  -8  133.69    5.20
  -2  -2  -8  127.99    4.20
   2   2   8  132.69    4.90
   2   2   8  133.79    4.80
  -3  -2  -8    1.80    1.20
  -3  -2  -8    1.10    0.90
   3   2   8    1.90    1.20
   3   2   8    2.20    1.10
  -4  -2  -8    3.00    1.40
  -4  -2  -8    5.70    1.50
   4   2   8    1.50    1.50
   4   2   8    7.00    1.30
   4   2   8    5.10    1.50
  -5  -2  -8   19.20    0.90
  -5  -2  -8   19.20    2.60
  -5  -2  -8   20.70    0.90
  -5  -2  -8   20.80    2.90
   5   2   8   20.60    2.70
   5   2   8   16.30    2.70
   5   2   8   20.40    0.90
   5   2   8   16.40    1.70
  -6  -2  -8    2.40    1.30
  -6  -2  -8    5.70    1.80
  -6  -2  -8    4.80    0.80
   6   2   8    1.50    1.30
   6   2   8    3.00    1.70
  -7  -2  -8   -0.60    1.40
  -7  -2  -8    2.00    0.90
   7   2   8    0.30    1.30
   7   2   8    2.80    2.10
   6  -3  -8    7.50    2.20
  -6   3   8    5.10    2.00
  -6   3   8    1.50    2.00
  -6   3   8    7.50    2.00
   5  -3  -8    5.80    1.60
   5  -3  -8    6.60    2.00
  -5   3   8    5.60    1.80
  -5   3   8    4.90    1.90
  -5   3   8    6.30    1.70
   4  -3  -8    5.70    1.50
   4  -3  -8    6.20    1.50
   4  -3  -8    5.00    1.40
  -4   3   8    4.70    1.40
  -4   3   8    6.50    1.80
  -4   3   8    6.70    1.70
   3  -3  -8   19.30    2.00
   3  -3  -8   26.60    2.60
   3  -3  -8   25.30    2.00
  -3   3   8   23.40    2.10
  -3   3   8   20.20    1.20
  -3   3   8   23.20    2.40
  -3   3   8   23.60    2.50
   2  -3  -8   13.70    2.00
   2  -3  -8   16.90    1.60
   2  -3  -8   14.60    1.80
  -2   3   8   13.90    2.10
  -2   3   8   12.80    2.10
  -2   3   8   14.40    1.50
  -2   3   8   11.50    1.20
   1  -3  -8   34.10    2.50
   1  -3  -8   36.40    2.10
   1  -3  -8   32.70    1.70
  -1   3   8   33.20    1.80
  -1   3   8   33.20    2.70
  -1   3   8   37.70    2.80
  -1   3   8   36.10    2.20
   0  -3  -8   84.99    2.60
   0  -3  -8   83.59    3.30
   0  -3  -8   84.99    2.30
   0  -3  -8   91.09    4.10
   0   3   8   82.09    3.80
   0   3   8   82.79    2.40
   0   3   8   87.89    2.40
  -1  -3  -8   10.20    1.80
  -1  -3  -8    6.90    1.40
   1   3   8    4.70    1.20
   1   3   8    6.70    1.50
  -2  -3  -8    5.30    1.20
  -2  -3  -8    5.80    1.40
   2   3   8    5.30    1.40
   2   3   8    7.70    1.50
  -3  -3  -8  104.39    4.80
  -3  -3  -8   89.39    3.90
   3   3   8   98.49    4.50
   3   3   8   95.39    5.00
  -4  -3  -8  175.68    6.10
  -4  -3  -8  190.48    6.90
   4   3   8  192.08    6.70
   4   3   8  175.98    7.50
  -5  -3  -8    0.20    0.20
  -5  -3  -8   -1.80    0.90
  -5  -3  -8   -0.40    1.40
  -5  -3  -8   -0.10    0.20
   5   3   8   -0.70    0.90
   5   3   8   -0.90    1.30
  -6  -3  -8    0.80    1.50
  -6  -3  -8    2.20    0.70
   6   3   8    1.80    0.90
   6   3   8    1.70    1.50
   6   3   8    1.00    1.20
  -7  -3  -8    2.10    1.30
  -7  -3  -8    1.90    0.90
   7   3   8    2.10    1.90
   6  -4  -8    8.30    2.60
  -6   4   8    7.40    2.00
  -6   4   8    9.00    2.20
  -6   4   8    6.20    2.50
   5  -4  -8    9.30    2.30
  -5   4   8   11.80    2.70
  -5   4   8   11.00    2.20
  -5   4   8   10.40    2.00
   4  -4  -8    1.90    1.10
   4  -4  -8    1.30    1.50
  -4   4   8    1.30    1.20
  -4   4   8    2.90    1.60
  -4   4   8   -0.40    1.50
   3  -4  -8    7.70    1.60
   3  -4  -8    2.60    1.50
   3  -4  -8    4.10    1.30
  -3   4   8    6.30    1.80
  -3   4   8    2.90    1.10
  -3   4   8    3.30    1.60
   2  -4  -8    3.70    1.00
   2  -4  -8    4.40    1.30
   2  -4  -8    3.00    1.20
  -2   4   8    5.80    1.20
  -2   4   8    3.30    1.30
   1  -4  -8   73.19    3.80
   1  -4  -8   83.89    3.30
   1  -4  -8   81.49    2.80
  -1   4   8   78.79    4.10
  -1   4   8   79.19    2.70
  -1   4   8   82.79    2.90
   0  -4  -8   -0.50    0.80
   0  -4  -8   -0.20    0.70
   0  -4  -8    0.00    0.20
   0   4   8    0.60    0.50
   0   4   8    0.70    0.70
   0   4   8    0.20    0.40
   0   4   8   -1.00    0.90
  -1  -4  -8   12.80    1.90
  -1  -4  -8   14.50    0.90
  -1  -4  -8   14.70    0.80
  -1  -4  -8   13.80    2.00
   1   4   8   11.90    1.90
   1   4   8   13.70    0.70
   1   4   8   14.40    0.80
   1   4   8   16.60    1.90
  -2  -4  -8   13.90    2.10
  -2  -4  -8   14.10    2.00
   2   4   8   16.40    2.30
   2   4   8   15.00    2.00
  -3  -4  -8  141.89    5.20
  -3  -4  -8  135.19    5.80
   3   4   8  145.89    6.30
  -4  -4  -8   82.29    4.70
  -4  -4  -8   75.39    4.00
   4   4   8   82.49    4.10
   4   4   8   77.89    4.80
  -5  -4  -8    0.10    0.30
  -5  -4  -8   -0.60    1.40
   5   4   8   -0.80    0.80
   5   4   8    0.50    1.30
  -6  -4  -8    0.00    0.60
  -6  -4  -8   -0.80    1.00
   6   4   8   -0.20    1.50
  -7  -4  -8    6.80    1.10
  -7  -4  -8    4.10    2.00
   7   4   8    3.10    2.20
   5  -5  -8   -0.90    1.60
  -5   5   8   -2.60    1.50
  -5   5   8    2.10    1.40
  -5   5   8    0.70    1.50
   4  -5  -8    8.90    1.70
   4  -5  -8   11.20    2.30
  -4   5   8    7.80    2.20
  -4   5   8    8.40    1.70
  -4   5   8   10.30    2.10
   3  -5  -8    1.00    1.50
   3  -5  -8   -0.30    0.90
  -3   5   8    0.40    0.90
  -3   5   8    4.80    1.80
   2  -5  -8   10.70    1.50
   2  -5  -8   11.90    2.00
   2  -5  -8   12.00    1.90
  -2   5   8   18.80    2.70
  -2   5   8   14.70    1.80
   1  -5  -8   -0.30    0.90
   1  -5  -8    0.10    1.00
   1  -5  -8   -0.90    0.60
  -1   5   8   -0.30    0.30
  -1   5   8    1.30    1.10
  -1   5   8    0.30    0.70
   0  -5  -8    9.00    1.10
   0  -5  -8    7.50    1.20
   0  -5  -8    5.60    1.60
   0   5   8    7.20    1.00
   0   5   8    6.80    1.10
   0   5   8    7.90    1.80
  -1  -5  -8   26.20    1.60
  -1  -5  -8   24.20    2.60
  -1  -5  -8   24.40    1.30
   1   5   8   23.70    1.30
   1   5   8   23.50    2.20
   1   5   8   23.10    1.30
   1   5   8   21.30    2.70
  -2  -5  -8   51.39    1.70
  -2  -5  -8   53.49    3.60
  -2  -5  -8   51.49    3.10
  -2  -5  -8   53.19    1.70
   2   5   8   52.49    1.60
   2   5   8   53.39    3.50
   2   5   8   50.89    1.60
   2   5   8   54.99    3.70
  -3  -5  -8    2.40    1.40
  -3  -5  -8    2.70    0.40
  -3  -5  -8    3.10    0.50
  -3  -5  -8    2.50    1.30
   3   5   8    2.50    0.40
   3   5   8    0.60    1.20
  -4  -5  -8    0.10    0.40
  -4  -5  -8    2.00    1.50
  -4  -5  -8    0.30    0.40
   4   5   8    0.00    0.90
   4   5   8    0.70    0.80
  -5  -5  -8   10.30    0.90
  -5  -5  -8   14.20    2.30
   5   5   8   13.50    2.50
  -6  -5  -8    1.10    1.70
  -6  -5  -8   -0.70    0.60
   6   5   8    0.30    1.20
  -7  -5  -8    9.00    2.50
   5  -6  -8    1.50    2.10
  -5   6   8    5.80    2.00
  -5   6   8    8.60    2.70
   4  -6  -8    1.20    1.70
  -4   6   8    2.60    1.90
   3  -6  -8   -0.80    1.10
   3  -6  -8    1.30    1.30
  -3   6   8   -2.60    1.30
   2  -6  -8    9.80    1.90
   2  -6  -8   12.20    2.10
  -2   6   8   13.60    2.50
  -2   6   8    9.50    1.60
   1  -6  -8    3.30    1.30
   1  -6  -8    4.20    1.60
  -1   6   8    3.10    1.00
  -1   6   8    7.00    2.00
   0  -6  -8    6.60    1.40
   0  -6  -8    8.90    2.00
   0   6   8    6.20    1.60
   0   6   8    4.10    0.90
  -1  -6  -8    0.70    0.90
  -1  -6  -8    1.70    1.40
   1   6   8   -0.10    0.80
   1   6   8    1.20    1.40
  -2  -6  -8    2.40    1.60
  -2  -6  -8    4.00    0.90
   2   6   8    1.60    1.20
   2   6   8    2.90    1.30
  -3  -6  -8   13.30    2.40
  -3  -6  -8   14.50    1.30
   3   6   8    8.10    2.00
  -4  -6  -8   -1.10    0.60
  -4  -6  -8    0.10    1.60
   4   6   8   -0.40    0.90
  -5  -6  -8   -0.10    1.70
  -5  -6  -8    1.20    0.80
   5   6   8    1.40    1.50
  -6  -6  -8   -0.70    1.20
  -6  -6  -8    0.20    0.90
   6   6   8    1.60    1.90
   4  -7  -8    0.20    1.80
  -4   7   8   -1.90    1.80
   3  -7  -8    0.70    1.70
  -3   7   8    2.70    1.50
   2  -7  -8    6.00    1.80
  -2   7   8    2.40    1.50
   1  -7  -8    4.60    1.60
  -1   7   8    3.30    1.50
   0  -7  -8    2.90    1.40
   0   7   8    2.30    1.40
  -1  -7  -8   -0.90    1.00
   1   7   8   -1.00    0.90
   1   7   8   -0.50    1.40
  -2  -7  -8    7.50    1.30
   2   7   8    4.90    1.50
   2   7   8   10.40    2.20
  -3  -7  -8    2.50    1.00
   3   7   8   -0.30    1.10
  -4  -7  -8   -1.30    0.80
  -4  -7  -8   -0.60    1.30
   4   7   8   -0.50    1.30
  -5  -7  -8    1.50    0.90
  -5  -7  -8   -1.30    1.60
   5   7   8    0.30    1.50
   2  -8  -8   11.00    2.30
  -2   8   8    5.80    2.00
   1  -8  -8    0.50    1.30
  -1   8   8   -2.80    1.30
   0  -8  -8    1.60    1.50
   0   8   8    1.30    1.60
  -1  -8  -8    0.80    1.30
   1   8   8   -0.80    1.60
  -2  -8  -8    1.20    1.30
   2   8   8    3.40    1.60
  -3  -8  -8    9.00    1.60
   3   8   8    6.60    1.90
   4   8   8   -0.40    1.50
   3   5  -9    1.70    1.20
  -3  -5   9    2.10    1.60
  -3  -5   9   -3.30    2.00
  -3  -5   9    2.10    2.00
   2   5  -9    1.30    1.50
  -2  -5   9    1.10    2.10
  -2  -5   9    2.70    1.60
  -2  -5   9    1.30    2.00
   1   5  -9    2.50    1.60
  -1  -5   9    1.80    2.20
  -1  -5   9    3.20    1.50
  -1  -5   9    1.70    2.00
   0   5  -9    6.80    1.80
   0  -5   9    8.40    2.50
   0  -5   9    5.30    2.40
   0  -5   9    6.40    1.80
  -1   5  -9   -2.00    0.90
   1  -5   9   -0.80    1.40
   1  -5   9   -0.80    1.70
  -2   5  -9    4.90    1.60
   2  -5   9    4.50    2.50
   2  -5   9    4.10    2.10
  -3   5  -9   18.90    2.60
   3  -5   9   20.90    4.10
   3  -5   9   23.90    3.00
   4   4  -9    8.80    2.30
  -4  -4   9    5.90    2.20
  -4  -4   9   10.00    2.50
  -4  -4   9    9.50    2.10
   3   4  -9    1.30    1.60
  -3  -4   9   -2.60    1.60
  -3  -4   9    2.30    1.30
  -3  -4   9    2.10    1.90
   2   4  -9   -0.60    1.10
  -2  -4   9    0.70    1.30
  -2  -4   9   -1.50    1.70
  -2  -4   9    0.20    1.70
   1   4  -9   12.20    2.10
  -1  -4   9   15.90    2.80
  -1  -4   9   15.30    2.20
  -1  -4   9   12.50    2.30
   0   4  -9   -1.10    0.90
   0  -4   9    0.70    1.70
   0  -4   9   -0.10    1.00
   0  -4   9    1.60    1.90
  -1   4  -9   25.30    2.40
   1  -4   9   17.60    2.70
   1  -4   9   19.60    3.50
   1  -4   9   23.70    2.30
  -2   4  -9    5.10    1.60
   2  -4   9    4.30    2.00
   2  -4   9    7.20    2.00
  -3   4  -9    3.20    1.40
  -3   4  -9    0.10    1.20
   3  -4   9    3.30    2.30
   3  -4   9    1.70    1.50
  -4   4  -9    0.40    1.30
  -4   4  -9    1.20    1.20
   4  -4   9    0.20    1.40
   4  -4   9   -1.60    2.00
  -5   4  -9   -1.50    1.20
  -5   4  -9    0.00    1.10
   5  -4   9    1.10    2.30
   5   3  -9    4.30    1.90
  -5  -3   9    8.20    2.30
  -5  -3   9    2.50    1.80
  -5  -3   9    3.60    1.80
   4   3  -9    2.20    1.70
  -4  -3   9    1.20    1.60
  -4  -3   9    0.80    1.80
  -4  -3   9    3.40    1.40
   3   3  -9    3.10    1.50
  -3  -3   9    2.00    1.10
  -3  -3   9    3.00    1.80
  -3  -3   9    1.10    1.90
   2   3  -9   -0.80    1.10
  -2  -3   9   -0.50    1.20
  -2  -3   9   -0.10    0.70
  -2  -3   9   -1.60    1.40
   1   3  -9   81.59    3.90
  -1  -3   9   82.89    3.80
  -1  -3   9   74.89    4.50
  -1  -3   9   75.99    5.00
   0   3  -9   45.90    2.10
   0   3  -9   45.10    2.90
   0  -3   9   49.00    2.80
   0  -3   9   54.69    4.00
   0  -3   9   46.60    4.40
  -1   3  -9   37.10    2.60
   1  -3   9   45.50    4.40
   1  -3   9   39.60    2.60
   1  -3   9   41.70    3.50
  -2   3  -9   89.99    3.80
   2  -3   9   97.39    6.20
   2  -3   9   86.69    4.50
   2  -3   9   92.89    3.90
  -3   3  -9   60.99    3.10
  -3   3  -9   60.79    3.80
   3  -3   9   61.69    3.70
   3  -3   9   59.39    4.90
  -4   3  -9    0.70    1.10
  -4   3  -9   -0.10    1.00
   4  -3   9   -0.70    1.20
   4  -3   9   -0.80    1.10
  -5   3  -9    4.70    1.60
  -5   3  -9    3.90    1.30
   5  -3   9    1.70    2.20
   5   2  -9    3.00    1.90
  -5  -2   9    2.20    1.60
  -5  -2   9    2.40    2.00
  -5  -2   9    0.40    1.40
   4   2  -9    2.40    1.60
  -4  -2   9    1.00    1.30
  -4  -2   9    4.00    1.40
  -4  -2   9    2.60    1.60
   3   2  -9    2.40    1.50
  -3  -2   9    0.50    1.10
  -3  -2   9    1.10    1.80
  -3  -2   9    1.40    1.20
   2   2  -9   54.39    3.10
   2   2  -9   57.89    3.40
  -2  -2   9   60.49    3.10
  -2  -2   9   56.19    4.10
  -2  -2   9   60.09    4.00
  -2  -2   9   57.39    3.10
   1   2  -9   64.89    3.10
   1   2  -9   65.69    2.90
   1   2  -9   67.49    3.30
  -1  -2   9   63.59    4.40
  -1  -2   9   66.59    2.90
  -1  -2   9   60.49    3.10
  -1  -2   9   69.19    4.40
   0   2  -9   76.69    2.60
   0   2  -9   72.79    3.30
   0   2  -9   75.69    3.20
   0  -2   9   71.19    3.10
   0  -2   9   73.49    2.70
   0  -2   9   76.39    5.10
   0  -2   9   84.19    4.60
  -1   2  -9    0.10    0.80
  -1   2  -9   -0.20    0.80
  -1   2  -9   -1.30    0.80
   1  -2   9   -1.00    1.50
   1  -2   9   -1.70    1.00
   1  -2   9   -1.30    0.60
   1  -2   9   -0.30    0.50
  -2   2  -9    1.20    1.10
  -2   2  -9    3.20    1.10
  -2   2  -9    5.40    1.60
  -2   2  -9    5.40    1.20
   2  -2   9    2.90    1.40
   2  -2   9    3.40    1.00
   2  -2   9    1.80    1.80
  -3   2  -9   20.00    2.60
  -3   2  -9   19.20    2.30
   3  -2   9   23.70    2.40
   3  -2   9   25.00    3.60
  -4   2  -9    0.50    1.20
  -4   2  -9    0.70    0.90
  -4   2  -9    4.40    1.50
   4  -2   9    0.00    1.30
   4  -2   9    0.80    1.00
  -5   2  -9   14.60    2.50
  -5   2  -9   14.60    2.40
  -5   2  -9   14.50    1.80
   5  -2   9    8.90    2.70
  -6   2  -9    2.00    1.20
  -6   2  -9    0.70    1.60
  -6   2  -9    1.90    1.30
   6  -2   9    0.10    2.00
   6   1  -9    3.80    2.10
  -6  -1   9    7.50    2.10
  -6  -1   9   -1.50    1.60
  -6  -1   9   -0.60    1.50
   5   1  -9   -1.00    1.50
  -5  -1   9   -1.20    1.40
  -5  -1   9    1.90    1.40
  -5  -1   9    0.30    1.50
   4   1  -9    0.50    1.40
  -4  -1   9    1.00    1.30
  -4  -1   9   -1.10    0.90
  -4  -1   9    0.60    1.50
   3   1  -9   -0.80    1.00
   3   1  -9   -0.90    1.10
  -3  -1   9   -0.70    1.00
  -3  -1   9    0.90    1.50
  -3  -1   9    0.00    1.00
   2   1  -9   46.50    2.70
   2   1  -9   44.40    2.90
  -2  -1   9   42.10    2.60
  -2  -1   9   44.70    3.70
  -2  -1   9   43.70    2.70
   1   1  -9    0.50    0.80
   1   1  -9    0.40    0.70
   1   1  -9    1.00    0.80
  -1  -1   9   -0.70    0.70
  -1  -1   9    0.70    0.70
  -1  -1   9    2.50    1.50
   0   1  -9   16.40    1.50
   0   1  -9   16.20    1.30
   0   1  -9   18.30    1.60
   0  -1   9   14.00    2.30
   0  -1   9   14.00    2.20
   0  -1   9   18.20    1.50
   0  -1   9   15.10    1.50
  -1   1  -9   15.10    1.40
  -1   1  -9   10.10    1.90
  -1   1  -9   13.40    1.50
  -1   1  -9   11.30    1.30
   1  -1   9   11.90    1.20
   1  -1   9   15.70    2.20
   1  -1   9   10.50    2.20
  -2   1  -9  354.46    8.30
  -2   1  -9  362.06    7.60
  -2   1  -9  357.36    7.60
  -2   1  -9  348.37    9.60
   2  -1   9  370.46   11.70
   2  -1   9  353.76    7.60
   2  -1   9  356.96    7.70
   2  -1   9  364.26    9.60
  -3   1  -9   94.59    3.10
  -3   1  -9   90.89    3.00
  -3   1  -9   86.39    3.80
  -3   1  -9   98.89    4.70
   3  -1   9  102.49    5.90
   3  -1   9   95.09    3.00
   3  -1   9   92.99    4.20
   3  -1   9  104.89    3.40
  -4   1  -9   -0.20    1.00
  -4   1  -9   -1.00    0.70
  -4   1  -9    1.70    1.40
   4  -1   9   -0.50    1.60
   4  -1   9    0.00    0.80
   4  -1   9    0.50    0.50
  -5   1  -9    4.40    1.50
  -5   1  -9    3.60    1.60
  -5   1  -9    4.20    1.10
   5  -1   9    4.90    1.20
   5  -1   9    2.70    1.60
  -6   1  -9   -0.90    1.00
  -6   1  -9    0.00    1.50
  -6   1  -9   -0.10    0.90
   6  -1   9    2.30    1.90
  -7   1  -9   -0.30    1.30
   7  -1   9    1.00    2.20
   7  -1   9   -0.50    1.70
   6   0  -9   -1.40    1.60
  -6   0   9    0.80    1.70
  -6   0   9    1.30    1.50
  -6   0   9   -1.30    1.40
   5   0  -9    1.80    1.60
  -5   0   9    1.00    1.20
  -5   0   9    1.20    1.60
  -5   0   9   -0.40    1.20
   4   0  -9   37.20    3.20
  -4   0   9   38.20    3.20
  -4   0   9   35.30    2.80
  -4   0   9   31.60    3.50
   3   0  -9   -0.40    0.90
   3   0  -9    2.00    1.40
  -3   0   9   -0.70    1.00
  -3   0   9   -2.10    1.30
  -3   0   9    0.40    0.90
   2   0  -9    0.90    0.80
   2   0  -9    1.10    1.00
  -2   0   9   -0.30    1.00
  -2   0   9    0.80    0.90
  -2   0   9    0.60    1.00
   1   0  -9   23.40    1.90
   1   0  -9   22.20    1.30
   1   0  -9   25.10    1.80
   1   0  -9   25.30    2.00
  -1   0   9   26.90    2.80
  -1   0   9   25.60    1.70
  -1   0   9   24.80    2.10
   0   0  -9    0.40    0.60
   0   0  -9    1.10    0.70
   0   0  -9    1.30    1.00
   0   0  -9    0.40    0.60
   0   0   9    1.00    0.60
   0   0   9    1.70    1.20
   0   0   9    0.80    0.80
  -1   0  -9   20.50    1.30
  -1   0  -9   21.20    2.50
  -1   0  -9   20.70    1.80
   1   0   9   23.50    2.70
   1   0   9   22.90    2.40
   1   0   9   17.00    1.60
   1   0   9   18.80    1.40
   1   0   9   19.30    1.20
  -2   0  -9    2.00    0.60
  -2   0  -9    1.70    0.60
  -2   0  -9    0.50    1.00
  -2   0  -9    2.60    1.10
   2   0   9    2.90    0.90
   2   0   9    0.70    1.50
   2   0   9    2.10    1.20
   2   0   9    2.10    0.70
   2   0   9    2.00    0.60
  -3   0  -9    0.00    0.50
  -3   0  -9   -0.50    1.00
  -3   0  -9   -0.50    0.70
  -3   0  -9   -0.20    0.50
   3   0   9   -0.60    0.90
   3   0   9    0.00    0.40
   3   0   9    0.40    1.00
   3   0   9    0.80    0.50
   3   0   9   -0.70    0.60
  -4   0  -9   33.40    3.00
  -4   0  -9   32.10    2.70
  -4   0  -9   32.70    1.50
  -4   0  -9   35.30    1.50
   4   0   9   32.40    2.50
   4   0   9   32.30    3.60
  -5   0  -9   48.80    2.00
  -5   0  -9   45.90    3.20
  -5   0  -9   56.09    3.70
   5   0   9   49.10    2.70
   5   0   9   54.39    4.50
  -6   0  -9    0.30    1.20
  -6   0  -9    1.10    0.90
  -6   0  -9    2.90    1.40
   6   0   9    0.80    1.80
   6   0   9   -0.60    1.30
  -7   0  -9    0.20    1.60
  -7   0  -9   -0.30    1.30
  -7   0  -9    0.30    0.90
   7   0   9   -0.80    1.30
   7   0   9   -1.60    1.10
   6  -1  -9    3.50    1.70
  -6   1   9    2.20    1.50
  -6   1   9    0.40    1.80
  -6   1   9    2.00    1.70
   5  -1  -9   33.50    3.30
  -5   1   9   24.30    2.60
  -5   1   9   34.10    3.50
  -5   1   9   28.10    3.00
   4  -1  -9    7.30    1.90
  -4   1   9    6.40    1.90
  -4   1   9    6.20    1.50
  -4   1   9    5.00    1.90
   3  -1  -9   15.80    2.20
   3  -1  -9   18.40    1.90
  -3   1   9   19.60    2.70
  -3   1   9   15.20    1.80
  -3   1   9   15.00    2.30
  -3   1   9   18.20    2.10
   2  -1  -9   48.50    2.50
   2  -1  -9   48.50    2.70
  -2   1   9   45.40    3.00
  -2   1   9   44.70    2.40
  -2   1   9   42.70    2.80
  -2   1   9   42.10    3.40
   1  -1  -9   48.70    2.40
   1  -1  -9   41.90    2.10
   1  -1  -9   44.80    3.10
  -1   1   9   44.70    2.10
  -1   1   9   45.80    3.00
  -1   1   9   42.40    3.10
  -1   1   9   39.90    2.70
   0  -1  -9   44.70    1.90
   0  -1  -9   47.10    2.20
   0  -1  -9   46.30    3.10
   0   1   9   46.70    1.80
   0   1   9   48.60    2.10
   0   1   9   49.00    3.30
   0   1   9   46.30    2.70
  -1  -1  -9  307.47    5.70
  -1  -1  -9  298.97    8.60
  -1  -1  -9  303.07    5.70
  -1  -1  -9  301.37    7.10
   1   1   9  301.57    5.90
   1   1   9  315.17    7.90
   1   1   9  307.87    5.80
   1   1   9  320.27    8.80
  -2  -1  -9  125.59    4.30
  -2  -1  -9  131.69    5.30
   2   1   9  127.99    4.40
   2   1   9  127.09    5.80
   2   1   9  124.89    5.00
  -3  -1  -9    0.80    1.10
  -3  -1  -9   -0.40    1.10
   3   1   9    0.10    1.20
   3   1   9    1.70    1.10
   3   1   9    0.90    0.80
  -4  -1  -9  122.29    4.90
  -4  -1  -9  119.59    5.40
   4   1   9  123.89    4.60
   4   1   9  129.19    6.20
  -5  -1  -9   20.00    2.70
  -5  -1  -9   20.70    1.00
  -5  -1  -9   19.30    2.60
   5   1   9   16.40    2.90
   5   1   9   21.00    3.00
   5   1   9   19.30    1.90
  -6  -1  -9    4.30    1.70
  -6  -1  -9    4.50    0.80
  -6  -1  -9    4.20    1.60
   6   1   9    3.10    1.70
   6   1   9    3.60    1.70
  -7  -1  -9    0.00    1.30
  -7  -1  -9    0.00    1.20
  -7  -1  -9    0.10    0.80
   7   1   9   -0.80    1.10
   7   1   9    0.10    1.40
   6  -2  -9    5.40    2.20
   6  -2  -9    3.90    1.50
  -6   2   9    6.90    2.00
  -6   2   9    5.30    2.00
  -6   2   9    6.90    2.50
   5  -2  -9    6.00    1.70
   5  -2  -9    3.10    1.80
  -5   2   9    2.20    1.30
  -5   2   9    0.60    1.80
  -5   2   9    3.10    1.80
   4  -2  -9    5.90    1.60
   4  -2  -9    6.00    1.90
  -4   2   9    3.00    1.80
  -4   2   9    3.60    1.30
  -4   2   9    4.40    1.80
   3  -2  -9   60.89    3.00
   3  -2  -9   65.89    3.70
   3  -2  -9   70.49    3.70
  -3   2   9   60.19    3.10
  -3   2   9   59.49    3.40
  -3   2   9   64.59    4.00
  -3   2   9   62.19    3.80
   2  -2  -9   79.19    3.10
   2  -2  -9   85.09    4.20
   2  -2  -9   83.79    3.60
  -2   2   9   80.19    3.10
  -2   2   9   81.39    4.00
  -2   2   9   84.09    3.50
  -2   2   9   80.59    4.40
   1  -2  -9    4.20    1.00
   1  -2  -9    5.50    0.90
   1  -2  -9    4.50    1.40
  -1   2   9    4.60    1.30
  -1   2   9    4.20    0.80
  -1   2   9    3.90    1.40
   0  -2  -9   -0.30    0.90
   0  -2  -9   -0.20    0.40
   0  -2  -9    0.10    0.50
   0  -2  -9   -1.00    0.80
   0   2   9   -0.10    0.40
   0   2   9    0.20    0.90
   0   2   9    0.00    1.10
   0   2   9   -0.40    0.40
  -1  -2  -9   10.90    1.90
  -1  -2  -9    7.60    1.50
   1   2   9    8.30    1.50
   1   2   9    8.70    1.70
  -2  -2  -9    0.50    1.10
  -2  -2  -9    1.00    1.20
   2   2   9    2.60    1.10
   2   2   9    1.90    1.10
   2   2   9    0.60    1.20
  -3  -2  -9   27.10    2.40
  -3  -2  -9   21.20    2.80
   3   2   9   28.80    3.00
   3   2   9   29.20    2.50
  -4  -2  -9  145.19    6.00
  -4  -2  -9  135.59    5.30
   4   2   9  130.19    6.10
   4   2   9  141.79    6.80
   4   2   9  147.99    5.20
  -5  -2  -9   13.00    2.50
  -5  -2  -9   10.00    2.10
   5   2   9    9.80    2.10
   5   2   9   14.90    2.80
   5   2   9    9.60    1.50
  -6  -2  -9    9.20    2.20
  -6  -2  -9    8.70    0.70
  -6  -2  -9    7.80    1.80
   6   2   9    7.60    2.40
   6   2   9    7.90    1.90
  -7  -2  -9   25.80    3.40
   7   2   9   28.40    3.30
   7   2   9   24.60    3.90
   6  -3  -9    2.20    2.10
  -6   3   9    3.70    2.00
  -6   3   9    1.60    1.80
   5  -3  -9    0.80    1.10
   5  -3  -9    1.00    1.60
  -5   3   9   -0.30    1.20
  -5   3   9   -1.50    1.20
  -5   3   9    0.10    1.40
   4  -3  -9    4.60    1.50
   4  -3  -9    4.60    1.80
  -4   3   9    6.90    2.10
  -4   3   9    6.70    1.50
  -4   3   9    6.00    1.90
   3  -3  -9   53.39    3.30
   3  -3  -9   50.39    3.20
  -3   3   9   50.39    2.80
  -3   3   9   50.89    3.50
  -3   3   9   50.49    3.90
   2  -3  -9   -1.00    0.80
   2  -3  -9   -0.50    1.10
   2  -3  -9    0.10    0.70
  -2   3   9    0.00    1.00
  -2   3   9    0.50    0.80
  -2   3   9   -0.60    1.10
  -2   3   9   -0.40    0.60
   1  -3  -9    5.10    1.50
   1  -3  -9    4.70    0.90
   1  -3  -9    3.60    1.10
  -1   3   9    5.60    1.60
  -1   3   9    5.40    0.90
  -1   3   9    4.10    1.40
   0  -3  -9    8.30    0.80
   0  -3  -9    7.10    0.90
   0  -3  -9    6.80    1.50
   0  -3  -9    6.70    1.60
   0   3   9    7.60    0.80
   0   3   9    8.20    1.60
   0   3   9    9.10    0.90
   0   3   9    6.50    1.80
  -1  -3  -9  120.69    5.20
  -1  -3  -9  122.29    4.30
   1   3   9  111.99    5.00
   1   3   9  114.79    4.80
  -2  -3  -9   30.90    2.50
  -2  -3  -9   33.30    3.00
   2   3   9   33.70    3.00
   2   3   9   30.10    2.60
  -3  -3  -9   38.30    2.90
  -3  -3  -9   41.50    3.20
   3   3   9   42.20    3.60
   3   3   9   40.40    3.30
  -4  -3  -9   -0.70    1.00
  -4  -3  -9   -1.30    0.80
   4   3   9    0.90    1.00
   4   3   9   -0.10    1.30
   4   3   9    1.10    1.00
  -5  -3  -9   11.40    2.30
  -5  -3  -9   14.30    2.50
   5   3   9   12.40    1.70
   5   3   9   11.70    2.10
   5   3   9   13.00    2.60
  -6  -3  -9   10.80    2.30
  -6  -3  -9   10.70    2.30
   6   3   9    9.90    1.90
   6   3   9   10.70    2.60
  -7  -3  -9    6.30    2.20
   7   3   9    3.50    1.90
   5  -4  -9    1.60    1.60
   5  -4  -9    1.50    1.20
  -5   4   9    1.80    1.70
  -5   4   9   -2.50    1.70
   4  -4  -9    4.30    1.50
   4  -4  -9    4.20    1.90
  -4   4   9    3.80    1.90
  -4   4   9    5.80    1.60
  -4   4   9    3.80    1.60
   3  -4  -9    0.90    1.20
   3  -4  -9    0.80    1.30
  -3   4   9    1.90    1.60
  -3   4   9    0.00    0.90
  -3   4   9    0.50    1.50
   2  -4  -9    9.50    1.80
   2  -4  -9   10.10    1.80
  -2   4   9   13.10    1.50
  -2   4   9   10.40    2.10
  -2   4   9    7.20    2.00
   1  -4  -9   13.20    1.30
   1  -4  -9   12.70    1.60
   1  -4  -9   15.60    2.30
  -1   4   9   17.50    1.40
  -1   4   9   15.00    2.20
  -1   4   9   14.70    1.40
   0  -4  -9   72.29    2.50
   0  -4  -9   67.79    2.20
   0  -4  -9   69.29    4.00
   0   4   9   79.49    4.20
   0   4   9   68.29    3.30
   0   4   9   71.19    2.30
   0   4   9   69.79    2.30
  -1  -4  -9   25.80    2.70
  -1  -4  -9   25.80    2.40
   1   4   9   27.70    2.80
   1   4   9   27.40    2.50
  -2  -4  -9   24.00    2.50
  -2  -4  -9   22.30    2.90
   2   4   9   27.80    2.70
   2   4   9   17.60    2.30
  -3  -4  -9   33.20    3.30
  -3  -4  -9   36.10    3.00
   3   4   9   31.80    3.30
  -4  -4  -9   25.10    2.50
  -4  -4  -9   25.20    3.30
   4   4   9   26.60    2.80
   4   4   9   23.80    3.20
  -5  -4  -9    4.50    1.80
  -5  -4  -9    9.20    2.00
   5   4   9   12.00    2.00
   5   4   9    7.80    2.10
  -6  -4  -9    0.80    1.80
   6   4   9    0.60    1.10
   5  -5  -9    1.80    2.00
  -5   5   9    2.50    1.70
  -5   5   9   -0.80    1.90
   4  -5  -9    3.60    1.40
   4  -5  -9    2.40    1.70
  -4   5   9    3.90    2.10
  -4   5   9   -0.40    1.40
   3  -5  -9    1.50    1.40
   3  -5  -9    1.70    1.20
  -3   5   9    2.40    1.80
   2  -5  -9    1.70    1.40
   2  -5  -9    0.80    1.10
  -2   5   9   -1.80    1.20
   1  -5  -9   16.80    2.40
   1  -5  -9   17.10    1.90
  -1   5   9   15.50    2.50
   0  -5  -9   12.30    2.20
   0  -5  -9   12.80    1.50
   0   5   9   13.70    1.60
   0   5   9   17.70    2.60
  -1  -5  -9    2.70    0.70
  -1  -5  -9    3.10    1.50
  -1  -5  -9    2.40    0.60
   1   5   9    2.40    0.50
   1   5   9    3.70    1.50
   1   5   9    1.80    1.00
  -2  -5  -9    5.50    1.70
  -2  -5  -9    5.70    1.60
   2   5   9    9.00    1.90
   2   5   9    5.00    1.50
  -3  -5  -9   89.89    4.60
  -3  -5  -9   94.49    5.20
   3   5   9   95.99    5.20
  -4  -5  -9    0.80    1.60
  -4  -5  -9    1.20    1.30
   4   5   9    3.20    1.50
   4   5   9    1.60    1.00
  -5  -5  -9    1.00    1.70
   5   5   9    4.20    1.80
  -6  -5  -9    0.70    1.60
   6   5   9    5.40    2.20
   4  -6  -9    5.40    2.10
  -4   6   9    6.80    2.20
   3  -6  -9    0.70    1.30
   3  -6  -9    1.90    1.60
  -3   6   9    2.70    1.90
   2  -6  -9    1.50    1.40
   2  -6  -9    1.60    1.40
  -2   6   9    1.20    1.70
   1  -6  -9   10.70    2.10
   1  -6  -9   10.20    1.70
  -1   6   9    9.50    2.20
   0  -6  -9    2.40    1.20
   0  -6  -9    1.20    1.50
   0   6   9    3.60    1.80
  -1  -6  -9    0.20    0.80
  -1  -6  -9   -2.10    1.20
   1   6   9   -1.80    1.20
   1   6   9    0.40    0.90
  -2  -6  -9   44.10    3.70
  -2  -6  -9   37.00    1.70
   2   6   9   38.40    3.10
   2   6   9   45.30    3.90
  -3  -6  -9   36.60    3.40
  -3  -6  -9   37.00    3.50
  -3  -6  -9   32.40    1.00
   3   6   9   32.20    3.30
  -4  -6  -9    3.70    1.90
   4   6   9    1.50    1.50
  -5  -6  -9    0.60    1.90
   5   6   9    0.20    1.40
   3  -7  -9   -1.40    1.70
  -3   7   9   -0.60    1.80
   2  -7  -9    3.20    1.60
   2  -7  -9   -0.20    1.20
  -2   7   9    0.10    1.20
   1  -7  -9    0.30    1.30
   1  -7  -9    0.20    1.30
  -1   7   9    2.90    1.80
   0  -7  -9    4.20    1.80
   0  -7  -9    5.40    1.40
   0   7   9    1.60    1.70
  -1  -7  -9   11.60    1.60
   1   7   9    8.10    2.10
  -2  -7  -9   11.80    1.40
   2   7   9   15.20    2.60
   2   7   9   13.50    2.20
  -3  -7  -9   -1.20    0.70
   3   7   9   -0.20    1.20
   3   7   9    0.50    1.40
  -4  -7  -9    7.90    2.40
   4   7   9    4.30    1.90
   1  -8  -9    3.80    1.80
  -1   8   9    3.10    2.10
   0  -8  -9   -0.20    1.30
   0   8   9    0.20    1.40
  -1  -8  -9   11.80    1.80
   1   8   9    9.60    2.60
  -2  -8  -9    7.60    1.50
   2   8   9    6.10    2.10
  -1  -5  10    7.10    2.80
   0   5 -10    3.20    1.70
   0  -5  10    3.80    2.20
   0  -5  10    3.40    2.40
  -1   5 -10    2.00    1.40
   1  -5  10   -0.50    1.70
   1  -5  10   -2.10    2.10
   3   4 -10    0.80    1.60
  -3  -4  10   -0.20    1.60
  -3  -4  10   -0.10    1.80
   2   4 -10    0.80    1.50
  -2  -4  10   -0.70    1.80
  -2  -4  10    0.90    1.80
   1   4 -10    1.90    1.40
  -1  -4  10    1.00    2.00
  -1  -4  10    5.10    2.20
   0   4 -10   16.00    2.20
   0  -4  10   14.70    3.10
   0  -4  10   16.10    2.90
  -1   4 -10    1.80    1.20
   1  -4  10   -2.30    1.70
   1  -4  10    2.40    1.90
  -2   4 -10   -0.10    1.10
   2  -4  10    0.00    1.50
   2  -4  10   -0.80    2.00
  -3   4 -10    0.70    1.10
  -3   4 -10    1.10    1.40
   3  -4  10    0.60    1.50
   3  -4  10    0.60    2.20
   4   3 -10    1.10    1.70
  -4  -3  10    0.50    1.80
  -4  -3  10    1.30    2.20
   3   3 -10    3.60    1.60
  -3  -3  10    1.80    1.80
  -3  -3  10   -1.10    1.90
   2   3 -10   10.20    2.10
  -2  -3  10    8.10    2.20
  -2  -3  10    6.40    2.10
   1   3 -10    0.00    1.20
  -1  -3  10   -0.70    1.50
  -1  -3  10   -1.70    1.60
   0   3 -10   -1.90    0.90
   0  -3  10   -1.00    1.70
   0  -3  10    1.10    1.60
  -1   3 -10    1.50    1.00
  -1   3 -10    2.70    1.20
   1  -3  10    1.60    1.90
   1  -3  10    2.50    1.60
  -2   3 -10   21.20    2.00
  -2   3 -10   20.00    2.10
  -2   3 -10   22.20    2.90
   2  -3  10   17.30    2.50
   2  -3  10   17.40    3.10
  -3   3 -10   -1.10    0.70
  -3   3 -10    2.80    1.40
   3  -3  10    0.00    2.20
   3  -3  10    0.00    1.40
  -4   3 -10   -0.80    1.20
  -4   3 -10   -0.50    1.00
   4  -3  10    1.00    1.30
   4  -3  10    0.80    1.90
  -5   3 -10    2.40    1.20
  -5   3 -10    0.40    1.20
  -5   3 -10    5.90    1.80
   5  -3  10    3.70    2.70
   4   2 -10    0.80    1.30
  -4  -2  10   -2.00    1.60
  -4  -2  10   -0.80    1.10
  -4  -2  10   -0.30    1.20
   3   2 -10   -0.60    1.20
  -3  -2  10    0.40    1.20
  -3  -2  10   -0.70    1.20
  -3  -2  10    1.40    1.20
   2   2 -10    3.10    1.40
  -2  -2  10    1.20    1.70
  -2  -2  10    2.50    1.80
  -2  -2  10    3.40    1.20
  -2  -2  10    2.00    1.10
   1   2 -10    4.80    1.40
  -1  -2  10   -0.80    1.60
  -1  -2  10    4.10    1.30
  -1  -2  10    3.00    1.00
  -1  -2  10    5.10    1.80
   0   2 -10   27.70    2.10
   0  -2  10   30.80    3.50
   0  -2  10   19.80    2.60
   0  -2  10   27.40    1.80
  -1   2 -10    0.30    0.90
  -1   2 -10    3.00    1.10
   1  -2  10    0.90    1.50
   1  -2  10    2.50    1.90
  -2   2 -10    3.40    1.30
  -2   2 -10    5.30    1.40
  -2   2 -10    4.70    1.10
   2  -2  10    5.90    2.50
   2  -2  10    3.30    1.50
  -3   2 -10    9.90    2.20
  -3   2 -10    7.10    1.60
   3  -2  10    9.10    2.60
   3  -2  10    5.50    1.70
  -4   2 -10    0.80    1.30
  -4   2 -10    2.10    1.40
  -4   2 -10    1.00    0.90
   4  -2  10    1.40    1.10
   4  -2  10    0.40    1.90
  -5   2 -10   -0.30    1.40
  -5   2 -10    0.70    1.30
  -5   2 -10    0.90    1.00
   5  -2  10   -0.90    1.90
   5   1 -10   -0.90    1.70
  -5  -1  10   -0.20    1.50
  -5  -1  10    0.70    1.90
   4   1 -10   -0.80    1.40
  -4  -1  10   -0.60    1.20
  -4  -1  10    3.30    2.00
  -4  -1  10   -0.90    1.00
   3   1 -10   -0.10    1.20
  -3  -1  10    1.00    1.00
  -3  -1  10    1.20    1.10
  -3  -1  10   -1.60    1.50
   2   1 -10   59.09    3.30
  -2  -1  10   59.89    3.20
  -2  -1  10   54.59    4.00
  -2  -1  10   59.09    3.10
   1   1 -10   44.40    2.60
   1   1 -10   42.20    2.50
  -1  -1  10   40.80    2.40
  -1  -1  10   39.70    2.50
  -1  -1  10   44.40    4.20
  -1  -1  10   37.30    3.60
   0   1 -10   20.00    1.80
   0   1 -10   21.10    1.60
   0  -1  10   21.80    1.80
   0  -1  10   20.20    3.10
   0  -1  10   23.40    1.80
   0  -1  10   18.10    2.60
  -1   1 -10   90.69    4.60
  -1   1 -10   90.49    3.20
  -1   1 -10   95.69    3.50
   1  -1  10  101.19    6.00
   1  -1  10   92.69    3.20
   1  -1  10  107.69    5.00
  -2   1 -10   28.70    2.70
  -2   1 -10   36.00    2.60
  -2   1 -10   32.00    1.80
   2  -1  10   37.50    4.10
   2  -1  10   37.20    1.80
   2  -1  10   40.40    3.10
  -3   1 -10    0.70    1.10
  -3   1 -10    1.90    0.80
  -3   1 -10    4.60    1.60
   3  -1  10    4.20    1.70
   3  -1  10    2.00    1.20
  -4   1 -10    3.50    1.50
  -4   1 -10    1.20    1.40
  -4   1 -10    2.40    0.90
   4  -1  10    1.50    1.90
   4  -1  10    2.90    1.20
  -5   1 -10   -1.00    1.10
  -5   1 -10    0.00    1.40
  -5   1 -10    0.00    0.70
   5  -1  10   -1.10    1.20
  -6   1 -10    1.30    0.90
  -6   1 -10    0.70    1.30
  -6   1 -10   -0.10    1.60
   6  -1  10    0.40    2.10
   5   0 -10    2.10    1.80
  -5   0  10    1.80    1.80
  -5   0  10   -0.70    1.60
   4   0 -10    0.10    1.30
  -4   0  10    0.80    1.40
  -4   0  10    1.20    1.20
  -4   0  10    1.10    1.60
   3   0 -10   54.39    3.40
  -3   0  10   42.50    2.70
  -3   0  10   45.90    4.00
  -3   0  10   53.79    3.50
   2   0 -10   11.10    1.70
  -2   0  10   14.80    2.40
  -2   0  10   14.50    2.00
  -2   0  10   13.30    1.70
   1   0 -10  102.89    3.80
  -1   0  10  100.09    4.10
  -1   0  10  100.19    3.50
  -1   0  10  100.79    5.00
   0   0 -10   -1.50    1.00
   0   0 -10    0.20    0.70
   0   0 -10    0.60    0.70
   0   0 -10   -1.00    0.70
   0   0  10   -0.40    1.30
   0   0  10   -1.00    0.50
   0   0  10   -1.00    0.70
  -1   0 -10    0.30    0.60
  -1   0 -10   -0.10    1.20
  -1   0 -10    2.40    1.00
  -1   0 -10    0.20    0.50
   1   0  10    1.10    1.60
   1   0  10    0.70    0.70
   1   0  10    0.80    0.60
   1   0  10   -0.60    1.10
  -2   0 -10   11.70    2.20
  -2   0 -10    9.20    0.90
  -2   0 -10    7.00    1.50
   2   0  10    9.30    1.80
   2   0  10   11.70    1.40
   2   0  10    7.30    2.00
   2   0  10    8.30    1.00
  -3   0 -10    7.40    0.80
  -3   0 -10    7.60    0.80
  -3   0 -10    9.90    1.80
  -3   0 -10    8.40    2.00
   3   0  10   10.80    1.40
   3   0  10    7.80    2.20
   3   0  10    7.00    1.60
  -4   0 -10   -0.80    1.00
  -4   0 -10   -1.40    1.10
  -4   0 -10    0.20    0.40
   4   0  10   -1.20    1.40
   4   0  10    0.50    1.00
   4   0  10    0.90    0.70
  -5   0 -10    0.90    1.20
  -5   0 -10    0.60    0.60
  -5   0 -10   -1.50    1.30
   5   0  10    1.00    1.00
   5   0  10   -1.40    1.30
  -6   0 -10    1.20    1.50
  -6   0 -10   -0.70    1.50
  -6   0 -10    1.10    0.70
   6   0  10    0.60    1.60
   6   0  10   -0.20    1.20
   5  -1 -10   -1.00    1.40
  -5   1  10   -3.20    1.40
  -5   1  10   -0.40    1.10
   4  -1 -10    0.70    1.30
  -4   1  10    2.40    1.80
  -4   1  10   -1.80    1.30
   3  -1 -10   18.10    2.40
  -3   1  10   15.50    2.70
  -3   1  10   15.20    1.90
  -3   1  10   24.30    2.70
   2  -1 -10   25.30    2.70
   2  -1 -10   33.90    2.50
  -2   1  10   33.80    3.10
  -2   1  10   30.60    2.70
  -2   1  10   32.20    2.10
   1  -1 -10   47.80    3.50
   1  -1 -10   50.09    2.30
   1  -1 -10   46.40    2.50
  -1   1  10   44.60    2.20
  -1   1  10   47.20    3.00
  -1   1  10   50.99    3.90
   0  -1 -10   18.00    2.60
   0  -1 -10   19.40    1.80
   0  -1 -10   22.60    1.40
   0   1  10   17.40    1.20
   0   1  10   13.90    2.30
   0   1  10   18.00    2.20
  -1  -1 -10  211.68    7.30
  -1  -1 -10  197.18    4.10
  -1  -1 -10  207.38    4.10
  -1  -1 -10  198.78    5.50
   1   1  10  211.08    7.30
   1   1  10  203.68    4.40
   1   1  10  202.48    4.20
   1   1  10  211.38    6.30
  -2  -1 -10   48.60    3.50
  -2  -1 -10   46.30    2.70
   2   1  10   42.70    2.60
   2   1  10   41.90    3.20
   2   1  10   46.40    4.00
  -3  -1 -10    5.60    1.50
  -3  -1 -10    5.90    1.80
   3   1  10    4.90    1.90
   3   1  10    3.90    1.40
   3   1  10    6.30    1.40
  -4  -1 -10   20.80    2.90
  -4  -1 -10   13.30    2.10
   4   1  10   16.00    2.00
   4   1  10   15.20    2.70
   4   1  10   22.50    2.00
  -5  -1 -10    0.60    1.00
  -5  -1 -10    0.00    1.40
   5   1  10    1.70    1.40
   5   1  10    0.40    1.30
   5   1  10    0.40    0.90
  -6  -1 -10    4.90    2.10
  -6  -1 -10    6.00    2.00
   6   1  10    5.30    2.30
   6   1  10    7.00    2.20
   5  -2 -10    2.50    1.80
   5  -2 -10    4.70    1.60
  -5   2  10    3.80    2.00
  -5   2  10    4.20    2.00
   4  -2 -10    0.30    1.40
   4  -2 -10    0.50    1.30
  -4   2  10    0.10    1.50
  -4   2  10    1.90    1.70
   3  -2 -10    7.50    1.80
   3  -2 -10   10.80    1.90
  -3   2  10   12.20    2.10
  -3   2  10    9.80    2.10
   2  -2 -10   79.79    4.30
   2  -2 -10   86.69    3.80
  -2   2  10   88.59    4.40
  -2   2  10   84.99    3.40
  -2   2  10   88.59    4.80
   1  -2 -10    7.30    2.00
   1  -2 -10    9.10    1.30
   1  -2 -10   10.20    1.20
  -1   2  10    6.50    1.60
  -1   2  10    9.50    1.10
  -1   2  10    6.40    1.50
  -1   2  10    4.90    1.90
   0  -2 -10    4.20    0.80
   0  -2 -10    3.80    1.40
   0  -2 -10    4.40    1.30
   0  -2 -10    4.10    0.70
   0   2  10    5.10    1.40
   0   2  10    3.70    0.80
   0   2  10    5.40    1.80
   0   2  10    4.10    0.70
  -1  -2 -10    1.90    1.10
  -1  -2 -10    4.00    1.40
   1   2  10    4.50    1.30
   1   2  10    3.10    1.60
  -2  -2 -10   13.20    2.30
  -2  -2 -10   11.60    1.80
   2   2  10   11.30    2.00
   2   2  10   11.30    2.20
   2   2  10   12.20    1.80
  -3  -2 -10   20.80    2.90
  -3  -2 -10   19.90    2.10
   3   2  10   20.50    2.10
   3   2  10   22.70    2.40
   3   2  10   22.70    3.00
  -4  -2 -10    5.40    1.80
  -4  -2 -10    5.40    1.70
   4   2  10    2.00    1.50
   4   2  10    8.90    2.10
   4   2  10    9.50    1.70
  -5  -2 -10    1.00    1.20
  -5  -2 -10    2.10    1.50
   5   2  10    1.80    1.40
   5   2  10    3.30    1.60
   5   2  10    3.50    1.10
  -6  -2 -10   -2.10    1.00
  -6  -2 -10    1.00    1.70
   6   2  10    1.20    1.70
   6   2  10    0.20    1.20
   5  -3 -10   -0.40    1.70
   5  -3 -10   -1.50    0.90
  -5   3  10   -0.70    1.70
  -5   3  10    0.90    1.70
   4  -3 -10    6.30    1.90
   4  -3 -10    4.60    1.60
  -4   3  10   11.30    2.40
  -4   3  10    4.70    1.70
   3  -3 -10    2.40    1.50
   3  -3 -10    1.30    1.30
  -3   3  10    0.60    1.50
  -3   3  10   -0.70    1.50
   2  -3 -10   16.60    2.50
   2  -3 -10   20.70    2.20
  -2   3  10   18.00    2.80
  -2   3  10   18.40    2.40
   1  -3 -10   11.30    1.40
   1  -3 -10    7.20    1.90
  -1   3  10    8.50    2.20
  -1   3  10   11.30    1.90
   0  -3 -10  253.57    5.10
   0  -3 -10  249.28    5.30
   0  -3 -10  253.37    8.20
   0   3  10  279.77    8.80
   0   3  10  247.28    5.30
   0   3  10  267.97    8.10
  -1  -3 -10   98.49    5.00
  -1  -3 -10   93.09    3.90
   1   3  10  100.19    5.00
   1   3  10   85.69    4.20
  -2  -3 -10    0.80    1.20
  -2  -3 -10   -0.20    1.20
   2   3  10   -0.60    0.90
   2   3  10   -1.30    1.00
   2   3  10   -0.10    0.80
  -3  -3 -10   24.70    2.70
  -3  -3 -10   25.50    2.60
   3   3  10   27.50    3.10
   3   3  10   31.00    3.10
   3   3  10   29.10    2.60
   3   3  10   29.80    2.70
  -4  -3 -10    3.90    1.80
  -4  -3 -10    3.40    1.50
   4   3  10    6.40    1.60
   4   3  10    3.30    1.60
   4   3  10    5.60    1.80
  -5  -3 -10    1.40    1.40
  -5  -3 -10    0.70    1.70
   5   3  10    2.40    1.50
   5   3  10    2.70    1.20
   5   3  10    3.20    1.50
  -6  -3 -10    0.70    1.40
  -6  -3 -10    1.90    1.80
   6   3  10    0.10    1.20
   6   3  10    1.20    1.80
   5  -4 -10   -0.20    1.70
   5  -4 -10    0.60    1.30
  -5   4  10   -0.50    1.50
  -5   4  10   -1.70    1.40
   4  -4 -10    6.50    2.00
   4  -4 -10    8.30    1.90
  -4   4  10    6.60    2.00
  -4   4  10    5.60    2.10
   3  -4 -10    4.00    1.50
   3  -4 -10    2.20    1.30
  -3   4  10    8.30    2.30
  -3   4  10    3.40    1.80
   2  -4 -10    7.70    1.50
   2  -4 -10    8.30    1.90
  -2   4  10    5.50    2.00
  -2   4  10    7.80    2.00
   1  -4 -10   -0.10    1.00
   1  -4 -10    3.10    1.00
  -1   4  10    3.50    0.90
  -1   4  10    2.20    1.50
  -1   4  10    0.10    1.60
   0  -4 -10    0.20    0.50
   0  -4 -10    0.10    0.90
   0  -4 -10    1.00    0.70
   0   4  10    3.50    1.60
   0   4  10    0.40    0.70
   0   4  10    0.30    1.10
  -1  -4 -10    3.80    1.50
  -1  -4 -10    3.70    1.70
   1   4  10    1.10    1.40
   1   4  10    4.20    1.30
  -2  -4 -10   -0.30    1.00
  -2  -4 -10    1.70    1.40
   2   4  10   -1.60    0.90
   2   4  10    1.30    1.20
  -3  -4 -10   54.89    3.60
  -3  -4 -10   50.89    4.00
   3   4  10   53.79    3.70
   3   4  10   62.59    4.40
   3   4  10   57.39    4.00
  -4  -4 -10   -1.60    1.40
  -4  -4 -10    0.20    1.40
   4   4  10    0.50    1.10
   4   4  10    0.80    1.00
  -5  -4 -10    0.90    1.50
  -5  -4 -10    1.10    1.60
   5   4  10    2.50    1.40
   5   4  10    2.70    1.40
  -6  -4 -10   21.00    3.10
   6   4  10   12.70    2.80
   4  -5 -10    6.60    1.90
   4  -5 -10    7.30    2.20
  -4   5  10    3.10    1.80
  -4   5  10    6.90    2.30
   3  -5 -10    4.00    1.60
   3  -5 -10    8.50    2.00
  -3   5  10    5.80    2.10
  -3   5  10    8.20    2.40
   2  -5 -10    5.00    1.50
   2  -5 -10    4.10    1.50
  -2   5  10    2.50    1.50
   1  -5 -10    9.30    2.10
   1  -5 -10   11.10    1.60
  -1   5  10   13.50    2.30
   0  -5 -10   70.59    2.70
   0  -5 -10   69.89    4.40
   0   5  10   73.69    3.40
   0   5  10   64.59    4.40
  -1  -5 -10   21.70    3.10
   1   5  10   22.80    2.50
   1   5  10   27.80    3.20
  -2  -5 -10   49.10    3.90
  -2  -5 -10   43.40    3.40
   2   5  10   48.20    3.80
   2   5  10   49.80    3.50
  -3  -5 -10   10.90    2.50
  -3  -5 -10   12.20    2.40
   3   5  10   12.30    2.20
   3   5  10   14.60    2.50
  -4  -5 -10    0.30    1.10
  -4  -5 -10   -0.50    1.50
   4   5  10    0.10    1.00
   4   5  10    0.60    1.20
  -5  -5 -10   -1.20    0.90
  -5  -5 -10    0.50    1.70
   5   5  10    1.80    1.60
   3  -6 -10    4.70    1.80
   3  -6 -10    5.30    1.80
  -3   6  10    8.00    2.40
   2  -6 -10    2.30    1.50
   2  -6 -10    0.50    1.30
  -2   6  10    1.20    1.80
   1  -6 -10    5.00    1.50
   1  -6 -10    4.80    1.80
  -1   6  10    6.60    2.00
   0  -6 -10    4.30    2.00
   0  -6 -10    2.70    1.10
   0   6  10    1.90    1.80
  -1  -6 -10   13.10    2.70
  -1  -6 -10   14.30    1.30
   1   6  10   14.30    2.50
  -2  -6 -10   63.39    4.50
   2   6  10   47.40    3.50
   2   6  10   53.89    4.30
  -3  -6 -10   10.90    2.50
  -3  -6 -10   10.10    2.50
   3   6  10   11.70    2.20
   3   6  10   15.80    2.80
  -4  -6 -10    1.30    1.50
   4   6  10    0.90    1.40
  -5  -6 -10    6.70    2.40
   5   6  10    5.90    1.90
   2  -7 -10    2.00    1.60
   2  -7 -10    1.50    1.60
  -2   7  10    2.40    1.80
   1  -7 -10   11.80    2.40
   1  -7 -10    9.60    2.00
  -1   7  10   13.20    2.80
   0  -7 -10    4.40    1.40
   0  -7 -10    4.60    2.00
   0   7  10    2.80    2.00
  -1  -7 -10    2.60    1.50
  -1  -7 -10    4.50    1.10
   1   7  10    3.60    1.70
   2   7  10   11.80    2.50
   3   7  10   -0.20    1.20
   3   7  10    1.60    1.60
  -1  -4  11   -1.10    1.90
   0   4 -11    1.70    1.30
   0  -4  11    2.40    2.10
   0  -4  11    2.30    2.30
  -1   4 -11    0.40    1.10
   1  -4  11    0.00    2.50
   1  -4  11   -2.30    1.50
   2   3 -11    2.50    1.50
  -2  -3  11    1.50    1.90
  -2  -3  11   -5.40    1.50
   1   3 -11    2.70    1.30
  -1  -3  11    0.10    1.90
  -1  -3  11    3.00    1.60
   0   3 -11   -0.70    0.90
   0  -3  11    3.40    2.20
   0  -3  11   -2.20    1.60
  -1   3 -11   -0.70    0.80
   1  -3  11    0.50    1.90
   1  -3  11   -0.60    1.50
  -2   3 -11   -1.90    0.80
  -2   3 -11    0.40    1.20
  -2   3 -11    0.30    1.00
   2  -3  11   -0.50    1.30
   2  -3  11   -0.50    1.50
  -3   3 -11    4.80    1.90
  -3   3 -11    5.60    1.60
  -3   3 -11    4.20    1.30
   3  -3  11    4.20    2.60
   3  -3  11    2.60    1.90
   3   2 -11   -0.20    1.30
  -3  -2  11   -2.00    1.80
  -3  -2  11   -0.90    1.10
  -3  -2  11    1.70    1.90
   2   2 -11    7.20    1.70
  -2  -2  11    6.80    2.30
  -2  -2  11    7.90    2.50
   1   2 -11   16.70    2.10
  -1  -2  11   19.50    3.10
  -1  -2  11   20.00    3.40
   0   2 -11   -0.60    0.70
   0  -2  11   -0.50    1.50
   0  -2  11    0.60    1.80
  -1   2 -11    1.00    1.30
  -1   2 -11    1.90    1.10
  -1   2 -11    1.50    0.90
   1  -2  11    0.90    1.20
   1  -2  11    0.30    1.40
  -2   2 -11   11.00    1.70
  -2   2 -11    9.20    1.40
  -2   2 -11   10.70    2.30
   2  -2  11    8.40    2.00
   2  -2  11   13.00    3.20
  -3   2 -11    0.10    1.20
  -3   2 -11   -0.50    1.20
   3  -2  11   -1.50    1.30
   3  -2  11    0.70    1.40
  -4   2 -11    0.70    1.30
  -4   2 -11    1.00    0.90
  -4   2 -11   -1.30    1.20
   4  -2  11    0.40    1.30
   4  -2  11   -0.20    1.50
   4   1 -11    5.40    2.00
  -4  -1  11    1.60    2.20
  -4  -1  11    7.80    2.00
   3   1 -11   18.90    2.50
  -3  -1  11   22.10    2.60
  -3  -1  11   15.50    2.70
   2   1 -11    1.60    1.20
  -2  -1  11    1.20    1.40
  -2  -1  11    1.70    1.30
   1   1 -11    1.70    1.10
  -1  -1  11    1.50    1.10
  -1  -1  11    2.00    1.70
  -1  -1  11   -0.50    1.70
   0   1 -11    1.40    1.40
   0   1 -11    1.10    0.90
   0  -1  11   -0.50    0.80
   0  -1  11    1.00    1.60
   0  -1  11    1.20    1.80
  -1   1 -11    8.70    1.20
  -1   1 -11    7.50    1.40
  -1   1 -11    7.40    2.00
   1  -1  11    6.50    1.90
   1  -1  11    5.30    2.20
  -2   1 -11   10.20    1.20
  -2   1 -11   13.50    2.40
  -2   1 -11   10.10    1.70
   2  -1  11   11.00    2.10
   2  -1  11    9.60    2.40
  -3   1 -11    3.50    1.60
  -3   1 -11   -0.20    1.10
  -3   1 -11    1.10    0.70
   3  -1  11    0.40    1.30
   3  -1  11    2.30    1.30
  -4   1 -11   15.30    2.30
  -4   1 -11   15.80    1.40
  -4   1 -11   13.80    2.60
   4  -1  11   15.20    2.20
   4  -1  11   17.50    3.50
  -5   1 -11   -0.10    1.50
  -5   1 -11    0.40    1.30
  -5   1 -11    0.60    0.80
   5  -1  11   -0.10    1.80
   4   0 -11    0.90    1.50
  -4   0  11    0.20    1.50
  -4   0  11   -1.00    1.30
   3   0 -11    1.70    1.30
  -3   0  11    1.60    1.40
  -3   0  11    3.80    2.10
   2   0 -11   -1.20    1.00
  -2   0  11   -0.30    1.60
  -2   0  11    0.10    1.20
   1   0 -11    2.50    1.30
   1   0 -11    2.60    1.00
  -1   0  11    2.40    1.70
  -1   0  11    1.30    1.10
   0   0 -11    5.70    1.10
   0   0 -11    4.60    1.70
   0   0 -11    4.60    1.10
   0   0  11    0.90    1.50
   0   0  11    3.60    1.70
   0   0  11    2.10    1.00
  -1   0 -11   26.80    1.50
  -1   0 -11   31.10    3.10
  -1   0 -11   30.00    2.10
   1   0  11   22.30    3.30
   1   0  11   27.30    2.10
   1   0  11   31.50    2.80
  -2   0 -11    6.00    1.40
  -2   0 -11    6.30    1.70
   2   0  11    3.50    1.00
   2   0  11    3.40    2.10
   2   0  11    2.50    1.40
  -3   0 -11    1.30    1.20
  -3   0 -11    0.30    1.30
  -3   0 -11    1.80    0.40
   3   0  11    2.10    0.90
   3   0  11    1.80    1.50
   3   0  11    0.40    1.20
  -4   0 -11    3.40    1.50
  -4   0 -11    3.80    1.60
   4   0  11    4.40    1.30
   4   0  11    3.60    2.00
  -5   0 -11   -0.40    1.40
  -5   0 -11    3.80    1.70
   5   0  11    0.20    1.70
   4  -1 -11    6.70    1.90
   4  -1 -11    8.00    2.00
  -4   1  11    5.10    2.20
  -4   1  11    2.50    1.80
   3  -1 -11   34.00    3.30
   3  -1 -11   37.80    2.90
  -3   1  11   40.00    3.30
  -3   1  11   41.30    3.70
   2  -1 -11    1.40    1.30
   2  -1 -11    1.70    1.10
  -2   1  11    0.00    1.60
  -2   1  11   -0.20    1.10
   1  -1 -11    4.40    1.80
   1  -1 -11    6.80    1.20
  -1   1  11    7.70    2.20
  -1   1  11    7.90    1.70
   0  -1 -11   40.40    1.90
   0  -1 -11   41.10    2.30
   0  -1 -11   42.40    3.50
   0   1  11   40.60    3.70
   0   1  11   39.30    2.70
  -1  -1 -11    1.90    0.40
  -1  -1 -11    3.40    1.60
  -1  -1 -11    3.20    1.10
   1   1  11    1.40    1.30
   1   1  11    1.90    1.50
   1   1  11    0.10    0.90
  -2  -1 -11    5.00    1.80
  -2  -1 -11    4.30    1.40
   2   1  11    3.50    1.70
   2   1  11    2.80    1.10
   2   1  11    4.60    1.60
  -3  -1 -11    6.50    1.60
  -3  -1 -11    5.60    1.70
   3   1  11    1.10    1.20
   3   1  11    2.90    1.40
   3   1  11    5.80    1.30
  -4  -1 -11   -0.10    1.20
  -4  -1 -11   -0.40    0.90
   4   1  11    0.80    1.00
   4   1  11    2.00    1.60
   4   1  11    0.20    0.90
  -5  -1 -11    2.40    1.70
  -5  -1 -11    2.90    1.70
   5   1  11    1.40    1.60
  -6  -1 -11    1.70    1.30
   6   1  11    2.30    1.70
   6   1  11    3.50    2.30
   4  -2 -11   13.90    2.30
   4  -2 -11    6.60    2.00
  -4   2  11    8.30    2.00
  -4   2  11    7.50    2.40
   3  -2 -11    2.20    1.30
   3  -2 -11    1.80    1.50
  -3   2  11    1.80    1.90
  -3   2  11    2.80    1.40
   2  -2 -11   11.60    1.70
   2  -2 -11   13.30    2.30
  -2   2  11   13.00    2.40
  -2   2  11   11.80    2.10
   1  -2 -11   15.20    2.40
   1  -2 -11   16.60    1.60
  -1   2  11   15.20    2.70
  -1   2  11   15.80    2.20
   0  -2 -11   11.70    2.20
   0  -2 -11   13.20    1.80
   0  -2 -11   14.90    1.10
   0   2  11   11.70    2.00
   0   2  11   12.80    2.40
  -1  -2 -11   11.60    2.20
  -1  -2 -11   13.10    1.90
   1   2  11   12.70    1.90
   1   2  11    9.80    1.90
  -2  -2 -11   -0.10    1.20
  -2  -2 -11    0.50    1.10
   2   2  11    0.50    1.40
   2   2  11    0.10    0.80
   2   2  11    0.10    1.10
  -3  -2 -11    2.20    1.50
  -3  -2 -11    1.00    1.30
   3   2  11    1.20    1.20
   3   2  11    1.70    1.10
   3   2  11    1.60    1.50
  -4  -2 -11    0.60    1.20
  -4  -2 -11   -1.70    1.20
   4   2  11    2.10    1.20
   4   2  11    0.70    1.30
   4   2  11    0.60    1.30
   4   2  11    1.10    0.90
  -5  -2 -11   -1.30    1.50
  -5  -2 -11   -0.20    1.50
   5   2  11    0.70    1.50
   5   2  11   -0.20    0.90
   5   2  11   -0.30    1.30
  -6  -2 -11    0.60    1.50
  -6  -2 -11    2.20    1.90
   6   2  11    1.40    1.70
   6   2  11   -0.60    1.30
   4  -3 -11   20.30    2.90
   4  -3 -11   20.00    2.70
  -4   3  11   24.50    3.50
  -4   3  11   22.30    3.20
   3  -3 -11    3.00    1.70
   3  -3 -11    4.60    1.50
  -3   3  11    4.30    2.00
  -3   3  11    1.80    1.30
   2  -3 -11   46.80    3.80
   2  -3 -11   54.19    3.00
  -2   3  11   55.69    3.90
  -2   3  11   56.19    4.50
   1  -3 -11   27.50    1.90
   1  -3 -11   23.00    3.10
  -1   3  11   23.00    3.00
  -1   3  11   29.30    2.90
   0  -3 -11   24.80    1.20
   0  -3 -11   27.90    3.00
   0   3  11   30.90    3.10
   0   3  11   27.50    2.70
  -1  -3 -11   -0.50    1.10
  -1  -3 -11   -0.10    1.30
   1   3  11   -0.20    1.00
   1   3  11    0.70    1.40
  -2  -3 -11    0.60    1.20
  -2  -3 -11    2.70    1.80
   2   3  11    3.40    1.30
   2   3  11    1.50    1.30
  -3  -3 -11   20.90    3.10
  -3  -3 -11   21.20    2.50
   3   3  11   18.40    2.50
   3   3  11   19.00    2.60
   3   3  11   16.50    2.60
   3   3  11   14.40    2.50
  -4  -3 -11   -1.10    1.30
  -4  -3 -11    2.50    1.70
   4   3  11    0.70    1.00
   4   3  11    0.50    1.00
   4   3  11    0.70    1.30
   4   3  11    1.10    1.00
  -5  -3 -11    6.40    2.20
  -5  -3 -11    5.50    2.00
   5   3  11    6.70    2.20
   5   3  11    6.40    1.80
   5   3  11    3.80    1.50
   4  -4 -11   15.30    2.70
   4  -4 -11   10.00    2.20
  -4   4  11    8.10    2.50
  -4   4  11    8.80    2.60
   3  -4 -11   21.70    3.00
   3  -4 -11   20.10    2.50
  -3   4  11   20.40    3.10
  -3   4  11   17.10    2.90
   2  -4 -11    2.50    1.30
   2  -4 -11   -0.20    1.40
  -2   4  11   -0.90    0.90
  -2   4  11   -1.90    1.50
   1  -4 -11   17.10    2.80
   1  -4 -11   19.70    1.80
  -1   4  11   14.90    2.60
  -1   4  11   17.10    2.70
   0  -4 -11   35.20    1.40
   0  -4 -11   26.70    3.40
   0   4  11   37.50    3.30
   0   4  11   36.20    3.70
   0   4  11   37.90    2.80
  -1  -4 -11    2.40    1.60
  -1  -4 -11    1.40    1.30
   1   4  11    2.80    1.50
   1   4  11    4.20    1.70
   1   4  11    3.50    1.30
  -2  -4 -11    2.30    1.70
  -2  -4 -11    6.20    1.80
   2   4  11    5.70    1.80
   2   4  11    4.60    1.60
   2   4  11    3.70    1.50
  -3  -4 -11   -0.70    1.40
  -3  -4 -11   -1.20    1.20
   3   4  11    1.70    1.20
   3   4  11    0.40    1.10
   3   4  11   -0.10    1.00
   3   4  11    0.40    1.20
  -4  -4 -11    3.30    1.80
  -4  -4 -11   -0.60    1.50
   4   4  11   -0.10    1.30
   4   4  11    0.20    1.30
   4   4  11    0.20    1.10
   4   4  11    2.20    1.10
  -5  -4 -11   -0.50    1.70
  -5  -4 -11   -0.60    1.50
   5   4  11   -1.40    0.80
   5   4  11    0.90    1.30
   5   4  11   -0.10    1.00
   3  -5 -11    1.40    1.30
   3  -5 -11    0.60    1.50
  -3   5  11    2.10    2.00
  -3   5  11    2.40    2.00
   2  -5 -11   13.70    2.00
   2  -5 -11   12.80    2.60
  -2   5  11    9.30    2.50
  -2   5  11   12.40    2.60
   1  -5 -11   76.99    4.80
   1  -5 -11   75.79    3.20
  -1   5  11   81.69    5.30
  -1   5  11   70.09    4.70
   0  -5 -11   11.10    2.50
   0  -5 -11    9.60    1.10
   0   5  11   10.10    2.30
  -1  -5 -11    0.80    1.60
   1   5  11    2.40    1.50
   1   5  11    0.70    1.00
  -2  -5 -11    0.00    1.50
  -2  -5 -11    1.00    1.70
   2   5  11    1.40    1.30
   2   5  11    0.40    1.20
  -3  -5 -11    2.40    1.80
  -3  -5 -11    0.80    1.10
   3   5  11    0.00    1.00
   3   5  11   -0.20    1.00
  -4  -5 -11   -0.20    1.50
  -4  -5 -11    0.60    1.80
   4   5  11    1.70    1.70
   4   5  11    1.50    1.10
   4   5  11    1.20    1.20
  -5  -5 -11   -0.80    1.70
   5   5  11    1.40    1.50
   2  -6 -11    3.00    1.50
   2  -6 -11    0.10    1.50
  -2   6  11    2.70    1.80
   1  -6 -11    5.40    2.00
   1  -6 -11    5.10    1.40
  -1   6  11    5.40    2.10
   0  -6 -11    6.40    1.10
   0  -6 -11    4.80    2.00
   0   6  11    2.30    1.90
  -1  -6 -11    5.10    1.90
   1   6  11    3.70    1.60
  -2  -6 -11    3.80    1.90
   2   6  11    5.10    1.80
  -3  -6 -11   -0.10    1.40
  -3  -6 -11    0.40    1.10
   3   6  11    3.50    1.60
   3   6  11    0.80    1.30
  -4  -6 -11    1.20    2.00
  -4  -6 -11   -0.90    1.40
   4   6  11    1.40    1.40
   0  -7 -11    0.70    1.00
   0  -7 -11    0.40    1.60
   0   7  11    1.40    1.40
  -1  -7 -11    1.90    1.70
   1   7  11    5.20    2.00
  -2  -7 -11   12.80    2.80
  -2  -2  12    2.90    2.20
  -2  -2  12    0.30    2.10
   1   2 -12    3.60    1.30
  -1  -2  12    0.70    2.00
  -1  -2  12    2.90    1.80
   0   2 -12   -0.50    0.90
   0  -2  12   -1.60    2.10
   0  -2  12    0.30    1.30
  -1   2 -12    1.80    1.00
  -1   2 -12    2.40    1.70
   1  -2  12    1.50    2.20
   1  -2  12    1.30    1.70
  -2   2 -12    1.50    1.70
  -2   2 -12    2.20    1.00
  -2   2 -12    2.80    1.30
   2  -2  12    2.20    2.20
   2  -2  12    2.50    1.70
  -3   2 -12   -2.30    1.10
  -3   2 -12    0.50    1.20
  -3   2 -12    0.40    0.90
   3  -2  12   -0.80    1.50
   3  -2  12   -1.50    1.30
   2   1 -12    2.10    1.30
  -2  -1  12    0.40    1.20
  -2  -1  12    1.20    2.00
  -2  -1  12    2.80    2.00
   1   1 -12    0.60    1.00
  -1  -1  12   -0.70    1.60
  -1  -1  12    2.60    1.70
   0   1 -12    5.50    1.30
   0   1 -12    6.60    1.80
   0  -1  12    4.90    1.90
   0  -1  12    2.80    2.10
  -1   1 -12    4.10    1.00
  -1   1 -12    4.10    1.70
   1  -1  12    3.10    1.80
   1  -1  12    8.50    2.20
  -2   1 -12    6.30    1.50
  -2   1 -12    8.00    1.90
  -2   1 -12    4.30    0.90
   2  -1  12    2.70    1.60
   2  -1  12    7.80    2.70
  -3   1 -12    0.60    0.70
  -3   1 -12    1.10    1.40
  -3   1 -12    0.70    1.20
   3  -1  12    0.00    1.40
   3  -1  12    2.00    1.90
  -4   1 -12    7.00    2.10
  -4   1 -12    1.80    1.50
   4  -1  12    4.80    2.20
   4  -1  12    1.80    1.50
   3   0 -12   -0.60    1.20
  -3   0  12    2.30    2.10
  -3   0  12    0.80    1.40
   2   0 -12   26.10    3.50
   2   0 -12   23.10    2.30
  -2   0  12   18.60    2.40
  -2   0  12   22.60    3.40
   1   0 -12    3.70    1.80
   1   0 -12    3.30    1.10
  -1   0  12    4.50    2.00
  -1   0  12    2.20    1.30
   0   0 -12    0.20    1.10
   0   0 -12    1.30    0.80
   0   0  12   -2.70    1.40
   0   0  12   -0.90    1.40
   0   0  12    0.80    1.00
  -1   0 -12    3.00    1.60
  -1   0 -12    1.80    0.70
  -1   0 -12    0.30    1.00
   1   0  12    3.00    1.60
   1   0  12   -0.70    1.70
   1   0  12    0.60    1.00
  -2   0 -12    9.50    1.70
  -2   0 -12    5.10    1.80
   2   0  12    9.90    2.10
   2   0  12    8.30    2.60
  -3   0 -12    2.90    1.40
  -3   0 -12    6.00    2.00
   3   0  12    5.90    1.70
   3   0  12    4.20    2.20
  -4   0 -12    2.70    1.50
  -4   0 -12    2.20    1.70
   4   0  12    1.60    2.00
   4   0  12    1.10    1.20
   3  -1 -12   18.50    3.00
   3  -1 -12   15.80    2.20
  -3   1  12   19.40    2.80
  -3   1  12   17.80    3.10
   2  -1 -12    1.60    1.20
   2  -1 -12    0.50    1.10
  -2   1  12    0.20    1.20
  -2   1  12    1.50    1.50
   1  -1 -12   -1.00    0.70
   1  -1 -12    1.30    1.20
  -1   1  12    0.90    1.30
  -1   1  12   -2.20    0.80
   0  -1 -12    1.50    0.60
   0  -1 -12   -1.20    1.10
   0   1  12   -0.30    0.90
   0   1  12    1.00    1.60
  -1  -1 -12   21.10    2.00
  -1  -1 -12   26.90    2.90
  -1  -1 -12   22.10    1.00
   1   1  12   21.40    2.90
   1   1  12   22.40    3.50
   1   1  12   21.70    2.20
  -2  -1 -12    3.00    1.40
  -2  -1 -12    2.30    1.30
   2   1  12    2.90    1.90
   2   1  12    2.70    1.20
   2   1  12    0.80    1.30
  -3  -1 -12    4.30    1.80
  -3  -1 -12    3.40    1.50
   3   1  12    1.60    1.60
   3   1  12    2.00    1.30
   3   1  12    4.90    1.30
  -4  -1 -12    4.40    1.80
  -4  -1 -12    0.40    1.40
   4   1  12    0.00    1.10
   4   1  12    0.90    1.20
  -5  -1 -12   24.70    3.10
   3  -2 -12    0.80    1.50
   3  -2 -12    3.50    1.40
  -3   2  12    2.40    2.10
  -3   2  12    2.70    1.80
   2  -2 -12    3.70    1.60
   2  -2 -12    6.00    1.40
  -2   2  12    3.10    1.60
  -2   2  12    3.00    2.00
   1  -2 -12    4.20    1.00
   1  -2 -12    3.70    1.80
  -1   2  12    2.50    1.30
  -1   2  12    4.00    2.00
   0  -2 -12    1.60    1.20
   0  -2 -12    1.40    0.50
   0  -2 -12    0.60    1.10
   0   2  12    2.00    1.10
   0   2  12    1.90    1.60
  -1  -2 -12   15.10    2.10
  -1  -2 -12   12.10    2.60
   1   2  12   11.60    2.30
   1   2  12   10.90    1.90
  -2  -2 -12    0.00    1.40
  -2  -2 -12   -0.30    1.10
   2   2  12    1.20    1.40
   2   2  12    0.30    1.50
   2   2  12   -0.10    0.80
  -3  -2 -12    9.80    2.40
  -3  -2 -12   16.10    2.40
   3   2  12   12.90    2.10
   3   2  12   15.30    2.90
   3   2  12   12.40    2.20
  -4  -2 -12    0.30    1.60
  -4  -2 -12   -0.80    0.90
   4   2  12    1.20    1.50
   4   2  12    0.10    1.00
   4   2  12   -0.90    1.00
   4   2  12   -0.40    1.30
  -5  -2 -12   -0.20    1.50
  -5  -2 -12    0.50    1.30
   5   2  12    1.50    1.50
   5   2  12    2.00    1.60
   3  -3 -12   -0.50    1.40
   3  -3 -12    1.40    1.30
  -3   3  12    0.70    1.60
  -3   3  12    3.00    2.30
   2  -3 -12    1.70    1.10
   2  -3 -12    0.50    1.40
  -2   3  12   -0.70    0.80
  -2   3  12    0.40    1.70
   1  -3 -12    0.20    0.80
   1  -3 -12    1.30    1.30
  -1   3  12    0.00    1.60
  -1   3  12    0.80    1.20
   0  -3 -12    2.00    1.20
   0   3  12    5.60    2.00
   0   3  12    3.30    1.40
  -1  -3 -12    0.50    1.40
  -1  -3 -12   -0.10    1.10
   1   3  12    1.50    1.00
   1   3  12    1.10    1.50
  -2  -3 -12    3.10    1.50
  -2  -3 -12    4.10    1.60
   2   3  12    4.20    1.80
   2   3  12    7.00    1.70
   2   3  12    4.10    1.70
  -3  -3 -12    5.80    1.80
  -3  -3 -12    4.80    1.80
   3   3  12    4.10    1.70
   3   3  12    3.50    1.60
   3   3  12    4.10    1.70
   3   3  12    4.30    1.50
  -4  -3 -12    1.30    1.70
  -4  -3 -12    4.30    1.90
   4   3  12   -0.10    1.20
   4   3  12    2.20    1.10
   4   3  12    0.50    1.20
   4   3  12   -0.10    1.30
   3  -4 -12    3.90    1.90
  -3   4  12    1.80    1.80
   2  -4 -12    2.60    1.30
   2  -4 -12   -0.80    1.20
  -2   4  12    0.70    1.80
  -2   4  12   -0.20    1.50
   1  -4 -12    1.20    1.50
   1  -4 -12    0.40    0.80
  -1   4  12    0.30    1.30
  -1   4  12    0.50    1.70
   0  -4 -12    0.30    1.60
   0   4  12    0.50    1.30
   0   4  12    0.40    1.70
  -1  -4 -12    0.40    1.50
  -1  -4 -12    2.50    1.50
   1   4  12    1.20    1.20
   1   4  12    1.20    1.40
   1   4  12    1.10    1.00
  -2  -4 -12    7.40    1.90
  -2  -4 -12    2.70    1.50
   2   4  12    4.40    1.50
   2   4  12    4.80    1.80
   2   4  12    4.40    1.60
  -3  -4 -12   -1.00    1.50
  -3  -4 -12   -2.80    1.00
   3   4  12    1.90    1.40
   3   4  12    1.00    1.10
   3   4  12    0.60    1.20
   3   4  12    0.50    1.00
  -4  -4 -12    0.80    1.70
  -4  -4 -12    0.40    1.70
   4   4  12    0.60    0.90
   4   4  12    1.40    1.20
   4   4  12    1.20    1.60
   4   4  12    0.20    1.20
   2  -5 -12    2.80    1.30
   2  -5 -12    2.70    1.80
  -2   5  12    2.50    2.00
  -2   5  12    2.10    1.80
   1  -5 -12    0.60    0.90
   1  -5 -12    3.70    1.80
  -1   5  12   -0.80    1.50
  -1   5  12    2.50    1.90
   0  -5 -12    2.80    1.70
   0   5  12    3.40    1.60
   0   5  12    2.60    1.60
  -1  -5 -12    0.70    1.60
   1   5  12    1.50    1.30
   1   5  12    2.60    1.70
  -2  -5 -12    3.00    1.80
  -2  -5 -12    1.60    1.40
   2   5  12    0.20    1.30
   2   5  12    3.30    1.60
   2   5  12    3.10    1.50
  -3  -5 -12    0.60    1.60
  -3  -5 -12   -1.60    1.00
   3   5  12    0.00    1.20
   3   5  12    0.20    1.20
   3   5  12    1.40    1.40
   3   5  12    1.50    1.40
   0  -6 -12    3.80    1.80
   0   6  12    0.60    1.70
  -1  -6 -12    0.30    1.30
   1   6  12   -1.00    1.40
  -2  -6 -12    1.70    1.50
   0   1 -13    5.80    2.10
   0  -1  13    4.60    2.30
   0  -1  13    1.80    1.90
  -1   1 -13    1.00    1.70
   1  -1  13    0.10    1.70
   1  -1  13   -2.70    1.80
   1   0 -13    9.70    1.50
   1   0 -13    7.30    2.00
  -1   0  13    7.30    2.70
  -1   0  13    9.80    2.40
   0   0 -13   -0.80    1.40
   0   0 -13    0.80    0.80
   0   0  13    3.70    2.00
   0   0  13   -0.90    1.90
  -1   0 -13    5.90    2.20
   1   0  13    4.70    2.60
   1   0  13    9.00    2.30
  -2   0 -13    8.80    2.40
  -2   0 -13    4.00    1.70
   2   0  13    6.50    2.00
   2   0  13    2.30    1.80
   2  -1 -13   18.10    3.10
   1  -1 -13    1.40    1.60
   1  -1 -13    3.80    1.10
  -1   1  13    2.30    2.00
  -1   1  13   -0.20    1.30
   0  -1 -13    3.60    1.80
   0  -1 -13    6.60    0.90
   0   1  13    6.30    2.50
   0   1  13    4.00    1.50
   0   1  13    7.20    2.20
  -1  -1 -13    3.40    1.80
  -1  -1 -13    2.10    1.30
   1   1  13    1.20    1.80
   1   1  13    0.80    1.10
   1   1  13    1.10    1.30
  -2  -1 -13    1.30    1.30
  -2  -1 -13   -1.70    1.30
   2   1  13    0.00    1.30
   2   1  13    2.90    1.90
  -3  -1 -13    5.90    1.70
  -3  -1 -13    7.80    2.40
   3   1  13    8.50    2.70
   3   1  13    5.40    1.80
   2  -2 -13   -0.50    1.10
  -2   2  13   -0.60    1.30
  -2   2  13   -0.10    1.90
   1  -2 -13    0.00    1.40
   1  -2 -13    2.60    0.80
  -1   2  13    2.80    2.10
  -1   2  13    1.20    1.40
   0  -2 -13    6.10    2.10
   0   2  13   10.70    2.50
   0   2  13    8.00    1.80
  -1  -2 -13    1.20    1.10
  -1  -2 -13   -0.10    1.10
   1   2  13    0.80    1.50
   1   2  13    0.90    1.70
   1   2  13   -1.40    0.90
  -2  -2 -13    2.80    1.50
  -2  -2 -13    3.80    1.90
   2   2  13   -0.50    1.30
   2   2  13    3.00    1.30
   2   2  13    1.80    1.80
  -3  -2 -13    1.50    1.60
  -3  -2 -13    1.10    1.70
   3   2  13    3.10    1.70
   3   2  13    2.30    1.90
   3   2  13    2.00    1.20
   1  -3 -13   -1.60    1.10
   1  -3 -13    1.70    0.90
  -1   3  13   -2.00    1.70
  -1   3  13   -2.40    1.00
   0  -3 -13   13.30    2.70
   0   3  13   10.90    2.20
   0   3  13   17.20    2.90
  -1  -3 -13   -2.40    1.10
  -1  -3 -13   -1.70    1.20
   1   3  13   -1.10    1.20
   1   3  13   -0.10    1.40
  -2  -3 -13    1.30    1.30
  -2  -3 -13   -2.20    1.20
   2   3  13   -0.70    1.00
   2   3  13    0.50    1.40
   2   3  13   -0.90    1.10
  -3  -3 -13    5.50    2.10
  -3  -3 -13    0.50    1.50
   3   3  13    0.50    1.40
   3   3  13    2.80    1.90
   3   3  13    1.70    1.30
   3   3  13    2.00    1.30
   1  -4 -13    2.90    1.90
  -1   4  13    2.20    1.60
   0  -4 -13    1.70    1.70
   0   4  13    0.80    1.30
   0   4  13    2.20    1.60
  -1  -4 -13   -2.20    1.30
   1   4  13   -0.10    1.20
   1   4  13    1.20    1.60
  -2  -4 -13    2.20    1.80
  -2  -4 -13    1.10    1.60
   2   4  13    2.80    1.60
   2   4  13    2.70    1.50
   2   4  13    3.80    1.60
_computing_structure_solution     'SHELXT 2014/4 (Sheldrick, 2014)'
;
_shelx_hkl_checksum              23779
_shelx_res_file
;
TITL 53ecg
CELL  0.71073   7.6546   8.0959  11.3065   78.988   85.527   87.548
ZERR     2.00   0.0005   0.0005   0.0006    0.003    0.003    0.004
LATT   1
SFAC  C    H    N    O
UNIT  28   28   4    8
MERG   2
FMAP   2
PLAN   20
OMIT -2 180.0
SIZE     0.12   0.15   0.16
ACTA
BOND   $H
CONF
HTAB
L.S.  20
TEMP    23.00
OMIT 0 0 1
EXYZ C31A C31B
EADP C31A C31B
EADP O31A O31B
EADP O32A O32B
EADP C32A C32B
FLAT C3 C31A O31A O32A
FLAT C3 C31B O31B O32B
WGHT    0.052900    0.243900
EXTI    0.023730
FVAR       0.79111   0.71396
N1    3    0.393796    0.722754    0.381593    11.00000    0.04400    0.05607 =
         0.03310   -0.00411   -0.00500   -0.00928
N2    3    0.445804    0.777349    0.262969    11.00000    0.04584    0.06127 =
         0.03450   -0.00296   -0.00282   -0.01053
C3    1    0.316267    0.741287    0.202667    11.00000    0.03975    0.05106 =
         0.03691   -0.00665   -0.00468   -0.00315
C4    1    0.179071    0.662317    0.281269    11.00000    0.04069    0.05053 =
         0.03718   -0.00635   -0.00455   -0.00505
C5    1    0.236214    0.652498    0.394797    11.00000    0.04361    0.05672 =
         0.03733   -0.00356   -0.00088   -0.01104
AFIX  43
H5    2    0.176500    0.605690    0.467465    11.00000   -1.20000
AFIX   0
C11   1    0.503582    0.748243    0.472867    11.00000    0.04493    0.05053 =
         0.03896   -0.00729   -0.00838   -0.00441
C12   1    0.452896    0.697940    0.592694    11.00000    0.05392    0.09372 =
         0.04244   -0.00854   -0.00510   -0.01740
AFIX  43
H12   2    0.346839    0.644981    0.615741    11.00000   -1.20000
AFIX   0
C13   1    0.559628    0.726078    0.679039    11.00000    0.06733    0.09236 =
         0.04031   -0.01168   -0.01084   -0.00546
AFIX  43
H13   2    0.523991    0.691062    0.760193    11.00000   -1.20000
AFIX   0
C14   1    0.716817    0.804122    0.649065    11.00000    0.06441    0.05432 =
         0.05548   -0.01425   -0.02186    0.00135
C15   1    0.764695    0.850010    0.528921    11.00000    0.06711    0.09679 =
         0.06487   -0.00632   -0.01634   -0.03670
AFIX  43
H15   2    0.871733    0.901107    0.505858    11.00000   -1.20000
AFIX   0
C16   1    0.661157    0.823847    0.440297    11.00000    0.06606    0.09508 =
         0.04411   -0.00351   -0.00823   -0.03343
AFIX  43
H16   2    0.697922    0.857200    0.359180    11.00000   -1.20000
AFIX   0
C141  1    0.832762    0.835426    0.743598    11.00000    0.09235    0.07866 =
         0.07819   -0.02595   -0.04410    0.00089
AFIX 137
H14A  2    0.767735    0.819004    0.820837    11.00000   -1.50000
H14B  2    0.872587    0.948866    0.723262    11.00000   -1.50000
H14C  2    0.931923    0.758377    0.746995    11.00000   -1.50000
AFIX   0
PART 1
C31A  1    0.334152    0.790731    0.068742    21.00000    0.04088    0.07273 =
         0.03798   -0.00934   -0.00308   -0.00641
O31A  4    0.458722    0.755431    0.004800    21.00000    0.06962    0.15919 =
         0.04343   -0.01031    0.00307    0.03492
O32A  4    0.204421    0.893603    0.028820    21.00000    0.05447    0.06218 =
         0.03949    0.00600    0.00091   -0.00771
C32A  1    0.211327    0.957517   -0.099842    21.00000    0.07501    0.07392 =
         0.04064    0.01034   -0.00889   -0.01683
AFIX 137
H32A  2    0.219485    0.864992   -0.142117    21.00000   -1.50000
H32B  2    0.312068    1.026092   -0.123263    21.00000   -1.50000
H32C  2    0.107015    1.023913   -0.119593    21.00000   -1.50000
AFIX   0
PART 0
PART 2
SAME 0.005 0.01 C31A > C32A
C31B  1    0.334152    0.790731    0.068742   -21.00000    0.04088    0.07273 =
         0.03798   -0.00934   -0.00308   -0.00641
O31B  4    0.412873    0.697893    0.011254   -21.00000    0.06962    0.15919 =
         0.04343   -0.01031    0.00307    0.03492
O32B  4    0.233235    0.919859    0.025033   -21.00000    0.05447    0.06218 =
         0.03949    0.00600    0.00091   -0.00771
C32B  1    0.234291    0.965861   -0.104967   -21.00000    0.07501    0.07392 =
         0.04064    0.01034   -0.00889   -0.01683
AFIX 137
H32D  2    0.147626    0.903520   -0.133357   -21.00000   -1.50000
H32E  2    0.347937    0.940414   -0.140408   -21.00000   -1.50000
H32F  2    0.208011    1.084207   -0.127492   -21.00000   -1.50000
AFIX   0
PART 0
C41   1    0.014999    0.592917    0.258086    11.00000    0.04213    0.05570 =
         0.03874   -0.00771   -0.00253   -0.00474
O41   4   -0.085951    0.522089    0.335635    11.00000    0.05810    0.12115 =
         0.04491   -0.00312    0.00174   -0.03940
O42   4   -0.010862    0.615048    0.141226    11.00000    0.05188    0.07291 =
         0.04026   -0.00476   -0.00880   -0.01771
C42   1   -0.173818    0.555083    0.111150    11.00000    0.05504    0.09417 =
         0.05897   -0.01689   -0.01731   -0.01866
AFIX 137
H42A  2   -0.270140    0.603477    0.153794    11.00000   -1.50000
H42B  2   -0.174837    0.434638    0.133915    11.00000   -1.50000
H42C  2   -0.184731    0.587297    0.025762    11.00000   -1.50000
AFIX   0
HKLF 4
REM  53ecg
REM R1 =  0.0444 for    1777 Fo > 4sig(Fo)  and  0.0716 for all    2526 data
REM    196 parameters refined using      7 restraints
END
WGHT      0.0529      0.2441
REM Instructions for potential hydrogen bonds
EQIV $1 -x, -y+1, -z+1
HTAB C5 O41_$1
HTAB C12 O41_$1
EQIV $2 -x, -y+2, -z
HTAB C32A O32A_$2
REM Highest difference peak  0.237,  deepest hole -0.241,  1-sigma level  0.036
Q1    1   0.8506  0.7346  0.8024  11.00000  0.05    0.24
Q2    1   0.9687  0.8646  0.7021  11.00000  0.05    0.19
Q3    1   0.4662  0.8348  0.0329  11.00000  0.05    0.19
Q4    1   0.2428  0.6797  0.2345  11.00000  0.05    0.17
Q5    1   0.2288  0.7267  0.2340  11.00000  0.05    0.16
Q6    1   0.6489  0.9280  0.3580  11.00000  0.05    0.15
Q7    1   0.7624  0.7646  0.6015  11.00000  0.05    0.14
Q8    1   0.5041  0.6684  0.5372  11.00000  0.05    0.14
Q9    1   0.7753  0.9276  0.7964  11.00000  0.05    0.13
Q10   1   0.6806  0.7404  0.6597  11.00000  0.05    0.13
Q11   1   0.3584  0.7027  0.0174  11.00000  0.05    0.13
Q12   1   0.1079  0.6719  0.2584  11.00000  0.05    0.13
Q13   1  -0.2094  0.6953  0.0304  11.00000  0.05    0.13
Q14   1   0.1684  0.7237  0.3250  11.00000  0.05    0.13
Q15   1   0.8309  0.9848  0.4960  11.00000  0.05    0.13
Q16   1   0.2167  0.6063  0.3253  11.00000  0.05    0.12
Q17   1   0.4400  0.7993  0.5408  11.00000  0.05    0.12
Q18   1  -0.1234  0.5077  0.0279  11.00000  0.05    0.12
Q19   1   0.5648  0.8280  0.2251  11.00000  0.05    0.12
Q20   1  -0.2644  0.4852  0.1815  11.00000  0.05    0.12
;
_shelx_res_checksum              56688
_shelxl_version_number           2.014
loop_
_space_group_symop_operation_xyz
'x, y, z'
'-x, -y, -z'
loop_
_atom_site_type_symbol
_atom_site_label
_atom_site_fract_x
_atom_site_fract_y
_atom_site_fract_z
_atom_site_U_iso_or_equiv
_atom_site_adp_type
_atom_site_calc_flag
_atom_site_occupancy
_atom_site_disorder_assembly
_atom_site_disorder_group
N N1 0.3938(2) 0.7228(2) 0.38159(13) 0.0446(4) Uani d 1 . .
N N2 0.4458(2) 0.7773(2) 0.26297(14) 0.0477(4) Uani d 1 . .
C C3 0.3163(2) 0.7413(3) 0.20267(16) 0.0426(5) Uani d 1 . .
C C4 0.1791(2) 0.6623(2) 0.28127(16) 0.0428(5) Uani d 1 . .
C C5 0.2362(3) 0.6525(3) 0.39480(17) 0.0464(5) Uani d 1 . .
H H5 0.1765 0.6057 0.4675 0.056 Uiso calc 1 . .
C C11 0.5036(3) 0.7482(3) 0.47287(17) 0.0446(5) Uani d 1 . .
C C12 0.4529(3) 0.6979(3) 0.59269(19) 0.0634(7) Uani d 1 . .
H H12 0.3468 0.6450 0.6157 0.076 Uiso calc 1 . .
C C13 0.5596(3) 0.7261(3) 0.6790(2) 0.0663(7) Uani d 1 . .
H H13 0.5240 0.6911 0.7602 0.080 Uiso calc 1 . .
C C14 0.7168(3) 0.8041(3) 0.6491(2) 0.0567(6) Uani d 1 . .
C C15 0.7647(3) 0.8500(4) 0.5289(2) 0.0758(8) Uani d 1 . .
H H15 0.8717 0.9011 0.5059 0.091 Uiso calc 1 . .
C C16 0.6612(3) 0.8238(3) 0.4403(2) 0.0686(7) Uani d 1 . .
H H16 0.6979 0.8572 0.3592 0.082 Uiso calc 1 . .
C C141 0.8328(4) 0.8354(3) 0.7436(2) 0.0797(8) Uani d 1 . .
H H14A 0.7677 0.8190 0.8208 0.119 Uiso calc 1 . .
H H14B 0.8726 0.9489 0.7233 0.119 Uiso calc 1 . .
H H14C 0.9319 0.7584 0.7470 0.119 Uiso calc 1 . .
C C31A 0.3342(3) 0.7907(3) 0.06874(18) 0.0505(5) Uani d 0.71(2) A 1
O O31A 0.4587(11) 0.7554(17) 0.0048(5) 0.093(3) Uani d 0.71(2) A 1
O O32A 0.2044(10) 0.8936(9) 0.0288(6) 0.0542(14) Uani d 0.71(2) A 1
C C32A 0.2113(19) 0.9575(17) -0.0998(7) 0.0653(16) Uani d 0.71(2) A 1
H H32A 0.2195 0.8650 -0.1421 0.098 Uiso calc 0.71(2) A 1
H H32B 0.3121 1.0261 -0.1233 0.098 Uiso calc 0.71(2) A 1
H H32C 0.1070 1.0239 -0.1196 0.098 Uiso calc 0.71(2) A 1
C C31B 0.3342(3) 0.7907(3) 0.06874(18) 0.0505(5) Uani d 0.29(2) A 2
O O31B 0.413(2) 0.6979(19) 0.0113(14) 0.093(3) Uani d 0.29(2) A 2
O O32B 0.233(2) 0.9199(19) 0.0250(15) 0.0542(14) Uani d 0.29(2) A 2
C C32B 0.234(5) 0.966(4) -0.1050(17) 0.0653(16) Uani d 0.29(2) A 2
H H32D 0.1476 0.9035 -0.1334 0.098 Uiso calc 0.29(2) A 2
H H32E 0.3479 0.9404 -0.1404 0.098 Uiso calc 0.29(2) A 2
H H32F 0.2080 1.0842 -0.1275 0.098 Uiso calc 0.29(2) A 2
C C41 0.0150(3) 0.5929(3) 0.25809(17) 0.0456(5) Uani d 1 . .
O O41 -0.0860(2) 0.5221(2) 0.33564(14) 0.0756(6) Uani d 1 . .
O O42 -0.01086(18) 0.61505(19) 0.14123(12) 0.0550(4) Uani d 1 . .
C C42 -0.1738(3) 0.5551(3) 0.1112(2) 0.0679(7) Uani d 1 . .
H H42A -0.2701 0.6035 0.1538 0.102 Uiso calc 1 . .
H H42B -0.1748 0.4346 0.1339 0.102 Uiso calc 1 . .
H H42C -0.1847 0.5873 0.0258 0.102 Uiso calc 1 . .
loop_
_atom_site_aniso_label
_atom_site_aniso_U_11
_atom_site_aniso_U_22
_atom_site_aniso_U_33
_atom_site_aniso_U_12
_atom_site_aniso_U_13
_atom_site_aniso_U_23
N1 0.0440(9) 0.0561(11) 0.0331(8) -0.0093(8) -0.0050(7) -0.0041(7)
N2 0.0458(10) 0.0613(11) 0.0345(9) -0.0105(8) -0.0028(7) -0.0030(8)
C3 0.0397(11) 0.0511(12) 0.0369(10) -0.0032(9) -0.0047(8) -0.0067(9)
C4 0.0407(10) 0.0505(12) 0.0372(10) -0.0050(9) -0.0045(8) -0.0063(9)
C5 0.0436(11) 0.0567(13) 0.0373(10) -0.0110(10) -0.0009(8) -0.0036(9)
C11 0.0449(11) 0.0505(12) 0.0390(11) -0.0044(9) -0.0084(8) -0.0073(9)
C12 0.0539(13) 0.0937(19) 0.0424(12) -0.0174(12) -0.0051(10) -0.0085(12)
C13 0.0673(16) 0.0924(19) 0.0403(12) -0.0055(14) -0.0108(11) -0.0117(12)
C14 0.0644(15) 0.0543(13) 0.0555(14) 0.0014(11) -0.0219(11) -0.0142(10)
C15 0.0671(16) 0.097(2) 0.0649(16) -0.0367(14) -0.0163(12) -0.0063(14)
C16 0.0661(15) 0.0951(19) 0.0441(12) -0.0334(14) -0.0082(11) -0.0035(12)
C141 0.092(2) 0.0787(19) 0.0782(18) 0.0009(15) -0.0441(15) -0.0260(14)
C31A 0.0409(11) 0.0727(15) 0.0380(11) -0.0064(11) -0.0031(9) -0.0093(10)
O31A 0.070(3) 0.159(6) 0.0434(12) 0.035(4) 0.0031(17) -0.010(2)
O32A 0.054(2) 0.062(2) 0.0395(9) -0.008(2) 0.0009(13) 0.0060(12)
C32A 0.075(4) 0.0739(19) 0.0406(14) -0.017(3) -0.0089(17) 0.0103(13)
C31B 0.0409(11) 0.0727(15) 0.0380(11) -0.0064(11) -0.0031(9) -0.0093(10)
O31B 0.070(3) 0.159(6) 0.0434(12) 0.035(4) 0.0031(17) -0.010(2)
O32B 0.054(2) 0.062(2) 0.0395(9) -0.008(2) 0.0009(13) 0.0060(12)
C32B 0.075(4) 0.0739(19) 0.0406(14) -0.017(3) -0.0089(17) 0.0103(13)
C41 0.0421(11) 0.0557(13) 0.0387(11) -0.0047(10) -0.0025(9) -0.0077(9)
O41 0.0581(10) 0.1211(15) 0.0449(9) -0.0394(10) 0.0017(7) -0.0031(9)
O42 0.0519(9) 0.0729(10) 0.0403(8) -0.0177(7) -0.0088(6) -0.0048(7)
C42 0.0550(14) 0.0942(19) 0.0590(14) -0.0187(13) -0.0173(11) -0.0169(13)
loop_
_atom_type_symbol
_atom_type_description
_atom_type_scat_dispersion_real
_atom_type_scat_dispersion_imag
_atom_type_scat_source
C C 0.0033 0.0016 'International Tables Vol C Tables 4.2.6.8 and 6.1.1.4'
H H 0.0000 0.0000 'International Tables Vol C Tables 4.2.6.8 and 6.1.1.4'
N N 0.0061 0.0033 'International Tables Vol C Tables 4.2.6.8 and 6.1.1.4'
O O 0.0106 0.0060 'International Tables Vol C Tables 4.2.6.8 and 6.1.1.4'
loop_
_geom_angle_atom_site_label_1
_geom_angle_atom_site_label_2
_geom_angle_atom_site_label_3
_geom_angle
C5 N1 N2 111.67(15)
C5 N1 C11 128.79(16)
N2 N1 C11 119.52(15)
C3 N2 N1 105.05(15)
N2 C3 C4 111.50(16)
N2 C3 C31A 117.41(17)
C4 C3 C31A 131.07(17)
C5 C4 C3 104.27(16)
C5 C4 C41 123.78(17)
C3 C4 C41 131.86(17)
N1 C5 C4 107.50(17)
N1 C5 H5 126.2
C4 C5 H5 126.2
C12 C11 C16 119.48(19)
C12 C11 N1 120.75(18)
C16 C11 N1 119.77(18)
C11 C12 C13 119.7(2)
C11 C12 H12 120.1
C13 C12 H12 120.1
C14 C13 C12 122.1(2)
C14 C13 H13 119.0
C12 C13 H13 119.0
C15 C14 C13 116.7(2)
C15 C14 C141 121.4(2)
C13 C14 C141 121.9(2)
C14 C15 C16 122.7(2)
C14 C15 H15 118.6
C16 C15 H15 118.6
C11 C16 C15 119.3(2)
C11 C16 H16 120.4
C15 C16 H16 120.4
C14 C141 H14A 109.5
C14 C141 H14B 109.5
H14A C141 H14B 109.5
C14 C141 H14C 109.5
H14A C141 H14C 109.5
H14B C141 H14C 109.5
O31A C31A O32A 123.5(3)
O31A C31A C3 125.0(3)
O32A C31A C3 111.1(3)
C31A O32A C32A 116.5(3)
O32A C32A H32A 109.5
O32A C32A H32B 109.5
H32A C32A H32B 109.5
O32A C32A H32C 109.5
H32A C32A H32C 109.5
H32B C32A H32C 109.5
O32B C32B H32D 109.5
O32B C32B H32E 109.5
H32D C32B H32E 109.5
O32B C32B H32F 109.5
H32D C32B H32F 109.5
H32E C32B H32F 109.5
O41 C41 O42 123.08(18)
O41 C41 C4 123.97(18)
O42 C41 C4 112.95(17)
C41 O42 C42 116.23(16)
O42 C42 H42A 109.5
O42 C42 H42B 109.5
H42A C42 H42B 109.5
O42 C42 H42C 109.5
H42A C42 H42C 109.5
H42B C42 H42C 109.5
loop_
_geom_bond_atom_site_label_1
_geom_bond_atom_site_label_2
_geom_bond_distance
N1 C5 1.341(2)
N1 N2 1.363(2)
N1 C11 1.430(2)
N2 C3 1.319(2)
C3 C4 1.413(3)
C3 C31A 1.487(3)
C4 C5 1.375(3)
C4 C41 1.459(3)
C5 H5 0.9300
C11 C12 1.368(3)
C11 C16 1.369(3)
C12 C13 1.378(3)
C12 H12 0.9300
C13 C14 1.372(3)
C13 H13 0.9300
C14 C15 1.363(3)
C14 C141 1.505(3)
C15 C16 1.377(3)
C15 H15 0.9300
C16 H16 0.9300
C141 H14A 0.9600
C141 H14B 0.9600
C141 H14C 0.9600
C31A O31A 1.209(4)
C31A O32A 1.319(3)
O32A C32A 1.446(3)
C32A H32A 0.9600
C32A H32B 0.9600
C32A H32C 0.9600
O32B C32B 1.445(5)
C32B H32D 0.9600
C32B H32E 0.9600
C32B H32F 0.9600
C41 O41 1.198(2)
C41 O42 1.328(2)
O42 C42 1.445(2)
C42 H42A 0.9600
C42 H42B 0.9600
C42 H42C 0.9600
loop_
_geom_hbond_atom_site_label_D
_geom_hbond_atom_site_label_H
_geom_hbond_atom_site_label_A
_geom_hbond_site_symmetry_A
_geom_hbond_distance_DH
_geom_hbond_distance_HA
_geom_hbond_distance_DA
_geom_hbond_angle_DHA
_geom_hbond_publ_flag
C5 H5 O41 2_566 0.93 2.33 3.249(3) 168 no
C12 H12 O41 2_566 0.93 2.43 3.352(3) 173 no
loop_
_geom_torsion_atom_site_label_1
_geom_torsion_atom_site_label_2
_geom_torsion_atom_site_label_3
_geom_torsion_atom_site_label_4
_geom_torsion
C5 N1 N2 C3 0.7(2)
C11 N1 N2 C3 -177.91(17)
N1 N2 C3 C4 -0.2(2)
N1 N2 C3 C31A 178.57(18)
N2 C3 C4 C5 -0.3(2)
C31A C3 C4 C5 -178.9(2)
N2 C3 C4 C41 -176.7(2)
C31A C3 C4 C41 4.7(4)
N2 N1 C5 C4 -0.9(2)
C11 N1 C5 C4 177.57(18)
C3 C4 C5 N1 0.7(2)
C41 C4 C5 N1 177.50(18)
C5 N1 C11 C12 0.3(3)
N2 N1 C11 C12 178.6(2)
C5 N1 C11 C16 -179.7(2)
N2 N1 C11 C16 -1.4(3)
C16 C11 C12 C13 0.9(4)
N1 C11 C12 C13 -179.0(2)
C11 C12 C13 C14 0.2(4)
C12 C13 C14 C15 -1.3(4)
C12 C13 C14 C141 179.7(2)
C13 C14 C15 C16 1.3(4)
C141 C14 C15 C16 -179.7(3)
C12 C11 C16 C15 -0.9(4)
N1 C11 C16 C15 179.1(2)
C14 C15 C16 C11 -0.2(4)
N2 C3 C31A O31A 52.4(9)
C4 C3 C31A O31A -129.1(9)
N2 C3 C31A O32A -121.0(5)
C4 C3 C31A O32A 57.5(6)
O31A C31A O32A C32A 3.6(10)
C3 C31A O32A C32A 177.1(8)
C5 C4 C41 O41 0.6(3)
C3 C4 C41 O41 176.5(2)
C5 C4 C41 O42 -178.86(19)
C3 C4 C41 O42 -3.0(3)
O41 C41 O42 C42 2.7(3)
C4 C41 O42 C42 -177.82(18)

_cod_database_fobs_code 2242738
