#------------------------------------------------------------------------------
#$Date: 2018-01-26 10:35:45 +0200 (Fri, 26 Jan 2018) $
#$Revision: 205717 $
#$URL: file:///home/coder/svn-repositories/cod/cif/2/24/23/2242335.cif $
#------------------------------------------------------------------------------
#
# This file is available in the Crystallography Open Database (COD),
# http://www.crystallography.net/. The original data for this entry
# were provided by IUCr Journals, http://journals.iucr.org/.
#
# The file may be used within the scientific community so long as
# proper attribution is given to the journal article from which the
# data were obtained.
#
data_2242335
loop_
_publ_author_name
'de Chazin, Eliza'
'de Sanches, Paola'
'Vasconcelos, Thatyana R. A.'
'Gomes, Claudia R. B.'
'Wardell, James L.'
'Harrison, William T. A.'
_publ_section_title
;
 Crystal structures and Hirshfeld surfaces of two 1,3-benzoxathiol-2-one
 derivatives
;
_journal_coeditor_code           NK2242
_journal_issue                   1
_journal_name_full               'Acta Crystallographica Section E'
_journal_page_first              78
_journal_page_last               82
_journal_paper_doi               10.1107/S2056989017018072
_journal_volume                  74
_journal_year                    2018
_chemical_formula_iupac          'C9 H6 O4 S'
_chemical_formula_moiety         'C9 H6 O4 S'
_chemical_formula_sum            'C9 H6 O4 S'
_chemical_formula_weight         210.20
_chemical_name_systematic
;
2-Oxo-1,3-benzoxathiol-6-yl acetate
;
_space_group_crystal_system      monoclinic
_space_group_IT_number           14
_space_group_name_Hall           '-P 2ybc'
_space_group_name_H-M_alt        'P 1 21/c 1'
_symmetry_space_group_name_Hall  '-P 2ybc'
_symmetry_space_group_name_H-M   'P 1 21/c 1'
_atom_sites_solution_hydrogens   geom
_atom_sites_solution_primary     direct
_audit_creation_method           SHELXL-2014/7
_cell_angle_alpha                90
_cell_angle_beta                 96.045(2)
_cell_angle_gamma                90
_cell_formula_units_Z            4
_cell_length_a                   5.6232(5)
_cell_length_b                   14.5650(14)
_cell_length_c                   10.8572(11)
_cell_measurement_reflns_used    3355
_cell_measurement_temperature    100(2)
_cell_measurement_theta_max      27.5
_cell_measurement_theta_min      2.3
_cell_volume                     884.28(15)
_computing_cell_refinement
;
CrystalClear (Rigaku, 2014)
;
_computing_data_collection
;
CrystalClear (Rigaku, 2014)
;
_computing_data_reduction
;
CrystalClear (Rigaku, 2014)
;
_computing_molecular_graphics
;
ORTEP-3 for Windows (Farrugia, 2012)
;
_computing_publication_material
;
publCIF (Westrip, 2010)
;
_computing_structure_refinement
;
SHELXL2014 (Sheldrick, 2015)
;
_computing_structure_solution
;
SHELXS97 (Sheldrick, 2008)
;
_diffrn_ambient_temperature      100(2)
_diffrn_measured_fraction_theta_full 0.996
_diffrn_measured_fraction_theta_max 0.996
_diffrn_measurement_device_type  'Rigaku Saturn CCD'
_diffrn_measurement_method       \w
_diffrn_radiation_type           MoK\a
_diffrn_radiation_wavelength     0.71073
_diffrn_reflns_av_R_equivalents  0.0359
_diffrn_reflns_limit_h_max       7
_diffrn_reflns_limit_h_min       -7
_diffrn_reflns_limit_k_max       18
_diffrn_reflns_limit_k_min       -18
_diffrn_reflns_limit_l_max       14
_diffrn_reflns_limit_l_min       -14
_diffrn_reflns_number            11487
_diffrn_reflns_theta_full        25.242
_diffrn_reflns_theta_max         27.497
_diffrn_reflns_theta_min         2.348
_exptl_absorpt_coefficient_mu    0.348
_exptl_absorpt_correction_T_max  1.000
_exptl_absorpt_correction_T_min  0.829
_exptl_absorpt_correction_type   multi-scan
_exptl_absorpt_process_details
;
(<i>FS_ABSCOR</i>; Rigaku, 2013)
;
_exptl_crystal_colour            colourless
_exptl_crystal_density_diffrn    1.579
_exptl_crystal_description       block
_exptl_crystal_F_000             432
_exptl_crystal_size_max          0.26
_exptl_crystal_size_mid          0.11
_exptl_crystal_size_min          0.08
_refine_diff_density_max         0.332
_refine_diff_density_min         -0.214
_refine_ls_extinction_method     none
_refine_ls_goodness_of_fit_ref   1.096
_refine_ls_hydrogen_treatment    constr
_refine_ls_matrix_type           full
_refine_ls_number_parameters     128
_refine_ls_number_reflns         2028
_refine_ls_number_restraints     0
_refine_ls_restrained_S_all      1.096
_refine_ls_R_factor_all          0.0296
_refine_ls_R_factor_gt           0.0282
_refine_ls_shift/su_max          0.001
_refine_ls_shift/su_mean         0.000
_refine_ls_structure_factor_coef Fsqd
_refine_ls_weighting_details
'w=1/[\s^2^(Fo^2^)+(0.0423P)^2^+0.3280P] where P=(Fo^2^+2Fc^2^)/3'
_refine_ls_weighting_scheme      calc
_refine_ls_wR_factor_gt          0.0799
_refine_ls_wR_factor_ref         0.0809
_reflns_number_gt                1903
_reflns_number_total             2028
_reflns_threshold_expression     'I > 2\s(I)'
_cod_data_source_file            nk2242sup1.cif
_cod_data_source_block           II
_cod_database_code               2242335
_shelx_space_group_comment
;
The symmetry employed for this shelxl refinement is uniquely defined
by the following loop, which should always be used as a source of
symmetry information in preference to the above space-group names.
They are only intended as comments.
;
_shelx_estimated_absorpt_t_min   0.915
_shelx_estimated_absorpt_t_max   0.973
_shelx_hkl_file
;
   0   0  -3   24.21   73.53   1-0.08650 0.01641-0.11402-0.27971-0.98970-0.95994
   0   0   3  -10.39   61.67   1-0.09888-0.20192-0.34631-0.18064-0.93289-0.96259
   0   0  -3   12.88   66.24   1-0.25827-0.15512-0.21015-0.37581-0.94293-0.91361
   0   0   3   38.85   55.59   1-0.09279-0.19592-0.34077-0.17512-0.93555-0.96485
   0   0   3    3.72   47.78   1-0.11469-0.21758-0.35313-0.18735-0.92851-0.95789
   0   0  -472397.09 1140.13   1-0.08391 0.05331-0.07397-0.29489-0.99372-0.95403
   0   0   472068.06 1209.34   1-0.10042-0.23780-0.38377-0.16287-0.91795-0.95755
   0   0  -466698.06 1110.89   1-0.28509-0.14757-0.18716-0.40804-0.94004-0.90095
   0   0   477427.96 1182.44   1-0.06443-0.20194-0.36134-0.14047-0.93020-0.96927
   0   0   474174.92 1030.60   1-0.10456-0.24175-0.38401-0.16298-0.91738-0.95655
   0   0  -5   42.02   74.28   1-0.08116 0.09036-0.03354-0.30969-0.99613-0.94653
   0   0   5  -19.63   74.18   1-0.10180-0.27353-0.42084-0.14472-0.90140-0.95091
   0   0  -5  -19.99   63.84   1-0.31169-0.13978-0.16382-0.43992-0.93595-0.88708
   0   0   5    8.06   49.02   1-0.03585-0.20773-0.38156-0.10547-0.92364-0.97248
   0   0   5   38.73   50.59   1-0.09427-0.26574-0.41458-0.13830-0.90511-0.95406
   0   0  -654790.25  935.85   1-0.07826 0.12754 0.00730-0.32411-0.99690-0.93737
   0   0   650943.14  978.15   1-0.10303-0.30910-0.45752-0.12618-0.88320-0.94261
   0   0  -656207.36  986.86   1-0.33790-0.13157-0.14027-0.47160-0.93066-0.87194
   0   0   651222.83  891.20   1-0.08379-0.28957-0.44484-0.11330-0.89167-0.95042
   0   0  -654308.40  902.62   1 0.04986 0.25697 0.42441 0.09349 0.90409 0.96188
   0   0  -7    7.64   51.51   1 0.10404 0.34520 0.49212 0.10583 0.86428 0.93254
   0   0  -7   60.81   73.50   1-0.07519 0.16491 0.04853-0.33812-0.99598-0.92653
   0   0  -7  -20.49   67.13   1-0.36404-0.12333-0.11620-0.50275-0.92410-0.85558
   0   0  -7    0.68   64.10   1 0.05780 0.34082 0.50024 0.13978 0.86395 0.92967
   0   0  -874215.52 1160.99   1-0.07196 0.20244 0.09017-0.35171-0.99332-0.91395
   0   0  -882918.18 1256.70   1-0.38994-0.11484-0.09175-0.53352-0.91625-0.83795
   0   0  -9   25.23   87.95   1-0.06854 0.24014 0.13230-0.36489-0.98883-0.89954
   0   0  -9  -58.70   88.33   1-0.41559-0.10611-0.06691-0.56391-0.90708-0.81899
   0   0 -10109852.8 1429.41   1-0.06495 0.27803 0.17484-0.37760-0.98245-0.88323
   0   0 -10105571.6 1337.61   1-0.44098-0.09696-0.04169-0.59397-0.89654-0.79862
   0   0 -11   -5.70   79.76   1-0.06116 0.31612 0.21786-0.38983-0.97406-0.86492
   0   0 -11   87.09  103.04   1-0.46612-0.08770-0.01603-0.62353-0.88457-0.77685
   0   0 -1226420.25  730.47   1-0.05715 0.35442 0.26156-0.40145-0.96349-0.84451
   0   0 -1226876.77  648.13   1-0.49097-0.07816 0.01006-0.65266-0.87111-0.75360
   0   0 -13   22.11  121.29   1-0.05294 0.39294 0.30564-0.41263-0.95067-0.82178
   0   0 -1429528.22  776.18   1-0.04849 0.43170 0.35034-0.42321-0.93536-0.79656
   0   1  -163773.67 1237.13   1-0.08507-0.09229-0.09173-0.17247-0.99214-0.98067
   0  -1   166975.32 1195.83   1-0.09004-0.08288-0.17241-0.09165-0.98089-0.99233
   0   1  -164391.93 2109.98   1-0.43767-0.44475-0.04502-0.12583-0.89800-0.88676
   0  -1   163961.21 2319.24   1-0.05092-0.04370-0.17676-0.09598-0.98293-0.99442
   0   1   163353.74 1376.34   1-0.06098-0.13679-0.50795-0.47820-0.85922-0.86753
   0   1  -2  983.88  140.54   1-0.08564-0.05855-0.10057-0.23655-0.99123-0.96985
   0  -1  -2  915.12  139.95   1-0.09235 0.01784-0.21318-0.29809-0.97263-0.95436
   0   1   2  977.41  140.28   1-0.10249-0.21269-0.44088-0.35597-0.89169-0.90996
   0   1  -2 1011.13  132.98   1-0.33887-0.31158-0.13938-0.27540-0.93044-0.90943
   0  -1   2  879.16  127.17   1-0.20018-0.22745-0.25814-0.12212-0.94513-0.96609
   0  -1  -2  840.80  124.99   1-0.15843-0.04819-0.29117-0.37603-0.94345-0.92535
   0   1   2  991.03  146.41   1-0.04653-0.15677-0.37406-0.28920-0.92623-0.94434
   0  -1  -2  935.63  179.92   1-0.36046-0.25011-0.15615-0.24085 0.91960 0.93778
   0  -1  -2  903.80  205.40   1-0.06956 0.04058-0.19016-0.27517-0.97928-0.96053
   0  -1   2  991.45  236.36   1-0.16248-0.18956-0.25584-0.11979-0.95296-0.97453
   0   1   2  979.05  123.65   1-0.09070-0.20080-0.42498-0.33996-0.90064-0.91874
   0   1  -3122468.7 1615.19   1-0.08442-0.02302-0.08167-0.27287-0.99307-0.96177
   0  -1  -3120018.2 1638.66   1-0.08824 0.05620-0.14206-0.28224-0.98591-0.95769
   0  -1   3121081.0 1599.58   1-0.09652-0.15805-0.29443-0.10322-0.95078-0.98202
   0   1   3123158.3 1678.01   1-0.10222-0.24677-0.43297-0.29284-0.89558-0.92376
   0   1  -3124752.4 1648.37   1-0.32927-0.26761-0.14808-0.33932-0.93254-0.90179
   0  -1  -3115574.9 1536.58   1-0.20608-0.06146-0.25337-0.39345-0.94516-0.91728
   0  -1   3127975.0 1631.27   1-0.14081-0.20245-0.30476-0.11354-0.94195-0.97268
   0   1   3130448.0 1640.60   1-0.04330-0.18792-0.37633-0.23626-0.92546-0.95334
   0  -1   3112009.1 1995.30   1-0.16578-0.22766-0.00300 0.18816 0.98615 0.95538
   0   1  -4137811.2 1706.56   1-0.08252 0.01318-0.05327-0.29971-0.99516-0.95393
   0  -1  -4139046.3 1722.08   1-0.08484 0.09391-0.08815-0.28355-0.99248-0.95434
   0  -1   4137469.8 1714.09   1-0.09859-0.19447-0.33979-0.09335-0.93531-0.97645
   0   1   4143588.6 1836.90   1-0.10280-0.28169-0.45031-0.25496-0.88692-0.92500
   0   1  -4138933.9 1732.31   1-0.33836-0.24229-0.13985-0.38631-0.93056-0.88997
   0  -1  -4139923.7 1608.52   1-0.24389-0.06488-0.22226-0.41756-0.94398-0.90632
   0  -1   4132168.5 1697.15   1-0.09769-0.19370-0.33717-0.09072-0.93635-0.97685
   0  -1   4136136.8 1588.57   1-0.11752-0.21319-0.34435-0.09782-0.93145-0.97210
   0   1   4137399.2 1649.53   1-0.08711-0.26580-0.43535-0.23983-0.89603-0.93371
   0   1  -571006.17 1118.00   1-0.08024 0.04972-0.02036-0.32206-0.99656-0.94541
   0  -1  -569961.30 1075.39   1-0.08160 0.13145-0.03985-0.29048-0.99586-0.94780
   0  -1   568695.53 1056.36   1-0.10035-0.23057-0.38201-0.08035-0.91869-0.96973
   0   1   570029.32 1077.06   1-0.10359-0.31683-0.47599-0.22541-0.87332-0.92130
   0   1  -575278.52 1120.19   1-0.35470-0.22425-0.12486-0.42655-0.92660-0.87622
   0  -1  -571958.93 1065.27   1-0.27740-0.06400-0.19382-0.44434-0.94099-0.89356
   0  -1   575474.57 1156.44   1-0.06046-0.19086-0.36418-0.06251-0.92936-0.97962
   0  -1   574063.47 1133.34   1-0.46666-0.59750-0.24374 0.05771 0.85018 0.79978
   0  -1   568860.28 1032.80   1-0.10527-0.23524-0.38188-0.08010-0.91819-0.96863
   0   1   569419.85  988.48   1-0.07987-0.29286-0.45597-0.20518-0.88640-0.93387
   0  -1  -572047.02 1042.75   1 0.05060 0.26459 0.43149 0.18133 0.90069 0.94715
   0  -1  -6206781.2 2051.71   1 0.10434 0.35250 0.50327 0.19775 0.85780 0.91467
   0   1  -6212983.5 2120.94   1-0.07768 0.08658 0.01515-0.34177-0.99686-0.93578
   0  -1  -6217286.7 2069.03   1-0.07834 0.16899 0.00615-0.29975-0.99690-0.93892
   0  -1   6219460.5 2320.34   1-0.10185-0.26642-0.42236-0.06547-0.90068-0.96162
   0   1  -6215647.5 2084.26   1-0.37431-0.20947-0.10658-0.46348-0.92115-0.86098
   0  -1  -6213365.3 1980.60   1-0.30852-0.06075-0.16663-0.47237-0.93650-0.87930
   0  -1   6227680.4 3228.41   1-0.79565-0.96038-0.60147-0.24470-0.07188-0.13338
   0  -1   6214324.4 2099.35   1-0.09347-0.25773-0.41690-0.05986-0.90412-0.96435
   0   1   6203648.7 1867.39   1-0.07139-0.31868-0.47962-0.17358-0.87456-0.93183
   0  -1  -6205992.2 1990.74   1 0.05415 0.30265 0.46533 0.16002 0.88347 0.93957
   0  -1  -725544.75  673.91   1 0.10509 0.38770 0.53445 0.17375 0.83863 0.90526
   0   1  -728034.14  720.60   1-0.07490 0.12367 0.05241-0.35975-0.99581-0.92481
   0  -1  -729088.44  750.99   1-0.07500 0.20663 0.05104-0.31009-0.99587-0.92797
   0   1  -729133.69  692.50   1-0.39563-0.19640-0.08630-0.49843-0.91434-0.84438
   0  -1  -728051.67  714.39   1-0.33802-0.05582-0.14016-0.50113-0.93064-0.86356
   0  -1  -725627.67  627.94   1 0.05780 0.34082 0.50024 0.13978 0.86395 0.92967
   0   1  -817974.36  560.18   1-0.07190 0.16097 0.09094-0.37646-0.99325-0.91233
   0  -1  -818504.47  541.77   1-0.07154 0.24440 0.09548-0.32089-0.99285-0.91503
   0   1  -817864.87  508.95   1-0.41790-0.18428-0.06465-0.53200-0.90618-0.82644
   0  -1  -817394.14  518.24   1-0.36661-0.05002-0.11380-0.52999-0.92338-0.84652
   0  -1  -815230.20  479.37   1 0.06149 0.37902 0.53563 0.12000 0.84221 0.91756
   0   1  -959432.54  974.78   1-0.06869 0.19846 0.13049-0.39221-0.98906-0.89820
   0  -1  -957488.00 1050.10   1-0.06792 0.28231 0.13987-0.33182-0.98783-0.90010
   0   1  -953793.54  924.43   1-0.44067-0.17254-0.04199-0.56463-0.89668-0.80710
   0  -1  -962238.82 1025.26   1-0.39441-0.04344-0.08746-0.55888-0.91475-0.82810
   0   1 -10 1894.77  203.53   1-0.06529 0.23616 0.17089-0.40705-0.98312-0.88234
   0  -1 -10 1870.21  168.01   1-0.06413 0.32038 0.18426-0.34267-0.98078-0.88313
   0   1 -10 1844.62  180.35   1-0.46377-0.16124-0.01845-0.59631-0.88576-0.78639
   0  -1 -10 2146.81  182.46   1-0.42158-0.03622-0.06102-0.58766-0.90473-0.80829
   0  -1 -11 8627.52  410.06   1-0.06017 0.35865 0.22887-0.35331-0.97159-0.86402
   0   1 -11 7246.38  335.03   1-0.06168 0.27407 0.21207-0.42112-0.97530-0.86460
   0   1 -11 8269.77  368.94   1-0.48699-0.15006 0.00583-0.62725-0.87338-0.76422
   0  -1 -11 7703.04  359.57   1-0.44820-0.02830-0.03438-0.61631-0.89326-0.78699
   0   1 -12  266.18  109.22   1-0.05785 0.31219 0.25414-0.43438-0.96543-0.84489
   0  -1 -12  198.07  120.86   1-0.05598 0.39713 0.27400-0.36351-0.96009-0.84269
   0   1 -12  128.00   84.40   1-0.51022-0.13888 0.03080-0.65750-0.85948-0.74053
   0  -1 -12  396.28  117.60   1-0.47435-0.02005-0.00747-0.64462-0.88030-0.76423
   0  -1 -13 3849.47  259.26   1-0.05159 0.43584 0.31939-0.37340-0.94621-0.81890
   0   1 -13 4420.85  277.49   1-0.05380 0.35054 0.29675-0.44702-0.95343-0.82297
   0   1 -13 4728.47  284.69   1-0.53333-0.12772 0.05638-0.68731-0.84402-0.71503
   0  -1 -13 4324.48  272.61   1-0.50004-0.01134 0.01977-0.67260-0.86577-0.73991
   0  -1 -14  555.65  119.11   1-0.04696 0.47477 0.36526-0.38280-0.92971-0.79249
   0   1 -14  746.14  153.05   1-0.04952 0.38913 0.34010-0.45895-0.93908-0.79870
   0  -2   0185488.1 2431.03   1-0.06747 0.01542 0.07132 0.12256 0.99516 0.99234
   0  -2   0191164.0 2768.26   1-0.00344 0.07961-0.14228-0.09123-0.98982-0.99264
   0   2  -168967.60 1089.29   1-0.08023-0.12899-0.02018-0.12644-0.99657-0.98355
   0  -2   169503.11 1261.27   1-0.08842-0.03968-0.14515-0.03888-0.98545-0.99845
   0   2  -170288.24 1554.68   1-0.73256-0.78117 0.32752 0.22115-0.59671-0.58383
   0  -2   169292.53 1526.80   1-0.56829-0.51971 0.09662 0.20301-0.81713-0.82986
   0  -2  -168929.91 1264.21   1-0.11664 0.00069 0.03438 0.03043 0.99257 0.99953
   0  -2   169095.82 1255.53   1-0.05717-0.00872 0.07900 0.18542 0.99523 0.98262
   0  -2  -174199.95 1554.26   1-0.00287 0.11448-0.14186-0.14608-0.98988-0.98262
   0  -2   170639.75 1768.71   1-0.03783 0.01091-0.16731-0.06100-0.98517-0.99807
   0  -2  -2 5999.42  413.09   1 0.10666 0.25847 0.69508 0.63590 0.71096 0.72720
   0   2  -2 5958.53  313.49   1-0.08236-0.09680-0.05091-0.21240-0.99530-0.97237
   0  -2   2 5810.13  334.89   1-0.09232-0.07798-0.21257-0.05104-0.97277-0.99564
   0  -2  -2 6013.17  443.75   1-0.09625 0.05545-0.28876-0.34813-0.95254-0.93580
   0   2  -2 5902.15  309.83   1-0.48519-0.49935 0.00392-0.15769-0.87440-0.85192
   0  -2   2 6288.56  357.91   1-0.28365-0.26944-0.18842-0.02682-0.94023-0.96264
   0  -2  -2 6133.96  295.39   1-0.11259 0.03913-0.32611-0.38539-0.93860-0.92192
   0  -2  -2 6040.98  321.82   1-0.21095-0.05917-0.03780-0.09690 0.97676 0.99353
   0  -2   2 5863.17  367.21   1-0.08011-0.06610 0.06187 0.22347 0.99486 0.97246
   0  -2  -2 5799.33  440.47   1-0.04309 0.10857-0.17111-0.23059-0.98430-0.96697
   0  -2   2 5799.99  440.71   1-0.10058-0.08613-0.21230-0.05073-0.97201-0.99499
   0  -2  -2 6490.21  401.57   1 0.06993 0.22175 0.61696 0.55787 0.78387 0.79974
   0  -2  -3  887.58  121.82   1 0.10577 0.29203 0.56929 0.45492 0.81529 0.84128
   0   2  -3  781.39  123.56   1-0.08207-0.06220-0.04664-0.26337-0.99553-0.96268
   0  -2  -3  903.46  135.13   1-0.08944 0.09660-0.16219-0.27678-0.98269-0.95606
   0   2  -3  886.91  131.08   1-0.42056-0.40037-0.06203-0.27885-0.90513-0.87289
   0  -2   3  897.77  118.86   1-0.18639-0.20654-0.26918-0.05238-0.94487-0.97703
   0  -2  -3  707.37  114.59   1-0.16970 0.01639-0.28237-0.39687-0.94417-0.91772
   0  -2  -3  858.67  127.39   1-0.35432-0.16808-0.15119-0.26542 0.92281 0.94936
   0  -2   3  869.28  147.82   1-0.13170-0.15214 0.02296 0.23975 0.99102 0.95883
   0  -2  -3  798.18  174.60   1-0.13417 0.05180-0.23603-0.35078-0.96243-0.93502
   0  -2   3  804.78  173.17   1-0.18699-0.20685-0.27284-0.05600-0.94371-0.97676
   0   2   3  840.32  107.53   1-0.06107-0.24699-0.50770-0.39294-0.85935-0.88577
   0  -2  -3 1633.04  164.30   1 0.05767 0.24402 0.49903 0.38479 0.86465 0.89016
   0  -2  -4167432.6 1899.86   1 0.10531 0.32602 0.54463 0.37507 0.83203 0.86777
   0   2  -4161668.5 1775.60   1-0.08078-0.02660-0.02804-0.29999-0.99633-0.95356
   0  -2  -4166516.7 1901.01   1-0.08512 0.13516-0.09239-0.26228-0.99207-0.95547
   0  -2   4161408.6 1888.63   1-0.09737-0.15174-0.31247-0.04049-0.94492-0.98759
   0  -2   4164489.0 1909.99   1-0.12718-0.18171-0.31514-0.04311-0.94048-0.98240
   0  -2   4158297.9 2125.19   1-0.20843-0.26335-0.03585 0.23609 0.97737 0.93536
   0   2   4159412.1 1816.61   1-0.06436-0.28456-0.49885-0.32883-0.86429-0.90049
   0  -2  -4164376.3 1828.61   1 0.05638 0.27724 0.48664 0.31725 0.87177 0.90691
   0   2  -5759483.7 3521.61   1-0.07894 0.00949-0.00211-0.32931-0.99687-0.94417
   0  -2  -5760090.6 5121.27   1-0.25126 0.00361-0.21607-0.44102-0.94349-0.89749
   0  -2   5786672.2 5078.68   1-0.08116-0.17006-0.34928-0.02203-0.93349-0.98518
   0   2   5760620.3 4645.21   1-0.06160-0.31610-0.50629-0.28101-0.86015-0.90614
   0  -2  -6119034.1 1541.26   1 0.10572 0.39533 0.56595 0.28602 0.81763 0.87286
   0  -2  -6124409.5 1612.87   1-0.07777 0.21109 0.01393-0.26646-0.99687-0.94044
   0   2  -6123604.4 1499.85   1-0.07672 0.04601 0.02821-0.35422-0.99665-0.93402
   0  -2   6123401.7 1627.65   1-0.10095-0.22401-0.39758-0.01515-0.91199-0.97446
   0   2  -6129445.6 1614.90   1-0.41790-0.29455-0.06465-0.44713-0.90618-0.84457
   0  -2  -6125843.9 1466.75   1-0.28543 0.00382-0.18687-0.46704-0.94000-0.88422
   0  -2   6118381.5 1550.82   1-0.04108-0.16436-0.37790 0.00455-0.92493-0.98638
   0  -2   6127744.4 1777.22   1-0.43258-0.55645-0.21527 0.16698 0.87551 0.81392
   0   2   6116698.6 1370.11   1-0.05595-0.34475-0.52138-0.24084-0.85148-0.90727
   0  -2  -6123873.8 1454.67   1 0.06018 0.35008 0.52309 0.24339 0.85014 0.90454
   0  -2  -776601.46 1258.90   1 0.10608 0.43014 0.58856 0.25345 0.80146 0.86645
   0  -2  -786861.40 1278.86   1-0.07418 0.24898 0.06177-0.27385-0.99532-0.92898
   0   2  -782439.74 1232.45   1-0.07421 0.08283 0.06141-0.37626-0.99535-0.92280
   0   2  -782111.44 1218.07   1-0.43289-0.27504-0.04980-0.48756-0.90006-0.82863
   0  -2  -783281.89 1241.20   1-0.31739 0.00624-0.15874-0.49413-0.93491-0.86936
   0  -2   785504.89 1252.21   1-0.58111-0.73935-0.34269 0.09474 0.73815 0.66662
   0  -2  -776501.24 1232.66   1 0.06308 0.38749 0.55093 0.21608 0.83215 0.89618
   0  -2  -813466.35  535.32   1 0.10640 0.46492 0.61441 0.22411 0.78177 0.85651
   0  -2  -815115.30  547.62   1-0.07049 0.28696 0.10848-0.28245-0.99159-0.91535
   0   2  -814963.47  490.32   1-0.07144 0.11990 0.09666-0.39625-0.99274-0.91027
   0   2  -812707.93  602.83   1-0.45053-0.25828-0.03202-0.52501-0.89218-0.81095
   0  -2  -816360.28  487.09   1-0.34772 0.01034-0.13129-0.52191-0.92835-0.85293
   0  -2  -814351.16  505.73   1 0.06623 0.42516 0.58126 0.19125 0.81101 0.88467
   0  -2  -9  343.83  113.50   1-0.06669 0.32507 0.15448-0.29170-0.98574-0.89957
   0   2  -9  530.48  122.47   1-0.06845 0.15717 0.13348-0.41473-0.98868-0.89626
   0   2  -9  361.83   87.80   1-0.46976-0.24311-0.01225-0.56047-0.88270-0.79168
   0  -2  -9  435.09  114.46   1-0.37704 0.01541-0.10400-0.54984-0.92033-0.83512
   0  -2 -10 4467.64  270.59   1-0.06273 0.36332 0.20027-0.30116-0.97772-0.88164
   0   2 -10 4448.96  288.67   1-0.06523 0.19468 0.17157-0.43188-0.98300-0.88066
   0   2 -10 4494.86  263.95   1-0.48998-0.22893 0.00901-0.59443-0.87168-0.77086
   0  -2 -10 5554.04  298.83   1-0.40548 0.02135-0.07678-0.57783-0.91086-0.81587
   0  -2 -1141335.33  970.81   1-0.05857 0.40178 0.24631-0.31044-0.96741-0.86150
   0   2 -1136761.50  892.50   1-0.06180 0.23242 0.21075-0.44794-0.97558-0.86331
   0   2 -1142378.84  903.30   1-0.51084-0.21538 0.03148-0.62718-0.85909-0.74849
   0  -2 -1140860.58  890.59   1-0.43321 0.02816-0.04948-0.60582-0.89993-0.79510
   0  -2 -12 8204.88  418.87   1-0.05423 0.44042 0.29234-0.31967-0.95477-0.83894
   0   2 -12 8698.88  393.95   1-0.05814 0.27037 0.25103-0.46299-0.96623-0.84411
   0   2 -12 8004.47  354.15   1-0.53202-0.20229 0.05491-0.65912-0.84494-0.72431
   0  -2 -12 6676.53  339.71   1-0.46031 0.03546-0.02201-0.63358-0.88748-0.77285
   0  -2 -1327907.72  923.86   1-0.04966 0.47931 0.33875-0.32854-0.93956-0.81383
   0   2 -1328023.40  951.22   1-0.05426 0.30854 0.29205-0.47722-0.95486-0.82283
   0   2 -1329669.67  851.74   1-0.55347-0.18934 0.07931-0.68995-0.82908-0.69864
   0  -2 -1330337.76  856.53   1-0.48686 0.04332 0.00569-0.66110-0.87345-0.74904
   0   3   0    5.12   65.39   1-0.06414-0.18875 0.18419 0.10767-0.98079-0.97610
   0  -3   0  -21.13   64.68   1-0.08327 0.04130-0.06437 0.01217-0.99444-0.99907
   0  -3   0  -29.86   79.38   1-0.08708 0.03725 0.05665 0.13350 0.99458 0.99034
   0  -3   0   31.17  134.13   1-0.02315 0.10143-0.15666-0.08009-0.98738-0.99161
   0   3  -1327428.7 3118.89   1-0.07588-0.16617 0.03944-0.09232-0.99633-0.98176
   0  -3   1320363.0 2931.33   1-0.08844 0.00173-0.14548-0.01364-0.98539-0.99990
   0  -3  -1304201.9 3098.48   1-0.11996 0.03881 0.03187 0.05354 0.99226 0.99781
   0  -3   1304314.4 2989.18   1-0.07941 0.01048 0.06239 0.19443 0.99488 0.98085
   0  -3   1308826.4 3633.56   1-0.04577 0.04450-0.17305-0.04122-0.98384-0.99815
   0  -3  -1326084.0 3817.61   1-0.02360 0.13528-0.15698-0.13568-0.98731-0.98147
   0  -3  -217402.01 1222.93   1 0.07325 0.26651 0.99725 0.96350 0.01064 0.02524
   0   3  -217541.26  597.68   1-0.07903-0.13502-0.00340-0.19041-0.99686-0.97237
   0  -3   218901.45  598.13   1-0.09180-0.03596-0.20324-0.01617-0.97481-0.99922
   0   3  -218241.16  574.56   1-0.65229-0.70799 0.20322 0.01604-0.73021-0.70603
   0  -3   218685.28  595.28   1-0.36920-0.31352-0.11137 0.07580-0.92264-0.94654
   0  -3  -217338.27  498.98   1-0.08661 0.10660-0.34530-0.37900-0.93448-0.91923
   0  -3  -216486.54  566.75   1-0.18064 0.01257-0.01441-0.04792 0.98344 0.99877
   0  -3   217586.39  620.89   1-0.09447-0.03901 0.05109 0.23831 0.99421 0.97040
   0  -3  -218024.61  773.72   1-0.05018 0.14301-0.17623-0.21019-0.98306-0.96714
   0  -3   217357.94  769.61   1-0.08890-0.03292-0.20400-0.01690-0.97492-0.99931
   0  -3  -219543.99  535.15   1-0.09918 0.09394-0.40009-0.43410-0.91109-0.89595
   0  -3  -3 9774.74  435.24   1 0.10540 0.33309 0.77970 0.69086 0.61720 0.64168
   0   3  -3 7184.51  329.97   1-0.07950-0.10119-0.00994-0.25219-0.99678-0.96237
   0  -3  -3 9898.68  429.08   1-0.08974 0.13782-0.16722-0.25627-0.98182-0.95672
   0  -3   3 9220.54  461.88   1-0.09444-0.07294-0.25250-0.01021-0.96297-0.99728
   0   3  -3 9763.76  414.95   1-0.53045-0.55175 0.05315-0.18928-0.84604-0.81224
   0  -3   3 9569.47  411.67   1-0.22804-0.20673-0.23542 0.00696-0.94475-0.97837
   0  -3  -3 9172.37  351.30   1-0.14635 0.08124-0.30052-0.38944-0.94248-0.91745
   0  -3  -3 8445.05  382.60   1-0.27155-0.04388-0.08515-0.17381 0.95864 0.98379
   0  -3   3 9637.74  479.73   1-0.13006-0.10904 0.02422 0.26662 0.99120 0.95761
   0  -3  -3 9651.96  579.35   1-0.10682 0.12068-0.21673-0.30595-0.97036-0.94436
   0  -3   3 9725.53  609.27   1-0.15023-0.12856-0.24729-0.00494-0.95722-0.99168
   0  -3  -415717.88  541.50   1 0.10671 0.36887 0.68071 0.53674 0.72473 0.75883
   0   3  -413876.93  493.54   1-0.07876-0.06615 0.00040-0.29708-0.99689-0.95255
   0  -3  -416362.44  574.04   1-0.08433 0.17748-0.08027-0.22463-0.99319-0.95814
   0   3  -414900.18  596.68   1-0.48434-0.47118 0.00302-0.29463-0.87487-0.83137
   0  -3  -415737.20  471.59   1-0.19276 0.06920-0.26409-0.40823-0.94503-0.91024
   0  -3   415196.04  526.39   1-0.15188-0.16493-0.29625 0.00134-0.94295-0.98630
   0  -3  -416132.62  501.65   1-0.39309-0.13094-0.18271-0.32648 0.90116 0.93608
   0  -3   416177.74  607.54   1-0.18442-0.19785-0.01731 0.28026 0.98269 0.93931
   0  -3  -414819.25  672.05   1-0.19902 0.06278-0.28113-0.42561-0.93880-0.90272
   0  -3   415329.34  710.27   1-0.22761-0.24025-0.30069-0.00307-0.92616-0.97070
   0  -3  -416149.97  506.84   1 0.07074 0.33299 0.62480 0.48102 0.77756 0.81100
   0  -3  -5 3358.93  250.54   1 0.10666 0.40328 0.64986 0.45071 0.75252 0.79637
   0   3  -5 3236.07  252.23   1-0.07733-0.03041 0.02003-0.33268-0.99680-0.94254
   0  -3  -5 3461.62  258.05   1-0.08013 0.21596-0.01879-0.21844-0.99660-0.95165
   0  -3   5 2866.57  229.93   1-0.09862-0.14582-0.34029 0.01245-0.93513-0.98923
   0   3  -5 3307.47  225.83   1-0.46912-0.42156-0.01291-0.36580-0.88303-0.82974
   0  -3  -5 3178.54  214.36   1-0.23246 0.06390-0.23177-0.43114-0.94458-0.90001
   0  -3   5 3025.75  227.09   1-0.09711-0.14453-0.33759 0.01521-0.93626-0.98938
   0  -3  -5 3220.36  241.65   1-0.54446-0.24790-0.31037-0.50934 0.77924 0.82408
   0  -3   5 2798.47  219.31   1-0.25608-0.30400-0.07299 0.27974 0.96389 0.91066
   0  -3   5 2915.26  183.39   1-0.11874-0.16568-0.34053 0.01225-0.93270-0.98610
   0  -3  -5 3264.05  232.92   1 0.06815 0.36492 0.59976 0.40082 0.79726 0.84033
   0  -3  -615853.78  532.24   1 0.10665 0.43771 0.64635 0.39201 0.75554 0.80914
   0  -3  -615837.84  561.01   1-0.07628 0.25411 0.03405-0.22082-0.99650-0.94162
   0   3  -615457.56  506.48   1-0.07543 0.00577 0.04538-0.36256-0.99611-0.93194
   0   3  -615068.39  468.03   1-0.46857-0.38661-0.01348-0.42160-0.88331-0.82023
   0  -3   616791.40  525.72   1-0.05177-0.13356-0.37036 0.03766-0.92744-0.99032
   0  -3  -616660.81  509.85   1-0.71455-0.38363-0.46884-0.72295 0.51921 0.57459
   0  -3   616529.34  567.51   1-0.34481-0.42724-0.14352 0.26436 0.92763 0.86462
   0  -3  -616204.07  506.44   1 0.06844 0.39974 0.60263 0.34854 0.79507 0.84777
   0  -3  -7  598.60  116.14   1 0.10669 0.47220 0.65599 0.34647 0.74718 0.81053
   0  -3  -7  649.14  123.04   1-0.07250 0.29220 0.08334-0.22677-0.99387-0.92908
   0   3  -7  825.13  129.95   1-0.07319 0.04232 0.07457-0.38861-0.99452-0.92042
   0   3  -7  625.32  112.24   1-0.47591-0.35954-0.00583-0.46918-0.87947-0.80659
   0  -3  -7  710.80  123.98   1-0.30157 0.06355-0.17277-0.48258-0.93765-0.87354
   0  -3   7  733.52  131.00   1-0.45020-0.56707-0.22995 0.23311 0.86280 0.78998
   0  -3  -7  724.30  105.87   1 0.07003 0.43584 0.61795 0.30870 0.78309 0.84542
   0  -3  -874924.72 1556.47   1 0.10671 0.50668 0.67278 0.30808 0.73209 0.80520
   0  -3  -883223.10 1656.48   1-0.06864 0.33035 0.13111-0.23432-0.98898-0.91430
   0   3  -884685.89 1660.88   1-0.07065 0.07913 0.10647-0.41200-0.99180-0.90774
   0   3  -882907.52 1571.35   1-0.48789-0.33712 0.00678-0.51178-0.87287-0.79020
   0  -3  -887556.27 1615.57   1-0.33314 0.06637-0.14459-0.50962-0.93172-0.85783
   0  -3   884620.06 1683.88   1-0.57331-0.72455-0.33575 0.18248 0.74738 0.66462
   0  -3  -877421.39 1544.04   1 0.07228 0.47261 0.63973 0.27533 0.76519 0.83715
   0  -3  -9 8398.24  419.27   1-0.06469 0.36860 0.17789-0.24279-0.98192-0.89731
   0   3  -9 9082.71  419.00   1-0.06786 0.11622 0.14051-0.43321-0.98774-0.89376
   0   3  -9 8294.51  347.68   1-0.50278-0.31761 0.02272-0.55106-0.86411-0.77165
   0  -3  -9 8427.48  365.45   1-0.36331 0.07062-0.11687-0.53713-0.92430-0.84053
   0  -3   9 7952.15  489.90   1-0.78287-0.96767-0.60225-0.02869-0.15617-0.25054
   0  -3   9 7208.60  476.40   1-0.72025-0.90569-0.47473 0.09860 0.50582 0.41230
   0  -3  -9 7414.12  368.65   1 0.07490 0.50975 0.66518 0.24562 0.74291 0.82451
   0  -3 -1054828.25 1178.70   1-0.06058 0.40701 0.22436-0.25156-0.97262-0.87809
   0   3 -1050169.46  970.46   1-0.06483 0.15355 0.17620-0.45276-0.98221-0.87831
   0   3 -1057468.99 1059.91   1-0.51956-0.29999 0.04104-0.58797-0.85344-0.75119
   0  -3 -1058034.82 1054.47   1-0.39259 0.07573-0.08921-0.56469-0.91537-0.82181
   0  -3 -11 2482.30  228.85   1-0.05626 0.44563 0.27107-0.26018-0.96091-0.85657
   0   3 -11 2521.66  213.09   1-0.06157 0.19111 0.21328-0.47092-0.97504-0.86122
   0   3 -11 2414.23  239.87   1-0.53753-0.28368 0.06111-0.62325-0.84102-0.72875
   0  -3 -11 2729.26  200.38   1-0.42105 0.08166-0.06155-0.59225-0.90494-0.80159
   0  -3 -12  286.27   92.81   1-0.05175 0.48445 0.31778-0.26876-0.94674-0.83250
   0   3 -12  517.02  113.42   1-0.05808 0.22889 0.25167-0.48785-0.96606-0.84237
   0   3 -12  376.41  109.33   1-0.55641-0.26817 0.08272-0.65688-0.82677-0.70469
   0  -3 -12   89.41   98.65   1-0.44882 0.08843-0.03376-0.61974-0.89298-0.77980
   0   3 -13 6200.46  343.66   1-0.05436 0.26691 0.29101-0.50376-0.95517-0.82156
   0   3 -13 5903.13  326.48   1-0.57582-0.25314 0.10556-0.68934-0.81072-0.67876
   0  -3 -13 6287.38  323.00   1-0.47597 0.09569-0.00577-0.64699-0.87944-0.75647
   0  -4   0421582.2 3565.99   1-0.10667 0.05910 0.04191 0.14438 0.99340 0.98775
   0  -4   0410855.8 4483.23   1-0.04289 0.12322-0.17096-0.06887-0.98434-0.98998
   0  -4  -1985943.6 7969.78   1-0.04384 0.15657-0.17165-0.12482-0.98417-0.97974
   0  -4   1999998.0 5509.33   1-0.05945 0.07235-0.18291-0.02555-0.98132-0.99705
   0  -4  -225286.71 1127.56   1-0.05188 0.18286 0.31643 0.30793-0.94719-0.93366
   0   4  -228773.31  680.80   1-0.07562-0.17315 0.04285-0.16966-0.99621-0.97017
   0  -4   229944.82  749.92   1-0.09200 0.00534-0.20690 0.00571-0.97402-0.99996
   0   4  -228973.81  690.66   1-0.78132-0.87842 0.43199 0.21916-0.45045-0.42466
   0  -4   229195.45  700.95   1-0.45303-0.35590-0.02948 0.18330-0.89100-0.91636
   0  -4  -228174.05  683.66   1-0.07522 0.15948-0.35358-0.36171-0.93237-0.91854
   0  -4  -228133.00  723.81   1-0.17662 0.05804-0.01132-0.01921 0.98421 0.99812
   0  -4   226493.09  844.36   1-0.11131-0.01441 0.03840 0.25124 0.99304 0.96781
   0  -4  -229062.62  966.33   1-0.06403 0.17069-0.18620-0.19463-0.98042-0.96590
   0  -4   230436.69 1006.66   1-0.09203 0.00546-0.20623 0.00638-0.97416-0.99996
   0  -4  -229994.32  622.48   1-0.08235 0.15228-0.44894-0.45745-0.88975-0.87609
   0  -4  -339206.10 2340.22   1 0.08068 0.34985 0.99056 0.92725 0.11081 0.13345
   0   4  -341493.50  863.36   1-0.07674-0.13996 0.02801-0.23974-0.99665-0.96069
   0  -4  -342442.49 1141.67   1-0.08760 0.18142-0.13162-0.19523-0.98742-0.96382
   0  -4   341216.25  850.48   1-0.09434-0.03133-0.25048 0.01735-0.96351-0.99935
   0   4  -338875.89  937.15   1-0.64875-0.71156 0.19837-0.06961-0.73469-0.69916
   0  -4   345715.59  930.25   1-0.26446-0.20166-0.20490 0.06306-0.94237-0.97742
   0  -4  -341648.17  772.63   1-0.13355 0.13552-0.31030-0.37365-0.94120-0.91761
   0  -4  -341068.23  873.37   1-0.24308 0.02602-0.06281-0.12584 0.96797 0.99170
   0  -4   338842.77 1004.26   1-0.13825-0.07579 0.01799 0.28601 0.99023 0.95522
   0  -4  -341123.34 1168.47   1-0.10555 0.16348-0.21583-0.27953-0.97070-0.94611
   0  -4   342521.53 1322.94   1-0.13927-0.07607-0.23962 0.02825-0.96082-0.99670
   0  -4  -410466.85  432.55   1 0.10227 0.40589 0.85485 0.73637 0.50869 0.54129
   0   4  -4 7365.27  357.47   1-0.07649-0.10541 0.03132-0.29166-0.99657-0.95069
   0  -4  -410352.53  442.76   1-0.08144 0.22189-0.03746-0.15630-0.99597-0.96245
   0  -4   410176.40  439.79   1-0.09641-0.06776-0.29216 0.03089-0.95149-0.99722
   0   4  -4 9983.81  401.81   1-0.57367-0.60205 0.10300-0.22026-0.81257-0.76747
   0  -4  -4 9404.10  372.79   1-0.18002 0.12343-0.27424-0.39280-0.94466-0.91129
   0  -4   410890.87  415.48   1-0.17049-0.14204-0.28175 0.04142-0.94421-0.98899
   0  -4  -410689.94  461.39   1-0.33138-0.02781-0.13272-0.25085 0.93411 0.96762
   0  -4   4 9928.52  497.77   1-0.18009-0.15207-0.01398 0.30921 0.98355 0.93875
   0  -4  -410256.59  560.67   1-0.17110 0.13223-0.26183-0.38079-0.94982-0.91515
   0  -4   4 9522.34  569.91   1-0.19988-0.17098-0.28172 0.04142-0.93844-0.98440
   0  -4  -518072.07  579.07   1 0.10545 0.44349 0.77767 0.60400 0.61976 0.66218
   0   4  -518698.21  539.16   1-0.07544-0.07006 0.04522-0.33300-0.99612-0.94031
   0  -4  -518984.57  596.12   1-0.07721 0.26041 0.02162-0.15251-0.99677-0.95337
   0   4  -519881.04  627.82   1-0.53917-0.53316 0.06296-0.31552-0.83983-0.78496
   0  -4  -519596.19  556.07   1-0.22016 0.11766-0.24190-0.41568-0.94499-0.90186
   0  -4   518990.10  520.59   1-0.10732-0.11325-0.33004 0.04835-0.93784-0.99238
   0  -4  -519576.26  580.30   1-0.44191-0.10387-0.22302-0.39633 0.86889 0.91220
   0  -4   517765.25  677.98   1-0.23581-0.24229-0.05713 0.32123 0.97011 0.91547
   0  -4  -516571.81  768.51   1-0.26443 0.07321-0.32559-0.49981-0.90777-0.86302
   0  -4   519014.99  845.69   1-0.27258-0.27799-0.33106 0.04734-0.90337-0.95941
   0  -4  -626753.54  708.92   1 0.10612 0.47860 0.74615 0.51729 0.65726 0.70946
   0   4  -628879.66  704.51   1-0.07386-0.03418 0.06588-0.36758-0.99508-0.92936
   0  -4  -627661.26  717.97   1-0.07337 0.29855 0.07219-0.15717-0.99468-0.94136
   0   4  -627558.10  688.30   1-0.52579-0.48539 0.04795-0.38577-0.84925-0.78457
   0  -4  -626189.88  622.05   1-0.25649 0.11574-0.21166-0.44067-0.94308-0.89017
   0  -4   626563.48  715.86   1-0.05722-0.09752-0.36649 0.06711-0.92865-0.99296
   0  -4  -625954.05  658.10   1-0.57275-0.20029-0.33525-0.56377 0.74803 0.80127
   0  -4   626470.02  699.74   1-0.30511-0.34604-0.11173 0.32180 0.94573 0.88130
   0  -4  -780274.21 1390.52   1-0.06955 0.33668 0.12011-0.16457-0.99032-0.92712
   0   4  -778556.61 1257.13   1-0.07188 0.00210 0.09117-0.39752-0.99323-0.91758
   0   4  -781534.17 1226.87   1-0.52418-0.44939 0.04616-0.44281-0.85035-0.77586
   0  -4  -781975.77 1323.71   1-0.29032 0.11629-0.18262-0.46685-0.93933-0.87665
   0  -4  -777835.70 1360.41   1-0.71645-0.30965-0.47079-0.75444 0.51482 0.57872
   0  -4   775026.19 1262.90   1-0.38771-0.46316-0.17831 0.31036 0.90436 0.83015
   0  -4  -8 4680.71  329.48   1 0.10619 0.54753 0.74241 0.40315 0.66147 0.73325
   0  -4  -8 5224.72  321.82   1-0.06566 0.37486 0.16656-0.17336-0.98384-0.91072
   0   4  -8 5199.16  313.01   1-0.06957 0.03867 0.11977-0.42421-0.99036-0.90473
   0   4  -8 5653.27  313.36   1-0.52959-0.42041 0.05219-0.49202-0.84664-0.76234
   0  -4  -8 4010.05  246.87   1-0.32239 0.11860-0.15427-0.49372-0.93394-0.86149
   0  -4   8 5296.71  326.53   1-0.48350-0.59339-0.25797 0.28588 0.83646 0.75243
   0  -4  -9 9441.37  469.48   1 0.10598 0.58176 0.75439 0.35994 0.64780 0.72937
   0  -4  -910876.80  469.80   1-0.06164 0.41319 0.21260-0.18257-0.97519-0.89215
   0   4  -911207.91  454.95   1-0.06698 0.07556 0.15099-0.44823-0.98626-0.89071
   0   4  -912508.00  508.54   1-0.53945-0.39588 0.06328-0.53616-0.83963-0.74552
   0  -4  -911411.63  509.79   1-0.35305 0.12237-0.12638-0.52106-0.92702-0.84469
   0  -4   910209.57  479.16   1-0.59340-0.73765-0.35370 0.24532 0.72302 0.62903
   0  -4 -10 6769.96  376.00   1-0.05740 0.45173 0.25891-0.19159-0.96419-0.87133
   0   4 -10 6145.26  339.04   1-0.06414 0.11271 0.18424-0.47022-0.98078-0.87531
   0   4 -10 7057.69  329.01   1-0.55225-0.37429 0.07791-0.57678-0.83002-0.72610
   0  -4 -10 6857.02  313.25   1-0.38277 0.12704-0.09858-0.54848-0.91856-0.82645
   0  -4 -11 4385.35  305.69   1-0.05299 0.49044 0.30513-0.20062-0.95083-0.84806
   0   4 -11 4540.21  268.79   1-0.06105 0.15010 0.21916-0.49055-0.97377-0.85838
   0   4 -11 3925.16  277.60   1-0.56701-0.35461 0.09511-0.61487-0.81819-0.70440
   0  -4 -11 4579.27  260.24   1-0.41163 0.13256-0.07079-0.57591-0.90859-0.80668
   0   4 -1243744.20  949.01   1-0.05771 0.18772 0.25561-0.50941-0.96505-0.83979
   0  -4 -1246505.68  846.08   1-0.43980 0.13894-0.04287-0.60328-0.89706-0.78533
   0   4 -1318333.60  589.64   1-0.05415 0.22558 0.29322-0.52706-0.95450-0.81933
   0   4 -1317887.83  577.00   1-0.60029-0.31910 0.13535-0.68511-0.78824-0.65481
   0  -4 -1318081.27  547.13   1-0.46732 0.14582-0.01478-0.63041-0.88396-0.76243
   0   5   0   19.26   66.43   1-0.05672-0.26441 0.26619 0.13868-0.96224-0.95438
   0  -5   0   31.83   70.39   1-0.08859 0.11895-0.14796-0.02026-0.98501-0.99269
   0  -5   0  -41.75   84.50   1-0.12625 0.08097 0.02710 0.15519 0.99162 0.98455
   0  -5   0   49.27   98.16   1-0.06264 0.14499-0.18520-0.05759-0.98070-0.98775
   0   5   172722.27 1247.25   1-0.02591-0.26791 0.55097 0.47876-0.83411-0.83606
   0   5  -175120.67 1279.74   1-0.06767-0.24104 0.14283-0.03994-0.98742-0.96969
   0  -5  -176580.67 1265.61   1-0.08688 0.15505-0.12000-0.04764-0.98896-0.98675
   0  -5   176020.23 1274.65   1-0.09063 0.08257-0.18256 0.00036-0.97900-0.99658
   0  -5   177794.39 1083.90   1-0.80279-0.62979 0.56526 0.74848-0.18972-0.20766
   0  -5  -174415.72 1192.70   1-0.14650 0.09517 0.01172 0.08462 0.98914 0.99185
   0  -5   170371.03 1206.54   1-0.12078 0.05200 0.03125 0.21452 0.99218 0.97533
   0  -5  -171072.32 1511.53   1-0.06390 0.17804-0.18611-0.11375-0.98044-0.97742
   0  -5   168832.95 1465.09   1-0.07551 0.09782-0.19443-0.01155-0.97800-0.99513
   0  -5  -174088.89 1453.68   1 0.08051 0.32218-0.71994-0.64690 0.68934 0.69116
   0   5   215681.18 1123.43   1 0.07472-0.20150 0.99676 0.97931 0.02966 0.01848
   0   5  -222345.00  644.52   1-0.07211-0.21117 0.08819-0.14983-0.99348-0.96589
   0  -5  -223202.51  885.59   1-0.08749 0.18875-0.12993-0.11279-0.98765-0.97552
   0  -5   222113.27  687.80   1-0.09268 0.04618-0.21917 0.01897-0.97127-0.99875
   0   5  -218443.35  700.63   1-0.78897-0.92734 0.61142 0.37278-0.06073-0.03276
   0  -5   223154.40  704.91   1-0.52816-0.38949 0.05058 0.28893-0.84763-0.87453
   0  -5  -222254.58  587.76   1-0.07471 0.20147-0.35395-0.33650-0.93227-0.91987
   0  -5  -222202.65  626.92   1-0.18241 0.09370-0.01576 0.00195 0.98309 0.99559
   0  -5   221875.25  717.80   1-0.12921 0.00913 0.02486 0.26331 0.99130 0.96466
   0  -5  -222939.85  912.71   1-0.08039 0.19586-0.19792-0.18083-0.97691-0.96381
   0  -5   220508.19  838.05   1-0.10152 0.03751-0.21297 0.02516-0.97176-0.99897
   0  -5  -222542.03  543.13   1-0.07071 0.20544-0.48150-0.46450-0.87358-0.86140
   0   5   224001.35  780.52   1 0.06886-0.20715 0.60664 0.58889 0.79198 0.78121
   0   5  -332044.96  793.81   1-0.07379-0.17854 0.06681-0.22645-0.99503-0.95751
   0  -5   331542.30  766.62   1-0.09465 0.00986-0.25652 0.03685-0.96189-0.99927
   0   5  -331766.20  736.14   1-0.75265-0.85690 0.36562 0.07202-0.54757-0.51041
   0  -5   331933.36  746.09   1-0.29327-0.18899-0.18004 0.11349-0.93892-0.97539
   0  -5  -331597.23  682.55   1-0.12935 0.18121-0.31349-0.35126-0.94073-0.91856
   0  -5  -330243.85  699.34   1-0.23488 0.07566-0.05641-0.09382 0.97038 0.99270
   0  -5   330864.32  803.95   1-0.15072-0.04682 0.00850 0.30213 0.98853 0.95211
   0  -5  -328730.70 1016.40   1-0.11341 0.19715-0.22140-0.25957-0.96856-0.94538
   0  -5   332098.63 1125.26   1-0.13976-0.03503-0.23996 0.05343-0.96066-0.99795
   0  -5  -420219.42  825.40   1 0.07670 0.42176 0.99548 0.90254 0.05598 0.08673
   0  -5  -421538.25  650.33   1-0.07273 0.27212 0.08036-0.01302-0.99410-0.96217
   0   5  -419420.44  553.36   1-0.07400-0.14445 0.06410-0.28439-0.99519-0.94775
   0  -5   418816.62  611.88   1-0.09651-0.02634-0.29405 0.05455-0.95090-0.99816
   0   5  -417040.07  593.48   1-0.66597-0.73589 0.22237-0.12642-0.71205-0.66519
   0  -5   419382.75  562.23   1-0.18127-0.11133-0.27325 0.07549-0.94470-0.99091
   0  -5  -420041.05  522.74   1-0.17422 0.17072-0.27882-0.37181-0.94440-0.91247
   0  -5  -419585.14  574.27   1-0.30432 0.04067-0.11110-0.20369 0.94606 0.97819
   0  -5   420777.57  676.92   1-0.18459-0.11513-0.01744 0.33137 0.98266 0.93644
   0  -5  -419462.78  781.87   1-0.16457 0.18029-0.25730-0.35073-0.95221-0.91895
   0  -5   418358.75  774.56   1-0.18938-0.11895-0.27448 0.07417-0.94275-0.99012
   0  -5  -577558.82 1537.60   1 0.09689 0.47641 0.91931 0.77121 0.38139 0.42219
   0  -5  -578389.81 1324.94   1-0.07084 0.30833 0.10421-0.04447-0.99202-0.95023
   0   5  -572200.27 1203.60   1-0.07332-0.10947 0.07282-0.33091-0.99464-0.93728
   0   5  -582678.32 1374.82   1-0.61474-0.65021 0.15354-0.25053-0.77363-0.71725
   0  -5  -581901.21 1132.48   1-0.21361 0.16570-0.24726-0.39546-0.94510-0.90340
   0  -5   579406.10 1262.19   1-0.11046-0.07490-0.32770 0.07626-0.93830-0.99427
   0  -5  -583117.42 1270.30   1-0.39076-0.01129-0.18081-0.32848 0.90255 0.94444
   0  -5   583373.90 1267.41   1-0.23008-0.19512-0.05266 0.35132 0.97174 0.91569
   0  -5  -578258.78 1665.37   1-0.23597 0.14320-0.30637-0.45507-0.92219-0.87886
   0  -5   573855.85 1781.33   1-0.24952-0.21340-0.31555 0.08837-0.91551-0.97295
   0  -5  -6 4688.77  337.87   1 0.10191 0.51587 0.86087 0.65757 0.49851 0.54906
   0  -5  -6 4414.10  298.05   1-0.06796 0.34551 0.13938-0.06455-0.98790-0.93619
   0   5  -6 4251.84  274.28   1-0.07204-0.07389 0.08910-0.36987-0.99341-0.92613
   0   5  -6 4349.78  278.33   1-0.58827-0.58934 0.12057-0.33875-0.79962-0.73342
   0  -5  -6 4360.43  261.84   1-0.24960 0.16412-0.21747-0.42090-0.94361-0.89213
   0  -5   6 4273.17  276.71   1-0.05640-0.05522-0.36707 0.09211-0.92847-0.99421
   0  -5  -6 4334.90  281.87   1-0.49404-0.08011-0.26692-0.46977 0.82744 0.87914
   0  -5   6 3321.84  258.98   1-0.28695-0.28643-0.09732 0.36184 0.95298 0.88714
   0  -5  -716850.24  580.12   1 0.10349 0.55189 0.83197 0.57348 0.54506 0.60541
   0  -5  -718676.68  581.10   1-0.06463 0.38313 0.17857-0.08060-0.98180-0.92016
   0   5  -716812.80  519.20   1-0.07032-0.03790 0.11055-0.40368-0.99137-0.91411
   0   5  -716215.41  676.32   1-0.57703-0.54371 0.10701-0.40755-0.80967-0.73366
   0  -5  -718171.57  518.43   1-0.28329 0.16480-0.18872-0.44738-0.94027-0.87902
   0  -5  -716711.79  484.45   1-0.61200-0.16365-0.37052-0.62858 0.69868 0.76032
   0  -5   716985.55  554.53   1-0.35487-0.38889-0.15164 0.36266 0.92253 0.84689
   0  -5  -8  153.31   98.37   1 0.10395 0.58679 0.82162 0.50792 0.56047 0.63061
   0  -5  -8  153.66   84.61   1-0.06099 0.42107 0.21982-0.09460-0.97363-0.90207
   0   5  -8   51.67   84.31   1-0.06824-0.00151 0.13601-0.43347-0.98835-0.90116
   0   5  -8  215.61   70.32   1-0.57522-0.50750 0.10485-0.46496-0.81124-0.72542
   0  -5  -8  377.38  123.00   1-0.31534 0.16714-0.16057-0.47445-0.93529-0.86426
   0  -5  -8  178.52   80.50   1-0.73799-0.25528-0.49351-0.80672 0.46021 0.53293
   0  -5   8  116.99   60.50   1-0.43369-0.50217-0.21619 0.35328 0.87473 0.78931
   0  -5  -9127278.2 2683.56   1-0.05704 0.45933 0.26278-0.10696-0.96316-0.88180
   0   5  -9117348.5 2486.68   1-0.06584 0.03517 0.16445-0.46028-0.98418-0.88707
   0   5  -9100987.0 2446.94   1-0.57950-0.47738 0.10997-0.51509-0.80751-0.71188
   0  -5  -9126509.0 2605.47   1-0.34606 0.17084-0.13281-0.50191-0.92876-0.84787
   0  -5   9112890.8 2357.86   1-0.52367-0.62657-0.29232 0.33232 0.80019 0.70495
   0  -5 -10 7339.97  403.73   1-0.05286 0.49780 0.30642-0.11857-0.95042-0.85914
   0   5 -10 6676.30  317.20   1-0.06317 0.07214 0.19525-0.48472-0.97871-0.87168
   0   5 -10 6707.21  393.33   1-0.58785-0.45134 0.12006-0.56024-0.80000-0.69455
   0  -5 -10 6952.32  363.10   1-0.37587 0.17542-0.10511-0.52943-0.92069-0.83001
   0  -5 -11 1290.71  157.46   1-0.04841 0.53657 0.35110-0.12918-0.93508-0.83390
   0   5 -11 1270.82  171.86   1-0.06025 0.10936 0.22799-0.50722-0.97179-0.85484
   0   5 -11 1551.51  161.71   1-0.59901-0.42810 0.13377-0.60178-0.78948-0.67422
   0  -5 -11 1668.87  189.59   1-0.40486 0.18082-0.07738-0.55693-0.91109-0.81063
   0   5 -12  224.88  102.43   1-0.05707 0.14682 0.26247-0.52806-0.96324-0.83641
   0   5 -12  275.55   94.52   1-0.61214-0.40683 0.15023-0.64056-0.77634-0.65127
   0  -5 -12  196.50  101.56   1-0.43317 0.18705-0.04952-0.58434-0.89994-0.78965
   0   5 -13  518.97  125.40   1-0.05365 0.18454 0.29830-0.54748-0.95296-0.81621
   0   5 -13  551.05  126.94   1-0.62665-0.38695 0.16889-0.67715-0.76077-0.62588
   0  -5 -13  624.72  141.97   1-0.46084 0.19378-0.02147-0.61151-0.88721-0.76713
   0   6   0   71.28   59.64   1-0.05279-0.30202 0.30716 0.15414-0.95019-0.94075
   0  -6   0  156.17   72.56   1-0.09106 0.15800-0.19005-0.03681-0.97754-0.98675
   0  -6   0  133.17   69.78   1-0.14581 0.10286 0.01224 0.16595 0.98923 0.98075
   0  -6   0  127.54  147.10   1-0.08242 0.16674-0.19937-0.04623-0.97645-0.98491
   0   6   111670.80  476.21   1-0.02705-0.31058 0.54180 0.44409-0.84006-0.84042
   0   6  -111645.16  500.26   1-0.06357-0.27848 0.19072-0.01755-0.97958-0.96028
   0  -6  -112361.28  480.75   1-0.09099 0.19241-0.18877-0.09075-0.97779-0.97710
   0  -6   111311.55  439.49   1-0.09217 0.12254-0.20998-0.00151-0.97334-0.99246
   0  -6   112028.58  426.82   1-0.79702-0.58252 0.59217 0.80097-0.11869-0.13822
   0  -6  -111504.06  451.59   1-0.16295 0.12016-0.00083 0.09768 0.98663 0.98793
   0  -6   111896.38  542.59   1-0.14090 0.07332 0.01598 0.22486 0.98989 0.97162
   0  -6   112400.42  624.14   1-0.09280 0.12206-0.20677 0.00162-0.97397-0.99251
   0  -6  -111492.54  698.25   1-0.08388 0.19959-0.20042-0.10254-0.97611-0.97449
   0  -6  -113005.11  626.95   1 0.07576 0.35881-0.67352-0.57472 0.73526 0.73548
   0   6   272128.80 1776.19   1 0.04407-0.27368 0.94849 0.90582-0.31371-0.32339
   0   6  -262275.71  972.22   1-0.06852-0.24913 0.13258-0.13094-0.98879-0.95957
   0  -6   271979.89 1136.78   1-0.09366 0.08671-0.23745 0.02624-0.96687-0.99588
   0   6  -272603.04 1113.36   1-0.65693-0.83662 0.67808 0.41370 0.32960 0.35904
   0  -6   261223.42 1263.62   1-0.58814-0.40800 0.12041 0.38433-0.79974-0.82814
   0  -6  -271901.92 1039.98   1-0.08252 0.23515-0.34828-0.30526-0.93374-0.92277
   0  -6  -264190.82 1059.20   1-0.19292 0.12463-0.02386 0.01947 0.98092 0.99201
   0  -6   272725.71 1155.83   1-0.14764 0.03215 0.01085 0.27492 0.98898 0.96092
   0  -6  -268439.39 1585.46   1-0.09796 0.21982-0.21044-0.16783-0.97268-0.96099
   0  -6   265619.63 1506.04   1-0.11431 0.06624-0.22204 0.04162-0.96831-0.99693
   0  -6  -268879.20  962.38   1-0.06677 0.25089-0.49230-0.44980-0.86786-0.85716
   0   6   272535.64 1326.28   1 0.06292-0.25449 0.54937 0.50601 0.83320 0.82412
   0   6  -3 3006.25  232.75   1-0.07069-0.21700 0.10601-0.21275-0.99184-0.95270
   0  -6   3 3099.50  228.93   1-0.09526 0.05076-0.26860 0.05030-0.95852-0.99744
   0   6  -3 2685.20  294.86   1-0.80349-0.94911 0.52766 0.20824-0.27561-0.23624
   0  -6   3 3043.76  261.50   1-0.31148-0.16571-0.16401 0.15511-0.93598-0.97389
   0  -6  -3 3229.29  204.98   1-0.13219 0.21985-0.31134-0.32353-0.94105-0.92031
   0  -6  -3 3038.77  234.82   1-0.23637 0.11562-0.05756-0.06935 0.96995 0.99086
   0  -6   3 2799.48  244.82   1-0.16544-0.02009-0.00274 0.31650 0.98621 0.94837
   0  -6  -3 3106.49  350.89   1-0.12553 0.22655-0.22996-0.24261-0.96506-0.94329
   0  -6   3 3049.05  314.46   1-0.14631-0.00006-0.24455 0.07436-0.95853-0.99723
   0   6  -4 2454.64  200.42   1-0.07132-0.18333 0.09814-0.27587-0.99261-0.94354
   0  -6   4 2504.94  208.70   1-0.09687 0.01480-0.30168 0.07246-0.94847-0.99726
   0   6  -4 2280.17  217.70   1-0.74829-0.85963 0.35695-0.01746-0.55914-0.51060
   0  -6   4 2358.69  206.39   1-0.18172-0.07030-0.27289 0.10143-0.94472-0.99235
   0  -6  -4 2518.42  194.37   1-0.17436 0.21206-0.27871-0.34612-0.94441-0.91390
   0  -6  -4 2390.82  192.12   1-0.29354 0.09290-0.10253-0.16950 0.95043 0.98114
   0  -6   4 2363.34  242.42   1-0.19379-0.08288-0.02453 0.34990 0.98073 0.93311
   0  -6  -4 2489.54  273.41   1-0.16769 0.21870-0.25946-0.32738-0.95108-0.91923
   0  -6   4 2531.24  281.93   1-0.18819-0.07624-0.27367 0.10051-0.94323-0.99200
   0   6   4 2205.37  277.54   1 0.05301-0.33368-0.45443-0.38781 0.88920 0.85921
   0  -6  -5 8505.88  440.32   1 0.06662 0.48752 0.99522 0.87250-0.07136-0.03235
   0  -6  -5 9201.20  453.76   1-0.05459 0.36612 0.28857 0.16533-0.95589-0.91575
   0   6  -5 8518.60  385.12   1-0.07100-0.14871 0.10222-0.32703-0.99222-0.93323
   0   6  -5 8802.73  479.35   1-0.68986-0.76689 0.25746-0.17216-0.67660-0.61825
   0  -6  -5 8775.25  348.80   1-0.21215 0.20866-0.24845-0.37108-0.94512-0.90485
   0  -6   5 7933.54  349.71   1-0.10467-0.02763-0.33200 0.09754-0.93745-0.99484
   0  -6  -5 8930.33  384.57   1-0.36454 0.05636-0.15946-0.28149 0.91743 0.95790
   0  -6   5 8696.41  405.30   1-0.23213-0.15572-0.05426 0.37535 0.97116 0.91370
   0  -6   5 7323.90  521.14   1-0.23934-0.16170-0.30866 0.12078-0.92056-0.97942
   0  -6  -5 7659.15  479.85   1-0.22575 0.19494-0.29943-0.42260-0.92702-0.88509
   0  -6  -6252956.5 2892.07   1 0.08859 0.54397 0.96898 0.79123 0.23068 0.27936
   0  -6  -6248301.7 2717.71   1-0.05732 0.39769 0.25979 0.08130-0.96396-0.91390
   0   6  -6256152.8 2502.53   1-0.07001-0.11342 0.11443-0.37007-0.99096-0.92205
   0   6  -6238664.6 2363.66   1-0.65293-0.69556 0.20411-0.28074-0.72939-0.66133
   0  -6  -6249895.3 2527.09   1-0.24712 0.20808-0.21955-0.39741-0.94378-0.89373
   0  -6   6254976.6 2455.65   1-0.04795-0.00528-0.37306 0.11169-0.92656-0.99372
   0  -6  -6257853.7 2499.08   1-0.44954 0.00582-0.22939-0.40661 0.86330 0.91358
   0  -6   6246779.8 2393.89   1-0.28029-0.23833-0.09205 0.39273 0.95548 0.88823
   0  -6  -7 4090.90  319.09   1 0.09561 0.58547 0.92977 0.69685 0.35550 0.41426
   0  -6  -7 4360.15  304.35   1-0.05609 0.43322 0.27292 0.03917-0.96039-0.90043
   0   6  -7 4433.76  274.57   1-0.06853-0.07764 0.13245-0.40730-0.98881-0.90998
   0   6  -7 3660.03  255.40   1-0.63295-0.64112 0.17716-0.36297-0.75364-0.67617
   0  -6  -7 4268.09  257.55   1-0.28014 0.20945-0.19145-0.42453-0.94067-0.88085
   0  -6  -7 3943.68  273.66   1-0.54781-0.05802-0.31330-0.54573 0.77571 0.83594
   0  -6   7 4081.28  313.43   1-0.33797-0.33055-0.13801 0.40192 0.93098 0.85392
   0  -6  -820840.42  628.59   1 0.09831 0.62261 0.90610 0.61798 0.41147 0.48004
   0  -6  -824124.28  672.12   1-0.05348 0.47013 0.30009 0.01110-0.95240-0.88252
   0   6  -821652.11  655.22   1-0.06666-0.04148 0.15479-0.44019-0.98569-0.89694
   0   6  -818106.66  606.06   1-0.62380-0.59757 0.16520-0.43019-0.76391-0.67663
   0  -6  -823180.98  625.85   1-0.31173 0.21224-0.16379-0.45209-0.93594-0.86635
   0  -6  -822183.30  595.21   1-0.65697-0.13278-0.41227-0.69984 0.63119 0.70184
   0  -6   823630.15  658.50   1-0.40498-0.43201-0.19247 0.40264 0.89383 0.80699
   0  -6  -934630.22  803.16   1-0.05012 0.50779 0.33413-0.01013-0.94119-0.86141
   0   6  -933772.36  761.83   1-0.06446-0.00498 0.18049-0.46974-0.98146-0.88278
   0   6  -930857.19  766.14   1-0.62222-0.56159 0.16315-0.48748-0.76564-0.66855
   0  -6  -937177.54  831.79   1-0.34215 0.21624-0.13639-0.47991-0.92969-0.85024
   0  -6  -932304.50  777.07   1-0.76731-0.20875-0.52692-0.86984 0.36548 0.44698
   0  -6   930052.30  749.70   1-0.48131-0.54278-0.25612 0.39416 0.83829 0.74163
   0  -6 -1019217.62  666.98   1-0.04625 0.54597 0.37209-0.02743-0.92704-0.83735
   0   6 -1019264.06  598.66   1-0.06197 0.03181 0.20886-0.49662-0.97597-0.86738
   0   6 -1016046.40  721.66   1-0.62582-0.53080 0.16782-0.53805-0.76169-0.65478
   0  -6 -1019780.87  583.18   1-0.37175 0.22103-0.10898-0.50773-0.92191-0.83267
   0   6 -1111406.43  472.04   1-0.05920 0.06886 0.23950-0.52128-0.96908-0.85059
   0   6 -11 9309.02  412.86   1-0.63306-0.50365 0.17731-0.58381-0.75351-0.63678
   0  -6 -1112965.13  528.64   1-0.40060 0.22656-0.08150-0.53547-0.91261-0.81359
   0   6 -1212979.81  543.33   1-0.05618 0.10618 0.27193-0.54410-0.96067-0.83226
   0   6 -1210782.79  761.75   1-0.64260-0.47890 0.19003-0.62632-0.74225-0.61512
   0  -6 -1213194.19  573.24   1-0.42884 0.23286-0.05383-0.56307-0.90177-0.79292
   0   6 -13 8727.71  515.47   1-0.05291 0.14375 0.30597-0.56532-0.95056-0.81224
   0   6 -13 9919.26  480.64   1-0.65431-0.45622 0.20601-0.66558-0.72762-0.59063
   0  -6 -13 8728.63  442.20   1-0.45648 0.23962-0.02594-0.59041-0.88935-0.77071
   0  -7   0   -7.15   45.90   1-0.09338 0.19718-0.23226-0.05348-0.96815-0.97890
   0  -7   0   -6.51   78.12   1-0.16535 0.12477-0.00267 0.17664 0.98623 0.97633
   0  -7   0   29.83  102.01   1-0.10222 0.18847-0.21347-0.03481-0.97158-0.98145
   0   7   1 1135.06  166.76   1-0.02596-0.35103 0.55059 0.42737-0.83437-0.83314
   0   7  -1 1146.38  157.16   1-0.05944-0.31590 0.23692 0.00315-0.96970-0.94878
   0  -7  -1 1058.13  136.26   1-0.09420 0.23071-0.24786-0.12430-0.96420-0.96504
   0  -7   1  976.83  133.07   1-0.09383 0.16239-0.24069-0.00668-0.96605-0.98670
   0  -7   1 1203.97  189.61   1-0.79423-0.53836 0.59996 0.83449-0.09608-0.11738
   0  -7  -1 1268.79  145.24   1-0.04310 0.28168-0.37648-0.25266-0.92542-0.92564
   0  -7  -1 1215.24  148.50   1-0.18028 0.14428-0.01413 0.11000 0.98351 0.98340
   0  -7   1  925.40  138.45   1-0.16086 0.09482 0.00076 0.23526 0.98697 0.96729
   0  -7   1  728.66  195.67   1-0.11080 0.14559-0.21955 0.01436-0.96928-0.98923
   0  -7  -1  947.83  182.27   1-0.10384 0.22117-0.21462-0.09122-0.97116-0.97095
   0  -7  -1 1110.74  149.24   1 0.07589 0.40036-0.67480-0.55033 0.73408 0.73268
   0   7   2279623.0 3224.37   1 0.02821-0.33107 0.88805 0.81997-0.45886-0.46693
   0   7  -2279230.3 2693.68   1-0.06479-0.28693 0.17671-0.11232-0.98212-0.95134
   0  -7   2273835.7 2514.83   1-0.09483 0.12705-0.26008 0.02915-0.96091-0.99146
   0  -7  -2267989.1 2577.76   1-0.09846 0.26079-0.33680-0.26845-0.93641-0.92731
   0  -7   2263537.6 2726.78   1-0.62959-0.40796 0.17274 0.46224-0.75747-0.78733
   0  -7  -2278267.7 2413.08   1-0.09686 0.26230-0.33778-0.26918-0.93622-0.92668
   0  -7  -2259537.5 2407.27   1-0.20613 0.15284-0.03407 0.03493 0.97792 0.98763
   0  -7   2266756.2 2753.61   1-0.16637 0.05486-0.00345 0.28622 0.98605 0.95658
   0  -7  -2266500.7 3133.07   1-0.11621 0.24310-0.22338-0.15524-0.96777-0.95749
   0  -7   2258438.3 3202.15   1-0.12905 0.09304-0.23243 0.05674-0.96401-0.99404
   0   7  -340846.48  853.92   1-0.06741-0.25526 0.14587-0.19840-0.98700-0.94629
   0  -7   339806.59  844.14   1-0.09608 0.09144-0.28523 0.05923-0.95362-0.99404
   0  -7   340141.70  937.08   1-0.31437-0.12711-0.16144 0.18326-0.93546-0.97481
   0  -7  -341862.07  816.06   1-0.14088 0.25265-0.30471-0.29133-0.94196-0.92265
   0  -7  -339489.91  831.01   1-0.24320 0.15022-0.06290-0.04907 0.96793 0.98743
   0  -7   340138.65  930.40   1-0.18147 0.00532-0.01504 0.32982 0.98328 0.94402
   0  -7   340391.75 1207.28   1-0.15647 0.03130-0.25165 0.09279-0.95508-0.99519
   0  -7  -340109.34 1259.31   1-0.14001 0.25361-0.24013-0.22726-0.96058-0.94023
   0   7  -487283.23 1277.27   1-0.06845-0.22199 0.13349-0.26603-0.98868-0.93805
   0   7  -493952.07 1670.42   1-0.79880-0.95145 0.49332 0.09299-0.34430-0.29340
   0  -7  -486463.73 1240.65   1-0.17964 0.24828-0.27454-0.31638-0.94464-0.91556
   0  -7   489629.62 1311.26   1-0.16786-0.01495-0.28382 0.11608-0.94406-0.99312
   0  -7  -484271.34 1229.19   1-0.29183 0.13604-0.10119-0.14252 0.95109 0.98039
   0  -7   485819.60 1392.93   1-0.20570-0.05341-0.03373 0.36632 0.97803 0.92895
   0  -7  -485368.29 1620.60   1-0.17599 0.25193-0.26522-0.30761-0.94798-0.91755
   0  -7   485663.21 1862.31   1-0.19261-0.03913-0.27672 0.12299-0.94144-0.99163
   0   7  -552479.04  947.30   1-0.06846-0.18770 0.13335-0.32141-0.98869-0.92814
   0   7  -549150.22 1203.60   1-0.75623-0.87466 0.37294-0.08229-0.53760-0.47769
   0  -7  -552714.54  936.46   1-0.21519 0.24710-0.24597-0.34302-0.94508-0.90623
   0  -7   552638.06  990.31   1-0.08718 0.03134-0.34488 0.11023-0.93458-0.99341
   0  -7  -555206.37 1059.12   1-0.35207 0.11027-0.14937-0.24577 0.92397 0.96303
   0  -7   554108.01 1090.28   1-0.23884-0.12100-0.05949 0.39573 0.96923 0.91035
   0  -7  -544659.28 1187.24   1-0.22508 0.23714-0.29897-0.39662-0.92733-0.88681
   0  -7   546040.93 1317.13   1-0.23702-0.11784-0.30709 0.14788-0.92169-0.98195
   0  -7  -619218.53  692.84   1 0.04742 0.54412 0.95862 0.80588-0.28070-0.23343
   0  -7  -618223.77  732.19   1-0.02863 0.46797 0.52890 0.37576-0.84819-0.79987
   0   7  -618198.40  562.10   1-0.06776-0.15270 0.14177-0.36823-0.98757-0.91710
   0   7  -617096.55  660.20   1-0.71584-0.79997 0.29868-0.21174-0.63115-0.56142
   0  -7  -617950.83  558.61   1-0.24863 0.24806-0.21829-0.37057-0.94367-0.89506
   0  -7  -617588.90  543.72   1-0.42412 0.07268-0.20825-0.35982 0.88133 0.93018
   0  -7   617371.14  521.34   1-0.28055-0.19715-0.09225 0.41815 0.95539 0.88672
   0  -7   614381.16  803.28   1-0.28923-0.20436-0.34217 0.16806-0.89401-0.96435
   0  -7  -616149.68  762.47   1-0.28847 0.20806-0.34167-0.49458-0.89445-0.84385
   0   7   616645.73  671.64   1 0.05198-0.44522-0.44464-0.29339 0.89419 0.84598
   0  -7  -7  741.75  148.08   1 0.07550 0.60677 0.99634 0.78896 0.04000 0.09674
   0  -7  -7  859.09  176.65   1-0.03931 0.49159 0.43678 0.22847-0.89870-0.84031
   0   7  -7  679.93  132.65   1-0.06653-0.11717 0.15642-0.40883-0.98544-0.90505
   0   7  -7  780.91  133.45   1-0.68874-0.73848 0.25575-0.30993-0.67839-0.59881
   0  -7  -7  710.14  110.14   1-0.28053 0.25053-0.19111-0.39861-0.94062-0.88223
   0  -7  -7  827.90  118.81   1-0.50749 0.02377-0.27840-0.48516 0.81543 0.87410
   0  -7   7 1077.66  170.17   1-0.33063-0.28178-0.13212 0.43344 0.93446 0.85599
   0  -7  -834026.76 1225.94   1 0.08552 0.65122 0.97954 0.71697 0.18213 0.24871
   0  -7  -844520.99 1269.64   1-0.04057 0.52459 0.42536 0.16184-0.90411-0.83582
   0   7  -842130.21 1151.82   1-0.06487-0.08122 0.17577-0.44472-0.98229-0.89197
   0  -7  -840666.02 1053.31   1-0.31131 0.25414-0.16416-0.42688-0.93602-0.86785
   0  -7  -840306.43 1030.98   1-0.60124-0.03556-0.36076-0.62274 0.71298 0.78161
   0  -7   841242.95 1172.12   1-0.38892-0.37452-0.17930 0.44143 0.90365 0.81539
   0  -7  -975394.95 1703.71   1-0.03907 0.56045 0.43895 0.12011-0.89765-0.81942
   0   7  -980112.89 1130.77   1-0.06286-0.04491 0.19880-0.47694-0.97802-0.87778
   0   7  -975380.67 1303.97   1-0.66608-0.64704 0.22252-0.45364-0.71190-0.61281
   0  -7  -977086.50 1227.17   1-0.70288-0.10285-0.45699-0.77410 0.54506 0.62464
   0  -7   980000.28 1088.26   1-0.45531-0.47534-0.23422 0.44169 0.85896 0.76089
   0   7 -10 2666.85  262.20   1-0.06054-0.00829 0.22477-0.50621-0.97252-0.86236
   0   7 -10 2045.16  203.58   1-0.66496-0.61153 0.22093-0.51048-0.71344-0.60451
   0  -7 -10 2257.25  184.00   1-0.37026 0.26400-0.11038-0.48355-0.92234-0.83455
   0   7  10 2039.03  220.02   1 0.05142-0.58396-0.43931-0.06750 0.89685 0.80896
   0   7 -11 3152.31  243.17   1-0.05793 0.02859 0.25324-0.53304-0.96566-0.84560
   0   7 -11 2831.96  243.69   1-0.66820-0.58039 0.22555-0.56110-0.70895-0.59017
   0  -7 -11 3665.20  247.45   1-0.39876 0.26989-0.08328-0.51167-0.91326-0.81568
   0   7 -12   68.99  103.01   1-0.05506 0.06576 0.28371-0.55782-0.95732-0.82734
   0   7 -12   23.76   85.74   1-0.67462-0.55241 0.23480-0.60710-0.69981-0.57118
   0  -7 -12   38.73  128.51   1-0.42673 0.27645-0.05593-0.53959-0.90264-0.79524
   0   7 -13 6570.99  356.63   1-0.05193 0.10320 0.31596-0.58086-0.94734-0.80743
   0  -7 -13 4339.94  243.50   1-0.45347 0.28263-0.02903-0.56682-0.89079-0.77383
   0   8   025300.95  749.58   1-0.04451-0.37681 0.38866 0.18465-0.92030-0.90769
   0  -8   025537.85  677.68   1-0.09556 0.23652-0.27459-0.07027-0.95679-0.96908
   0  -8   026303.00  752.49   1-0.63408-0.30231 0.67820 0.88319 0.37145 0.35858
   0  -8   026510.01  701.66   1-0.18487 0.14669-0.01766 0.18727 0.98260 0.97129
   0  -8   024795.25  927.19   1-0.12205 0.21018-0.22750-0.02332-0.96609-0.97738
   0   8   115637.25  520.80   1-0.02365-0.39025 0.56897 0.42026-0.82201-0.81919
   0   8  -115868.03  532.88   1-0.05520-0.35320 0.28222 0.02295-0.95775-0.93526
   0  -8   114403.73  556.80   1-0.09552 0.20222-0.27372-0.01417-0.95705-0.97923
   0  -8  -114759.05  558.63   1-0.09686 0.26955-0.30162-0.15250-0.94849-0.95083
   0  -8   113271.37  653.79   1-0.79475-0.49740 0.59863 0.85876-0.10003-0.12294
   0  -8  -115133.04  493.24   1-0.07290 0.29337-0.35525-0.20586-0.93192-0.93357
   0  -8   114730.15  569.68   1-0.18070 0.11642-0.01445 0.24567 0.98343 0.96233
   0  -8  -116645.83  581.75   1-0.19818 0.16779-0.02792 0.12188 0.97976 0.97825
   0  -8  -115476.22  727.81   1-0.12378 0.24276-0.22872-0.07980-0.96559-0.96679
   0  -8  -115053.70  553.89   1 0.07828 0.44422-0.69812-0.54815 0.71168 0.70865
   0   8   231222.05  914.15   1 0.02081-0.38001 0.85348 0.75999-0.52069-0.52724
   0   8  -233121.53  777.76   1-0.06093-0.32461 0.22041-0.09412-0.97350-0.94115
   0  -8   230927.46  724.80   1-0.09611 0.16727-0.28585 0.02893-0.95344-0.98548
   0  -8  -231499.18  887.85   1-0.10097 0.29979-0.39813-0.30424-0.91175-0.90418
   0  -8   230289.96  818.11   1-0.65068-0.38750 0.20102 0.51601-0.73225-0.76391
   0  -8  -229046.25  669.36   1-0.11647 0.28417-0.32320-0.22903-0.93913-0.93101
   0  -8  -229949.25  774.64   1-0.22089 0.17953-0.04551 0.04911 0.97423 0.98252
   0  -8   232434.94  757.13   1-0.18529 0.07738-0.01798 0.29731 0.98251 0.95163
   0  -8  -232692.00 1033.77   1-0.13490 0.26594-0.23655-0.14289-0.96220-0.95333
   0  -8  -231994.63 1041.88   1-0.10285 0.29784-0.38914-0.29564-0.91541-0.90768
   0   8   231440.84  866.89   1 0.06503-0.33516 0.56973 0.47515 0.81924 0.81356
   0   8  -358673.28 1089.77   1-0.06398-0.29336 0.18606-0.18372-0.98045-0.93818
   0  -8   359616.53 1136.61   1-0.09705 0.13198-0.30557 0.06443-0.94720-0.98915
   0  -8   358521.83 1405.04   1-0.29242-0.06367-0.18079 0.18948-0.93904-0.97981
   0  -8  -363160.65 1041.13   1-0.15450 0.28053-0.29422-0.25527-0.94316-0.92527
   0  -8  -362238.30 1061.99   1-0.25330 0.18156-0.07081-0.03135 0.96479 0.98287
   0  -8   362789.69 1181.15   1-0.19830 0.02987-0.02801 0.34249 0.97974 0.93904
   0  -8  -356127.85 1529.42   1-0.15591 0.27923-0.25126-0.21286-0.95527-0.93633
   0   8  -4 4841.70  291.83   1-0.06539-0.26047 0.16975-0.25527-0.98331-0.93112
   0   8  -4 2796.74  397.57   1-0.78882-0.98259 0.61169 0.18561-0.05984-0.00714
   0  -8  -4 4955.25  267.09   1-0.18937 0.28003-0.26680-0.28306-0.94496-0.91730
   0  -8   4 5034.50  298.35   1-0.13200 0.06239-0.31149 0.11399-0.94103-0.99151
   0  -8  -4 4706.93  272.31   1-0.29566 0.17366-0.10422-0.11993 0.94959 0.97747
   0  -8   4 4595.75  307.67   1-0.21949-0.02575-0.04442 0.38125 0.97460 0.92411
   0  -8  -4 4382.00  365.91   1-0.18740 0.28205-0.27312-0.28999-0.94354-0.91452
   0   8  -542720.30  799.24   1-0.06573-0.22651 0.16581-0.31446-0.98396-0.92184
   0   8  -538520.89 1078.68   1-0.79828-0.95797 0.49075 0.00952-0.34913-0.28670
   0  -8  -543534.61  918.15   1-0.22224 0.28154-0.24020-0.31167-0.94493-0.90751
   0  -8   540554.57  994.47   1-0.05324 0.10677-0.36932 0.11137-0.92777-0.98802
   0  -8  -542681.76  790.23   1-0.34798 0.15580-0.14607-0.21684 0.92605 0.96369
   0  -8   542824.68  994.54   1-0.24856-0.08928-0.06710 0.41375 0.96628 0.90599
   0  -8  -536566.77 1073.88   1-0.23005 0.27371-0.30235-0.37448-0.92501-0.88591
   0   8  -6 2588.83  218.52   1-0.06531-0.19179 0.17071-0.36480-0.98315-0.91111
   0   8  -6 2380.54  253.77   1-0.76922-0.89474 0.40147-0.13458-0.49710-0.42580
   0  -8  -6 2394.21  187.66   1-0.25374 0.28443-0.21398-0.34068-0.94330-0.89612
   0  -8  -6 2575.76  207.27   1-0.41050 0.12774-0.19701-0.32294 0.89032 0.93775
   0  -8   6 2468.18  220.64   1-0.28529-0.16045-0.09600 0.44002 0.95361 0.88353
   0  -8  -6 2208.18  294.90   1-0.28470 0.25336-0.33915-0.46655-0.89661-0.84742
   0   8   6 2142.04  327.82   1 0.07162-0.46700-0.63341-0.50782 0.77048 0.72389
   0   8  -7 1868.63  186.90   1-0.06432-0.15650 0.18218-0.40858-0.98115-0.89920
   0   8  -7 1835.11  204.87   1-0.74114-0.83226 0.34325-0.24805-0.57695-0.49578
   0  -8  -7 1910.06  175.42   1-0.28420 0.28835-0.18794-0.36986-0.94016-0.88320
   0  -8  -7 1839.91  177.88   1-0.48295 0.08975-0.25750-0.43862 0.83692 0.89417
   0  -8   7 2285.90  221.51   1-0.32951-0.23922-0.13122 0.45997 0.93498 0.85509
   0   8   7 1257.46  374.16   1 0.06279-0.51038-0.54815-0.36741 0.83402 0.77750
   0   8  -831407.51  736.50   1-0.06287-0.12076 0.19866-0.44734-0.97804-0.88617
   0  -8  -832050.61  766.15   1-0.31386 0.29308-0.16189-0.39903-0.93556-0.86883
   0  -8  -830700.79  664.77   1-0.56491 0.04220-0.32832-0.56467 0.75701 0.82423
   0  -8   833481.66  791.30   1-0.38105-0.32522-0.17288 0.47347 0.90824 0.81856
   0   8   824019.26 1027.86   1 0.05947-0.54824-0.51631-0.28043 0.85433 0.78789
   0   8  -910549.69  429.44   1-0.06105-0.08464 0.21910-0.48215-0.97378-0.87198
   0   8  -9 8838.00  576.53   1-0.70990-0.73236 0.28893-0.41282-0.64230-0.54149
   0  -8  -912051.26  486.46   1-0.34282 0.29854-0.13578-0.42815-0.92953-0.85297
   0  -8   910475.18  432.06   1-0.43983-0.41841-0.22129 0.48025 0.87038 0.77090
   0   8   9 8098.68  642.24   1 0.05874-0.58351-0.50933-0.21831 0.85856 0.78220
   0   8 -10 9555.58  448.30   1-0.05890-0.04821 0.24277-0.51377-0.96829-0.85657
   0   8 -10 8998.30  450.91   1-0.70452-0.69259 0.28027-0.47673-0.65198-0.54133
   0  -8 -10 9897.69  411.31   1-0.37126 0.30449-0.10944-0.45703-0.92205-0.83570
   0   8 -1138107.54  777.27   1-0.05645-0.01146 0.26906-0.54272-0.96146-0.83982
   0  -8 -1142447.56  842.48   1-0.39920 0.31093-0.08286-0.48567-0.91310-0.81696
   0   8 -12 1576.38  186.42   1-0.05372 0.02556 0.29759-0.56945-0.95317-0.82162
   0  -8 -12 1429.30  219.95   1-0.42673 0.31794-0.05593-0.51400-0.90264-0.79668
   0   9   0   41.63   49.15   1-0.04014-0.41398 0.42928 0.19976-0.90227-0.88809
   0  -9   0   70.16   58.79   1-0.09757 0.27601-0.31685-0.08697-0.94344-0.95721
   0  -9   0   43.64   58.07   1-0.66464-0.29140 0.67767 0.90829 0.31463 0.30015
   0  -9   0   11.11   44.53   1-0.06927 0.30411-0.35787-0.12768-0.93119-0.94404
   0  -9   0   57.43   78.21   1-0.20440 0.16857-0.03272 0.19787 0.97834 0.96562
   0  -9   0  -23.32   50.99   1 0.05194 0.42471-0.44427-0.21335 0.89438 0.87982
   0   9   117981.43  600.28   1-0.02055-0.42869 0.59303 0.41882-0.80491-0.80050
   0   9  -119107.03  591.01   1-0.05087-0.39041 0.32663 0.04185-0.94378-0.91968
   0  -9   117451.85  578.35   1-0.09718 0.24206-0.30830-0.02319-0.94631-0.96998
   0  -9  -117788.45  626.36   1-0.09915 0.30877-0.35277-0.17811-0.93043-0.93430
   0  -9   119465.93  559.82   1-0.79732-0.45833 0.59121 0.87675-0.12139-0.14572
   0  -9  -118094.62  561.99   1-0.10668 0.30108-0.33051-0.15554-0.93775-0.94082
   0  -9  -118123.03  564.05   1-0.21640 0.19101-0.04202 0.13340 0.97539 0.97247
   0  -9   120330.36  637.90   1-0.20045 0.13806-0.02967 0.25610 0.97925 0.95673
   0   9   119174.09  542.03   1 0.05396-0.35312 0.46350 0.28816 0.88445 0.89009
   0  -9  -119045.20  707.68   1 0.08175 0.48911-0.73209-0.55648 0.67627 0.67162
   0   9   214120.05  867.29   1 0.01778-0.42457 0.83823 0.71924-0.54501-0.54992
   0   9  -217102.36  534.28   1-0.05696-0.36220 0.26362-0.07640-0.96294-0.92896
   0  -9   215396.48  530.20   1-0.09745 0.20743-0.31424 0.02608-0.94432-0.97790
   0  -9  -216050.18  563.90   1-0.10288 0.33939-0.45304-0.33360-0.88553-0.87949
   0  -9   215932.47  733.92   1-0.65524-0.35056 0.20730 0.54785-0.72641-0.75958
   0  -9  -216398.12  556.90   1-0.14046 0.30167-0.30503-0.18528-0.94192-0.93523
   0  -9  -216959.41  573.37   1-0.23670 0.20516-0.05783 0.06242 0.96985 0.97673
   0  -9   216908.58  554.11   1-0.20432 0.09975-0.03266 0.30829 0.97835 0.94604
   0   9   217865.32  546.37   1 0.06775-0.37384 0.59593 0.47574 0.80017 0.79618
   0   9  -3 6506.76  350.54   1-0.06038-0.33130 0.22649-0.16879-0.97213-0.92830
   0  -9   3 5879.70  433.86   1-0.21399 0.05627-0.24694 0.14890-0.94510-0.98724
   0  -9  -3 6541.55  317.02   1-0.17233 0.30418-0.28030-0.21577-0.94431-0.92785
   0  -9  -3 5736.03  308.32   1-0.26554 0.21077-0.08042-0.01534 0.96073 0.97741
   0  -9   3 5569.20  317.18   1-0.21574 0.05387-0.04151 0.35461 0.97556 0.93345
   0   9  -417568.12  579.17   1-0.06216-0.29877 0.20675-0.24378-0.97641-0.92265
   0   9  -417482.57  808.43   1-0.67606-0.91104 0.67668 0.22477 0.29161 0.34566
   0  -9  -419447.10  541.57   1-0.20302 0.30787-0.25585-0.24653-0.94515-0.91893
   0  -9   418739.88  629.61   1-0.05416 0.18172-0.36867 0.08239-0.92798-0.97989
   0  -9  -418009.86  566.43   1-0.30308 0.20768-0.11012-0.10021 0.94657 0.97305
   0  -9   418925.52  690.92   1-0.23449 0.00068-0.05610 0.39520 0.97049 0.91859
   0  -9   416482.43  454.96   1-0.12014 0.11628-0.33616 0.11438-0.93410-0.98660
   0   9  -518854.08  610.94   1-0.06281-0.26513 0.19937-0.30641-0.97790-0.91422
   0   9  -513312.77  783.55   1-0.79442-0.99515 0.59947 0.09247-0.09754-0.03329
   0  -9  -519490.10  642.47   1-0.23291 0.31236-0.23140-0.27730-0.94456-0.90858
   0  -9  -519612.71  631.04   1-0.34934 0.19586-0.14717-0.19231 0.92536 0.96158
   0  -9   517828.04  650.08   1-0.26034-0.05962-0.07634 0.43014 0.96249 0.90078
   0   9  -6 3781.58  257.55   1-0.06266-0.23068 0.20102-0.36000-0.97758-0.90398
   0   9  -6 2923.03  352.69   1-0.80106-0.96779 0.50621-0.05592-0.31943-0.24546
   0  -9  -6 4121.39  282.83   1-0.26215 0.31751-0.20686-0.30799-0.94259-0.89684
   0  -9  -6 4093.61  259.15   1-0.40457 0.17511-0.19213-0.29243 0.89409 0.94011
   0  -9   6 3822.63  251.05   1-0.29311-0.12684-0.10220 0.45945 0.95059 0.87909
   0   9  -744303.02 1186.72   1-0.06191-0.19563 0.20948-0.40678-0.97584-0.89232
   0   9  -736311.26 1114.58   1-0.78310-0.91551 0.43697-0.18003-0.44250-0.35976
   0  -9  -744784.25 1168.83   1-0.29088 0.32316-0.18213-0.33848-0.93926-0.88373
   0  -9  -744380.90 1151.70   1-0.46856 0.14557-0.24535-0.40084 0.84867 0.90450
   0  -9   749555.17 1300.83   1-0.33267-0.20094-0.13375 0.48307 0.93351 0.85220
   0   9  -888268.36 1364.86   1-0.06068-0.16010 0.22322-0.44829-0.97287-0.87943
   0  -9  -890531.03 1175.48   1-0.31918 0.32925-0.15715-0.36872-0.93457-0.86927
   0  -9  -885551.27 1102.66   1-0.54117 0.10739-0.30750-0.51823 0.78266 0.84846
   0  -9   891716.52 1390.03   1-0.37884-0.28157-0.17108 0.50091 0.90951 0.81841
   0   9  -9 3544.65  293.64   1-0.05905-0.12419 0.24117-0.48561-0.96868-0.86530
   0   9  -9 2379.85  279.02   1-0.75069-0.81449 0.36170-0.36567-0.55283-0.45042
   0  -9  -9 3205.83  226.50   1-0.34706 0.33579-0.13190-0.39869-0.92852-0.85339
   0  -9   9 3073.55  222.01   1-0.43160-0.36877-0.21445 0.51271 0.87620 0.77531
   0   9 -1035042.70  828.03   1-0.05706-0.08791 0.26254-0.51950-0.96323-0.84993
   0  -9 -1034472.12  776.34   1-0.37461 0.34262-0.10629-0.42830-0.92106-0.83615
   0   9 -11 1932.69  205.13   1-0.05477-0.05131 0.28675-0.55054-0.95643-0.83322
   0  -9 -11 1875.57  225.41   1-0.40183 0.34979-0.08032-0.45755-0.91218-0.81748
   0   9 -1212178.08  545.56   1-0.05219-0.01443 0.31336-0.57921-0.94819-0.81504
   0  -9 -1211431.55  544.43   1-0.42875 0.35739-0.05392-0.48640-0.90180-0.79729
   0  10   033326.03  845.31   1-0.03562-0.45097 0.46962 0.21459-0.88214-0.86635
   0 -10   025552.00  702.14   1-0.09943 0.31566-0.35944-0.10402-0.92785-0.94315
   0 -10   029184.50  741.15   1-0.69348-0.27877 0.67414 0.93037 0.25417 0.23808
   0 -10   027553.27  778.33   1-0.12229 0.29258-0.31883-0.06306-0.93988-0.95415
   0 -10   030031.33  825.29   1-0.22388 0.19052-0.04784 0.20838 0.97343 0.95931
   0  10   029118.97  680.53   1 0.05144-0.36251 0.43945 0.18334 0.89678 0.91376
   0 -10   028626.88  789.01   1 0.05802 0.47220-0.50239-0.24582 0.86268 0.84651
   0  10   122967.90  658.11   1-0.01696-0.46659 0.62014 0.42050-0.78430-0.77811
   0  10  -121840.55  670.06   1-0.04642-0.42749 0.37047 0.06020-0.92768-0.90201
   0 -10   119693.93  604.50   1-0.09879 0.28195-0.34433-0.03368-0.93363-0.95883
   0 -10  -123546.60  786.18   1-0.10112 0.34831-0.40218-0.20197-0.90995-0.91535
   0 -10   120852.57  557.42   1-0.80095-0.42046 0.57689 0.88801-0.16021-0.18613
   0 -10  -122455.59  622.10   1-0.14384 0.30541-0.30244-0.10190-0.94225-0.94675
   0 -10   119403.10  606.99   1-0.10804 0.27246-0.32950-0.01852-0.93795-0.96198
   0 -10  -123229.41  666.92   1-0.23485 0.21400-0.05638 0.14466 0.97039 0.96605
   0 -10   121984.09  663.12   1-0.22015 0.15981-0.04493 0.26646 0.97443 0.95050
   0  10   122455.17  617.24   1 0.05808-0.39039 0.50293 0.30198 0.86236 0.86971
   0 -10  -122536.79  770.56   1 0.08592 0.53471-0.77317-0.57192 0.62834 0.62208
   0  10   2 3328.11  247.58   1 0.10451-0.37893 0.51004 0.36450 0.85377 0.85061
   0  10   2 3481.71  299.66   1 0.01745-0.46643 0.83650 0.69201-0.54767-0.55095
   0  10  -2 3320.59  249.44   1-0.05284-0.39961 0.30668-0.05884-0.95034-0.91478
   0 -10   2 3239.11  347.07   1-0.63887-0.29269 0.18503 0.55115-0.74672-0.78138
   0 -10  -2 3566.25  260.78   1-0.16819 0.31543-0.28356-0.13823-0.94408-0.93882
   0 -10   2 2857.13  271.22   1-0.12553 0.22060-0.31639 0.04981-0.94028-0.97408
   0 -10  -2 3251.95  230.89   1-0.25324 0.23006-0.07076 0.07511 0.96480 0.97027
   0 -10   2 3569.13  278.24   1-0.22344 0.12206-0.04750 0.31907 0.97355 0.93983
   0  10   2 3210.44  276.48   1 0.07086-0.41213 0.62598 0.48018 0.77660 0.77431
   0  10  -316402.82  555.34   1-0.05665-0.36912 0.26699-0.15379-0.96203-0.91656
   0 -10  -316149.29  507.04   1-0.19384 0.32416-0.26323-0.17312-0.94505-0.93002
   0 -10  -315004.88  485.30   1-0.27924 0.23851-0.09122-0.00051 0.95587 0.97113
   0 -10   316207.94  562.14   1-0.23357 0.07748-0.05538 0.36636 0.97075 0.92723
   0 -10   313672.87  412.32   1-0.11960 0.19263-0.33784 0.08295-0.93357-0.97775
   0  10  -416405.16  604.72   1-0.05876-0.33694 0.24425-0.23178-0.96792-0.91254
   0 -10  -416525.28  574.41   1-0.22014 0.33224-0.24192-0.20703-0.94499-0.92019
   0 -10  -416479.46  599.92   1-0.31298 0.23922-0.11800-0.08247 0.94239 0.96745
   0 -10   416744.22  663.36   1-0.25035 0.02626-0.06849 0.40843 0.96572 0.91241
   0  10  -5 9842.39  429.65   1-0.05972-0.30357 0.23385-0.29743-0.97043-0.90519
   0  10  -5 5251.10  577.50   1-0.70069-0.94257 0.67267 0.13981 0.23777 0.30332
   0 -10  -5 9210.62  372.19   1-0.24680 0.33997-0.21982-0.24015-0.94380-0.90925
   0 -10  -5 9840.24  415.83   1-0.35446 0.23218-0.15130-0.17081 0.92274 0.95755
   0 -10   5 8769.19  400.57   1-0.27359-0.03142-0.08676 0.44534 0.95792 0.89481
   0  10  -646562.93 1241.03   1-0.05984-0.26939 0.23249-0.35403-0.97075-0.89559
   0 -10  -647614.50 1246.88   1-0.27355 0.34760-0.19712-0.27267-0.94143-0.89711
   0 -10  -647396.74 1217.31   1-0.40391 0.21720-0.19159-0.26627 0.89450 0.93910
   0 -10   646046.75 1240.99   1-0.30314-0.09542-0.11016 0.47711 0.94655 0.87364
   0  10  -715636.10  558.15   1-0.05933-0.23461 0.23810-0.40369-0.96942-0.88430
   0  10  -710256.43  588.62   1-0.80379-0.97755 0.53265-0.11039-0.26493-0.17942
   0 -10  -715519.59  525.52   1-0.30033 0.35520-0.17386-0.30462-0.93785-0.88376
   0 -10  -714394.24  547.28   1-0.46121 0.19437-0.23916-0.36902 0.85444 0.90886
   0 -10   714609.82  548.99   1-0.33888-0.16571-0.13874 0.50371 0.93054 0.84782
   0  10  -8   -5.93   88.58   1-0.05830-0.19928 0.24925-0.44779-0.96668-0.87164
   0  10  -8   -9.52   58.20   1-0.79517-0.93446 0.47703-0.22135-0.37434-0.27889
   0 -10  -8   80.20  117.29   1-0.32707 0.36284-0.15007-0.33605-0.93300-0.86914
   0 -10   8   10.16   88.96   1-0.38067-0.24197-0.17257 0.52504 0.90846 0.81594
   0  10  -9 7091.41  356.93   1-0.05685-0.16353 0.26480-0.48749-0.96262-0.85767
   0 -10  -9 7825.29  399.66   1-0.35369 0.37064-0.12580-0.36701-0.92686-0.85318
   0 -10   9 7087.91  386.97   1-0.42848-0.32422-0.21187 0.54093 0.87835 0.77605
   0  10 -1014172.34  524.63   1-0.05504-0.12742 0.28396-0.52358-0.95725-0.84238
   0 -10 -1014861.08  507.16   1-0.38019 0.37853-0.10103-0.39746-0.91937-0.83590
   0  10 -11  125.73  116.76   1-0.05289-0.09098 0.30613-0.55666-0.95051-0.82573
   0 -10 -11  219.58  129.25   1-0.40653 0.38658-0.07576-0.42741-0.91048-0.81723
   0 -11   0   -2.49   96.48   1-0.10112 0.35548-0.40217-0.12121-0.90995-0.92679
   0 -11   0   36.17   49.84   1-0.72037-0.26419 0.66717 0.94903 0.18956 0.17185
   0 -11   0    7.46   47.15   1-0.17724 0.27912-0.27644 0.00489-0.94454-0.96024
   0 -11   0    9.59   76.61   1-0.24335 0.21249-0.06302 0.21882 0.96788 0.95234
   0 -11   0   14.33   45.98   1-0.09649 0.36014-0.40804-0.12752-0.90784-0.92414
   0  11   0    9.84   67.39   1 0.05546-0.39988 0.47792 0.19620 0.87664 0.89531
   0 -11   0  271.66  101.00   1 0.06411 0.51971-0.56089-0.27865 0.82540 0.80761
   0  11   128456.68  825.79   1-0.01283-0.50400 0.65017 0.42504-0.75967-0.75187
   0  11  -130327.62  865.16   1-0.04183-0.46444 0.41380 0.07802-0.90940-0.88215
   0 -11   126276.94  805.23   1-0.10032 0.32193-0.38139-0.04520-0.91894-0.94568
   0 -11  -127319.19  862.90   1-0.10280 0.38814-0.45048-0.22473-0.88684-0.89377
   0 -11   124158.91  843.92   1-0.80365-0.38167 0.55598 0.89267-0.21218-0.23971
   0 -11   126752.53  815.96   1-0.19166 0.23032-0.26497 0.07158-0.94501-0.97047
   0 -11  -127328.04  797.30   1-0.18401 0.30673-0.27107-0.04495-0.94480-0.95073
   0 -11   132008.40  884.39   1-0.23979 0.18161-0.06024 0.27678 0.96895 0.94361
   0 -11  -130005.01  821.01   1-0.25347 0.23682-0.07094 0.15572 0.96473 0.95898
   0 -11   125353.40  672.66   1-0.10981 0.31252-0.36811-0.03232-0.92327-0.94935
   0  11  -127353.29  761.40   1 0.05180-0.36902 0.44296 0.10609 0.89503 0.92334
   0  11   126197.02  791.18   1 0.06216-0.42771 0.54208 0.31552 0.83802 0.84706
   0 -11  -127742.59 1033.78   1 0.09062 0.58086-0.81982-0.59293 0.56540 0.55769
   0  11   2 4807.46  353.47   1 0.10560-0.41930 0.55935 0.38822 0.82217 0.82064
   0  11   2 4610.33  323.10   1 0.01888-0.50653 0.84380 0.67381-0.53631-0.53795
   0  11  -2 5400.24  322.54   1-0.04858-0.43689 0.34941-0.04161-0.93570-0.89854
   0 -11   2 4804.01  409.53   1-0.32386 0.06375-0.15295 0.23887-0.93365-0.96895
   0 -11  -2 5017.82  310.50   1-0.19920 0.32591-0.25892-0.08802-0.94513-0.94129
   0 -11  -2 5349.85  284.11   1-0.27030 0.25444-0.08417 0.08732 0.95908 0.96313
   0 -11   2 5223.53  312.62   1-0.24262 0.14432-0.06245 0.32975 0.96810 0.93297
   0 -11   2 4105.37  284.77   1-0.11105 0.27699-0.36433 0.02670-0.92462-0.96050
   0  11   2 5010.70  308.01   1 0.07419-0.45019 0.65827 0.48685 0.74911 0.74852
   0  11  -3249963.8 2587.17   1-0.05274-0.40675 0.30773-0.13855-0.95000-0.90297
   0 -11  -3238380.4 2285.21   1-0.21861 0.34088-0.24317-0.12749-0.94502-0.93142
   0 -11  -3243222.0 2146.84   1-0.29399 0.26520-0.10290 0.01342 0.95025 0.96409
   0 -11   3250975.5 2426.68   1-0.25169 0.10081-0.06955 0.37782 0.96530 0.92037
   0  11  -4 8424.05  388.31   1-0.05519-0.37491 0.28233-0.21920-0.95772-0.90077
   0 -11  -4 7837.54  358.86   1-0.24043 0.35343-0.22514-0.16467-0.94419-0.92084
   0 -11  -4 8986.34  420.22   1-0.32457 0.26906-0.12726-0.06597 0.93725 0.96086
   0 -11   4 8050.81  369.06   1-0.26683 0.05121-0.08144 0.42110 0.96029 0.90556
   0  11  -529504.59  905.43   1-0.05645-0.34187 0.26903-0.28775-0.96147-0.89460
   0 -11  -529099.57  863.18   1-0.26363 0.36463-0.20561-0.20036-0.94245-0.90934
   0 -11  -527111.48  842.79   1-0.36226 0.26582-0.15762-0.15149 0.91864 0.95204
   0 -11   527832.78  902.36   1-0.28791-0.00430-0.09808 0.45964 0.95261 0.88809
   0  11  -612713.38  508.53   1-0.05684-0.30796 0.26492-0.34712-0.96259-0.88581
   0 -11  -613016.22  498.06   1-0.28771 0.37492-0.18489-0.23486-0.93969-0.89681
   0 -11  -612553.85  455.36   1-0.40705 0.25550-0.19417-0.24321 0.89252 0.93571
   0 -11   613121.08  562.10   1-0.31480-0.06574-0.11945 0.49347 0.94161 0.86727
   0  11  -736180.69  819.62   1-0.05656-0.27337 0.26792-0.39937-0.96177-0.87508
   0 -11  -734979.32  799.12   1-0.31236 0.38465-0.16323-0.26841-0.93583-0.88317
   0 -11  -730256.33  709.11   1-0.45890 0.23812-0.23722-0.34145 0.85623 0.90923
   0 -11   735403.24  778.47   1-0.34736-0.13276-0.14557 0.52251 0.92636 0.84222
   0  11  -826175.75  796.09   1-0.05574-0.23826 0.27659-0.44595-0.95936-0.86275
   0 -11  -825997.83  768.87   1-0.33737 0.39406-0.14075-0.30116-0.93078-0.86833
   0 -11  -823286.26  846.91   1-0.51755 0.21392-0.28704-0.44644 0.80606 0.86886
   0 -11   827055.46  786.40   1-0.38551-0.20537-0.17652 0.54673 0.90565 0.81172
   0  11  -912131.44  539.99   1-0.05447-0.20269 0.28983-0.48796-0.95552-0.84900
   0 -11  -911915.16  456.63   1-0.36257 0.40325-0.11757-0.33320-0.92450-0.85227
   0 -11   912545.08  478.34   1-0.42920-0.28351-0.21246 0.56596 0.87785 0.77414
   0  11 -10  455.44  162.10   1-0.05282-0.16674 0.30685-0.52620-0.95028-0.83385
   0 -11 -10  350.54  132.62   1-0.38788 0.41233-0.09372-0.36457-0.91693-0.83490
   0  11 -11 5538.23  388.17   1-0.05083-0.13045 0.32701-0.56130-0.94365-0.81726
   0 -11 -11 6068.53  367.99   1-0.41321 0.42138-0.06925-0.39532-0.90799-0.81617
   0  12   088233.06 1332.82   1-0.02605-0.52449 0.54991 0.24394-0.83481-0.81571
   0 -12   074787.27 1318.22   1-0.10263 0.39548-0.44505-0.13854-0.88960-0.90796
   0 -12   078532.50 1238.39   1-0.74477-0.24709 0.65630 0.96370 0.12069 0.10109
   0 -12   076441.37 1327.18   1-0.23464 0.26319-0.22996 0.07696-0.94448-0.96166
   0 -12   087116.89 1293.04   1-0.26280 0.23448-0.07827 0.22920 0.96166 0.94471
   0 -12   075200.88 1150.73   1-0.05953 0.43861-0.51183-0.20580-0.85701-0.87479
   0  12   077900.81 1203.07   1 0.05947-0.43727 0.51629 0.20896 0.85434 0.87471
   0 -12   086664.20 1469.81   1 0.07022 0.56724-0.61982-0.31192 0.78159 0.76219
   0  12   140493.02  857.08   1 0.10428-0.42761 0.50113 0.24923 0.85906 0.86892
   0  12   139629.59 1187.77   1-0.00830-0.54100 0.68182 0.43120-0.73146-0.72206
   0  12  -149040.68 1107.73   1-0.03711-0.50122 0.45653 0.09523-0.88893-0.86005
   0 -12  -140265.06  933.50   1-0.64094-0.10873 0.67833 0.93048 0.35923 0.34981
   0 -12   140135.76  862.06   1-0.80349-0.33990 0.52753 0.88966-0.27588-0.30490
   0 -12   140657.30 1088.45   1-0.27704 0.18641-0.19412 0.16802-0.94104-0.96799
   0 -12  -146195.45  954.13   1-0.22713 0.30508-0.23617 0.01552-0.94479-0.95219
   0 -12   141958.40  856.76   1-0.25939 0.20345-0.07558 0.28706 0.96280 0.93605
   0 -12  -145169.36  879.44   1-0.27221 0.25952-0.08568 0.16662 0.95841 0.95125
   0 -12   142723.79  824.85   1-0.08673 0.37711-0.43643-0.07514-0.89554-0.92311
   0  12   141935.57  879.49   1 0.06620-0.46506 0.58099 0.32882 0.81120 0.82194
   0 -12  -138477.91 1640.17   1 0.09566 0.62726-0.87052-0.61783 0.48273 0.47414
   0 -12   146860.74 1096.37   1 0.05536 0.51783-0.47694-0.11391 0.87718 0.84786
   0  12   223664.58  706.78   1 0.10633-0.46002 0.60793 0.41121 0.78683 0.78694
   0  12   225258.02  722.34   1 0.02158-0.54535 0.85724 0.66175-0.51445-0.51446
   0  12  -229224.79  758.45   1-0.04416-0.47401 0.39198-0.02454-0.91891-0.88017
   0 -12  -225532.15  723.56   1-0.23329 0.33330-0.23108-0.03459-0.94454-0.94218
   0 -12  -226551.10  700.10   1-0.28775 0.27843-0.09795 0.09917 0.95268 0.95532
   0 -12   225040.41  770.79   1-0.26184 0.16655-0.07751 0.34031 0.96199 0.92544
   0 -12   224158.40  618.36   1-0.09386 0.33568-0.41576 0.00077-0.90461-0.94197
   0  12   3 8676.95 1117.32   1 0.09907-0.50194 0.89814 0.75677 0.42838 0.41872
   0  12  -313080.23  520.97   1-0.04867-0.44422 0.34850-0.12328-0.93604-0.88739
   0 -12  -312157.25  542.71   1-0.24640 0.35457-0.22016-0.07889-0.94382-0.93169
   0 -12  -311622.70  447.74   1-0.30952 0.29111-0.11524 0.02670 0.94388 0.95631
   0 -12   312322.78  516.90   1-0.27002 0.12392-0.08394 0.38905 0.95918 0.91284
   0 -12   311158.19  452.71   1-0.09394 0.30131-0.41553 0.05626-0.90471-0.95186
   0  12  -418536.85  711.04   1-0.05146-0.41271 0.32076-0.20628-0.94576-0.88719
   0 -12  -420539.69  689.09   1-0.26352 0.37183-0.20569-0.11964-0.94246-0.92055
   0 -12  -419639.04  685.48   1-0.33755 0.29751-0.13767-0.05076 0.93118 0.95336
   0 -12   419046.71  655.55   1-0.28379 0.07570-0.09482 0.43335 0.95418 0.89804
   0  12  -519292.32  668.43   1-0.05301-0.37996 0.30496-0.27733-0.95088-0.88244
   0 -12  -519789.71  578.69   1-0.28315 0.38659-0.18885-0.15802-0.94029-0.90861
   0 -12  -518805.62  549.63   1-0.37205 0.29747-0.16555-0.13380 0.91332 0.94530
   0 -12   519756.93  607.45   1-0.30305 0.02199-0.11009 0.47325 0.94659 0.88065
   0  12  -6 4413.49  305.59   1-0.05366-0.34631 0.29827-0.33927-0.95297-0.87461
   0 -12  -6 4592.19  295.85   1-0.30442 0.39970-0.17026-0.19465-0.93719-0.89573
   0 -12  -6 4262.05  289.99   1-0.41297 0.29101-0.19904-0.22246 0.88872 0.93049
   0 -12   6 4237.65  362.08   1-0.32768-0.03718-0.12975 0.50880 0.93583 0.86007
   0  12  -779367.21 1233.83   1-0.05361-0.31196 0.29879-0.39400-0.95281-0.86454
   0 -12  -775101.68 1621.25   1-0.32680 0.41170-0.15031-0.22992-0.93306-0.88183
   0 -12  -772005.57 1581.97   1-0.46032 0.27813-0.23842-0.31702 0.85513 0.90671
   0 -12   785410.60 1230.97   1-0.35757-0.10153-0.15382 0.53990 0.92112 0.83557
   0  12  -840698.85  975.77   1-0.05299-0.27705 0.30509-0.44295-0.95084-0.85266
   0 -12  -842129.65  971.44   1-0.34994 0.42298-0.12926-0.26409-0.92781-0.86680
   0 -12  -837869.71  789.14   1-0.51389 0.25902-0.28390-0.41766 0.80951 0.87089
   0 -12   843190.55  962.77   1-0.39266-0.17107-0.18236 0.56653 0.90142 0.80608
   0  12  -917537.84  575.41   1-0.05192-0.24167 0.31609-0.48722-0.94730-0.83917
   0 -12  -918835.02  551.46   1-0.37358 0.43372-0.10727-0.29732-0.92137-0.85057
   0 -12   916180.72  519.18   1-0.43285-0.24572-0.21549 0.58857 0.87532 0.77019
   0 -12 -10   77.82  108.76   1-0.39757 0.44412-0.08443-0.32971-0.91367-0.83309
   0  13   0   -4.97   74.01   1 0.10399-0.43491 0.49030 0.15762 0.86532 0.88656
   0  13   0   81.05   85.17   1-0.02095-0.56093 0.58996 0.25850-0.80715-0.78646
   0 -13   0   -2.11   60.68   1-0.29457 0.24474-0.17891 0.15359-0.93873-0.95734
   0 -13   0   -6.66   81.71   1-0.28223 0.25649-0.09359 0.23950 0.95476 0.93640
   0  13   1  119.60   77.63   1 0.10537-0.46798 0.54796 0.27047 0.82983 0.84133
   0  13   1   99.01   67.54   1-0.00347-0.57768 0.71409 0.43796-0.70003-0.68880
   0  13  -1  139.64   98.50   1-0.03223-0.53791 0.49879 0.11206-0.86612-0.83552
   0 -13  -1   78.16   63.46   1-0.67624-0.10255 0.67666 0.95444 0.29124 0.28021
   0 -13   1   79.19   67.81   1-0.36763 0.13728-0.11284 0.27489-0.92309-0.95162
   0 -13  -1   57.02   74.12   1-0.27288 0.30082-0.19770 0.07958-0.94151-0.95035
   0 -13  -1   51.20   89.62   1-0.29104 0.28213-0.10056 0.17736 0.95140 0.94283
   0  13   1   82.28   71.01   1 0.07021-0.50245 0.61969 0.34191 0.78169 0.79412
   0 -13  -1  122.11   75.21   1 0.10083 0.67391-0.92387-0.64554 0.36917 0.35932
   0 -13   1  100.71   92.77   1 0.06139 0.56528-0.53468-0.14599 0.84281 0.81187
   0  13   2   64.30   72.94   1 0.02516-0.58323 0.87425 0.65310-0.48481-0.48299
   0  13  -2   82.97   79.46   1-0.03958-0.51097 0.43435-0.00768-0.89987-0.85956
   0 -13  -2   49.13   82.58   1-0.27006 0.33802-0.20011 0.02194-0.94181-0.94088
   0 -13  -2   81.02   70.18   1-0.30548 0.30214-0.11202 0.11072 0.94558 0.94680
   0 -13   2   -4.91   73.04   1-0.28107 0.18876-0.09267 0.35077 0.95520 0.91723
   0 -13   2   96.90   96.84   1 0.05198 0.52132-0.44459-0.00076 0.89422 0.85336
   0  13  -330633.62  887.58   1-0.04443-0.48152 0.38940-0.10788-0.91999-0.86976
   0 -13  -330738.80  783.18   1-0.27684 0.36561-0.19429-0.02744-0.94106-0.93035
   0 -13  -330396.88  788.11   1-0.32558 0.31646-0.12807 0.03964 0.93680 0.94777
   0 -13   331179.45  795.99   1-0.28850 0.14688-0.09854 0.40007 0.95239 0.90463
   0  13  -435496.62  868.55   1-0.04754-0.45033 0.35958-0.19296-0.93190-0.87175
   0 -13  -433245.88  917.16   1-0.28924 0.38761-0.18357-0.07194-0.93949-0.91901
   0 -13  -437670.81  861.33   1-0.35152 0.32497-0.14893-0.03638 0.92425 0.94502
   0 -13   435202.73  832.74   1-0.30112 0.09981-0.10855 0.44524 0.94738 0.88982
   0  13  -5  179.22  124.61   1-0.04939-0.41788 0.34140-0.26639-0.93861-0.86856
   0 -13  -5  429.43  113.69   1-0.30518 0.40604-0.16958-0.11318-0.93706-0.90681
   0 -13  -5  575.69  104.25   1-0.38333 0.32762-0.17474-0.11736 0.90692 0.93748
   0  13  -6 3931.43  271.49   1-0.05030-0.38449 0.33233-0.33072-0.94181-0.86185
   0 -13  -6 4246.21  292.96   1-0.32351 0.42209-0.15327-0.15208-0.93372-0.89370
   0 -13  -6 3761.60  249.18   1-0.42102 0.32440-0.20569-0.20347 0.88341 0.92377
   0 -13   6 4177.08  309.41   1-0.34152-0.00959-0.14087 0.52331 0.92925 0.85208
   0  13  -7  842.25  131.88   1-0.05048-0.35037 0.33052-0.38778-0.94244-0.85256
   0 -13  -7  823.98  142.44   1-0.34351 0.43650-0.13515-0.18918-0.92936-0.87958
   0 -13  -7  860.84  119.00   1-0.46459 0.31530-0.24201-0.29498 0.85181 0.90197
   0 -13   7 1040.70  144.23   1-0.36913-0.07165-0.16318 0.55617 0.91493 0.82797
   0  13  -8109305.6 4746.44   1-0.05008-0.31567 0.33460-0.43895-0.94102-0.84122
   0 -13  -8106201.0 4619.95   1-0.36464 0.44976-0.11564-0.22489-0.92393-0.86436
   0 -13  -898344.81 1202.89   1-0.51387 0.30048-0.28388-0.39202 0.80953 0.86949
   0 -13   8106096.8 1467.87   1-0.40158-0.13855-0.18967 0.58485 0.89596 0.79921
   0  13  -927756.40  746.53   1-0.04918-0.28047 0.34352-0.48529-0.93785-0.82814
   0 -13  -929364.62  746.46   1-0.38660 0.46219-0.09494-0.25941-0.91734-0.84798
   0 -13   924369.42  971.02   1-0.43876-0.21014-0.22040 0.60929 0.87115 0.76458
   0  13 -1010206.72  510.90   1-0.04786-0.24485 0.35648-0.52758-0.93307-0.81344
   0 -13 -1011626.89  459.10   1-0.40916 0.47401-0.07320-0.29290-0.90951-0.83037
   0  14   021419.64 1060.88   1-0.01570-0.59716 0.62941 0.27254-0.77691-0.75439
   0 -14   021674.62  713.82   1-0.35844 0.22235-0.12141 0.23668-0.92562-0.94580
   0 -14   025350.30  714.55   1-0.30164 0.27852-0.10897 0.24974 0.94717 0.92738
   0 -14   025308.25  858.05   1 0.08254 0.66249-0.73988-0.38088 0.66764 0.64500
   0  14   140501.23  872.68   1 0.00179-0.61394 0.74762 0.44600-0.66411-0.65126
   0  14  -134069.87  921.98   1-0.02715-0.57436 0.54097 0.12874-0.84060-0.80840
   0 -14  -136952.10  850.16   1-0.32147 0.29372-0.15510 0.14775-0.93413-0.94440
   0 -14   136720.80  777.99   1-0.29847 0.24725-0.10645 0.30744 0.94846 0.91888
   0 -14  -142617.84  799.20   1-0.30993 0.30468-0.11557 0.18797 0.94370 0.93371
   0 -14   139241.44  995.99   1 0.06744 0.61275-0.59300-0.17865 0.80237 0.76981
   0  14  -231084.81  782.03   1-0.03485-0.54773 0.47635 0.00878-0.87856-0.83660
   0 -14  -226506.34  728.31   1-0.30951 0.34005-0.16575 0.08188-0.93633-0.93683
   0 -14  -230371.80  730.94   1-0.32338 0.32564-0.12631 0.12219 0.93779 0.93756
   0 -14   227470.58  740.04   1-0.30032 0.21095-0.10792 0.36114 0.94771 0.90833
   0 -14   229257.46  787.95   1 0.05767 0.56843-0.49900-0.02950 0.86468 0.82220
   0  14  -3  101.06   96.54   1-0.04002-0.51865 0.43035-0.09244-0.90177-0.84997
   0 -14  -3   82.38   73.73   1-0.30986 0.37408-0.16545 0.02697-0.93627-0.92699
   0 -14  -3  117.30  127.75   1-0.34215 0.34133-0.14137 0.05196 0.92894 0.93850
   0 -14   3  338.08  111.89   1-0.30710 0.16972-0.11332 0.41092 0.94490 0.89573
   0 -14   3  100.88   79.85   1 0.05128 0.52749-0.43797 0.08666 0.89752 0.84512
   0  14  -4 6467.74  353.23   1-0.04345-0.48778 0.39868-0.17936-0.91605-0.85434
   0 -14  -4 6564.50  369.59   1-0.31741 0.40092-0.15873-0.02152-0.93490-0.91586
   0 -14  -4 6605.95  369.31   1-0.36627 0.35167-0.16086-0.02268 0.91649 0.93584
   0 -14   4 7080.04  366.53   1-0.31872 0.12356-0.12258 0.45691 0.93988 0.88088
   0  14  -522743.06  725.90   1-0.04559-0.45562 0.37838-0.25491-0.92452-0.85289
   0 -14  -523034.08  753.26   1-0.32957 0.42314-0.14782-0.06583-0.93248-0.90366
   0 -14  -522387.32  686.29   1-0.39579 0.35662-0.18492-0.10191 0.89952 0.92867
   0 -14   524506.63  761.76   1-0.33509 0.07273-0.13570 0.49895 0.93236 0.86356
   0  14  -610594.39  451.04   1-0.04676-0.42249 0.36712-0.32143-0.92899-0.84745
   0 -14  -611696.58  487.47   1-0.34490 0.44221-0.13388-0.10711-0.92904-0.89048
   0 -14  -611218.72  433.02   1-0.43071 0.35615-0.21371-0.18586 0.87681 0.91575
   0 -14   613051.70  502.56   1-0.35613 0.01724-0.15265 0.53717 0.92188 0.84329
   0  14  -7 6382.52  338.97   1-0.04718-0.38860 0.36312-0.38068-0.93054-0.83908
   0 -14  -7 6328.79  357.28   1-0.36234 0.45916-0.11778-0.14624-0.92457-0.87623
   0 -14  -7 5593.16  303.70   1-0.47106 0.35027-0.24745-0.27479 0.84667 0.89542
   0 -14   7 5803.97  330.97   1-0.38175-0.04284-0.17345 0.57153 0.90784 0.81945
   0  14  -811992.27  516.72   1-0.04697-0.35410 0.36508-0.43397-0.92978-0.82841
   0 -14  -812418.68  520.86   1-0.38136 0.47452-0.09992-0.18359-0.91900-0.86088
   0 -14  -810960.51  459.86   1-0.51668 0.33911-0.28630-0.36880 0.80688 0.86543
   0 -14   811577.17  490.22   1-0.41191-0.10745-0.19817 0.60198 0.88940 0.79124
   0  14  -9 5737.51  455.08   1-0.04626-0.31909 0.37198-0.48233-0.92708-0.81579
   0 -14  -9 7974.40  448.89   1-0.40154 0.48873-0.08060-0.21949-0.91228-0.84436
   0 -14   9 7480.61  427.31   1-0.44651-0.17646-0.22686 0.62846 0.86554 0.75755
   0  15   0   32.81   83.56   1-0.01014-0.63314 0.66912 0.28676-0.74307-0.71895
   0 -15   0  110.48  105.18   1-0.32100 0.30054-0.12441 0.26005 0.93886 0.91763
   0  15  -1 1503.86  180.61   1-0.02188-0.61062 0.58283 0.14511-0.81229-0.77850
   0 -15  -1 2058.41  215.92   1-0.32883 0.32717-0.13068 0.19862 0.93530 0.92385
   0 -15   1 1525.53  190.98   1-0.31794 0.26915-0.12196 0.31767 0.94023 0.90919
   0  15  -2 1870.46  218.13   1-0.02993-0.58438 0.51811 0.02511-0.85478-0.81109
   0 -15  -2 1796.48  207.99   1-0.35188 0.33916-0.12747 0.14576-0.92732-0.92936
   0 -15  -2 1970.38  197.97   1-0.34150 0.34895-0.14085 0.13328 0.92926 0.92761
   0 -15   2 1936.54  194.79   1-0.31956 0.23307-0.12326 0.37153 0.93951 0.89868
   0 -15   2 1485.81  221.70   1 0.06342 0.61560-0.55424-0.05909 0.82993 0.78583
   0  15  -323688.94  822.65   1-0.03544-0.55555 0.47114-0.07718-0.88134-0.82788
   0 -15  -319956.85  687.86   1-0.34554 0.37989-0.13330 0.08471-0.92888-0.92114
   0 -15  -323606.51  705.64   1-0.35908 0.36583-0.15504 0.06393 0.92033 0.92847
   0 -15   320150.38  727.63   1-0.32579 0.19238-0.12824 0.42172 0.93670 0.88608
   0 -15   321784.58  784.49   1 0.05663 0.57426-0.48908 0.06120 0.87039 0.81637
   0  15  -438056.76 1280.34   1-0.03919-0.52499 0.43786-0.16573-0.89818-0.83481
   0 -15  -441787.19  933.80   1-0.34807 0.41175-0.13098 0.03180-0.92827-0.91073
   0 -15  -441869.94  884.99   1-0.38162 0.37775-0.17334-0.00953 0.90791 0.92585
   0 -15   442421.57  949.15   1-0.33655 0.14717-0.13687 0.46825 0.93166 0.87124
   0 -15   438234.07  998.44   1 0.05213 0.53521-0.44606 0.15937 0.89348 0.82954
   0  15  -5   37.56   85.60   1-0.04161-0.49318 0.41580-0.24300-0.90850-0.83529
   0 -15  -5   73.66  121.49   1-0.35628 0.43792-0.12340-0.01584-0.92619-0.89886
   0 -15  -5    8.58   91.46   1-0.40916 0.38468-0.19590-0.08725 0.89118 0.91891
   0 -15   5  187.78  134.73   1-0.35175 0.09750-0.14911 0.51117 0.92413 0.85392
   0  15  -6 9837.81  457.17   1-0.04304-0.46031 0.40249-0.31156-0.91440-0.83128
   0 -15  -6 9800.71  439.47   1-0.36836 0.46023-0.11216-0.05981-0.92289-0.88577
   0 -15  -610684.81  392.59   1-0.44174 0.38658-0.22288-0.16942 0.86901 0.90655
   0 -15   610913.18  438.57   1-0.37134 0.04346-0.16497 0.55047 0.91372 0.83371
   0  15  -7  -36.55  104.95   1-0.04369-0.42665 0.39645-0.37285-0.91701-0.82397
   0 -15  -7   80.33   94.88   1-0.38318 0.47980-0.09818-0.10106-0.91843-0.87153
   0  15  -831940.96 1101.98   1-0.04369-0.39236 0.39641-0.42815-0.91703-0.81408
   0 -15  -830989.71 1105.16   1-0.40001 0.49736-0.08208-0.14018-0.91282-0.85614
   0 -15   831024.58 1044.15   1-0.42340-0.07749-0.20765 0.61813 0.88182 0.78223
   0 -16   035678.25  891.76   1-0.34037 0.32261-0.13994 0.27015 0.92981 0.90715
   0  16  -1 4033.74  298.24   1-0.01643-0.64666 0.62401 0.16088-0.78123-0.74561
   0 -16  -1 4491.90  289.74   1-0.34781 0.34963-0.14593 0.20900 0.92613 0.91327
   0 -16   1 3762.00  300.42   1-0.33740 0.29112-0.13755 0.32770 0.93125 0.89880
   0  16  -2  860.46  143.17   1-0.02480-0.62077 0.55991 0.04142-0.82817-0.78289
   0 -16  -2  941.59  147.50   1-0.35976 0.37213-0.15559 0.14418 0.91997 0.91691
   0 -16   2  402.43  141.25   1-0.33882 0.25525-0.13869 0.38173 0.93057 0.88832
   0  16  -3  468.84  131.16   1-0.03068-0.59235 0.51190-0.06186-0.85849-0.80329
   0 -16  -3  595.85  144.89   1-0.37629 0.39006-0.16901 0.07559 0.91095 0.91767
   0 -16   3  506.59  142.78   1-0.34456 0.21505-0.14331 0.43227 0.92775 0.87572
   0  16  -4 6482.14  378.83   1-0.03473-0.56206 0.47737-0.15172-0.87801-0.81305
   0 -16  -4 7120.21  349.89   1-0.39746 0.40337-0.18629 0.00315 0.89850 0.91503
   0 -16   4 7023.20  355.07   1-0.35455 0.17060-0.15138 0.47937 0.92269 0.86086
   0 -16   4 5854.59  382.29   1 0.05718 0.58168-0.49433 0.13676 0.86738 0.80183
   0  16  -5  215.01  170.96   1-0.03745-0.53048 0.45342-0.23093-0.89050-0.81563
   0 -16  -5  120.08   95.52   1-0.38507 0.45062-0.09639 0.03674-0.91783-0.89195
   0 -16  -5   73.44   97.12   1-0.42327 0.41202-0.20755-0.07326 0.88191 0.90822
   0 -16   5  256.54  101.01   1-0.36873 0.12196-0.16286 0.52305 0.91515 0.84352
   0  16  -643352.22 1306.79   1-0.03915-0.49787 0.43825-0.30137-0.89799-0.81320
   0 -16  -645757.94 1101.41   1-0.39387 0.47621-0.08798-0.01006-0.91494-0.87927
   0 -16  -647290.64  927.89   1-0.45377 0.41599-0.23293-0.15384 0.86013 0.89626
   0 -16   644486.80  974.27   1-0.38705 0.06919-0.17778 0.56331 0.90475 0.82334
   0 -16   644204.04 1133.88   1 0.05195 0.50736-0.44437 0.29699 0.89433 0.80893
   0  16  -7   28.76  115.77   1-0.04001-0.46452 0.43043-0.36438-0.90173-0.80712
   0 -16  -7   91.57  112.24   1-0.40597 0.49849-0.07630-0.05360-0.91069-0.86523
   0 -16  -7   42.57   87.35   1-0.48889 0.41532-0.26254-0.23862 0.83189 0.87781
   0 -16   7  -23.03   88.70   1-0.40943 0.01236-0.19612 0.60013 0.89100 0.79980
   0 -17  -1 3148.33  263.35   1-0.36680 0.37207-0.16129 0.21927 0.91620 0.90193
   0 -17   1 2963.39  268.25   1-0.35683 0.31313-0.15322 0.33767 0.92151 0.88765
   0  17  -2  255.38  101.69   1-0.01944-0.65695 0.60153 0.05754-0.79860-0.75172
   0 -17  -2   45.45  116.74   1-0.37812 0.39521-0.17049 0.15490 0.90991 0.90543
   0 -17   2  338.62  120.19   1-0.35807 0.27743-0.15422 0.39183 0.92086 0.87720
   0  17  -331230.20  963.07   1-0.02568-0.62889 0.55283-0.04642-0.83289-0.77610
   0 -17  -339271.64 1034.05   1-0.39374 0.41406-0.18325 0.08699 0.90076 0.90608
   0 -17   333157.91  951.45   1-0.36338 0.23766-0.15852 0.44270 0.91805 0.86459
   0  17  -4 1355.92  195.80   1-0.03008-0.59899 0.51687-0.13765-0.85553-0.78883
   0 -17  -4 1529.81  170.40   1-0.41368 0.42858-0.19963 0.01544 0.88826 0.90336
   0 -17   4 1529.26  172.64   1-0.37270 0.19388-0.16609 0.49029 0.91296 0.84971
   0  17  -520797.33  808.31   1-0.03309-0.56765 0.49151-0.21834-0.87023-0.79378
   0 -17  -520246.63  771.11   1-0.43799 0.43874-0.21977-0.05988 0.87169 0.89661
   0 -17   522024.85  786.86   1-0.38599 0.14615-0.17691 0.53464 0.90537 0.83234
   0  17  -6  547.43  132.06   1-0.03505-0.53530 0.47460-0.29051-0.87949-0.79312
   0 -17  -6  451.69   99.54   1-0.46665 0.44455-0.24374-0.13902 0.85018 0.88489
   0 -17   6  688.59  150.25   1-0.40317 0.09452-0.19098 0.57574 0.89497 0.81214
   0 -18   010510.08  448.14   1-0.37905 0.36680-0.17125 0.29011 0.90939 0.88390
   0 -18   148021.02 1061.65   1-0.37623 0.33516-0.16896 0.34756 0.91098 0.87570
   0 -18  -157226.77 1071.85   1-0.38582 0.39451-0.17677 0.22942 0.90547 0.88978
   0 -18  -2 7431.23  366.84   1-0.39658 0.41821-0.18557 0.16546 0.89904 0.89315
   0 -18   2 6386.39  395.33   1-0.37732 0.29962-0.16984 0.40184 0.91037 0.86529
   0 -18  -3 1544.39  170.67   1-0.41137 0.43788-0.19772 0.09814 0.88976 0.89366
   0 -18   3 1634.27  201.57   1-0.38225 0.26023-0.17386 0.45299 0.90755 0.85268
   0  18  -4   43.49  128.01   1-0.02520-0.63564 0.55667-0.12335-0.83035-0.76205
   0 -18   4  158.43  120.51   1-0.39099 0.21705-0.18099 0.50103 0.90242 0.83776
   1   0 -1431877.60  814.27   1-0.03145 0.44826 0.50542-0.27534-0.86229-0.85043
   1   0 -1432363.09  747.32   1-0.61230-0.13115 0.15044-0.62962-0.77617-0.76575
  -1   0  1428100.00  915.38   1 0.05680-0.42618-0.49074 0.28818 0.86944 0.85750
   1   0 -13  -36.60   83.85   1-0.03494 0.41053 0.47552-0.24988-0.87900-0.87693
   1   0 -13   83.47  107.39   1-0.59709-0.15033 0.13140-0.59342-0.79133-0.79072
  -1   0  13  -46.09  157.03   1 0.05409-0.39435-0.46483 0.25895 0.88374 0.88172
   1   0 -1267892.58 1125.41   1-0.03802 0.37314 0.44839-0.22175-0.89302-0.90087
   1   0 -1267294.37 1056.37   1-0.58282-0.17045 0.11396-0.55561-0.80457-0.81377
  -1   0  1263584.12 1208.20   1 0.05161-0.36228-0.44110 0.22753 0.89596 0.90386
   1   0 -10 3397.10  256.89   1-0.04284 0.29965 0.40441-0.15515-0.91357-0.94134
   1   0 -10 3408.62  235.14   1-0.55853-0.21498 0.08518-0.47383-0.82509-0.85396
   1   0  -9  -72.49  100.81   1-0.04444 0.26375 0.38933-0.11498-0.92002-0.95771
   1   0  -9   44.52   90.82   1-0.54959-0.24044 0.07485-0.42892-0.83206-0.87075
   1   0  -8168203.9 1596.07   1-0.04534 0.22855 0.38082-0.06823-0.92353-0.97113
   1   0  -8180097.8 1625.65   1-0.54387-0.26911 0.06830-0.38023-0.83638-0.88487
   1   0  -7  -21.62   52.84   1-0.04529 0.19430 0.38129-0.01251-0.92334-0.98086
   1   0  -7   82.18   61.94   1-0.54263-0.30226 0.06690-0.32640-0.83729-0.89559
   1   0  -6102478.7 1381.71   1-0.04390 0.16139 0.39443 0.05587-0.91787-0.98530
  -1   0   6107848.7 1562.14   1-0.08513-0.29066-0.09259 0.24593-0.99205-0.92467
   1   0  -699729.03 1318.82   1-0.54779-0.34181 0.07278-0.26527-0.83343-0.90154
  -1   0   6100202.0 1422.22   1-0.26155-0.46751-0.20737 0.13051-0.94264-0.87429
   1   0  -6107482.3 1482.13   1-0.39511-0.18857-0.18437-0.52203 0.89993 0.83181
   1   0  -5   31.24   76.66   1-0.04049 0.13051 0.42611 0.14281-0.90376-0.98110
  -1   0   5  -28.19   78.14   1-0.07722-0.24836 0.02144 0.30474-0.99678-0.91948
   1   0  -5    5.05   51.33   1-0.56225-0.39066 0.08953-0.19332-0.82209-0.90000
  -1   0   5    0.67   70.08   1-0.36486-0.49494-0.11543 0.19280-0.92387-0.84726
  -1   0   5   22.67   48.55   1-0.76085-0.93274-0.59766-0.31464-0.25277-0.17600
   1   0  -5   69.33   40.74   1-0.59706-0.42500-0.35698-0.63955 0.71838 0.64058
   1   0  -423160.28  648.80   1-0.03379 0.10291 0.48551 0.25746-0.87357-0.96079
  -1   0   422731.35  628.86   1-0.06577-0.20253 0.16524 0.39328-0.98405-0.89682
   1   0  -421253.66  594.71   1-0.59059-0.45339 0.12340-0.10421-0.79748-0.88519
  -1   0   423238.73  659.19   1-0.41243-0.54961-0.07001 0.15742-0.90829-0.82044
  -1   0   423494.52  678.07   1-0.78905-0.92657-0.60245-0.37463-0.12014-0.03335
   1   0  -422858.34  672.05   1-0.70691-0.56922-0.46105-0.68858 0.53638 0.44925
  -1   0   421738.37  656.32   1 0.05521-0.08231-0.47546-0.24796 0.87799 0.96526
   1   0  -3   33.79   65.35   1-0.02140 0.08095 0.58654 0.41373-0.80963-0.90678
  -1   0   3   10.56   60.47   1-0.04823-0.15063 0.35284 0.52563-0.93443-0.83726
   1   0  -3   76.18   51.70   1-0.63912-0.53640 0.18536 0.01291-0.74643-0.84386
  -1   0   3   32.46   64.19   1-0.51365-0.61649 0.03455 0.20682-0.85730-0.75970
  -1   0   3    3.64   62.21   1-0.79907-0.90222-0.59997-0.42734-0.03871 0.05808
   1   0  -3   32.44   45.08   1-0.76501-0.66174-0.52415-0.69658 0.37419 0.27725
  -1   0   3  -16.50   77.31   1 0.06487-0.03810-0.56815-0.39579 0.82036 0.91755
   1   0  -219985.44  585.35   1 0.00060 0.06856 0.74021 0.62267-0.67237-0.77947
  -1   0   220588.39  608.01   1-0.02047-0.08851 0.59369 0.71122-0.80443-0.69736
   1   0  -220079.60  550.07   1-0.71304-0.64472 0.29406 0.17679-0.63646-0.74369
  -1   0   222027.18  570.99   1-0.63833-0.70666 0.18431 0.30151-0.74736-0.64009
  -1   0   221055.35  617.96   1-0.80195-0.87075-0.59738-0.47995 0.00007 0.10688
   1   0  -220383.30  541.94   1-0.79164-0.72281-0.55979-0.67713 0.24481 0.13797
  -1   0   219784.60  658.69   1 0.08002 0.01162-0.71513-0.59788 0.69439 0.80150
   1   0  -220285.57  646.31   1 0.06584 0.13428-0.57754-0.69476 0.81369 0.70658
   1   0  -1   52.87   62.97   1 0.03512 0.06873 0.91677 0.85451-0.39785-0.51485
  -1   0   1  -51.37   73.65   1 0.02010-0.01351 0.84996 0.91222-0.52645-0.40946
   1   0  -1    3.98   50.08   1-0.79184-0.75783 0.46446 0.40239-0.39655-0.51357
  -1   0   1  -24.23   52.84   1-0.76529-0.79927 0.39247 0.45453-0.51017-0.39313
  -1   0   1  -17.41   67.25   1-0.80205-0.83647-0.59724-0.53500 0.00183 0.11865
   1   0  -1   11.75   65.10   1-0.80145-0.76703-0.57846-0.64065 0.15180 0.03498
  -1   0   1  151.94   86.75   1 0.09848 0.06439-0.89932-0.83726 0.42604 0.54299
   1   0  -1   11.16   70.69   1 0.09179 0.12571-0.83151-0.89361 0.54786 0.43086
   1   0   1   -1.92   77.52   1 0.09685 0.06173 0.91974 0.96787 0.38038 0.24375
  -1   0  -1   11.01   80.07   1 0.08896 0.12416 0.96746 0.91932 0.23682 0.37339
  -1   0  -1   52.80   60.09   1-0.65828-0.62315 0.67803 0.62976 0.32701 0.46375
  -1   0  -1   37.18   90.69   1-0.79287-0.75851-0.60210-0.65023-0.09393 0.04291
   1   0   1   40.23   67.32   1-0.80406-0.83841-0.58972-0.54158 0.07558-0.06126
   1   0   215439.78  524.50   1 0.10552 0.03601 0.77498 0.87832 0.62311 0.47669
  -1   0  -215321.66  560.43   1 0.10007 0.16963 0.88649 0.78316 0.45178 0.59822
  -1   0  -216868.35  608.46   1-0.77706-0.70833-0.60149-0.70482-0.18539-0.03853
   1   0   215106.07  478.61   1-0.80395-0.87269-0.58808-0.48475 0.08838-0.05848
  -1   0  -3  -32.77   66.06   1 0.10414 0.20808 0.81714 0.65859 0.56694 0.72315
  -1   0  -3   11.18   67.09   1-0.74681-0.64371-0.59307-0.75160-0.30086-0.14398
   1   0   3   43.66   60.88   1-0.80258-0.90572-0.58170-0.42315 0.13222-0.02459
   1   0   3   34.58   73.25   1 0.07052-0.03387 0.62270 0.78112 0.77926 0.62344
   1   0   496698.85 1229.69   1 0.10459-0.03386 0.51297 0.72667 0.85200 0.68615
  -1   0  -487911.27 1305.73   1 0.10560 0.24398 0.77161 0.55787 0.62726 0.79325
   1   0   489353.30 1268.51   1-0.79667-0.93421-0.56832-0.35459 0.20568 0.03886
  -1   0  -494758.89 1048.37   1-0.06481 0.07258-0.49761-0.71162-0.86497-0.69880
   1   0   495840.25 1202.46   1 0.05708-0.08182 0.49343 0.70700 0.86790 0.70245
  -1   0  -5   54.00   62.37   1 0.10613 0.27895 0.74561 0.47668 0.65786 0.83364
  -1   0  -5   18.28   59.89   1-0.10147 0.07052-0.41177-0.68073-0.90561-0.72913
  -1   0  -5   33.48   49.17   1-0.03792 0.13424-0.38011-0.64958-0.92416-0.74834
   1   0   5  -15.21   40.53   1-0.78047-0.95241-0.54366-0.27476 0.30869 0.13194
  -1   0  -5   86.26   81.48   1-0.09652 0.07517-0.40797-0.67723-0.90787-0.73191
  -1   0  -6141144.9 1726.97   1 0.10632 0.31357 0.73365 0.40951 0.67115 0.85671
  -1   0  -6148249.2 1736.52   1-0.09782 0.10853-0.32228-0.64646-0.94157-0.75518
  -1   0  -6145660.4 1776.62   1-0.11196 0.09458-0.32658-0.65127-0.93851-0.75292
   1   0   6148291.5 1929.12   1-0.74368-0.95017-0.49972-0.17566 0.44408 0.25749
  -1   0  -7   91.68   58.61   1-0.17372 0.06719-0.27921-0.65912-0.94438-0.74902
   1   0   7    7.72   36.30   1-0.66394-0.90507-0.41890-0.03955 0.61943 0.42341
  -1   0  -7    4.65   86.53   1-0.25387-0.01378-0.31849-0.69822-0.91329-0.71574
  -1   0  -8    4.75  103.34   1-0.08986 0.18517-0.16922-0.60385-0.98147-0.77528
  -1   0  -8  -40.24   53.07   1-0.22720 0.04817-0.23611-0.67130-0.94478-0.73961
  -1   0  -9 -130.93   90.66   1-0.27483 0.03493-0.19603-0.68643-0.94129-0.72635
  -1   0 -1020087.47  640.73   1-0.08139 0.26200-0.03676-0.58190-0.99600-0.76989
  -1   0 -1020962.98  572.78   1-0.31817 0.02596-0.15805-0.70367-0.93476-0.71004
  -1   0 -11   66.89   85.25   1-0.07694 0.30073 0.02522-0.57526-0.99671-0.76067
  -1   0 -11   14.16   83.32   1-0.35817 0.02045-0.12165-0.72253-0.92569-0.69103
  -1   0 -1227396.80  755.95   1-0.07235 0.33962 0.08520-0.57051-0.99373-0.74777
  -1   0 -1231869.86  750.13   1-0.39574 0.01727-0.08619-0.74229-0.91430-0.66985
  -1   0 -13   72.21   98.40   1-0.06757 0.37875 0.14399-0.56712-0.98726-0.73137
  -1   0 -13   15.84   94.22   1-0.43130 0.01627-0.05139-0.76276-0.90074-0.64646
   1   1 -14  324.58  121.97   1-0.03332 0.40493 0.48954-0.31663-0.87134-0.85777
   1   1 -14  635.60  145.53   1-0.62707-0.18740 0.16944-0.63619-0.76030-0.74842
   1  -1 -14  461.62  124.33   1-0.59913-0.07649 0.13392-0.62057-0.78936-0.78040
  -1   1  14  278.52  149.05   1 0.05847-0.46593-0.50674 0.24652 0.86010 0.84978
  -1  -1  14  414.49  177.82   1 0.05551-0.38606-0.47834 0.32624 0.87641 0.86285
   1  -1 -13 1937.72  253.71   1-0.03255 0.45446 0.49613-0.20376-0.86763-0.86714
   1   1 -13 2411.54  232.86   1-0.03671 0.36723 0.46005-0.29085-0.88713-0.88348
   1   1 -13 2757.62  230.97   1-0.61306-0.20779 0.15140-0.59899-0.77539-0.77332
   1  -1 -13 2233.44  206.13   1-0.58290-0.09465 0.11406-0.58518-0.80449-0.80535
  -1   1  13 2341.73  254.54   1 0.05581-0.43405-0.48125 0.21687 0.87480 0.87439
  -1  -1  13 2593.91  292.76   1 0.05278-0.35424-0.45227 0.29717 0.89031 0.88667
   1  -1 -12 7361.35  416.67   1-0.03567 0.41703 0.46920-0.17543-0.88236-0.89179
   1   1 -12 8102.63  376.50   1-0.03971 0.32984 0.43314-0.26244-0.90045-0.90682
   1   1 -12 7156.36  354.32   1-0.60013-0.22925 0.13515-0.55999-0.78840-0.79614
   1  -1 -12 7535.97  339.71   1-0.56746-0.11361 0.09565-0.54835-0.81782-0.82849
  -1   1  12 7544.02  426.47   1 0.05339-0.40192-0.45809 0.18488 0.88729 0.89681
   1  -1 -1172624.06 1318.52   1-0.03832 0.38007 0.44567-0.14370-0.89437-0.91372
   1   1 -1166648.60 1342.90   1-0.04233 0.29293 0.40915-0.23117-0.91148-0.92776
   1   1 -1161122.28 1407.26   1-0.58866-0.25218 0.12105-0.51885-0.79926-0.81682
   1  -1 -1168440.52 1204.40   1-0.55313-0.13370 0.07892-0.50976-0.82934-0.84986
  -1   1  1168013.82 1418.85   1 0.05126-0.36950-0.43781 0.15002 0.89760 0.91703
   1  -1 -1051364.48  936.98   1-0.04044 0.34358 0.42648-0.10758-0.90358-0.93293
   1   1 -1052372.70 1028.26   1-0.04449 0.25646 0.38884-0.19622-0.92022-0.94642
   1   1 -1045240.08 1120.56   1-0.57917-0.27709 0.10957-0.47507-0.80780-0.83517
   1  -1 -1052802.24  997.57   1-0.54031-0.15527 0.06425-0.46919-0.83900-0.86933
   1  -1  -9104840.0 1346.77   1-0.04194 0.30779 0.41271-0.06609-0.90989-0.94915
   1   1  -999497.44 1411.89   1-0.04614 0.22052 0.37318-0.15663-0.92660-0.96272
   1   1  -9101994.7 1267.37   1-0.57236-0.30467 0.10144-0.42797-0.81370-0.85088
   1  -1  -9103323.6 1344.34   1-0.52953-0.17889 0.05212-0.42608-0.84668-0.88682
   1  -1  -8 6139.38  347.53   1-0.04263 0.27280 0.40631-0.01724-0.91273-0.96191
   1   1  -8 6086.57  299.31   1-0.04713 0.18522 0.36355-0.11101-0.93037-0.97640
   1   1  -8 5830.32  381.60   1-0.56919-0.33589 0.09768-0.37648-0.81638-0.86338
   1  -1  -8 5576.71  300.44   1-0.52159-0.20534 0.04329-0.37967-0.85209-0.90204
   1  -1  -7 3883.05  266.46   1-0.04222 0.23891 0.41013 0.04182-0.91104-0.97013
   1   1  -7 3890.65  244.62   1-0.04729 0.15076 0.36202-0.05728-0.93096-0.98690
  -1   1   7 3596.00  265.18   1-0.09221-0.37385-0.21062 0.15757-0.97320-0.91400
   1   1  -7 3398.87  241.50   1-0.57106-0.37217 0.09990-0.31902-0.81480-0.87161
   1  -1  -7 3992.89  268.73   1-0.51766-0.23573 0.03895-0.32863-0.85469-0.91456
  -1  -1   7 3695.31  383.66   1-0.77283-0.97195-0.60070-0.18169-0.20465-0.14932
  -1  -1   7 3420.55  415.73   1 0.03679-0.16186-0.11267 0.30680-0.99295-0.93790
   1  -1  -6104798.8 1357.08   1-0.04020 0.20663 0.42869 0.11563-0.90255-0.97156
   1   1  -699438.99 1408.80   1-0.04629 0.11747 0.37171 0.00765-0.92719-0.99304
  -1  -1   6101234.1 1532.07   1-0.08453-0.24854-0.08344 0.28060-0.99291-0.92708
  -1   1   6105566.7 1478.73   1-0.08636-0.33341-0.11178 0.20123-0.98997-0.92105
   1   1  -6104714.1 1391.19   1-0.58005-0.41555 0.11062-0.25305-0.80703-0.87366
   1  -1  -6113016.5 1452.46   1-0.51935-0.27182 0.04082-0.27154-0.85358-0.92324
  -1  -1   6102296.5 1461.93   1-0.28964-0.45412-0.18321 0.18025-0.93943-0.87251
  -1  -1   6108108.6 1629.53   1-0.80338-0.96819-0.59465-0.23086 0.03110 0.09643
   1  -1  -699624.89 1689.11   1-0.63006-0.38206-0.38709-0.69926 0.67317 0.60419
   1  -1  -516538.68  515.22   1-0.03567 0.17687 0.46914 0.21133-0.88240-0.96127
   1   1  -515159.63  473.79   1-0.04358 0.08587 0.39745 0.08865-0.91658-0.99235
  -1  -1   515330.11  586.77   1-0.07724-0.20685 0.02119 0.33000-0.99678-0.92103
  -1   1   515300.97  543.26   1-0.07792-0.29059 0.01196 0.26974-0.99688-0.91803
   1   1  -515077.42  495.23   1-0.59919-0.46909 0.13399-0.17443-0.78931-0.86575
   1  -1  -515136.17  538.37   1-0.52936-0.31628 0.05193-0.20531-0.84680-0.92617
  -1  -1   515010.59  542.91   1-0.36486-0.49494-0.11543 0.19280-0.92387-0.84726
  -1   1   515242.70  536.02   1-0.29235-0.50542-0.18085 0.07624-0.93905-0.85949
  -1  -1   514699.16  540.36   1-0.79918-0.92966-0.57323-0.26470 0.18081 0.25623
   1  -1  -516187.90  505.73   1-0.76240-0.54882-0.52104-0.77818 0.38373 0.30532
   1   1  -515531.93  502.92   1-0.42259-0.29195-0.20698-0.51511 0.88236 0.80586
  -1   1   515460.01  551.01   1 0.05335-0.16014-0.45768-0.20069 0.88751 0.96647
   1  -1  -466439.42 1088.92   1-0.02685 0.15134 0.54345 0.34087-0.83901-0.92784
   1   1  -470958.50 1113.59   1-0.03821 0.05695 0.44666 0.19311-0.89388-0.97952
  -1   1   470464.89 1214.75   1-0.06500-0.24329 0.17431 0.37684-0.98254-0.89375
  -1  -1   470542.91 1185.78   1-0.06715-0.16238 0.14896 0.40251-0.98655-0.90089
   1   1  -464612.96 1067.45   1-0.63280-0.53709 0.17697-0.07621-0.75381-0.84006
   1  -1  -466928.98 1072.48   1-0.55215-0.37347 0.07780-0.12420-0.83010-0.91928
  -1  -1   465578.92 1005.74   1-0.45475-0.55052-0.02771 0.22536-0.89018-0.80382
  -1   1   466491.22 1121.41   1-0.36557-0.54424-0.11477 0.08709-0.92367-0.83439
   1  -1  -474020.04 1199.94   1-0.80124-0.62214-0.57794-0.78006 0.15487 0.06664
  -1  -1   462889.07 1191.01   1-0.78621-0.88234-0.55163-0.29833 0.27850 0.36396
   1   1  -468990.25 1114.16   1-0.54750-0.45133-0.31303-0.56605 0.77604 0.68984
  -1   1   466654.56 1161.46   1 0.06001-0.11893-0.52143-0.31958 0.85118 0.94006
  -1  -1   459491.99 1091.30   1 0.05176-0.04434-0.44254-0.18938 0.89525 0.98090
   1  -1  -326711.63  661.51   1-0.01050 0.13332 0.66658 0.51927-0.74535-0.84414
   1   1  -329503.28  729.63   1-0.02838 0.03242 0.53093 0.33263-0.84693-0.94249
  -1   1   330631.82  755.30   1-0.04382-0.18776 0.39523 0.54252-0.91753-0.81878
  -1  -1   330898.50  805.83   1-0.05252-0.11338 0.30999 0.50828-0.94928-0.85369
   1   1  -328052.83  645.72   1-0.68538-0.62417 0.25070 0.05262-0.68365-0.77951
   1  -1  -327961.87  659.25   1-0.59465-0.45036 0.12839-0.01840-0.79366-0.89265
  -1  -1   330647.79  658.88   1-0.56413-0.62544 0.09173 0.28967-0.82056-0.72450
  -1   1   328023.58  651.17   1-0.45626-0.60059-0.02617 0.12051-0.88945-0.79041
   1  -1  -330962.95  789.17   1-0.80079-0.65612-0.59867-0.74570-0.01762-0.11584
  -1  -1   330401.34  729.45   1-0.77419-0.83592-0.53547-0.33734 0.33748 0.43293
   1   1  -329140.88  657.41   1-0.63287-0.57108-0.38969-0.58762 0.66903 0.57320
  -1   1   329830.85  846.92   1 0.07117-0.07322-0.62900-0.48230 0.77413 0.87293
  -1   1   2342890.0 3241.06   1-0.00855-0.11808 0.68007 0.77212-0.73308-0.62440
   1   1  -2329050.1 2917.25   1-0.01104 0.01541 0.66286 0.51983-0.74865-0.85412
  -1  -1   2348590.6 3298.26   1-0.03046-0.05697 0.51374 0.65678-0.85740-0.75192
  -1  -1   2356554.0 2988.99   1-0.69009-0.71692 0.25781 0.40064-0.67623-0.57052
   1  -1  -2348003.4 3191.91   1-0.78574-0.67544-0.60244-0.69428-0.14025-0.24848
   1   1  -2327004.4 2925.35   1-0.68889-0.66151-0.44307-0.58590 0.57368 0.46809
  -1   1   2331139.9 3197.18   1 0.08765-0.02224-0.79024-0.69858 0.60649 0.71518
  -1  -1   2316995.5 3207.65   1 0.07380 0.04678-0.65452-0.51164 0.75242 0.85791
   1  -1  -2333658.1 3256.95   1 0.07256 0.18242-0.64251-0.73408 0.76282 0.65410
   1  -1  -118416.23  587.02   1 0.05715 0.13227 0.98216 0.94542-0.17914-0.29779
  -1   1   119497.89  654.25   1 0.03997-0.03514 0.93477 0.97152-0.35297-0.23432
   1   1  -119215.24  628.42   1 0.01757 0.00966 0.83711 0.74935-0.54674-0.66209
  -1  -1   118536.58  543.20   1 0.00211 0.00999 0.74962 0.83738-0.66186-0.54651
   1   1  -118838.42  503.16   1-0.80385-0.81146 0.53389 0.44601-0.26225-0.37761
  -1  -1   120059.50  519.61   1-0.79231-0.78482 0.46615 0.55379-0.39362-0.27812
   1  -1  -118956.82  499.24   1-0.76331-0.68783 0.38807 0.35159-0.51648-0.63502
  -1   1   120391.69  556.57   1-0.71425-0.78967 0.29604 0.33250-0.63419-0.51560
   1  -1  -119602.57  584.81   1-0.76948-0.69357-0.59995-0.63659-0.21895-0.33719
  -1  -1   119535.52  528.24   1-0.76917-0.76211-0.52920-0.44143 0.35819 0.47361
   1   1  -120657.44  557.60   1-0.72341-0.73046-0.47802-0.56568 0.49815 0.38264
  -1   1   119036.15  618.59   1 0.10389 0.02830-0.95675-0.92031 0.27169 0.39015
   1  -1  -120813.31  643.58   1 0.09840 0.17390-0.89856-0.93497 0.42766 0.30916
  -1  -1   118759.01  649.65   1 0.09235 0.09985-0.83709-0.74935 0.53920 0.65459
   1   1  -120045.42  648.24   1 0.08359 0.07602-0.75012-0.83783 0.65599 0.54059
   1  -1   0208345.4 2301.19   1 0.08913 0.12984 0.96676 0.98528 0.23963 0.11117
  -1   1   0197986.8 2267.49   1 0.07964 0.03895 0.99216 0.97365 0.09622 0.22468
   1   1   0194932.4 2218.57   1 0.05527 0.01301 0.97835 0.94577-0.19942-0.32455
  -1  -1   0201055.8 2139.60   1 0.04206 0.08431 0.94192 0.97447-0.33318-0.20804
  -1  -1   0204180.0 2272.58   1-0.77279-0.73070 0.63433 0.66700 0.02026 0.14551
   1  -1   0195991.1 2196.67   1-0.75889-0.71735-0.59707-0.57852-0.25996-0.38822
  -1  -1   0206913.4 2204.61   1-0.77735-0.73589-0.53955-0.50695 0.32341 0.44883
   1   1   0208409.3 2201.33   1-0.74219-0.78364-0.49808-0.53064 0.44839 0.32297
   1  -1   0195636.8 2226.74   1 0.10634 0.14739-0.99358-0.97488-0.03857-0.16696
  -1  -1   0203207.2 2245.17   1 0.10616 0.14796-0.98351-0.95093 0.14637 0.27172
   1   1   0195863.3 2295.27   1 0.10350 0.06168-0.95241-0.98496 0.28669 0.16133
   1  -1   154885.35 1042.33   1 0.10331 0.10965 0.83573 0.90946 0.53931 0.40105
  -1   1  -156977.30 1251.93   1 0.09783 0.09148 0.91081 0.83710 0.40105 0.53933
   1   1   155849.83 1125.37   1 0.08698 0.01031 0.97492 0.99749 0.20484 0.06994
  -1  -1  -157115.99 1086.72   1 0.07497 0.15165 0.99663 0.97406 0.03303 0.16792
  -1  -1  -159051.94 1064.88   1-0.62958-0.55298 0.67805 0.65541 0.37930 0.51443
  -1   1  -159871.54 1063.17   1-0.70055-0.70690 0.67270 0.59882 0.23808 0.37643
   1  -1   154313.69 1081.18   1-0.75656-0.74939-0.59635-0.52261-0.26828-0.40655
  -1  -1  -157433.35  923.89   1-0.78953-0.71367-0.55653-0.57911 0.25867 0.39407
   1   1   155227.11  892.02   1-0.74958-0.82545-0.50628-0.48367 0.42638 0.29100
   1   1   155121.99 1079.64   1 0.10503 0.02868-0.98554-0.96292-0.13295-0.26823
   1  -1   211681.25  562.86   1 0.10668 0.07858 0.69124 0.82015 0.71470 0.56671
  -1   1  -211659.45  459.32   1 0.10400 0.13209 0.82059 0.69166 0.56197 0.71003
   1   1   211934.46  496.17   1 0.10248-0.00853 0.85130 0.92908 0.51455 0.36978
  -1  -1  -211106.84  502.83   1 0.09278 0.20387 0.94867 0.87092 0.30234 0.44712
   1  -1   211585.30  472.47   1-0.76227-0.78948-0.59807-0.46913-0.24748-0.39576
  -1  -1  -212203.75  432.77   1-0.80062-0.69035-0.57640-0.65416 0.16358 0.30899
   1   1   210841.95  403.56   1-0.74745-0.85775-0.50390-0.42613 0.43287 0.28753
   1  -1   3101564.7 1420.26   1 0.10572 0.04317 0.56612 0.75022 0.81751 0.65977
   1   1   3104921.1 1618.03   1 0.10663-0.03882 0.70070 0.83362 0.70543 0.55096
  -1   1  -3106208.6 1421.39   1 0.10591 0.16839 0.75796 0.57384 0.64363 0.80146
  -1  -1  -397528.19 1450.13   1 0.10045 0.24592 0.88169 0.74872 0.46100 0.61557
   1  -1   3107662.6 1589.47   1-0.77395-0.83553-0.60092-0.41680-0.19968-0.35798
  -1  -1  -399784.35 1384.42   1-0.80359-0.65895-0.59396-0.72686 0.03804 0.19350
   1   1   3105096.2 1369.97   1-0.73546-0.88017-0.49078-0.35784 0.46715 0.31184
   1  -1   3105363.4 1425.68   1 0.06393 0.00093 0.55917 0.74320 0.82658 0.66906
   1   1   474627.66 1094.46   1 0.10568-0.07421 0.56419 0.75230 0.81884 0.65462
  -1   1  -474652.52 1222.47   1 0.10647 0.20347 0.72062 0.48134 0.68510 0.85258
  -1  -1  -470943.94 1131.50   1 0.10359 0.28349 0.82985 0.64168 0.54828 0.71265
  -1   1  -469903.85 1031.41   1-0.10317-0.00702-0.46224-0.70152-0.88072-0.71261
   1  -1   474306.78 1236.30   1-0.78817-0.88413-0.60248-0.36316-0.12566-0.29396
  -1  -1  -474547.52 1220.76   1-0.78950-0.61049-0.60244-0.79054-0.11724 0.04822
   1   1   473172.56 1029.41   1-0.71055-0.88971-0.46475-0.27661 0.52832 0.36317
  -1   1  -471620.37 1008.97   1-0.08015 0.01573-0.45519-0.69469-0.88677-0.71912
  -1  -1  -472767.31  894.54   1-0.05100 0.12790-0.53440-0.72291-0.84368-0.67899
   1  -1   476625.94 1113.61   1 0.05227-0.04525 0.44736 0.68654 0.89282 0.72567
   1   1   474423.28 1042.86   1 0.06186-0.11844 0.53924 0.72720 0.83987 0.67611
  -1   1  -571668.84 1198.54   1 0.10663 0.23808 0.70158 0.40712 0.70455 0.88179
  -1  -1  -571718.82 1169.93   1 0.10489 0.31917 0.79665 0.55330 0.59525 0.76940
  -1   1  -573338.89 1159.76   1-0.09995 0.03054-0.37212-0.66662-0.92278-0.74476
  -1  -1  -571663.16 1148.22   1-0.10277 0.11073-0.44965-0.69307-0.88726-0.71230
  -1   1  -572126.39 1085.85   1-0.06731 0.06336-0.35928-0.65432-0.93079-0.75355
  -1  -1  -579947.46 1404.89   1-0.74704-0.53366-0.59315-0.83645-0.30014-0.12466
   1  -1   573321.07 1242.45   1-0.80026-0.93059-0.59913-0.30462-0.02463-0.20295
   1   1   574828.28 1105.37   1-0.66622-0.87992-0.42107-0.17768 0.61550 0.44064
  -1   1  -575139.95  996.99   1-0.10821 0.02196-0.37298-0.66774-0.92150-0.74406
  -1  -1  -573803.50  984.86   1-0.08612 0.12708-0.43820-0.68195-0.89474-0.72026
  -1  -1  -617625.90  565.51   1 0.10543 0.35414 0.77853 0.47997 0.61868 0.80262
  -1   1  -617900.14  565.30   1-0.09643 0.06840-0.29247-0.64220-0.95139-0.76347
  -1  -1  -617092.63  513.41   1-0.09901 0.14884-0.34950-0.64814-0.93168-0.74682
  -1   1  -615942.11  667.25   1-0.14037 0.02468-0.30511-0.65537-0.94191-0.75490
  -1  -1  -617075.45  478.99   1-0.09093 0.15709-0.34214-0.64125-0.93523-0.75107
   1  -1   618068.81  572.64   1-0.80358-0.96833-0.58558-0.23589 0.10653-0.08180
   1   1   618756.77  529.19   1-0.58948-0.83777-0.35017-0.05150 0.72793 0.54357
  -1  -1  -618248.68  467.42   1-0.11353 0.13396-0.35670-0.65572-0.92729-0.74302
  -1   1  -740663.35  839.98   1-0.09273 0.10644-0.22020-0.62514-0.97103-0.77321
  -1  -1  -741683.06  845.58   1-0.09489 0.18731-0.26128-0.61514-0.96058-0.76583
  -1   1  -740426.83  804.11   1-0.20060-0.00116-0.25780-0.66329-0.94514-0.74836
  -1  -1  -740346.57  811.68   1-0.15305 0.12935-0.29534-0.64967-0.94305-0.74912
   1  -1   741457.99  904.43   1-0.78679-0.98604-0.55247-0.14760 0.27516 0.07704
   1   1   745440.59 1019.63   1-0.45038-0.73322-0.23010 0.12375 0.86267 0.66863
  -1   1  -740461.35 1314.28   1-0.13988 0.05867-0.24004-0.64530-0.96063-0.76166
  -1   1  -810523.16  431.39   1-0.08891 0.14461-0.15316-0.61333-0.98419-0.77647
  -1  -1  -810314.88  423.59   1-0.09058 0.22596-0.18172-0.59081-0.97916-0.77451
  -1   1  -810633.47  419.95   1-0.25243-0.01853-0.21509-0.67585-0.94340-0.73680
  -1  -1  -8 9847.99  423.72   1-0.20723 0.10954-0.25244-0.66198-0.94515-0.74146
   1  -1   8 8607.70  512.45   1-0.72100-0.95493-0.47550-0.01546 0.50403 0.29639
   1  -1   8 8382.76  560.08   1-0.04725-0.28156 0.08638 0.54681 0.99514 0.78849
  -1   1  -929420.90  896.39   1-0.08497 0.18258-0.09013-0.60556-0.99229-0.77456
  -1  -1  -930261.75  921.43   1-0.08616 0.26445-0.10863-0.57302-0.99034-0.77569
  -1   1  -928249.22  826.88   1-0.29847-0.03019-0.17549-0.69147-0.93814-0.72176
  -1  -1  -929471.51  852.82   1-0.25573 0.09551-0.21230-0.67713-0.94314-0.72963
  -1   1 -10  507.87  108.18   1-0.08089 0.22097-0.02965-0.60031-0.99628-0.76862
  -1  -1 -10  156.63   88.50   1-0.08161 0.30331-0.03992-0.55955-0.99586-0.77129
  -1   1 -10  231.82  130.42   1-0.34022-0.03746-0.13815-0.70938-0.93013-0.70381
  -1  -1 -10  129.39   94.66   1-0.29996 0.08567-0.17419-0.69424-0.93791-0.71462
  -1   1 -11 9074.58  424.53   1-0.07667 0.25947 0.02891-0.59709-0.99663-0.75904
  -1  -1 -11 9811.19  458.85   1-0.07692 0.34228 0.02556-0.54941-0.99670-0.76222
  -1   1 -1110376.88  431.38   1-0.37899-0.04184-0.10216-0.72862-0.91974-0.68363
  -1  -1 -11 9710.41  495.90   1-0.34084 0.07927-0.13759-0.71289-0.92999-0.69677
  -1  -1 -12 3605.44  248.86   1-0.07209 0.38141 0.08851-0.54170-0.99346-0.74905
  -1   1 -12 3200.92  257.79   1-0.07229 0.29815 0.08596-0.59527-0.99367-0.74616
  -1   1 -12 3406.96  239.55   1-0.41533-0.04380-0.06717-0.74885-0.90718-0.66128
  -1  -1 -12 3862.38  253.10   1-0.37924 0.07525-0.10192-0.73244-0.91966-0.67665
  -1  -1 -13 9432.78  422.42   1-0.06708 0.42078 0.14990-0.53570-0.98642-0.73209
  -1   1 -1310205.06  480.58   1-0.06772 0.33706 0.14216-0.59446-0.98752-0.73006
  -1   1 -13 8524.66  455.38   1-0.44976-0.04366-0.03281-0.76977-0.89254-0.63682
  -1  -1 -1310007.34  413.60   1-0.41557 0.07331-0.06693-0.75268-0.90709-0.65429
   1   2 -14 3698.28  265.73   1-0.03465 0.36206 0.47808-0.35359-0.87763-0.86248
  -1   2  14 3708.30  342.89   1 0.06055-0.50528-0.52662 0.20098 0.84793 0.83922
  -1  -2  14 3608.42  297.41   1 0.05456-0.34559-0.46928 0.36096 0.88136 0.86618
   1  -2 -1340200.45 1082.42   1-0.02937 0.49912 0.52283-0.15166-0.85192-0.85315
   1   2 -1341161.35 1110.98   1-0.03794 0.32446 0.44908-0.32732-0.89268-0.88745
   1   2 -1339169.73  976.19   1-0.63067-0.26688 0.17415-0.60180-0.75625-0.75272
   1  -2 -1343285.71 1095.43   1-0.57054-0.04080 0.09928-0.57439-0.81524-0.81756
  -1   2  1341930.39 1186.05   1 0.05796-0.47331-0.50186 0.17060 0.86300 0.86421
  -1  -2  1340829.59 1155.91   1 0.05184-0.31377-0.44327 0.33182 0.89488 0.88962
   1  -2 -12 5948.83  349.25   1-0.03251 0.46172 0.49640-0.12273-0.86747-0.87848
   1   2 -12 5657.53  523.16   1-0.04087 0.28715 0.42259-0.29849-0.90539-0.91019
   1   2 -12 6392.39  297.87   1-0.61927-0.28988 0.15933-0.56138-0.76884-0.77512
   1  -2 -12 6662.31  316.79   1-0.55414-0.05883 0.08009-0.53826-0.82855-0.84072
  -1   2  12 4461.71  571.06   1 0.05564-0.44109-0.47962 0.13769 0.87570 0.88683
   1  -2 -1115680.58  573.27   1-0.03513 0.42480 0.47390-0.08996-0.87987-0.90080
   1   2 -1114889.74  508.09   1-0.04342 0.25029 0.39894-0.26689-0.91594-0.93065
   1   2 -1116111.55  518.46   1-0.60955-0.31456 0.14695-0.51851-0.77900-0.79510
   1  -2 -1115413.59  660.62   1-0.53872-0.07780 0.06245-0.50066-0.84016-0.86213
  -1   2  1113546.93  672.75   1 0.05365-0.40854-0.46055 0.10163 0.88601 0.90706
   1  -2 -10 4241.60  308.70   1-0.03714 0.38847 0.45617-0.05243-0.88911-0.91996
   1   2 -10 4534.75  284.88   1-0.04555 0.21387 0.37882-0.23175-0.92434-0.94897
   1   2 -10 4222.30  249.13   1-0.60208-0.34149 0.13758-0.47264-0.78648-0.81239
   1  -2 -10 5054.32  273.55   1-0.52461-0.09809 0.04664-0.46123-0.85005-0.88183
  -1   2  10 3236.28  351.63   1 0.05207-0.37557-0.44548 0.06155 0.89377 0.92474
   1  -2  -9 2787.13  227.06   1-0.03843 0.35288 0.44469-0.00865-0.89485-0.93562
   1   2  -9 2685.01  205.23   1-0.04718 0.17794 0.36311-0.19221-0.93054-0.96508
   1   2  -9 2355.15  197.55   1-0.59763-0.37143 0.13206-0.42292-0.79081-0.82654
   1  -2  -9 3338.91  221.55   1-0.51236-0.12015 0.03314-0.41931-0.85812-0.89985
   1  -2  -8 8205.23  356.36   1-0.03876 0.31824 0.44172 0.04363-0.89631-0.94700
   1   2  -8 7580.74  336.81   1-0.04821 0.14261 0.35307-0.14699-0.93435-0.97880
  -1   2   8 6918.43  363.44   1-0.09822-0.45573-0.33119 0.06667-0.93843-0.88761
   1   2  -8 7262.18  353.23   1-0.59726-0.40546 0.13161-0.36812-0.79116-0.83670
   1  -2  -8 8070.49  322.83   1-0.50257-0.14475 0.02250-0.37473-0.86424-0.91576
  -1  -2   8 6621.84  607.27   1-0.80209-0.99416-0.59718-0.09740 0.00254 0.04642
  -1  -2   8 7147.96  551.94   1-0.20635-0.39779-0.28616 0.21409-0.93569-0.89214
   1  -2  -762214.78 1163.17   1-0.03775 0.28494 0.45079 0.10796-0.89183-0.95244
   1   2  -758146.62  998.39   1-0.04847 0.10805 0.35052-0.09429-0.93529-0.98966
  -1   2   754974.84 1062.09   1-0.09415-0.41730-0.24693 0.09572-0.96444-0.90371
   1   2  -759148.98  979.93   1-0.60249-0.44508 0.13809-0.30639-0.78608-0.84143
   1  -2  -761725.69 1028.80   1-0.49628-0.17286 0.01573-0.32628-0.86802-0.92933
  -1  -2   753922.03 1078.64   1-0.79370-0.95145-0.56314-0.11862 0.22999 0.28402
   1  -2  -765125.78 1406.83   1-0.62829-0.30439-0.38545-0.72717 0.67577 0.61526
   1  -2  -759562.91 1833.44   1-0.15808 0.16569 0.00287-0.33883 0.98742 0.92614
  -1  -2   761556.13 1578.88   1 0.01522-0.14191-0.12859 0.31640-0.99158-0.93794
  -1   2   759857.24 1122.56   1 0.05153-0.27247-0.44034-0.09872 0.89634 0.95708
   1  -2  -6  196.00   68.13   1-0.03471 0.25368 0.47756 0.19000-0.87790-0.94844
   1   2  -6  130.31   83.31   1-0.04769 0.07453 0.35815-0.03141-0.93244-0.99672
  -1  -2   6  184.13   95.81   1-0.08444-0.20691-0.08200 0.30756-0.99304-0.92875
  -1   2   6  203.78   76.12   1-0.08838-0.37696-0.14438 0.14311-0.98556-0.91510
   1   2  -6  335.83   87.36   1-0.61543-0.49242 0.15442-0.23482-0.77291-0.83807
   1  -2  -6  183.14   81.46   1-0.49501-0.20600 0.01437-0.27240-0.86876-0.93987
  -1  -2   6  163.83   76.77   1-0.31441-0.43740-0.16140 0.22764-0.93546-0.86997
   1  -2  -6  181.72   70.45   1-0.79190-0.50249-0.56021-0.84703 0.24299 0.17331
  -1  -2   6  172.03   62.89   1-0.76506-0.88865-0.52421-0.13504 0.37398 0.43824
   1   2  -6  233.47   79.10   1-0.15704-0.03350 0.00367-0.38531 0.98758 0.92217
  -1   2   6  137.33  107.20   1-0.22310-0.51205-0.29762-0.00998-0.92824-0.85889
  -1   2   6  194.34   97.83   1 0.05381-0.23564-0.46213-0.17566 0.88517 0.95583
   1  -2  -527153.98  741.68   1-0.02832 0.22570 0.53141 0.29906-0.84663-0.92715
   1   2  -527409.14  628.63   1-0.04542 0.04250 0.38003 0.04572-0.92385-0.99804
  -1  -2   526669.62  720.38   1-0.07779-0.16587 0.01375 0.34808-0.99687-0.92267
  -1   2   527491.43  771.84   1-0.07959-0.33380-0.01123 0.22103-0.99676-0.91636
   1   2  -527508.51  609.01   1-0.63882-0.55031 0.18495-0.14911-0.74679-0.82153
   1  -2  -524467.61  562.76   1-0.50119-0.24658 0.02101-0.21053-0.86507-0.94597
  -1  -2   530360.09  704.08   1-0.39568-0.48428-0.08625 0.24756-0.91432-0.83915
  -1   2   527191.65  768.15   1-0.25126-0.50581-0.21608 0.01543-0.94349-0.86250
   1  -2  -526925.41  734.81   1-0.79981-0.54486-0.59948-0.83129-0.03023-0.10985
  -1  -2   527567.33  644.39   1-0.73297-0.82213-0.48811-0.15410 0.47381 0.54803
   1   2  -526001.34  654.11   1-0.29766-0.20852-0.10581-0.43959 0.94878 0.87365
  -1   2   527086.45  711.87   1 0.05836-0.19654-0.50565-0.27432 0.86075 0.94133
   1  -2  -4162008.6 1626.39   1-0.01613 0.20353 0.62625 0.44916-0.77944-0.86995
   1   2  -4171967.0 1736.17   1-0.04089 0.01273 0.42241 0.14335-0.90548-0.98958
  -1   2   4165503.1 1768.12   1-0.06514-0.28497 0.17267 0.34970-0.98282-0.89246
  -1  -2   4168994.5 1685.21   1-0.06894-0.12263 0.12755 0.40661-0.98943-0.90533
   1   2  -4167422.6 1681.27   1-0.67655-0.62244 0.23763-0.04118-0.69699-0.78158
   1  -2  -4169945.2 1700.25   1-0.51883-0.29861 0.04024-0.13608-0.85393-0.94462
  -1  -2   4167769.5 1630.22   1-0.49249-0.54678 0.01168 0.29034-0.87023-0.78532
   1  -2  -4163962.9 1778.22   1-0.76911-0.54855-0.59986-0.77648-0.22048-0.31010
  -1  -2   4166043.5 1560.61   1-0.70529-0.76005-0.45942-0.18064 0.53990 0.62424
   1   2  -4173035.1 1877.74   1-0.40721-0.35247-0.19430-0.47290 0.89242 0.80754
   1  -2  -340016.44  857.45   1 0.00624 0.19157 0.77451 0.65269-0.63252-0.73299
   1   2  -340639.67  864.46   1-0.03275-0.01342 0.49439 0.27060-0.86861-0.96259
  -1   2   342612.16  911.75   1-0.03930-0.22477 0.43684 0.55862-0.89867-0.79838
  -1  -2   343748.61  876.71   1-0.05666-0.07599 0.26685 0.49064-0.96206-0.86803
   1   2  -340931.52  909.96   1-0.72976-0.71004 0.32254 0.09889-0.60283-0.69717
  -1  -2   342435.60  874.01   1-0.60733-0.62715 0.14416 0.36767-0.78125-0.68665
   1  -2  -340171.20  793.39   1-0.55468-0.36890 0.08072-0.04047-0.82813-0.92858
  -1   2   347469.38  950.12   1-0.39332-0.57908-0.08851 0.03254-0.91512-0.81461
  -1  -2   341441.07  825.10   1-0.68540-0.70574-0.43964-0.21603 0.58045 0.67472
   1   2  -343278.55  904.20   1-0.49030-0.47002-0.26374-0.48718 0.83068 0.73602
  -1   2   341281.35  992.21   1 0.07913-0.10666-0.70643-0.58528 0.70334 0.80378
  -1  -2   341403.03  895.48   1 0.05696 0.03681-0.49220-0.26852 0.86861 0.96256
   1  -2  -273337.18 1213.16   1 0.04230 0.19329 0.94274 0.87629-0.33080-0.44129
  -1   2   274611.30 1214.96   1 0.00574-0.14527 0.77157 0.83813-0.63611-0.52576
   1   2  -271806.97 1158.63   1-0.01860-0.03368 0.60785 0.43933-0.79383-0.89769
   1   2  -276514.37 1100.36   1-0.78671-0.80126 0.44764 0.27916-0.42507-0.52919
  -1  -2   268804.14 1152.68   1-0.72876-0.71408 0.32077 0.48916-0.60498-0.50079
   1  -2  -276341.17 1194.41   1-0.61992-0.46854 0.16018 0.09420-0.76813-0.87840
  -1   2   274581.57 1139.04   1-0.49569-0.64710 0.01510 0.08097-0.86836-0.75809
  -1  -2   274450.35 1062.08   1-0.67623-0.66214-0.43071-0.26233 0.59765 0.70196
   1   2  -276265.38 1128.78   1-0.55073-0.56489-0.31585-0.48415 0.77261 0.66819
  -1   2   274674.22 1254.19   1 0.09599-0.05549-0.87386-0.80791 0.47660 0.58668
   1  -2  -271952.07 1341.60   1 0.07878 0.23003-0.70299-0.76896 0.70681 0.59647
  -1  -2   271595.28 1273.26   1 0.06916 0.08356-0.60954-0.44100 0.78972 0.89360
   1  -2  -1129095.9 1714.95   1 0.08015 0.19674 0.99141 0.98030 0.10329-0.01706
  -1   2   1131077.2 1865.23   1 0.05969-0.05692 0.98669 0.99789-0.15125-0.03093
   1   2  -1132025.4 1836.15   1 0.00495-0.04445 0.76681 0.65356-0.64184-0.75556
  -1  -2   1139107.9 1751.42   1-0.01327 0.03610 0.64701 0.76026-0.76235-0.64860
   1   2  -1130912.9 1543.13   1-0.79734-0.84643 0.59114 0.47766-0.12159-0.23535
  -1  -2   1133095.3 1491.17   1-0.80268-0.75357 0.51857 0.63200-0.29458-0.18080
   1  -2  -1133281.3 1521.11   1-0.72375-0.60683 0.31206 0.30116-0.61545-0.73556
  -1   2   1137315.8 1570.56   1-0.63475-0.75168 0.17954 0.19037-0.75156-0.63144
  -1  -2   1128846.5 1596.03   1-0.67816-0.62966-0.43259-0.31930 0.59409 0.70821
   1   2  -1131027.2 1505.83   1-0.59213-0.64074-0.35255-0.46569 0.72462 0.61039
  -1   2   1137170.5 1819.72   1 0.10666-0.01035-0.99136-0.98050 0.07623 0.19622
   1  -2  -1135102.8 1864.23   1 0.10303 0.22004-0.94733-0.95812 0.30320 0.18322
  -1  -2   1137990.0 1769.05   1 0.08679 0.13578-0.78172-0.66836 0.61755 0.73133
   1   2  -1132628.9 1838.92   1 0.07425 0.02530-0.65890-0.77229 0.74855 0.63475
   1  -2   0165594.0 1976.14   1 0.10045 0.18270 0.88173 0.92584 0.46093 0.33081
  -1   2   0166287.2 1990.15   1 0.09168 0.00948 0.95474 0.91064 0.28294 0.41309
   1   2   0175604.7 2059.10   1 0.03912-0.04463 0.93175 0.87367-0.36097-0.48445
  -1  -2   0165553.9 1825.99   1 0.02100 0.10475 0.85440 0.91240-0.51918-0.39565
   1   2   0166905.7 1943.34   1-0.69347-0.77697 0.67414 0.61583 0.25420 0.13057
  -1  -2   0176666.0 1789.82   1-0.75215-0.66859 0.65179 0.71012 0.09710 0.22069
   1  -2   0172346.0 1666.61   1-0.80391-0.72149 0.55113 0.59529-0.22355-0.35364
  -1   2   0168072.2 1836.04   1-0.78197-0.86452 0.43380 0.38945-0.44758-0.31766
  -1  -2   0168891.7 1842.65   1-0.69174-0.60881-0.44589-0.38776 0.56804 0.69208
   1   2   0175711.9 1864.18   1-0.61714-0.70010-0.37521-0.43327 0.69163 0.56756
   1  -2   0164264.7 1854.34   1 0.10425 0.18673-0.97998-0.93564-0.16957-0.29949
  -1  -2   0169500.4 1937.34   1 0.10378 0.18702-0.95558-0.89737 0.27584 0.39967
   1   2   0180789.5 2149.16   1 0.09713 0.01381-0.88553-0.94370 0.45431 0.33049
   1  -2   1103768.2 1464.53   1 0.10631 0.15417 0.73395 0.83326 0.67082 0.53094
  -1   2  -1100940.6 1455.78   1 0.10275 0.05494 0.84641 0.74710 0.52251 0.66242
   1   2   199565.44 1525.54   1 0.07477-0.04338 0.99673 0.99374 0.03032-0.10288
  -1  -2  -1100294.5 1467.14   1 0.05615 0.17428 0.98017 0.98306-0.18999-0.05671
  -1  -2  -1108649.7 1457.05   1-0.61272-0.49465 0.67702 0.68000 0.40768 0.54120
   1  -2   1102440.6 1468.09   1-0.62872-0.58090 0.67801 0.77752 0.38078 0.24083
  -1   2  -1105383.3 1373.61   1-0.75386-0.80164 0.65064 0.55118 0.09140 0.23143
  -1  -2  -1101019.8 1236.77   1-0.71497-0.59762-0.46927-0.46630 0.51825 0.65222
   1   2   1108499.8 1452.08   1-0.62756-0.74497-0.38479-0.38768 0.67682 0.54287
   1   2   1100853.1 1636.49   1 0.10671-0.01106-0.99316-0.99619 0.04729-0.08645
   1  -2   2108674.5 1613.60   1 0.10629 0.11965 0.60482 0.75932 0.78923 0.63961
  -1   2  -2113188.0 1593.85   1 0.10584 0.09242 0.76107 0.60656 0.63997 0.78964
   1   2   2110019.5 1809.27   1 0.09740-0.05507 0.91481 0.96698 0.39194 0.24879
  -1  -2  -2106288.9 1514.76   1 0.08082 0.23340 0.99032 0.93812 0.11284 0.25583
  -1  -2  -2101593.2 1251.37   1-0.74438-0.59261-0.50049-0.55264 0.44204 0.58599
   1   2   2112361.9 1433.03   1-0.62413-0.77597-0.38163-0.32935 0.68177 0.53794
   1  -2   2118308.6 1562.91   1 0.06911 0.08201 0.60904 0.76353 0.79011 0.64053
   1  -2   361250.76 1017.74   1 0.10421 0.08311 0.49822 0.70791 0.86076 0.70138
  -1   2  -361954.15 1100.84   1 0.10658 0.12768 0.70788 0.49819 0.69823 0.85761
   1   2   356287.66 1133.09   1 0.10577-0.08109 0.76451 0.87189 0.63586 0.48292
  -1  -2  -361974.96 1136.35   1 0.09369 0.28069 0.94310 0.83575 0.31901 0.47193
  -1  -2  -364770.20 1045.58   1-0.77455-0.58840-0.53593-0.64325 0.33591 0.48989
   1   2   360567.41  959.09   1-0.60548-0.79188-0.36460-0.25706 0.70742 0.55392
  -1   2  -360240.09  953.00   1-0.06499-0.04491-0.49714-0.70689-0.86523-0.70589
   1   2   4195947.3 1821.14   1 0.10640-0.11496 0.61402 0.77653 0.78208 0.61949
  -1   2  -4184961.1 1947.66   1 0.10671 0.16225 0.67862 0.41375 0.72668 0.89581
  -1  -2  -4187841.0 1798.42   1 0.09966 0.32101 0.89153 0.72896 0.44185 0.60460
  -1   2  -4195843.0 1941.10   1-0.10139-0.04675-0.40938-0.67420-0.90671-0.73706
  -1  -2  -4193246.8 1686.62   1-0.79762-0.57706-0.57009-0.73260 0.19694 0.36095
   1   2   4200636.2 1728.98   1-0.56998-0.79082-0.33280-0.17009 0.75124 0.58792
  -1   2  -4197651.9 1847.21   1-0.09672-0.04235-0.40736-0.67237-0.90812-0.73899
   1   2   4191609.5 1834.49   1 0.06657-0.15513 0.58459 0.74694 0.80858 0.64653
  -1   2  -5592798.6 4438.49   1 0.10671 0.19670 0.66552 0.34546 0.73870 0.91758
  -1  -2  -5563313.3 4256.89   1 0.10238 0.35819 0.85304 0.63525 0.51169 0.68421
  -1   2  -5563386.3 3871.86   1-0.09821-0.00922-0.33105-0.65109-0.93848-0.75893
  -1   2  -5578019.4 3812.86   1-0.10737-0.01817-0.33000-0.65062-0.93785-0.75917
   1  -2   5614941.6 4791.79   1-0.74992-0.83873-0.59416-0.27404-0.29081-0.47055
  -1  -2  -5581171.9 3766.44   1-0.07720 0.17751-0.46346-0.68172-0.88274-0.70974
   1   2   5610167.6 4161.11   1 0.05157-0.20465 0.44070 0.65821 0.89616 0.72447
  -1   2  -5582607.8 4262.16   1 0.07441 0.16506 0.66046 0.34051 0.74715 0.92563
  -1  -2  -657825.94 1081.60   1 0.10363 0.39388 0.82894 0.55595 0.54964 0.73196
  -1   2  -658833.81 1034.11   1-0.09485 0.02847-0.26052-0.63578-0.96079-0.77134
  -1  -2  -661365.94 1035.38   1-0.10001 0.18935-0.37363-0.64673-0.92216-0.73883
  -1   2  -659073.83 1002.79   1-0.17729-0.05372-0.27640-0.65223-0.94454-0.75610
  -1  -2  -659077.83  924.71   1-0.07633 0.21318-0.35278-0.62631-0.93258-0.74985
  -1  -2  -664776.42 1316.40   1-0.77504-0.48575-0.60114-0.87402-0.19478-0.01071
   1  -2   658441.91 1125.17   1-0.77844-0.90162-0.60171-0.22640-0.17877-0.36852
   1   2   666260.20 1184.83   1-0.41913-0.70896-0.20412 0.06892 0.88467 0.70186
  -1   2  -659246.53 1417.83   1-0.20533-0.08261-0.28546-0.66098-0.93613-0.74584
  -1  -2  -659436.32  908.66   1-0.10683 0.18218-0.37716-0.65067-0.91996-0.73717
  -1  -2  -7 9849.61  461.06   1 0.10417 0.42879 0.81639 0.48822 0.56802 0.76011
  -1   2  -711091.10  416.59   1-0.09136 0.06630-0.19538-0.62586-0.97646-0.77710
  -1  -2  -710854.24  422.47   1-0.09565 0.22806-0.27645-0.60477-0.95625-0.76304
  -1   2  -710385.53  448.22   1-0.23440-0.07637-0.23016-0.66128-0.94449-0.74623
  -1  -2  -710994.04  421.17   1-0.13792 0.18597-0.30698-0.63573-0.94166-0.74916
   1  -2   711318.60  471.19   1-0.79928-0.95684-0.59984-0.16934-0.03640-0.23616
   1   2   710839.97  459.77   1-0.26859-0.59283-0.08282 0.24550 0.95968 0.76699
  -1   2  -710042.87  704.22   1-0.06973 0.08728-0.19029-0.62107-0.97924-0.77887
  -1   2  -8 3545.85  244.34   1-0.08776 0.10396-0.13425-0.61997-0.98705-0.77770
  -1  -2  -8 3725.31  258.23   1-0.09106 0.26700-0.19000-0.57354-0.97755-0.77443
  -1   2  -8 3591.47  242.42   1-0.28343-0.09102-0.18861-0.67495-0.94026-0.73222
  -1  -2  -8 3723.69  237.24   1-0.19208 0.16618-0.26464-0.64861-0.94502-0.74275
   1  -2   8 3092.94  274.00   1-0.80167-0.99374-0.57904-0.09334 0.14840-0.06121
   1  -2   8 3348.31  302.00   1-0.06142-0.25428 0.07583 0.56188 0.99522 0.78716
  -1   2  -913925.92  530.95   1-0.08402 0.14200-0.07571-0.61666-0.99358-0.77430
  -1  -2  -914041.62  549.24   1-0.08634 0.30579-0.11149-0.55037-0.99000-0.77690
  -1   2  -912929.98  530.04   1-0.32701-0.10022-0.15012-0.69168-0.93301-0.71520
  -1  -2  -913541.57  521.13   1-0.24084 0.15189-0.22481-0.66406-0.94416-0.73208
   1  -2   9 8305.17  733.35   1-0.75374-0.98055-0.51099 0.02981 0.41322 0.19396
  -1   2 -10 3410.96  257.85   1-0.08015 0.18016-0.01908-0.61536-0.99659-0.76738
  -1  -2 -10 3523.80  275.37   1-0.08151 0.34493-0.03846-0.53257-0.99593-0.77290
  -1   2 -10 3832.72  247.53   1-0.36659-0.10531-0.11382-0.71063-0.92339-0.69563
  -1  -2 -10 4110.50  274.66   1-0.28546 0.14165-0.18685-0.68132-0.93999-0.71814
  -1  -2 -1142273.39 1113.50   1-0.07654 0.38419 0.03060-0.51886-0.99659-0.76365
  -1   2 -1141466.23 1089.05   1-0.07613 0.21848 0.03608-0.61543-0.99644-0.75730
  -1   2 -1149872.85 1166.02   1-0.40346-0.10780-0.07874-0.73077-0.91159-0.67405
  -1  -2 -1145151.41 1100.11   1-0.32689 0.13460-0.15023-0.69992-0.93304-0.70141
  -1  -2 -12  208.43   98.87   1-0.07145 0.42358 0.09654-0.50815-0.99276-0.74989
  -1   2 -12  227.48  111.18   1-0.07195 0.25696 0.09026-0.61648-0.99331-0.74425
  -1   2 -12   63.81   98.02   1-0.43814-0.10793-0.04454-0.75186-0.89779-0.65042
  -1  -2 -12  241.70  134.87   1-0.36571 0.13027-0.11464-0.71958-0.92364-0.68207
  -1  -2 -1325142.88  756.82   1-0.06617 0.46322 0.16056-0.49954-0.98480-0.73203
  -1   2 -1328146.14  713.84   1-0.06758 0.29567 0.14390-0.61822-0.98728-0.72826
  -1   2 -1324049.96  699.92   1-0.47106-0.10645-0.01089-0.77344-0.88203-0.62486
  -1  -2 -1329230.24  872.96   1-0.40254 0.12783-0.07963-0.73979-0.91193-0.66057
   1   3 -13 6254.00  342.75   1-0.03872 0.28214 0.44207-0.35983-0.89613-0.88933
   1   3 -13 5200.67  362.83   1-0.64955-0.32743 0.19947-0.60214-0.73367-0.72815
   1  -3 -13 5827.77  314.34   1-0.56005 0.01114 0.08695-0.56107-0.82388-0.82769
  -1   3  13 5976.26  439.10   1 0.06059-0.51211-0.52701 0.11980 0.84769 0.85052
  -1  -3  13 6087.61  378.65   1 0.05124-0.27295-0.43758 0.36317 0.89771 0.89084
   1  -3 -1210316.80  444.56   1-0.02834 0.50737 0.53127-0.06245-0.84672-0.85945
   1   3 -1210071.19  416.27   1-0.04156 0.24492 0.41623-0.33035-0.90830-0.91152
   1   3 -1210122.28  392.95   1-0.63983-0.35210 0.18631-0.56005-0.74558-0.74990
   1  -3 -1212230.07  431.82   1-0.54290-0.00610 0.06720-0.52558-0.83710-0.85071
  -1   3  12 8545.95  535.96   1 0.05841-0.47974-0.50612 0.08554 0.86048 0.87322
   1  -3 -1122018.91  682.11   1-0.03084 0.47057 0.51058-0.02788-0.85927-0.88192
   1   3 -1121668.06  703.96   1-0.04404 0.20814 0.39317-0.29816-0.91841-0.93154
   1   3 -1120739.86  596.53   1-0.63224-0.37874 0.17622-0.51482-0.75446-0.76909
   1  -3 -1121737.65  641.29   1-0.52661-0.02420 0.04886-0.48868-0.84869-0.87212
  -1   3  1120236.92  696.95   1 0.05660-0.44700-0.48875 0.04777 0.87058 0.89325
   1  -3 -1092819.70 1373.04   1-0.03265 0.43450 0.49521 0.01210-0.86815-0.90058
   1   3 -1089516.11 1360.54   1-0.04610 0.17178 0.37355-0.26252-0.92646-0.94950
   1   3 -1091535.90 1279.91   1-0.62696-0.40786 0.16930-0.46649-0.76042-0.78487
   1  -3 -1097194.38 1302.47   1-0.51153-0.04343 0.03223-0.44987-0.85865-0.89203
   1  -3  -965563.26 1103.87   1-0.03357 0.39928 0.48738 0.05953-0.87254-0.91489
   1   3  -959221.87 1190.18   1-0.04768 0.13590 0.35820-0.22262-0.93242-0.96538
   1   3  -959407.73 1058.78   1-0.62504-0.44034 0.16681-0.41374-0.76255-0.79681
   1  -3  -963162.32  961.78   1-0.49804-0.06434 0.01762-0.40926-0.86697-0.91014
  -1  -3   950722.17 1755.76   1-0.80307-0.98809-0.58341-0.00291 0.12118 0.15380
  -1   3   964936.47 1149.01   1 0.05453-0.37997-0.46903-0.04279 0.88149 0.92400
   1  -3  -8 3245.21  233.29   1-0.03330 0.36524 0.48972 0.11714-0.87123-0.92351
   1   3  -8 2676.16  200.87   1-0.04870 0.10058 0.34827-0.17730-0.93612-0.97900
  -1   3   8 2620.21  240.39   1-0.10035-0.49937-0.38203-0.00971-0.91868-0.86632
   1   3  -8 3116.36  213.68   1-0.62762-0.47730 0.17016-0.35514-0.75969-0.80377
   1  -3  -8 2918.99  222.52   1-0.48677-0.08747 0.00560-0.36605-0.87350-0.92647
  -1  -3   8 3008.51  252.81   1-0.77427-0.92500-0.53558-0.01033 0.33710 0.37982
  -1  -3   8 2998.18  325.98   1-0.16263-0.31254-0.25594 0.26983-0.95291-0.91077
  -1   3   8 3136.94  256.02   1 0.05467-0.34529-0.47031-0.09921 0.88080 0.93323
   1  -3  -7112275.8 1454.87   1-0.03127 0.33291 0.50691 0.18952-0.86142-0.92371
   1   3  -7100255.4 1456.02   1-0.04899 0.06599 0.34539-0.12492-0.93717-0.98996
  -1   3   796529.59 1470.09   1-0.09675-0.46143-0.29927 0.01782-0.94924-0.88699
   1   3  -7104473.6 1446.09   1-0.63598-0.52019 0.18118-0.28894-0.75012-0.80368
   1  -3  -7102134.7 1380.34   1-0.47863-0.11373-0.00298-0.31941-0.87800-0.94076
   1  -3  -7103863.9 1760.58   1-0.80168-0.43638-0.57908-0.89553 0.14816 0.08712
  -1  -3   7102576.7 1465.50   1-0.73241-0.84894-0.48751-0.01755 0.47529 0.52819
   1  -3  -796799.47 1768.13   1-0.14126 0.22395 0.01570-0.30038 0.98984 0.92715
  -1  -3   799471.67 2064.33   1-0.00570-0.12131-0.14393 0.32658-0.98957-0.93734
  -1   3   7105058.4 1560.67   1 0.05601-0.30941-0.48310-0.16714 0.87376 0.93612
   1  -3  -6117430.7 1556.62   1-0.02655 0.30332 0.54583 0.28371-0.83747-0.90967
   1   3  -6113093.3 1415.59   1-0.04832 0.03235 0.35193-0.06313-0.93477-0.99747
  -1   3   6116916.1 1585.27   1-0.09136-0.42167-0.19532 0.06656-0.97647-0.90429
   1   3  -6117713.5 1499.53   1-0.65265-0.57125 0.20373-0.21114-0.72974-0.79314
   1  -3  -6117134.7 1456.41   1-0.47498-0.14448-0.00681-0.26801-0.87997-0.95251
  -1  -3   6111382.4 1448.30   1-0.33538-0.41688-0.14256 0.27206-0.93123-0.86728
   1  -3  -6116707.7 1609.70   1-0.78419-0.45335-0.60236-0.86375-0.14896-0.21998
  -1  -3   6108148.6 1742.90   1-0.68977-0.77192-0.44394-0.02922 0.57194 0.63503
   1   3  -6111296.8 1608.17   1-0.09960-0.01750 0.04724-0.36737 0.99390 0.92991
  -1   3   6111094.6 2327.29   1-0.09890-0.42938-0.21111 0.05099-0.97244-0.90167
  -1   3   6122503.4 1799.48   1 0.05909-0.27177-0.51268-0.25186 0.85654 0.92881
   1  -3  -5 2573.96  219.07   1-0.01717 0.27832 0.61853 0.41165-0.78557-0.86779
   1   3  -5 2779.42  251.59   1-0.04632 0.00006 0.37140 0.01159-0.92731-0.99993
  -1  -3   5 2833.85  237.01   1-0.07873-0.12527 0.00082 0.36066-0.99689-0.92424
  -1   3   5 2583.01  225.88   1-0.08265-0.37845-0.05516 0.15158-0.99505-0.91312
   1   3  -5 2618.13  195.69   1-0.67983-0.63282 0.24244-0.11718-0.69213-0.76537
   1  -3  -5 2567.52  187.07   1-0.47796-0.18187-0.00368-0.20965-0.87836-0.96070
  -1  -3   5 2622.45  201.50   1-0.42243-0.46955-0.06018 0.29921-0.90439-0.83065
  -1   3   5 2785.45  211.46   1-0.20748-0.50354-0.25224-0.04626-0.94515-0.86272
  -1  -3   5 2739.41  212.62   1-0.65179-0.69956-0.40737-0.04787 0.63968 0.71296
   1   3  -5 2861.76  254.40   1-0.21112-0.16341-0.03793-0.39733 0.97672 0.90300
  -1   3   5 2777.29  336.15   1-0.23349-0.52966-0.30469-0.09784-0.92338-0.84254
  -1   3   5 2408.92  265.49   1 0.06479-0.23153-0.56743-0.36175 0.82086 0.90306
   1  -3  -4267414.3 2121.38   1 0.00046 0.26163 0.73930 0.58770-0.67337-0.76560
   1   3  -4279426.5 2206.83   1-0.04234-0.03025 0.40903 0.10448-0.91153-0.99406
  -1   3   4271913.1 2345.58   1-0.06674-0.32811 0.15384 0.30536-0.98583-0.89392
  -1  -3   4276246.1 2227.56   1-0.07099-0.08314 0.10234 0.40691-0.99221-0.90967
   1   3  -4274905.2 1883.58   1-0.71916-0.70655 0.30424-0.00021-0.62469-0.70766
  -1  -3   4288329.2 2171.09   1-0.52495-0.53768 0.04702 0.35132-0.84982-0.76646
   1  -3  -4267158.8 1915.88   1-0.49119-0.22950 0.01030-0.14044-0.87098-0.96312
  -1   3   4287026.0 2210.88   1-0.26125-0.52291-0.20762-0.05690-0.94267-0.85048
  -1  -3   4270662.5 1844.98   1-0.62081-0.63414-0.37858-0.07424 0.68648 0.76964
   1   3  -4269506.1 2174.13   1-0.30201-0.28875-0.10926-0.41348 0.94702 0.86350
  -1   3   4281362.7 2411.48   1 0.07432-0.18745-0.65955-0.50901 0.74797 0.84009
   1  -3  -3 1465.83  163.59   1 0.03146 0.25829 0.90201 0.80579-0.43056-0.53289
   1   3  -3 1729.48  189.48   1-0.03531-0.05752 0.47233 0.22303-0.88071-0.97311
  -1   3   3 1600.13  191.33   1-0.03472-0.26172 0.47748 0.57376-0.87795-0.77607
  -1  -3   3 1248.99  150.48   1-0.06067-0.03852 0.22337 0.47269-0.97284-0.88038
   1   3  -3 1521.08  146.53   1-0.76730-0.78899 0.39703 0.14777-0.50358-0.59635
  -1  -3   3 1745.19  163.42   1-0.64269-0.62092 0.19015 0.43929-0.74214-0.64920
   1  -3  -3 1752.84  173.15   1-0.52094-0.29368 0.04258-0.05304-0.85252-0.95443
  -1   3   3 1783.62  177.46   1-0.32571-0.55298-0.15130-0.05579-0.93328-0.83131
  -1  -3   3 1454.73  155.78   1-0.59973-0.57857-0.35940-0.11030 0.71494 0.80813
   1   3  -3 1620.47  163.05   1-0.37381-0.39496-0.16698-0.41603 0.91234 0.81909
  -1   3   3 1567.19  210.94   1 0.08844-0.13885-0.79810-0.70252 0.59599 0.69797
   1  -3  -3 1649.07  193.61   1 0.05286 0.28010-0.45306-0.54845 0.88990 0.78786
  -1  -3   3 1541.94  166.69   1 0.05495 0.07622-0.47301-0.22367 0.87934 0.97167
   1  -3  -211633.73  506.13   1 0.07152 0.26402 0.99737 0.95657-0.01136-0.12354
  -1   3   211548.08  454.35   1 0.02266-0.16984 0.86248 0.90349-0.50557-0.39349
   1   3  -210581.87  445.87   1-0.02333-0.07990 0.57147 0.37744-0.82028-0.92257
  -1  -3   211401.00  446.31   1-0.04640 0.01010 0.37059 0.56464-0.92763-0.82527
   1   3  -211926.90  417.54   1-0.80271-0.85885 0.51880 0.32446-0.29410-0.39634
  -1  -3   210135.44  421.81   1-0.75557-0.69948 0.37160 0.56561-0.53945-0.43681
   1  -3  -211418.41  402.06   1-0.57852-0.38565 0.10879 0.06838-0.80837-0.92010
  -1   3   212869.04  466.19   1-0.40922-0.60208-0.07314-0.03288-0.90949-0.79775
  -1  -3   211190.68  389.34   1-0.58933-0.53372-0.35004-0.15611 0.72811 0.83112
   1   3  -211738.69  436.74   1-0.42832-0.48393-0.21173-0.40562 0.87846 0.77542
  -1   3   211028.33  471.17   1 0.10334-0.08964-0.95066-0.91033 0.29249 0.40405
   1  -3  -210680.39  490.75   1 0.08436 0.27703-0.75771-0.79803 0.64710 0.53514
  -1  -3   211404.29  452.97   1 0.06599 0.12181-0.57895-0.38476 0.81268 0.91494
   1  -3   014685.19  559.31   1 0.10590 0.22965 0.75836 0.82805 0.64317 0.51144
  -1   3   015426.94  557.42   1 0.09897-0.02475 0.89929 0.82963 0.42599 0.55776
   1   3   015598.82  543.89   1 0.02623-0.09904 0.87918 0.79563-0.47576-0.59761
  -1  -3   014797.47  507.82   1 0.00152 0.12677 0.74594 0.82942-0.66600-0.54403
   1   3   015498.72  496.58   1-0.64639-0.77137 0.67833 0.59440 0.34932 0.22730
  -1  -3   017029.61  496.47   1-0.73635-0.61138 0.66068 0.74461 0.14585 0.26787
   1  -3   016125.26  480.21   1-0.79831-0.67437 0.49091 0.56064-0.34884-0.48051
  -1   3   016082.50  551.03   1-0.70102-0.82506 0.27472 0.20481-0.65809-0.52661
  -1  -3   014821.42  461.32   1-0.60454-0.48004-0.36375-0.28015 0.70866 0.83130
   1   3   016303.84  487.31   1-0.49034-0.61486-0.26377-0.34734 0.83065 0.70801
  -1  -3   016035.14  542.49   1 0.10059 0.22525-0.92125-0.83739 0.37571 0.49803
   1   3   015633.37  623.82   1 0.08764-0.03726-0.79018-0.87401 0.60656 0.48445
  -1   3  -2535475.3 4221.11   1 0.10655 0.05174 0.71220 0.53211 0.69383 0.84509
   1   3   2534844.1 4075.43   1-0.49432-0.68776-0.26716-0.24040 0.82719 0.68497
   1   3   2566235.1 4472.42   1 0.10523-0.08851-0.98693-0.96040-0.12202-0.26418
  -1   3  -334599.55  810.89   1 0.10671 0.08635 0.66821 0.43294 0.73627 0.89727
   1   3   335849.80  931.55   1 0.10389-0.12449 0.82304 0.90485 0.55839 0.40711
  -1  -3  -335287.87  819.02   1 0.08264 0.31111 0.98683 0.90501 0.13900 0.29010
  -1   3  -333865.00  770.79   1-0.10218-0.12339-0.43164-0.66678-0.89623-0.73496
  -1  -3  -335067.49  690.48   1-0.70561-0.47795-0.45974-0.54148 0.53920 0.69163
   1   3   336788.01  782.58   1-0.47376-0.70165-0.24973-0.16780 0.84449 0.69247
  -1   3  -333828.81  667.49   1-0.08829-0.10972-0.43195-0.66721-0.89756-0.73673
   1  -3   334207.64  786.04   1 0.05113 0.07092 0.43658 0.67183 0.89821 0.73729
  -1   3  -333782.63  826.94   1 0.07554 0.05575 0.67140 0.43614 0.73723 0.89814
  -1   3  -490948.30 1236.75   1 0.10664 0.12073 0.64552 0.35506 0.75625 0.92701
   1   3   496855.57 1324.33   1 0.10670-0.15611 0.66180 0.79872 0.74204 0.58109
  -1  -3  -490800.82 1404.45   1 0.09276 0.35567 0.94877 0.81181 0.30202 0.46309
  -1   3  -495428.01 1235.70   1-0.09930-0.08617-0.35627-0.64664-0.92908-0.75791
  -1   3  -492447.65 1251.64   1-0.07522-0.06189-0.35358-0.64456-0.93237-0.76203
  -1  -3  -492835.02 1067.49   1-0.74798-0.48590-0.50448-0.64134 0.43129 0.59377
   1   3   495612.57 1348.67   1-0.43563-0.69797-0.21780-0.08070 0.87337 0.71155
  -1   3  -493258.96 1701.87   1-0.29140-0.27882-0.34361-0.63412-0.89275-0.72121
  -1   3  -488658.89  972.32   1-0.11426-0.10140-0.35445-0.64496-0.92806-0.75745
   1   3   494670.00 1310.90   1 0.07118-0.19191 0.62915 0.76589 0.77401 0.61365
  -1   3  -492636.50 1207.51   1 0.07289 0.08762 0.64571 0.35531 0.76008 0.93063
   1   3   537755.55  829.18   1 0.10465-0.19261 0.51568 0.70778 0.85036 0.67966
  -1   3  -533064.62  785.99   1 0.10659 0.15513 0.63702 0.29137 0.76343 0.94394
  -1  -3  -535261.11  856.02   1 0.09786 0.39512 0.91055 0.71836 0.40164 0.57256
  -1   3  -538043.02  809.26   1-0.09625-0.04878-0.28883-0.63441-0.95252-0.77144
  -1   3  -537748.33  792.79   1-0.16029-0.11258-0.28973-0.63593-0.94358-0.76348
  -1  -3  -538260.99  770.56   1-0.78438-0.48795-0.54903-0.74110 0.28861 0.46116
   1   3   539258.29  862.12   1-0.37576-0.67257-0.16857 0.02368 0.91125 0.73964
  -1   3  -536713.02 1119.00   1-0.21857-0.17169-0.29453-0.64030-0.93030-0.74868
  -1  -3  -536702.92  675.31   1-0.06996 0.22627-0.48357-0.67632-0.87250-0.70098
   1   3   536714.10  798.08   1 0.05409-0.24353 0.46475 0.65664 0.88378 0.71379
  -1   3  -536600.42  834.40   1 0.07175 0.12100 0.63467 0.28911 0.76944 0.94961
  -1  -3  -644212.37  949.19   1 0.10040 0.43211 0.88237 0.63496 0.45971 0.64038
  -1   3  -645795.82  908.86   1-0.09309-0.01127-0.22673-0.62752-0.96949-0.77851
  -1  -3  -646529.41  934.76   1-0.10081 0.23006-0.39399-0.64155-0.91356-0.73176
  -1   3  -648118.22  924.65   1-0.22403-0.14195-0.23873-0.64015-0.94488-0.75502
  -1  -3  -645070.43  881.50   1-0.06732 0.26368-0.35927-0.60723-0.93080-0.74949
  -1  -3  -649991.39  958.94   1-0.80364-0.47281-0.58592-0.83316 0.10415 0.28684
   1   3   644462.08  963.33   1-0.28711-0.61834-0.09744 0.15008 0.95292 0.77144
  -1   3  -647337.01 1295.39   1-0.12897-0.04777-0.23238-0.63341-0.96403-0.77233
  -1  -3  -648056.64  791.61   1-0.10158 0.22894-0.39296-0.64097-0.91392-0.73261
  -1  -3  -7 2239.84  238.23   1 0.10164 0.46779 0.86501 0.56240 0.49134 0.68180
  -1   3  -7 2594.33  205.08   1-0.08980 0.02635-0.16825-0.62428-0.98164-0.78075
  -1  -3  -7 2123.63  195.82   1-0.09617 0.26905-0.28708-0.58986-0.95306-0.76136
  -1   3  -7 2395.67  230.13   1-0.27594-0.15940-0.19507-0.65177-0.94116-0.74147
  -1  -3  -7 2096.88  180.64   1-0.12773 0.23765-0.31472-0.61790-0.94054-0.74947
   1  -3   7 1922.05  196.78   1-0.75756-0.87359-0.59666-0.14055-0.26472-0.46590
  -1  -3  -7 2519.65  231.02   1-0.78671-0.42152-0.60247-0.90495-0.13455 0.05811
   1   3   7 2268.02  260.01   1-0.15296-0.51861 0.00679 0.30956 0.98820 0.79700
  -1   3  -7 2376.59  266.13   1-0.02025 0.09523-0.15455-0.61085-0.98777-0.78599
  -1   3  -8 9690.37  428.96   1-0.08641 0.06379-0.11254-0.62378-0.98988-0.77898
  -1  -3  -810151.86  449.79   1-0.09123 0.30833-0.19316-0.55116-0.97691-0.77533
  -1   3  -810296.13  415.73   1-0.32071-0.16979-0.15578-0.66769-0.93427-0.72480
  -1  -3  -8 9032.50  442.98   1-0.18131 0.21844-0.27322-0.63161-0.94470-0.74386
   1  -3   8 8836.05  455.15   1-0.78934-0.93975-0.60244-0.09114-0.11829-0.32948
   1  -3   8 8966.43  467.62   1-0.07873-0.23014 0.06290 0.57456 0.99490 0.78543
  -1  -3  -8 8720.60  853.66   1-0.13215 0.26683-0.23462-0.59305-0.96306-0.75966
  -1   3  -960147.52 1465.36   1-0.08287 0.10163-0.05847-0.62494-0.99484-0.77402
  -1  -3  -960426.15 1557.63   1-0.08618 0.34748-0.10895-0.52231-0.99030-0.77874
  -1   3  -965540.71 1535.37   1-0.36059-0.17519-0.11940-0.68657-0.92504-0.70563
  -1  -3  -959375.59 1424.48   1-0.22984 0.20438-0.23394-0.64761-0.94469-0.73404
   1  -3   955488.81 1486.84   1-0.23911-0.42504-0.05971 0.50708 0.96915 0.74980
  -1   3 -10   -1.95   85.18   1-0.07919 0.13958-0.00562-0.62741-0.99684-0.76607
  -1  -3 -10   67.12   96.06   1-0.08102 0.38695-0.03146-0.50005-0.99621-0.77473
  -1   3 -10   12.75   72.69   1-0.39738-0.17759-0.08461-0.70700-0.91374-0.68454
  -1  -3 -10   30.53  117.59   1-0.27443 0.19417-0.19637-0.66526-0.94134-0.72091
  -1   3 -11 1652.19  172.67   1-0.07536 0.17772 0.04631-0.63071-0.99607-0.75538
  -1  -3 -11 1301.03  160.61   1-0.07575 0.42652 0.04122-0.48273-0.99627-0.76488
  -1   3 -11 1698.11  166.73   1-0.43173-0.17740-0.05095-0.72862-0.90055-0.66153
  -1  -3 -11 1307.77  165.25   1-0.31597 0.18701-0.16001-0.68412-0.93517-0.70497
  -1   3 -12 9294.75  391.95   1-0.07135 0.21606 0.09775-0.63463-0.99264-0.74198
  -1  -3 -12 9328.71  395.69   1-0.07034 0.46629 0.11041-0.46893-0.99139-0.75011
  -1   3 -12 9697.66  422.00   1-0.46424-0.17551-0.01796-0.75086-0.88552-0.63670
  -1  -3 -1211496.16  458.77   1-0.35499 0.18247-0.12459-0.70396-0.92652-0.68639
  -1   3 -13 8505.36  431.13   1-0.06717 0.25455 0.14879-0.63884-0.98658-0.72600
  -1   3 -13 7919.38  490.03   1-0.49527-0.17214 0.01465-0.77347-0.86861-0.61000
  -1  -3 -13 9279.50  471.50   1-0.39207 0.17978-0.08971-0.72430-0.91554-0.66562
   1   4 -1315561.58  542.30   1-0.03911 0.24022 0.43859-0.38881-0.89783-0.88944
   1   4 -1314885.61  475.80   1-0.66988-0.38925 0.22796-0.59922-0.70660-0.69958
   1  -4 -1315498.41  500.11   1-0.55146 0.06121 0.07700-0.54545-0.83063-0.83590
  -1   4  1314788.02  704.63   1 0.06372-0.55039-0.55710 0.06405 0.82799 0.83244
   1   4 -12  966.60  140.73   1-0.04185 0.20309 0.41356-0.35853-0.90951-0.91115
   1   4 -12  953.05  124.14   1-0.66197-0.41573 0.21671-0.55522-0.71751-0.72034
   1  -4 -12  858.37  128.90   1-0.53375 0.04453 0.05684-0.51036-0.84372-0.85880
  -1   4  12  710.31  213.30   1 0.06174-0.51783-0.53803 0.02797 0.84065 0.85502
   1  -4 -11   84.31  100.98   1-0.02516 0.51778 0.55698 0.04401-0.83014-0.85438
   1   4 -11  -30.89  103.53   1-0.04424 0.16640 0.39128-0.32555-0.91920-0.93076
   1   4 -11   23.55   68.98   1-0.65619-0.44433 0.20862-0.50806-0.72518-0.73785
   1  -4 -11   21.56  137.26   1-0.51684 0.02714 0.03805-0.47370-0.85523-0.88026
  -1   4  11  -25.83  138.95   1 0.06017-0.48485-0.52297-0.01210 0.85022 0.87450
   1  -4 -10 4904.86  301.72   1-0.02657 0.48207 0.54570 0.08800-0.83755-0.87170
   1   4 -10 4788.31  322.98   1-0.04622 0.13012 0.37240-0.28917-0.92691-0.94838
   1   4 -10 4792.31  269.37   1-0.65319-0.47573 0.20447-0.45695-0.72905-0.75157
   1  -4 -10 4826.05  270.03   1-0.50098 0.00860 0.02078-0.43574-0.86520-0.90003
  -1   4  10 4713.23  356.67   1 0.05914-0.45134-0.51308-0.05735 0.85629 0.89050
   1  -4  -915478.56  664.22   1 0.10455 0.57977 0.51145 0.11010 0.85292 0.80730
   1  -4  -917769.60  701.36   1-0.02686 0.44747 0.54337 0.14094-0.83906-0.88312
   1   4  -918201.83  686.03   1-0.04773 0.09431 0.35770-0.24862-0.93261-0.96399
   1   4  -918669.16  623.80   1-0.65386-0.51078 0.20539-0.40079-0.72820-0.76056
   1  -4  -918248.09  644.03   1-0.48659-0.01141 0.00540-0.39589-0.87361-0.91822
  -1  -4   913958.54  713.03   1-0.76318-0.90708-0.52196 0.08394 0.38091 0.41249
  -1  -4   913786.93  827.74   1-0.29306-0.43575-0.34471 0.26185-0.89178-0.86113
   1  -4  -914125.31  567.68   1 0.05162 0.52701 0.44119 0.04021 0.89592 0.84890
  -1   4   915635.17  961.81   1 0.05882-0.41710-0.51008-0.10950 0.85810 0.90223
   1  -4  -837920.28  982.33   1-0.02559 0.41444 0.55361 0.20644-0.83238-0.88635
   1   4  -838306.10  936.12   1-0.04870 0.05904 0.34825-0.20282-0.93613-0.97743
  -1   4   833791.99 1015.27   1-0.10279-0.54333-0.45016-0.10337-0.88701-0.83312
   1   4  -832762.22 1026.36   1-0.65932-0.55063 0.21298-0.33795-0.72106-0.76327
   1  -4  -838234.91  979.49   1-0.47423-0.03345-0.00759-0.35366-0.88036-0.93477
   1  -4  -839152.58 1052.93   1-0.80318-0.36197-0.58383-0.92984 0.11846 0.06601
  -1  -4   832135.04  894.81   1-0.71512-0.82466-0.46943 0.08123 0.51791 0.55976
  -1  -4   835974.10 1304.28   1-0.14883-0.25721-0.24631 0.30499-0.95769-0.91696
  -1   4   840283.00 1018.85   1 0.05950-0.38188-0.51656-0.17111 0.85418 0.90823
   1  -4  -760575.80 1066.90   1-0.02195 0.38376 0.58224 0.29035-0.81271-0.87659
   1   4  -758093.29 1002.90   1-0.04897 0.02447 0.34553-0.15028-0.93712-0.98834
  -1   4   755949.55 1173.26   1-0.10000-0.50619-0.37324-0.08168-0.92232-0.85854
   1   4  -757434.98  945.96   1-0.67102-0.59673 0.22960-0.26608-0.70498-0.75703
   1  -4  -756422.03  950.15   1-0.46471-0.05833-0.01748-0.30833-0.88528-0.94948
   1  -4  -759801.48 1384.08   1-0.77319-0.36645-0.60077-0.89175-0.20305-0.26548
  -1  -4   756436.53 1165.53   1-0.66718-0.74237-0.42199 0.07345 0.61382 0.66594
   1  -4  -755932.49 1106.63   1-0.14955 0.25710 0.00939-0.28107 0.98870 0.92460
  -1  -4   754742.06 1549.70   1-0.02638-0.10046-0.15900 0.33703-0.98692-0.93611
  -1   4   754084.65  940.44   1-0.10593-0.51183-0.37989-0.08807-0.91894-0.85455
  -1   4   761388.83 1254.78   1 0.06157-0.34526-0.53645-0.24615 0.84167 0.90564
   1  -4  -681124.03 1393.50   1-0.01439 0.35695 0.63894 0.40229-0.76911-0.84305
   1   4  -682364.89 1177.11   1-0.04835-0.00920 0.35167-0.08888-0.93487-0.99599
  -1   4   682611.50 1386.05   1-0.09553-0.46735-0.27399-0.03763-0.95697-0.88326
   1   4  -687909.28 1300.91   1-0.69057-0.65067 0.25853-0.18199-0.67548-0.73722
   1  -4  -680458.42 1112.63   1-0.45925-0.08727-0.02311-0.25873-0.88800-0.96199
  -1  -4   687763.73 1317.64   1-0.35264-0.39265-0.12677 0.31342-0.92713-0.86462
  -1  -4   686486.80 1239.70   1-0.62271-0.66346-0.38032 0.05996 0.68379 0.74579
   1   4  -678679.82 1294.22   1-0.05614-0.01549 0.07977-0.36045 0.99523 0.93264
  -1   4   682544.00 1953.60   1-0.02280-0.39481-0.15640 0.08019-0.98742-0.91525
  -1   4   680873.26 1339.05   1 0.06568-0.30661-0.57594-0.34079 0.81484 0.88873
   1  -4  -550864.44  998.25   1 0.00001 0.33702 0.73649 0.55512-0.67644-0.76042
   1   4  -550074.25  969.20   1-0.04649-0.04164 0.36974-0.01556-0.92796-0.99901
  -1  -4   547591.21  993.58   1-0.07996-0.08498-0.01641 0.36893-0.99666-0.92556
  -1   4   548218.36  970.30   1-0.08763-0.42495-0.13214 0.04907-0.98734-0.90388
   1   4  -552194.23  864.77   1-0.71959-0.71409 0.30498-0.08028-0.62382-0.69543
   1  -4  -548197.11  871.70   1-0.45978-0.12220-0.02257-0.20296-0.88774-0.97153
  -1  -4   547141.11  864.71   1-0.44457-0.45029-0.03806 0.34698-0.89493-0.82269
  -1   4   549588.22  915.75   1-0.16141-0.49896-0.28885-0.10845-0.94366-0.85980
  -1  -4   549192.48  892.68   1-0.58514-0.59142-0.34628 0.03877 0.73327 0.80542
   1   4  -548987.31  958.56   1-0.14729-0.14108 0.01111-0.37393 0.98903 0.91666
  -1   4   552204.50 1329.93   1-0.13336-0.47106-0.23547-0.05414-0.96268-0.88043
  -1   4   549715.53 1007.52   1 0.07275-0.26499-0.64431-0.46429 0.76129 0.84510
   1  -4  -4 3795.52  262.78   1 0.02641 0.32909 0.87997 0.75402-0.47428-0.56845
   1   4  -4 3833.95  293.79   1-0.04286-0.07231 0.40419 0.07414-0.91366-0.99462
  -1   4   4 3920.73  281.20   1-0.07086-0.37376 0.10387 0.22989-0.99206-0.89858
  -1  -4   4 3866.47  304.90   1-0.07321-0.04392 0.07429 0.40440-0.99454-0.91352
   1   4  -4 4236.81  274.92   1-0.75692-0.78570 0.37439 0.04431-0.53561-0.61701
  -1  -4   4 3835.41  256.71   1-0.55224-0.52347 0.07789 0.40776-0.83003-0.74813
   1  -4  -4 3731.50  231.70   1-0.46952-0.16634-0.01250-0.13766-0.88283-0.97640
  -1   4   4 3882.25  257.10   1-0.20498-0.50815-0.25426-0.12908-0.94516-0.85153
  -1  -4   4 3395.72  201.74   1-0.55514-0.52698-0.31972 0.01017 0.76784 0.84981
   1   4  -4 3929.89  284.09   1-0.22278-0.25096-0.04698-0.37683 0.97373 0.89163
  -1   4   4 3789.75  359.00   1-0.21269-0.51608-0.29050-0.16444-0.93293-0.84060
  -1   4   4 3988.42  303.14   1 0.08380-0.21938-0.75218-0.62715 0.65359 0.74736
   1  -4  -3 1941.03  204.03   1 0.06574 0.33413 0.99447 0.92401-0.08182-0.18586
  -1   4   3 2022.95  210.03   1-0.03012-0.29862 0.51659 0.58741-0.85569-0.75217
   1   4  -3 1966.97  176.38   1-0.03657-0.10031 0.46126 0.18647-0.88650-0.97732
  -1  -4   3 1843.82  183.50   1-0.06452-0.00084 0.17977 0.45460-0.98158-0.89069
   1   4  -3 2112.19  169.35   1-0.79341-0.85651 0.47019 0.19530-0.38653-0.47775
  -1  -4   3 1894.35  153.62   1-0.67088-0.60762 0.22940 0.50409-0.70518-0.61374
   1  -4  -3 1893.50  168.07   1-0.49417-0.22540 0.01347-0.05645-0.86925-0.97262
  -1   4   3 1851.20  176.78   1-0.25491-0.52368-0.21299-0.14307-0.94321-0.83981
  -1  -4   3 1991.18  163.63   1-0.53455-0.47194-0.30174-0.02701 0.78943 0.88121
   1   4  -3 1737.39  169.47   1-0.28367-0.34630-0.09472-0.36939 0.95423 0.86233
  -1   4   3 1803.93  245.12   1-0.26771-0.53680-0.32780-0.25699-0.90602-0.80361
  -1   4   3 1840.67  216.52   1 0.09804-0.17084-0.89486-0.82502 0.43543 0.53864
  -1  -4   3 1737.64  199.17   1 0.05397 0.11666-0.46366-0.18867 0.88436 0.97508
   1  -4  -3 1994.41  201.10   1 0.05462 0.32327-0.46982-0.53956 0.88106 0.77740
   1   4  -2438386.4 3622.08   1-0.02610-0.12420 0.54950 0.32998-0.83508-0.93578
  -1  -4   2472031.0 3865.96   1-0.05297 0.04506 0.30537 0.52492-0.95075-0.84995
   1  -4  -2435820.4 3394.35   1-0.54433-0.30996 0.06883 0.05402-0.83603-0.94921
   1  -4   1223205.4 2222.28   1 0.10468 0.23540 0.51699 0.66749 0.84956 0.70642
  -1   4  -1247674.1 2512.42   1 0.10623-0.02455 0.73982 0.58934 0.66436 0.80750
  -1  -4  -1231699.7 2447.09   1 0.01253 0.21365 0.81034 0.86409-0.58582-0.45574
  -1  -4  -1235694.9 2189.43   1-0.56079-0.36040-0.32469-0.27064 0.76162 0.89266
   1   4   1244121.0 2400.82   1-0.39087-0.59129-0.18090-0.23493 0.90249 0.77147
   1  -4   1219902.8 2143.68   1 0.06229 0.19251 0.54337 0.69392 0.83717 0.69383
  -1  -4  -1240497.0 2387.23   1 0.10668 0.30732-0.99411-0.93979 0.01876 0.14945
   1   4   1237093.1 2684.52   1 0.09734-0.10337-0.88770-0.94199 0.45001 0.31932
  -1   4  -2 3417.28  239.33   1 0.10671 0.01045 0.67494 0.46926 0.73010 0.88299
   1   4   2 3465.37  303.12   1 0.08249-0.15303 0.98715 0.98821 0.13684-0.00279
  -1  -4  -2 3368.80  267.96   1 0.04233 0.27782 0.94284 0.94150-0.33051-0.19072
  -1   4  -2 3439.88  267.02   1-0.10229-0.19936-0.43491-0.64037-0.89464-0.74173
  -1   4  -2 3834.08  269.43   1-0.71328-0.80947 0.66943 0.46335 0.20755 0.36061
  -1  -4  -2 3302.85  200.52   1-0.59432-0.35948-0.35452-0.35564 0.72186 0.86272
   1   4   2 5088.11  279.71   1-0.38449-0.61937-0.17569-0.17455 0.90625 0.76544
  -1   4  -2 3541.60  323.06   1-0.29084-0.38840-0.34324-0.54875-0.89308-0.74028
  -1   4  -2 2973.72  228.55   1-0.08531-0.18255-0.44052-0.64602-0.89367-0.74116
   1  -4   2 3654.57  227.06   1 0.05302 0.14872 0.45455 0.66026 0.88914 0.73616
   1   4   2 3876.37  284.63   1 0.10664-0.12853-0.99087-0.98999 0.08238-0.05824
  -1   4  -372702.92 1163.90   1 0.10660 0.04479 0.63843 0.37756 0.76226 0.92490
   1   4   375167.12 1340.30   1 0.10102-0.16884 0.87414 0.93038 0.47503 0.32539
  -1  -4  -371442.77 1156.76   1 0.06642 0.33631 0.99506 0.93870-0.07378 0.07573
  -1   4  -368424.50 1067.46   1-0.09967-0.16240-0.36531-0.62599-0.92553-0.76272
  -1   4  -373769.60 1140.11   1-0.04560-0.10813-0.37472-0.63606-0.92601-0.76402
  -1  -4  -377627.71 1020.54   1-0.63671-0.36753-0.39325-0.44944 0.66328 0.81419
   1   4   372127.11 1094.40   1-0.36377-0.63310-0.15883-0.10253 0.91784 0.76724
  -1   4  -370732.85 1376.36   1-0.25504-0.31830-0.31928-0.58005-0.91269-0.74981
  -1   4  -370646.13  934.39   1-0.11222-0.17517-0.36072-0.62148-0.92589-0.76359
  -1   4  -372714.16 1012.52   1 0.07285 0.01166 0.64525 0.38438 0.76048 0.92309
  -1   4  -4  562.36  105.46   1 0.10646 0.07910 0.62070 0.30465 0.77678 0.94917
   1   4   4  595.60  116.28   1 0.10659-0.19767 0.70674 0.81807 0.69939 0.54007
  -1  -4  -4  623.24  109.46   1 0.08176 0.38612 0.98862 0.87717 0.12621 0.28542
  -1   4  -4  490.73   96.49   1-0.09694-0.12531-0.30313-0.61903-0.94800-0.77529
  -1   4  -4  576.16  109.40   1-0.15773-0.18589-0.29172-0.60828-0.94340-0.77164
  -1  -4  -4  634.64   99.84   1-0.68444-0.38090-0.43871-0.54998 0.58228 0.74325
   1   4   4  548.88  111.94   1-0.32698-0.63077-0.12919-0.01772 0.93615 0.77575
  -1   4  -4  725.76  180.25   1-0.20669-0.23564-0.28639-0.60243-0.93554-0.76259
  -1   4  -4  567.79  105.41   1 0.07067 0.04401 0.62418 0.30816 0.77807 0.95031
   1   4   550615.25 1025.58   1 0.10532-0.23340 0.54511 0.71163 0.83171 0.66264
  -1  -4  -548697.21  961.90   1 0.09038 0.42916 0.96125 0.79461 0.26041 0.42943
  -1   4  -551260.57  963.81   1-0.09409-0.08813-0.24572-0.61683-0.96476-0.78214
  -1   4  -548358.98  835.92   1-0.22867-0.22237-0.23491-0.60674-0.94473-0.76315
  -1  -4  -552424.74  963.15   1-0.73318-0.39522-0.48833-0.65473 0.47325 0.64429
   1   4   548205.14  975.09   1-0.27151-0.60974-0.08513 0.08159 0.95866 0.78838
  -1   4  -545804.18 1179.56   1-0.14545-0.14010-0.24395-0.61525-0.95881-0.77577
  -1  -4  -550312.23  814.25   1-0.06456 0.27317-0.49829-0.66554-0.86459-0.69456
   1   4   550166.98  903.74   1 0.05612-0.28289 0.48422 0.65050 0.87314 0.70485
  -1  -4  -6 1281.06  156.01   1 0.09498 0.46826 0.93436 0.71260 0.34341 0.52242
  -1   4  -6 1489.70  169.04   1-0.09113-0.05083-0.19138-0.61772-0.97727-0.78475
  -1  -4  -6 1298.54  155.80   1-0.10140 0.27098-0.40969-0.63170-0.90656-0.72629
  -1   4  -6 1297.06  143.96   1-0.28193-0.24125-0.18991-0.61696-0.94045-0.74909
  -1  -4  -6 1367.69  145.74   1-0.06323 0.30926-0.36221-0.58459-0.92994-0.75006
  -1  -4  -6 1260.09  151.17   1-0.77626-0.40393-0.53813-0.75975 0.32837 0.50951
   1   4   6 1413.12  200.65   1-0.19170-0.56435-0.02291 0.19905 0.98118 0.80117
  -1   4  -6 1138.32  200.94   1-0.07068-0.03101-0.19097-0.61753-0.97904-0.78593
  -1  -4  -6 1353.40  130.46   1-0.09791 0.27412-0.40385-0.62636-0.90956-0.72974
  -1  -4  -716417.80  553.78   1 0.09746 0.50506 0.91428 0.63728 0.39316 0.58204
  -1   4  -718098.31  585.82   1-0.08807-0.01370-0.13932-0.62085-0.98632-0.78380
  -1  -4  -717756.35  605.44   1-0.09641 0.31032-0.29196-0.56919-0.95155-0.76138
  -1   4  -718215.11  542.24   1-0.32603-0.25097-0.15101-0.63328-0.93321-0.73209
  -1  -4  -717587.44  500.87   1-0.12196 0.28490-0.31908-0.59668-0.93984-0.75019
  -1  -4  -718514.19  533.75   1-0.80233-0.39557-0.58091-0.85773 0.13713 0.32832
   1   4   717152.01  675.68   1-0.07902-0.48611 0.06269 0.33984 0.99489 0.80510
  -1   4  -719784.08  817.66   1 0.01879 0.09276-0.12596-0.60778-0.99185-0.78866
  -1  -4  -828988.84  801.18   1 0.09870 0.54074 0.90214 0.56994 0.41998 0.61867
  -1   4  -835118.56  794.48   1-0.08487 0.02380-0.08855-0.62531-0.99244-0.78001
  -1  -4  -833924.72  850.98   1-0.09106 0.35002-0.18999-0.52245-0.97755-0.77751
  -1   4  -835950.63  777.92   1-0.36455-0.25502-0.11572-0.65325-0.92396-0.71289
  -1  -4  -836299.87  770.23   1-0.17452 0.26673-0.27858-0.61140-0.94442-0.74500
   1  -4   831562.51  855.87   1-0.74618-0.85506-0.59285-0.05594-0.30287-0.51549
  -1  -4  -835005.32  879.92   1-0.78845-0.34736-0.60247-0.93453-0.12396 0.07729
   1  -4   833831.00 1025.05   1-0.09727-0.20724 0.04898 0.58626 0.99405 0.78316
  -1  -4  -830703.47 1107.09   1-0.11981 0.32069-0.22592-0.55883-0.96674-0.76476
  -1   4  -9 7180.64  369.78   1-0.08152 0.06145-0.03874-0.63073-0.99591-0.77355
  -1  -4  -9 6452.38  391.01   1-0.08559 0.38959-0.09979-0.48763-0.99132-0.78130
  -1   4  -9 6044.35  348.99   1-0.39986-0.25594-0.08222-0.67497-0.91287-0.69202
  -1  -4  -9 6258.51  365.58   1-0.22238 0.25323-0.24008-0.62812-0.94493-0.73575
   1  -4   9 5848.19  453.25   1-0.22152-0.36600-0.04600 0.54641 0.97407 0.75330
  -1  -4 -10 1973.07  221.32   1-0.08004 0.42945-0.01752-0.46072-0.99663-0.77671
  -1   4 -10 2305.96  207.40   1-0.07803 0.09922 0.01045-0.63684-0.99689-0.76457
  -1   4 -10 2346.10  193.26   1-0.43275-0.25430-0.04994-0.69796-0.90012-0.66945
  -1  -4 -10 2440.42  191.52   1-0.26665 0.24343-0.20303-0.64634-0.94216-0.72317
  -1   4 -1137355.35  849.74   1-0.07437 0.13717 0.05924-0.64329-0.99546-0.75322
  -1  -4 -1137671.38  857.04   1-0.07442 0.46937 0.05862-0.43982-0.99550-0.76566
  -1   4 -1135589.33  792.86   1-0.46391-0.25106-0.01830-0.72156-0.88568-0.64522
  -1  -4 -1135671.35  731.57   1-0.30801 0.23646-0.16709-0.66562-0.93659-0.70783
  -1   4 -1211616.69  461.20   1-0.07054 0.17535 0.10790-0.64999-0.99165-0.73943
  -1   4 -12 9945.77  511.35   1-0.49371-0.24646 0.01298-0.74549-0.86952-0.61926
  -1  -4 -1213407.62  456.85   1-0.34697 0.23198-0.13198-0.68577-0.92854-0.68985
  -1   4 -1311529.69  628.18   1-0.06652 0.21366 0.15648-0.65665-0.98543-0.72329
  -1   4 -1313349.67  566.21   1-0.52234-0.24082 0.04412-0.76967-0.85158-0.59127
  -1  -4 -1313445.38  553.02   1-0.38406 0.22928-0.09735-0.70636-0.91815-0.66968
   1   5 -13 5935.76  449.71   1-0.03915 0.19865 0.43825-0.41466-0.89799-0.88802
   1   5 -13 7811.04  390.99   1-0.69107-0.45192 0.25929-0.59355-0.67467-0.66592
   1  -5 -13 7220.77  359.00   1-0.54476 0.10940 0.06932-0.52756-0.83572-0.84244
   1   5 -1217355.58  519.89   1-0.04179 0.16161 0.41415-0.38344-0.90924-0.90931
   1   5 -1217551.91  510.22   1-0.68503-0.48028 0.25017-0.54742-0.68420-0.68531
   1  -5 -1215160.25  518.41   1-0.52666 0.09311 0.04892-0.49272-0.84866-0.86519
  -1   5  1215620.60  650.99   1 0.06567-0.55532-0.57587-0.03552 0.81489 0.83087
   1   5 -11 3585.33  268.50   1-0.04407 0.12503 0.39280-0.34953-0.91856-0.92854
   1   5 -11 3448.42  241.43   1-0.68139-0.51103 0.24475-0.49749-0.68977-0.70095
   1  -5 -11 3872.80  254.09   1-0.50931 0.07614 0.02982-0.45635-0.86006-0.88653
  -1   5  11 3386.58  314.56   1 0.06441-0.52202-0.56379-0.07858 0.82339 0.84930
   1  -5 -1058494.05 1029.54   1-0.01827 0.53182 0.61032 0.17808-0.79194-0.82792
   1   5 -1059523.13 1000.43   1-0.04596 0.08884 0.37485-0.31223-0.92594-0.94584
   1  -5 -1060087.54  962.31   1-0.49296 0.05810 0.01217-0.41876-0.86996-0.90623
   1  -5  -9 9665.38  461.71   1 0.10612 0.62280 0.59146 0.21571 0.79931 0.75205
   1  -5  -911906.11  497.70   1-0.01751 0.49827 0.61600 0.23903-0.78754-0.83341
   1   5  -911998.63  516.31   1-0.04739 0.05311 0.36101-0.27081-0.93135-0.96116
   1   5  -911581.92  429.41   1-0.68382-0.58224 0.24836-0.38338-0.68607-0.71694
   1  -5  -911494.07  414.96   1-0.47797 0.03868-0.00367-0.37939-0.87836-0.92442
  -1  -5   911150.93  472.67   1-0.71149-0.81400-0.46571 0.16573 0.52618 0.55671
   1  -5  -911722.32  458.12   1-0.57716-0.06008-0.33917-0.71430 0.74285 0.69724
  -1  -5   9 9659.97  663.07   1-0.26350-0.36466-0.32497 0.30712-0.90827-0.87903
  -1   5   912964.42  609.44   1 0.06399-0.45335-0.55970-0.18477 0.82621 0.87196
   1  -5  -853057.00 1110.46   1 0.10515 0.58738 0.53743 0.21686 0.83672 0.77970
   1  -5  -857416.17 1132.89   1-0.01456 0.46692 0.63769 0.31599-0.77014-0.82591
   1   5  -857742.09  952.63   1-0.04829 0.01792 0.35230-0.22427-0.93463-0.97436
   1   5  -863717.86  964.12   1-0.69177-0.62458 0.26036-0.31622-0.67354-0.71406
   1  -5  -857426.22  898.54   1-0.46488 0.01738-0.01731-0.33780-0.88520-0.94105
   1  -5  -856371.45 1178.50   1-0.77265-0.29000-0.60066-0.92123-0.20545-0.25928
  -1  -5   860543.00 1073.08   1-0.66097-0.72915-0.41606 0.16017 0.62449 0.66534
   1  -5  -861291.26 1222.96   1-0.32998 0.15265-0.13159-0.45142 0.93476 0.87915
  -1  -5   850365.49 1369.83   1-0.14754-0.21440-0.24541 0.33141-0.95812-0.91880
  -1   5   861584.60 1092.29   1 0.06535-0.41745-0.57277-0.25298 0.81710 0.87277
   1  -5  -713415.27  468.19   1-0.00814 0.43903 0.68291 0.41648-0.73045-0.79610
   1   5  -712199.72  432.09   1-0.04851-0.01660 0.35010-0.17122-0.93545-0.98509
   1   5  -712484.41  400.21   1-0.70592-0.67312 0.28249-0.23883-0.64951-0.69989
   1  -5  -711820.47  400.99   1-0.45442-0.00655-0.02806-0.29332-0.89034-0.95598
  -1  -5   712240.41  424.75   1-0.61378-0.64751-0.37214 0.14888 0.69625 0.74736
   1  -5  -712707.64  525.55   1-0.16371 0.28439-0.00142-0.26627 0.98650 0.92098
  -1  -5   711421.12  643.64   1-0.04695-0.07950-0.17390 0.34766-0.98364-0.93424
  -1   5   711109.35  416.87   1-0.08557-0.53298-0.43977-0.17346-0.89402-0.82815
  -1   5   712359.31  507.50   1 0.06833-0.37992-0.60158-0.33693 0.79588 0.86147
   1  -5  -6108941.8 1560.02   1 0.00432 0.41717 0.76306 0.55192-0.64630-0.72204
   1   5  -6104248.6 1519.22   1-0.04788-0.05026 0.35632-0.10974-0.93313-0.99268
  -1   5   6107446.8 1841.68   1-0.10090-0.51425-0.39635-0.18555-0.91253-0.83732
   1   5  -6112670.0 1427.11   1-0.72720-0.72880 0.31804-0.14803-0.60829-0.66852
   1  -5  -6102317.5 1347.34   1-0.44770-0.03424-0.03489-0.24493-0.89349-0.96893
  -1  -5   6104711.6 1472.14   1-0.36570-0.36423-0.11465 0.35112-0.92364-0.86258
  -1  -5   6108683.2 1417.19   1-0.57141-0.57069-0.33406 0.13179 0.74959 0.81051
   1  -5  -6105669.3 1565.73   1-0.03870 0.37496 0.09273-0.11693 0.99493 0.91963
  -1  -5   6103847.5 2112.47   1 0.03983 0.04158-0.11042 0.35587-0.99308-0.93360
  -1   5   6114661.1 2468.87   1 0.03076-0.38277-0.11713 0.09393-0.99263-0.91905
  -1   5   6105729.6 1413.90   1-0.10121-0.51433-0.39404-0.18299-0.91349-0.83783
  -1   5   6117121.8 1811.58   1 0.07365-0.34005-0.65305-0.44355 0.75371 0.82922
   1  -5  -530196.44  789.11   1 0.02760 0.40614 0.88533 0.72965-0.46412-0.55014
   1   5  -527788.02  734.61   1-0.04608-0.08277 0.37368-0.03712-0.92641-0.99587
  -1   5   529368.93  814.90   1-0.09537-0.47436-0.27078-0.11519-0.95790-0.87275
   1   5  -527198.86  693.54   1-0.75527-0.79114 0.37097-0.03992-0.54031-0.61032
  -1  -5   527948.01  735.99   1-0.46238-0.42662-0.01989 0.39074-0.88645-0.81566
   1  -5  -528124.07  606.90   1-0.44649-0.06744-0.03612-0.19093-0.89405-0.97928
  -1  -5   528109.79  633.32   1-0.53579-0.50064-0.30282 0.10786 0.78817 0.85890
   1   5  -527502.05  770.48   1-0.09659-0.13183 0.04950-0.36115 0.99409 0.92313
  -1   5   529243.27 1011.76   1-0.06124-0.44047-0.18419-0.02839-0.98097-0.89731
  -1   5   526050.03  598.66   1-0.11904-0.49786-0.33960-0.18380-0.93300-0.84755
  -1   5   528430.09  984.36   1 0.08215-0.29699-0.73601-0.58143 0.67196 0.75744
   1  -5  -461078.28 1133.93   1 0.06551 0.40977 0.99426 0.89414-0.08458-0.18049
   1   5  -455992.05 1129.74   1-0.04266-0.11365 0.40604 0.05048-0.91285-0.99223
  -1  -5   457333.37 1033.37   1-0.07554-0.00472 0.04392 0.39954-0.99617-0.91670
  -1   5   457360.00 1292.15   1-0.08010-0.42459-0.01832 0.08217-0.99661-0.90164
   1   5  -458734.17 1030.94   1-0.78587-0.85602 0.44507 0.08934-0.42931-0.50914
  -1  -5   459803.45  963.17   1-0.57400-0.50375 0.10339 0.45887-0.81229-0.73189
   1  -5  -455210.76  864.38   1-0.45369-0.10904-0.02880-0.12838-0.89069-0.98571
  -1   5   457952.05  956.64   1-0.14684-0.49150-0.30014-0.20053-0.94252-0.84747
  -1  -5   459239.86  993.68   1-0.50819-0.43862-0.27901 0.07648 0.81479 0.89541
   1   5  -459999.39 1099.27   1-0.16052-0.23019 0.00101-0.35445 0.98703 0.90629
  -1   5   459970.23 1510.04   1-0.13001-0.47493-0.23311-0.13256-0.96371-0.86997
  -1   5   451206.33 1313.97   1 0.09407-0.25080-0.85437-0.75498 0.51107 0.60587
   1  -5  -313061.10  532.91   1 0.09899 0.40896 0.89907 0.85430 0.42645 0.32080
  -1   5   313078.49  525.70   1-0.02582-0.33586 0.55174 0.59706-0.83361-0.72850
   1   5  -313486.79  467.45   1-0.03687-0.14215 0.45863 0.15833-0.88786-0.97710
  -1  -5   312979.77  498.08   1-0.06824 0.03697 0.13600 0.43633-0.98835-0.89902
   1   5  -312975.02  438.14   1-0.80397-0.90866 0.53717 0.23636-0.25507-0.34419
  -1  -5   313869.25  440.16   1-0.69207-0.58729 0.26082 0.56115-0.67305-0.58325
   1  -5  -313277.55  455.17   1-0.47443-0.16418-0.00738-0.05173-0.88025-0.98507
  -1   5   312602.04  436.36   1-0.18212-0.49240-0.27258-0.22819-0.94473-0.83992
  -1  -5   313311.85  416.15   1-0.48913-0.38509-0.26274 0.03758 0.83169 0.92211
   1   5  -312861.11  487.40   1-0.21228-0.31635-0.03883-0.33912 0.97643 0.88595
  -1   5   314217.63  722.64   1-0.17946-0.49008-0.26763-0.22235-0.94665-0.84283
  -1   5   313239.50  580.88   1 0.10536-0.20502-0.97363-0.92936 0.20234 0.30699
  -1  -5   312635.04  486.07   1 0.05385 0.15796-0.46248-0.16183 0.88498 0.97409
   1  -5  -312129.99  562.67   1 0.05503 0.36510-0.47374-0.51781 0.87894 0.77366
   1  -5  -2 3522.21  259.77   1 0.10663 0.38215 0.70105 0.71159 0.70508 0.58956
  -1   5   2 3619.97  260.96   1 0.05895-0.21654 0.98544 0.97528-0.15944-0.04395
   1   5  -2 3004.60  228.09   1-0.02744-0.16708 0.53860 0.29358-0.84210-0.94121
  -1  -5   2 4099.78  296.55   1-0.05886 0.08071 0.24321 0.48826-0.96818-0.86895
   1   5  -2 3781.81  241.20   1-0.77933-0.91830 0.62654 0.38083-0.00917-0.10807
  -1  -5   2 3835.16  225.44   1-0.78416-0.64515 0.44001 0.68522-0.43758-0.33799
   1  -5  -2 3704.12  242.41   1-0.51840-0.24255 0.03977 0.05065-0.85420-0.96881
  -1   5   2 3452.10  242.07   1-0.22102-0.49693-0.24120-0.25203-0.94497-0.83038
  -1  -5   2 2963.20  197.28   1-0.47950-0.34101-0.25458-0.00941 0.83979 0.94001
   1   5  -2 3468.22  272.60   1-0.25231-0.39083-0.07003-0.31515 0.96510 0.86482
  -1   5   2 3528.26  325.90   1-0.21233-0.48864-0.29026-0.30024-0.93309-0.81919
   1  -5  -2 3393.33  304.24   1 0.09289 0.36849-0.84254-0.83162 0.53056 0.41546
  -1  -5   2 3815.50  284.77   1 0.06327 0.20192-0.55276-0.30725 0.83093 0.92995
   1  -5  -1132872.5 1615.23   1 0.10579 0.34686 0.57027 0.63599 0.81461 0.68934
  -1   5   1133892.9 2035.36   1 0.09578-0.14530 0.92843 0.86281 0.35893 0.48418
   1   5  -1131458.1 1665.70   1-0.01251-0.18649 0.65243 0.46271-0.75774-0.86666
  -1  -5   1127822.7 1587.15   1-0.04646 0.12742 0.37009 0.55989-0.92783-0.81870
   1   5  -1134355.5 1619.94   1-0.68627-0.85962 0.67535 0.48485 0.27004 0.16112
  -1  -5   1137170.4 1565.56   1-0.79728-0.62370 0.59135 0.78156-0.12101-0.01205
   1  -5  -1132204.8 1579.03   1-0.60445-0.36299 0.14054 0.20652-0.78414-0.90861
  -1   5   1142217.0 1822.57   1-0.26813-0.50962-0.20176-0.26785-0.94201-0.81764
   1   5  -1125354.6 1596.10   1-0.28071-0.45368-0.09238-0.28232 0.95533 0.84525
  -1   5   1129500.5 2050.37   1-0.23058-0.47258-0.30271-0.36795-0.92476-0.80079
   1  -5  -1129776.9 1552.94   1 0.07105 0.31170 0.62787 0.69373 0.77506 0.64928
   1  -5  -1127074.2 1763.31   1 0.10657 0.34788-0.99427-0.92820-0.00738-0.13195
  -1  -5   1125579.9 1687.08   1 0.07728 0.25055-0.68840-0.49812 0.72119 0.83011
  -1   5   0157280.6 1889.63   1 0.10487-0.10180 0.79720 0.67634 0.59452 0.72951
   1   5   0162116.1 1951.94   1 0.01019-0.19812 0.79732 0.66281-0.60346-0.72209
  -1  -5   0150771.6 1895.77   1-0.02972 0.17852 0.51991 0.65439-0.85370-0.73477
  -1  -5   0162193.4 1781.47   1-0.72168-0.51376 0.66672 0.80189 0.18615 0.30495
   1  -5   0157624.6 1664.75   1-0.75218-0.54514 0.36469 0.48574-0.54882-0.68328
  -1   5   0148272.9 1742.98   1-0.33877-0.54583-0.13947-0.26081-0.93047-0.79626
  -1  -5   0143637.8 1612.03   1-0.49040-0.28300-0.26382-0.12899 0.83060 0.95040
  -1   5   0147003.4 2786.83   1-0.23562-0.44332-0.30614-0.42664-0.92236-0.78830
  -1   5   0148046.6 1681.65   1-0.04899-0.25634-0.53963-0.66012-0.84047-0.70605
   1  -5   0155831.2 1712.13   1 0.06095 0.26708 0.53046 0.65147 0.84551 0.71010
  -1  -5   0157680.8 1926.40   1 0.09492 0.30249-0.86296-0.72781 0.49625 0.61544
   1   5   0166117.7 2122.91   1 0.06293-0.14481-0.54955-0.68478 0.83308 0.71421
  -1   5  -181113.61 1282.23   1 0.10661-0.06555 0.70441 0.52832 0.70173 0.84650
   1   5   179224.64 1309.36   1 0.04123-0.20140 0.93914 0.85972-0.34104-0.46936
  -1  -5  -178083.74 1174.09   1-0.00747 0.23511 0.68748 0.76666-0.72615-0.59744
  -1   5  -183618.39 1267.83   1-0.10149-0.27442-0.41224-0.58801-0.90540-0.76087
  -1  -5  -182040.22 1185.42   1-0.61008-0.36759 0.67680 0.75665 0.41199 0.54068
   1  -5   183134.40 1640.27   1-0.66095-0.48872 0.67790 0.85427 0.32185 0.17706
  -1   5  -171988.87 1883.51   1-0.51366-0.68631 0.03457-0.14198-0.85729-0.71330
  -1  -5  -178161.38 1122.34   1-0.51116-0.26931-0.28156-0.20189 0.81205 0.94165
   1   5   179046.71 1218.68   1-0.30265-0.54452-0.10978-0.18937 0.94675 0.81708
  -1   5  -174281.42 1482.03   1-0.22845-0.40184-0.30126-0.47703-0.92576-0.78163
  -1   5  -181121.82 1286.00   1-0.09325-0.26629-0.41756-0.59331-0.90384-0.75964
   1  -5   177948.39 1226.23   1 0.05264 0.22425 0.45092 0.62709 0.89100 0.74596
  -1  -5  -180861.94 1316.61   1 0.10657 0.34864-0.98958-0.90961 0.09675 0.22591
   1   5   181833.05 1409.60   1 0.08548-0.15686-0.76883-0.84876 0.63371 0.50497
  -1   5  -2 8859.18  393.72   1 0.10666-0.03105 0.64839 0.41711 0.75379 0.90832
   1   5   2 8924.72  456.51   1 0.07422-0.20278 0.99697 0.97247 0.02316-0.11479
  -1  -5  -2 8442.05  415.73   1 0.01919 0.29615 0.84541 0.86940-0.53376-0.39550
  -1   5  -2 8188.26  371.38   1-0.09919-0.23777-0.35362-0.58462-0.93011-0.77568
  -1   5  -2 8109.04  494.51   1-0.80146-0.93939 0.57415 0.34259-0.16731-0.01254
  -1  -5  -2 8666.76  327.28   1-0.54179-0.26550-0.30804-0.28353 0.78202 0.92147
   1   5   2 8881.18  381.42   1-0.29565-0.57196-0.10421-0.12863 0.94959 0.81012
  -1   5  -2 7838.88  547.97   1-0.20972-0.34881-0.28847-0.51951-0.93423-0.78002
  -1   5  -2 8860.37  350.01   1-0.11830-0.25705-0.34190-0.57290-0.93225-0.77826
  -1   5  -2 8589.06  390.95   1 0.07460-0.06249 0.66228 0.43096 0.74552 0.90020
   1   5   2 8939.17  454.89   1 0.10281-0.17380-0.94497-0.96974 0.31056 0.17140
  -1   5  -3 5719.84  330.33   1 0.10643 0.00316 0.61749 0.33103 0.77933 0.94361
   1   5   3 5628.31  375.25   1 0.09729-0.21403 0.91587 0.94650 0.38950 0.24149
  -1  -5  -3 5441.55  311.41   1 0.04542 0.35677 0.95270 0.92165-0.30048-0.15253
  -1   5  -3 5465.74  295.75   1-0.09680-0.20104-0.30029-0.58652-0.94892-0.78458
  -1   5  -3 5100.19  314.56   1-0.20297-0.30700-0.25589-0.54280-0.94515-0.78173
  -1  -5  -3 5506.64  284.28   1-0.58111-0.27038-0.34269-0.37335 0.73815 0.88741
   1   5   3 5277.34  296.98   1-0.27573-0.58650-0.08845-0.05769 0.95715 0.80789
  -1   5  -3 5718.08  422.44   1-0.17982-0.28460-0.26788-0.55417-0.94652-0.78223
  -1   5  -3 5362.88  297.70   1 0.07105-0.03152 0.62783 0.34135 0.77509 0.93940
   1   5   3 5199.80  323.90   1 0.10647-0.20467-0.99405-0.96360-0.02293-0.17197
  -1   5  -4  307.70   99.82   1 0.10627 0.03746 0.60328 0.26164 0.79041 0.96443
   1   5   4  254.76   83.98   1 0.10609-0.23959 0.74796 0.83380 0.65520 0.49735
  -1  -5  -4  308.43   77.77   1 0.06565 0.41142 0.99439 0.90837-0.08293 0.07471
  -1   5  -4  188.63   79.78   1-0.09432-0.16421-0.25014-0.59157-0.96360-0.78934
  -1   5  -4  245.18   74.47   1-0.27047-0.34004-0.19977-0.54196-0.94177-0.76853
  -1  -5  -4  257.84   61.52   1-0.62803-0.28297-0.38521-0.47094 0.67615 0.83554
   1   5   4  231.12   77.36   1-0.24160-0.58682-0.06165 0.02427 0.96841 0.80935
  -1   5  -4  419.60  163.92   1-0.13889-0.20937-0.23935-0.58091-0.96094-0.78657
  -1   5  -4  324.42   95.05   1 0.06920 0.00114 0.60999 0.26836 0.78937 0.96331
   1   5   538771.10  878.07   1 0.10579-0.27437 0.57041 0.71134 0.81451 0.64708
  -1  -5  -537439.81  923.83   1 0.07872 0.45898 0.99339 0.85232 0.08344 0.25075
  -1   5  -537758.00  870.84   1-0.09172-0.12727-0.20183-0.59848-0.97511-0.79095
  -1   5  -536608.74  984.21   1-0.31562-0.35081-0.16033-0.55774-0.93524-0.75222
  -1  -5  -538367.03  766.42   1-0.67917-0.29974-0.43356-0.57438 0.59223 0.76173
   1   5   536132.00  884.59   1-0.19106-0.57072-0.02243 0.11873 0.98132 0.81251
  -1   5  -536316.67 1049.96   1-0.08685-0.12303-0.20254-0.59936-0.97541-0.79096
  -1  -5  -536085.67  665.81   1-0.06120 0.31805-0.50738-0.64912-0.85954-0.69099
   1   5   535515.27  786.60   1 0.05749-0.32292 0.49731 0.63798 0.86566 0.69906
  -1  -5  -6 4468.56  284.00   1 0.08648 0.50115 0.97658 0.78031 0.19695 0.37409
  -1   5  -6 4734.40  313.31   1-0.08900-0.09020-0.15470-0.60658-0.98394-0.78988
  -1  -5  -6 4648.85  315.00   1-0.10175 0.31214-0.41948-0.61595-0.90204-0.72329
  -1   5  -6 4631.23  300.46   1-0.35218-0.35292-0.12718-0.57985-0.92724-0.73431
  -1  -5  -6 4694.20  255.70   1-0.06346 0.35052-0.36204-0.55884-0.92999-0.75154
  -1  -5  -6 4639.72  258.56   1-0.73055-0.31670-0.48553-0.68147 0.48015 0.65976
   1   5   6 4503.91  320.16   1-0.12107-0.53517 0.03103 0.22738 0.99215 0.81356
  -1   5  -6 5203.78  384.75   1-0.02341-0.02528-0.15684-0.60893-0.98734-0.79281
  -1  -5  -6 4909.54  264.94   1-0.09599 0.31755-0.40951-0.60652-0.90723-0.72889
  -1  -5  -7246820.2 2564.40   1 0.09090 0.54000 0.95875 0.70728 0.26930 0.45622
  -1  -5  -7256272.4 2411.32   1-0.09629 0.35195-0.28954-0.54124-0.95230-0.76366
  -1   5  -7258180.2 2262.19   1-0.38512-0.35146-0.09635-0.60423-0.91782-0.71510
  -1  -5  -7278124.8 2213.39   1-0.12018 0.32817-0.32042-0.57244-0.93961-0.75139
  -1  -5  -7266595.1 2271.84   1-0.77578-0.32756-0.53751-0.78869 0.33050 0.52024
  -1   5  -7249167.8 3146.83   1 0.05205 0.08449-0.10136-0.60870-0.99348-0.78888
  -1  -5  -7254907.0 3144.76   1 0.01318 0.46091-0.13009-0.38220-0.99141-0.80091
  -1  -5  -814937.55  540.69   1 0.09330 0.57693 0.94555 0.63897 0.31180 0.50877
  -1   5  -818271.02  531.31   1-0.08315-0.01600-0.06255-0.62483-0.99457-0.78059
  -1  -5  -817984.66  617.50   1-0.09041 0.39218-0.17876-0.48568-0.97972-0.78122
  -1   5  -819435.55  570.86   1-0.41574-0.34770-0.06677-0.62987-0.90702-0.69451
  -1  -5  -818572.41  530.36   1-0.17136 0.31137-0.28107-0.58831-0.94426-0.74627
  -1  -5  -817928.40  622.66   1-0.80276-0.32010-0.58229-0.88868 0.12848 0.32827
   1  -5   818023.75  655.47   1-0.11643-0.18494 0.03454 0.59743 0.99259 0.78029
  -1  -5  -815305.36  759.28   1-0.12622 0.35581-0.23044-0.53782-0.96486-0.76428
  -1   5  -972457.83 1381.56   1-0.07999 0.02142-0.01682-0.63440-0.99665-0.77270
  -1  -5  -974602.50 1336.12   1-0.08445 0.43226-0.08223-0.44455-0.99302-0.78455
  -1   5  -969507.53 1055.58   1-0.44481-0.34225-0.03782-0.65620-0.89482-0.67249
  -1  -5  -977755.60 1100.63   1-0.21828 0.29882-0.24344-0.60590-0.94503-0.73727
  -1  -5  -964323.39 1443.92   1-0.78069-0.26369-0.60202-0.96367-0.16759 0.04226
   1  -5   964834.21 1300.11   1-0.21824-0.32129-0.04346 0.57457 0.97492 0.75274
  -1   5 -10  219.79  131.28   1-0.07667 0.05904 0.02884-0.64396-0.99663-0.76277
  -1  -5 -10  273.60  103.97   1-0.07845 0.47258 0.00472-0.41296-0.99690-0.77853
  -1   5 -10  228.82   93.64   1-0.47285-0.33588-0.00903-0.68264-0.88109-0.64897
  -1  -5 -10  103.22  109.60   1-0.26191 0.28966-0.20707-0.62480-0.94261-0.72505
  -1  -5 -11 1705.32  187.99   1-0.07241 0.51292 0.08445-0.38847-0.99379-0.76550
  -1   5 -11 1610.10  172.18   1-0.07319 0.09683 0.07458-0.65346-0.99452-0.75073
  -1   5 -11 2048.36  195.39   1-0.50004-0.32867 0.01977-0.70905-0.86577-0.62386
  -1  -5 -11 2103.27  186.30   1-0.30282 0.28314-0.17167-0.64463-0.93745-0.71012
  -1   5 -12 2590.05  282.60   1-0.06951 0.13484 0.12052-0.66287-0.99027-0.73648
  -1   5 -12 2221.27  237.19   1-0.52647-0.32083 0.04870-0.73542-0.84879-0.59683
  -1  -5 -12 2549.05  235.25   1-0.34149 0.27894-0.13699-0.66520-0.92984-0.69259
  -1   5 -1329622.14  773.93   1-0.06565 0.17300 0.16670-0.67194-0.98381-0.72011
  -1   5 -1327917.30  750.54   1-0.55236-0.31233 0.07803-0.76133-0.82994-0.56816
  -1  -5 -1325870.57  980.05   1-0.37840 0.27643-0.10272-0.68615-0.91992-0.67288
   1   6 -1334334.93 1119.60   1-0.03887 0.15739 0.44073-0.43768-0.89679-0.88524
   1   6 -1331842.86 1026.96   1-0.71281-0.51516 0.29367-0.58473-0.63691-0.62664
   1  -6 -1335242.67 1114.01   1-0.53992 0.15573 0.06381-0.50749-0.83929-0.84746
  -1  -6  1333626.01 1139.45   1 0.05129-0.14864-0.43804 0.43968 0.89748 0.88576
   1   6 -1213180.08  494.93   1-0.04141 0.12046 0.41766-0.40543-0.90765-0.90615
   1   6 -1211680.31  434.91   1-0.70865-0.54540 0.28690-0.53625-0.64458-0.64417
   1  -6 -1214392.06  490.00   1-0.52161 0.13964 0.04332-0.47274-0.85207-0.87006
   1   6 -1113787.59  481.13   1-0.04359 0.08397 0.39735-0.37048-0.91662-0.92503
   1   6 -1113136.24  441.06   1-0.70695-0.57809 0.28415-0.48374-0.64766-0.65711
   1  -6 -1114664.38  491.82   1-0.50403 0.12291 0.02408-0.43650-0.86334-0.89126
  -1   6  1112722.61  606.68   1 0.06940-0.55846-0.61187-0.15231 0.78790 0.81542
   1   6 -10 7003.23  348.80   1-0.04538 0.04789 0.38044-0.33214-0.92369-0.94201
   1   6 -10 5919.94  314.25   1-0.70836-0.61388 0.28642-0.42623-0.64512-0.66442
   1  -6 -10 6401.61  288.15   1-0.48740 0.10514 0.00627-0.39909-0.87315-0.91086
  -1  -6  10 5932.41  380.32   1-0.71842-0.81388-0.47282 0.23940 0.51019 0.52940
  -1   6  10 5228.91  517.88   1 0.06927-0.52404-0.61058-0.20617 0.78891 0.82635
   1  -6  -9 1881.89  209.62   1-0.00409 0.55321 0.71002 0.35857-0.70416-0.75192
   1   6  -9 1539.03  158.37   1-0.04671 0.01225 0.36762-0.28971-0.92880-0.95703
   1   6  -9 1786.28  158.05   1-0.71364-0.65356 0.29505-0.36234-0.63533-0.66449
   1  -6  -9 1736.37  165.51   1-0.47210 0.08604-0.00982-0.35995-0.88148-0.92899
  -1  -6   9 1587.22  193.83   1-0.66693-0.72810-0.42175 0.23527 0.61426 0.64382
   1  -6  -9 1692.05  174.62   1-0.47780 0.08073-0.25314-0.60254 0.84119 0.79398
  -1   6   9 1787.71  241.05   1 0.07011-0.48865-0.61874-0.26947 0.78245 0.82981
   1  -6  -8 8804.24  420.33   1 0.10670 0.63038 0.65969 0.36471 0.74392 0.68527
   1  -6  -8 8482.46  387.20   1 0.00183 0.52483 0.74784 0.45165-0.66387-0.72149
   1   6  -8 8857.80  403.89   1-0.04751-0.02284 0.35984-0.24223-0.93180-0.96994
   1   6  -8 9524.97  375.12   1-0.72365-0.69797 0.31190-0.29024-0.61565-0.65466
   1  -6  -8 8653.33  355.49   1-0.45860 0.06514-0.02378-0.31868-0.88832-0.94561
  -1  -6   8 9144.51  399.64   1-0.61749-0.64422-0.37553 0.22633 0.69113 0.73058
   1  -6  -8 9633.47  416.74   1-0.30997 0.21405-0.11560-0.40992 0.94369 0.88664
  -1  -6   8 8239.76  604.95   1-0.15287-0.17820-0.24914 0.35321-0.95632-0.91841
   1  -6  -8 8352.00  468.83   1 0.06468 0.58835 0.56634 0.27173 0.82162 0.76157
  -1   6   810159.13  516.87   1 0.07230-0.45192-0.63993-0.34580 0.76502 0.82230
   1  -6  -7 8747.35  455.71   1 0.10651 0.59574 0.62557 0.38577 0.77285 0.70446
   1  -6  -7 9366.18  462.54   1 0.01363 0.50232 0.81634 0.57554-0.57740-0.64529
   1   6  -7 9520.58  455.38   1-0.04766-0.05729 0.35839-0.18842-0.93235-0.98041
   1   6  -7 8624.46  383.55   1-0.73896-0.74751 0.33917-0.20779-0.58214-0.63091
   1  -6  -7 9102.89  375.26   1-0.44761 0.04173-0.03499-0.27467-0.89354-0.96063
  -1  -6   7 8346.99  411.93   1-0.28737-0.27880-0.18519 0.36138-0.93974-0.88975
  -1  -6   710184.16  391.26   1-0.57305-0.56534-0.33552 0.21112 0.74768 0.79737
   1  -6  -7 9762.90  471.18   1-0.18021 0.30933-0.01408-0.25331 0.98352 0.91659
  -1  -6   7 7825.91  559.13   1-0.06748-0.05850-0.18867 0.35841-0.97971-0.93172
  -1   6   7 7870.95  405.10   1-0.06058-0.54951-0.50903-0.26822-0.85861-0.79125
   1  -6  -7 8246.58  517.67   1 0.05710 0.54626 0.49360 0.25414 0.86781 0.79812
  -1   6   7 9284.25  491.26   1 0.07636-0.41331-0.67937-0.44039 0.72980 0.79701
   1  -6  -6329216.2 3256.00   1 0.10613 0.56092 0.59241 0.40780 0.79860 0.72046
   1   6  -6338026.6 2471.24   1-0.04698-0.09090 0.36502-0.12654-0.92980-0.98778
   1   6  -6330546.4 2264.98   1-0.75980-0.80276 0.38047-0.11124-0.52719-0.58582
   1  -6  -6324388.3 2818.19   1-0.44016 0.01477-0.04251-0.22696-0.89691-0.97378
  -1  -6   6325800.6 2977.89   1-0.37420-0.33125-0.10668 0.38467-0.92119-0.86156
   1  -6  -6318095.0 2916.05   1-0.07779 0.37731 0.06360-0.12044 0.99493 0.91821
  -1  -6   6318248.3 3828.88   1 0.00669 0.04998-0.13485 0.35697-0.99084-0.93277
  -1   6   6321942.3 3381.01   1 0.08294-0.37217-0.74379-0.55968 0.66323 0.74042
   1  -6  -537060.82 1682.85   1 0.07492 0.49509 0.99666 0.86705 0.03228-0.05564
   1   6  -535125.59  810.63   1-0.04520-0.12342 0.38217-0.05414-0.92298-0.99087
   1   6  -536106.67  891.79   1-0.78351-0.86072 0.43814 0.00157-0.44061-0.50906
  -1  -6   535458.05  793.41   1-0.47534-0.39810-0.00643 0.42978-0.87977-0.81042
   1  -6  -533640.41  729.67   1-0.43788-0.01734-0.04480-0.17403-0.89791-0.98458
  -1  -6   538034.11  737.39   1-0.50123-0.42467-0.27305 0.16324 0.82110 0.89050
   1   6  -532173.81  862.18   1-0.05409-0.13077 0.08129-0.35497 0.99522 0.92568
  -1   6   536098.12 1175.71   1-0.00544-0.42620-0.14375-0.01346-0.98959-0.90452
  -1   6   532598.41  680.53   1-0.08327-0.50361-0.44633-0.31603-0.89098-0.80405
  -1   6   535311.73  913.29   1 0.09255-0.32813-0.83908-0.71004 0.53606 0.62302
   1   6  -454859.37  960.87   1-0.04189-0.15442 0.41319 0.03213-0.90967-0.98748
   1   6  -458168.80 1167.54   1-0.80193-0.91365 0.51227 0.13055-0.30737-0.38496
  -1  -6   454351.89  968.94   1-0.59051-0.47877 0.12331 0.50435-0.79754-0.71860
   1  -6  -451247.16  867.67   1-0.44342-0.05729-0.03922-0.11322-0.89545-0.99191
  -1   6   453572.94 1025.90   1-0.08738-0.47353-0.34474-0.27071-0.93462-0.83814
  -1  -6   453948.86  918.38   1-0.47585-0.36483-0.25150 0.12963 0.84279 0.92200
   1   6  -450581.30 1026.29   1-0.10910-0.22022 0.04007-0.34101 0.99322 0.91389
  -1   6   455580.66 1361.08   1-0.06545-0.45190-0.18722-0.11219-0.98013-0.88498
  -1   6   454225.88 1021.67   1-0.09480-0.48084-0.41302-0.33798-0.90577-0.80904
  -1   6   450504.56 1162.26   1 0.10335-0.28300-0.95085-0.87708 0.29187 0.38811
  -1   6   3 5475.88  518.93   1-0.02255-0.37412 0.57762 0.59744-0.81599-0.70928
   1   6  -3 5773.89  304.32   1-0.03643-0.18324 0.46253 0.13673-0.88585-0.97351
  -1  -6   3 5562.93  313.66   1-0.07180 0.07484 0.09222 0.41811-0.99314-0.90530
   1   6  -3 5328.99  344.96   1-0.79646-0.94239 0.59387 0.26725-0.11383-0.20118
  -1  -6   3 6016.89  275.98   1-0.70749-0.56121 0.28502 0.61090-0.64669-0.55841
   1  -6  -3 5320.65  289.29   1-0.46146-0.10972-0.02083-0.03960-0.88691-0.99317
  -1   6   3 5672.39  308.53   1-0.10848-0.46025-0.32918-0.31036-0.93801-0.83177
  -1  -6   3 5221.62  265.58   1-0.45846-0.31299-0.23686 0.08910 0.85656 0.94556
   1   6  -3 5582.56  340.07   1-0.15378-0.29934 0.00617-0.31974 0.98808 0.89897
  -1   6   3 5880.35  475.05   1-0.10966-0.46181-0.21875-0.19899-0.96959-0.86436
  -1   6   3 5332.13  280.82   1-0.10732-0.45907-0.37568-0.35590-0.92051-0.81399
   1  -6  -3 5326.57  353.87   1 0.07396 0.42504 0.65610 0.63727 0.75103 0.64282
  -1   6   3 5260.72  363.12   1 0.10536-0.24645-0.98781-0.96911-0.11455-0.00832
  -1  -6   3 5335.89  314.44   1 0.05443 0.19996-0.46808-0.14177 0.88200 0.96949
   1  -6  -3 5176.90  389.22   1 0.05337 0.40486-0.45795-0.47636 0.88737 0.78048
  -1   6   2187753.3 1852.44   1 0.07323-0.24375 0.99726 0.96141 0.01038 0.12756
   1   6  -2183444.1 1689.27   1-0.02774-0.20892 0.53619 0.26567-0.84363-0.94115
  -1  -6   2178516.7 1699.54   1-0.06419 0.11684 0.18358 0.45417-0.98090-0.88321
  -1   6   2182781.3 2074.02   1-0.10172-0.41919-0.41848-0.45412-0.90251-0.78615
   1   6  -2183900.0 1862.98   1-0.74115-0.92149 0.65828 0.38685 0.13172 0.03448
  -1  -6   2185515.3 1604.61   1-0.79056-0.61006 0.46003 0.73082-0.40419-0.30612
   1  -6  -2175304.4 1532.65   1-0.50079-0.18346 0.02058 0.05704-0.86532-0.98136
  -1   6   2173875.0 1669.73   1-0.12539-0.44278-0.31649-0.35290-0.94026-0.82425
   1   6  -2181002.6 1788.95   1-0.18824-0.36824-0.02025-0.29098 0.98191 0.88301
  -1   6   2174864.3 3029.29   1-0.13987-0.45771-0.24004-0.27554-0.96063-0.84532
   1  -6  -2173186.3 1899.67   1 0.06334 0.37991 0.55348 0.58980 0.83044 0.71260
   1  -6  -2181330.5 2102.02   1 0.09565 0.41282-0.87045-0.83377 0.48285 0.36659
  -1   6   125436.43  717.72   1 0.09999-0.18256 0.88756 0.79636 0.44970 0.57660
   1   6  -124784.53  661.27   1-0.01428-0.22979 0.63976 0.42455-0.76843-0.87575
  -1  -6   123730.94  641.44   1-0.05449 0.16091 0.28966 0.50497-0.95557-0.84800
  -1   6   124398.25  723.22   1-0.10052-0.38365-0.38642-0.47729-0.91682-0.79057
   1   6  -124594.24  632.11   1-0.62909-0.84391 0.67803 0.46190 0.38014 0.27283
  -1  -6   125514.04  589.26   1-0.79469-0.57970 0.59879 0.81478-0.09955 0.00764
   1  -6  -125678.25  609.91   1-0.57929-0.29634 0.10971 0.20126-0.80769-0.93363
  -1   6   123887.10  682.54   1-0.13354-0.41656-0.31031-0.40194-0.94120-0.81542
  -1  -6   123026.18  612.10   1-0.44961-0.23522-0.22945-0.01382 0.86325 0.97184
   1   6  -124470.92  734.49   1-0.21250-0.42692-0.03900-0.25457 0.97637 0.86771
  -1   6   124586.99  900.68   1-0.15742-0.44096-0.25231-0.34308-0.95475-0.82936
  -1   6   121407.06  898.81   1-0.11151-0.39467-0.36290-0.45363-0.92513-0.79902
   1  -6  -123801.18  647.70   1 0.05563 0.33768 0.47953 0.57100 0.87575 0.74828
   1  -6  -125437.47  758.79   1 0.10601 0.38875-0.99187-0.90015-0.07034-0.19644
  -1  -6   124100.83  657.60   1 0.07638 0.29100-0.67964-0.46362 0.72955 0.83687
  -1   6   074569.25 1180.44   1 0.10580-0.14234 0.76289 0.61646 0.63779 0.77441
   1   6   072863.21 1201.83   1 0.00598-0.24384 0.77300 0.61304-0.63437-0.75147
  -1  -6   071657.62 1047.45   1-0.04176 0.20796 0.41444 0.57448-0.90911-0.79165
  -1   6   067956.00 1144.42   1-0.09907-0.34785-0.35082-0.49691-0.93118-0.79502
  -1  -6   074926.06 1023.77   1-0.72158-0.47219 0.66675 0.82755 0.18641 0.30360
   1  -6   072044.20 1033.94   1-0.72543-0.47691 0.31496 0.46156-0.61199-0.74800
  -1   6   070764.48 1112.20   1-0.11645-0.36509-0.32322-0.47006-0.93912-0.80358
  -1  -6   067216.17  956.53   1-0.45879-0.20995-0.23714-0.07667 0.85631 0.97469
  -1   6   070642.72 1577.05   1-0.16334-0.41257-0.25644-0.40246-0.95265-0.81719
  -1  -6   070645.11 1133.64   1 0.09313 0.34232-0.84494-0.68418 0.52667 0.64398
  -1   6  -1 7932.21  378.42   1 0.10671-0.10691 0.68040 0.47872 0.72502 0.87142
   1   6   1 8395.07  439.23   1 0.03416-0.25000 0.91298 0.80815-0.40655-0.53326
  -1  -6  -1 8156.01  378.33   1-0.02487 0.25921 0.55932 0.66403-0.82857-0.70132
  -1   6  -1 8180.00  368.27   1-0.09742-0.31186-0.31364-0.51496-0.94452-0.79846
  -1  -6  -1 8468.53  361.32   1-0.61927-0.33532 0.67750 0.78298 0.39683 0.52392
  -1  -6  -1 8156.63  329.79   1-0.47717-0.19388-0.25261-0.14732 0.84171 0.96990
   1   6   1 8174.36  387.73   1-0.23012-0.51343-0.05269-0.15791 0.97173 0.84347
  -1   6  -1 7912.90  476.27   1-0.15837-0.37330-0.25298-0.45427-0.95441-0.80887
  -1  -6  -1 8754.04  403.39   1 0.10606 0.38953-0.98220-0.87655 0.15503 0.28270
   1   6   1 8048.34  422.50   1 0.07014-0.21357-0.61901-0.72475 0.78223 0.65506
  -1   6  -228451.46  700.11   1 0.10655-0.07261 0.63114 0.37428 0.76831 0.92446
   1   6   227563.31  797.67   1 0.06666-0.25182 0.99525 0.94530-0.07094-0.20732
  -1  -6  -227473.03  655.61   1-0.00327 0.31518 0.71540 0.76483-0.69870-0.56186
  -1   6  -224966.69  754.86   1-0.09561-0.27570-0.27560-0.53213-0.95650-0.80051
  -1  -6  -227625.33  626.27   1-0.50453-0.18678-0.27587-0.22574 0.81813 0.95611
   1   6   228558.50  742.09   1-0.22283-0.54059-0.04702-0.09706 0.97372 0.83566
  -1   6  -228961.01  963.15   1-0.14308-0.32369-0.24229-0.49884-0.95959-0.80397
  -1   6  -229093.55  728.09   1 0.07317-0.10531 0.64840 0.39147 0.75777 0.91414
   1   6   226745.12  883.62   1 0.09228-0.22600-0.83645-0.88681 0.54021 0.40308
  -1   6  -3  705.00  114.15   1 0.10629-0.03843 0.60424 0.29219 0.78967 0.95558
   1   6   3  714.56  134.15   1 0.09303-0.25983 0.94717 0.95219 0.30691 0.16064
  -1  -6  -3  802.74  119.87   1 0.02138 0.37418 0.85625 0.85048-0.51611-0.36967
  -1   6  -3  646.26  118.71   1-0.09362-0.23937-0.23674-0.54849-0.96705-0.80115
  -1   6  -3  706.89  135.94   1-0.72140-0.86596 0.66682 0.35416 0.18689 0.35307
  -1   6  -3  619.06  123.22   1-0.46419-0.60952-0.01801-0.33061-0.88554-0.72053
  -1  -6  -3  799.49  108.11   1-0.54043-0.18826-0.30686-0.31189 0.78343 0.93127
   1   6   3  778.20  118.51   1-0.20402-0.55623-0.03244-0.02730 0.97842 0.83057
  -1   6  -3  576.94  158.95   1-0.11779-0.26411-0.22450-0.53632-0.96732-0.80162
  -1   6  -3  666.62  108.43   1 0.07000-0.07396 0.61773 0.30565 0.78326 0.94926
   1   6   3  606.71  119.32   1 0.10518-0.24738-0.97149-0.96674 0.21244 0.06487
   1   6   491550.43 1409.54   1 0.10526-0.28189 0.78445 0.84471 0.61119 0.45497
  -1  -6  -491240.37 1481.46   1 0.04439 0.43160 0.94948 0.88872-0.31064-0.15454
  -1   6  -493986.46 1333.41   1-0.09147-0.20287-0.19729-0.56427-0.97606-0.80027
  -1   6  -491892.79 1380.51   1-0.42251-0.53350-0.06011-0.42791-0.90436-0.72956
  -1  -6  -490858.99 1160.76   1-0.58363-0.19701-0.34494-0.40515 0.73510 0.89277
   1   6   490715.04 1380.27   1-0.17260-0.55926-0.00823 0.05213 0.98495 0.82734
  -1   6  -493883.76 1811.29   1-0.08272-0.19473-0.19959-0.56667-0.97638-0.80060
   1   6   492714.78 1577.88   1 0.10598-0.28113-0.99172-0.93171-0.07249-0.22994
   1   6   570803.45 1264.57   1 0.10611-0.31551 0.59049 0.70582 0.80003 0.63423
  -1  -6  -571774.92 1249.50   1 0.06202 0.48362 0.99021 0.87432-0.12502 0.04084
  -1   6  -567247.02 1205.05   1-0.08915-0.16621-0.15733-0.57953-0.98351-0.79781
  -1   6  -568018.57 1166.62   1-0.42366-0.50026-0.05897-0.48199-0.90389-0.71931
  -1  -6  -574673.53 1098.66   1-0.63315-0.21221-0.38995-0.50522 0.66861 0.83648
   1   6   566498.43 1250.91   1-0.12723-0.54833 0.02636 0.14191 0.99152 0.82412
  -1   6  -570403.33 1486.04   1-0.03789-0.11559-0.16735-0.58969-0.98516-0.79931
  -1  -6  -570484.06 1020.89   1-0.06004 0.36072-0.51047-0.62672-0.85779-0.69072
   1   6   568887.04 1200.51   1 0.05786-0.36394 0.50088 0.61594 0.86357 0.69867
  -1  -6  -6 7502.36  415.47   1 0.07366 0.52970 0.99715 0.82628 0.01588 0.19148
  -1   6  -6 7910.36  387.47   1-0.08669-0.12968-0.11705-0.59438-0.98933-0.79365
  -1  -6  -6 7611.23  396.93   1-0.10182 0.35358-0.42150-0.59243-0.90109-0.72388
  -1   6  -6 6531.83  399.57   1-0.43643-0.47855-0.04626-0.52454-0.89854-0.70415
  -1  -6  -6 7424.21  334.64   1-0.06754 0.38792-0.35911-0.53034-0.93084-0.75382
  -1  -6  -6 7704.21  307.70   1-0.68567-0.23037-0.43991-0.61027 0.57992 0.75795
   1   6   6 6630.74  387.46   1-0.06558-0.52113 0.07273 0.24347 0.99519 0.81801
  -1  -6  -6 7209.54  523.90   1 0.06007 0.51502-0.09539-0.26671-0.99362-0.81462
  -1   6  -6 8247.72  536.02   1 0.01683-0.02656-0.12740-0.60501-0.99170-0.79577
  -1  -6  -6 8113.03  332.77   1-0.09598 0.35908-0.40956-0.58106-0.90721-0.73035
  -1  -6  -7 8333.78  435.23   1 0.08087 0.57144 0.99023 0.76434 0.11350 0.29870
  -1   6  -710119.75  420.01   1-0.08405-0.09274-0.07615-0.60872-0.99354-0.78794
  -1  -6  -7 9128.58  479.50   1-0.09569 0.39406-0.27726-0.50342-0.95601-0.76894
  -1   6  -7 9299.64  423.35   1-0.45414-0.46186-0.02834-0.56185-0.89047-0.68629
  -1  -6  -7 9572.28  385.76   1-0.12198 0.36786-0.31906-0.54551-0.93984-0.75305
  -1  -6  -7 8991.23  360.20   1-0.73734-0.24760-0.49281-0.71830 0.46200 0.65017
   1  -6   7 9724.14  442.03   1-0.06161-0.05424 0.07569 0.60902 0.99522 0.79129
  -1  -6  -7 9254.29  628.54   1-0.02553 0.46373-0.15838-0.38497-0.98704-0.79796
  -1  -6  -8  260.33   81.84   1 0.08519 0.61019 0.98049 0.69940 0.17712 0.37216
  -1   6  -8   97.32  107.27   1-0.08125-0.05563-0.03480-0.62259-0.99608-0.78056
  -1  -6  -8  212.19   94.80   1-0.08912 0.43497-0.15681-0.43819-0.98359-0.78662
  -1   6  -8  139.38   89.85   1-0.47422-0.44754-0.00760-0.59634-0.88037-0.66639
  -1  -6  -8  190.15   75.26   1-0.17152 0.35269-0.28094-0.56260-0.94427-0.74771
  -1  -6  -8  180.07   64.76   1-0.78155-0.25744-0.54513-0.82588 0.30331 0.50163
   1  -6   8  206.10   90.30   1-0.13592-0.16299 0.01976 0.60828 0.99052 0.77680
  -1  -6  -8  111.02  115.09   1-0.13879 0.38477-0.23928-0.52114-0.96097-0.76181
  -1   6  -917617.79  566.83   1-0.07828-0.01839 0.00701-0.63607-0.99690-0.77140
  -1  -6  -917370.82  623.47   1-0.08254 0.47569-0.05362-0.39043-0.99514-0.78820
  -1   6  -915561.74  663.85   1-0.49557-0.43449 0.01498-0.62898-0.86843-0.64466
  -1  -6  -916522.20  499.63   1-0.21725 0.34135-0.24429-0.58117-0.94505-0.73872
   1  -6   915147.41  728.93   1-0.22228-0.28388-0.04659 0.59706 0.97386 0.75027
  -1   6 -1052535.73 1278.72   1-0.07513 0.01905 0.04930-0.64901-0.99595-0.76053
  -1  -6 -1048298.34 1235.72   1-0.07599 0.51657 0.03802-0.35415-0.99638-0.77956
  -1   6 -1047433.32 1514.37   1-0.51763-0.42214 0.03892-0.66026-0.85471-0.62115
  -1  -6 -1054087.93 1261.65   1-0.25999 0.33307-0.20869-0.60085-0.94278-0.72665
  -1   6 -11 5469.55  314.65   1-0.07181 0.05668 0.09208-0.66147-0.99315-0.74781
  -1   6 -11 5713.81  337.73   1-0.53996-0.41021 0.06386-0.69059-0.83925-0.59565
  -1  -6 -11 5120.71  299.63   1-0.30024 0.32720-0.17394-0.62132-0.93786-0.71196
  -1   6 -1243997.48 1148.75   1-0.06829 0.09452 0.13537-0.67353-0.98843-0.73308
  -1   6 -1244542.03 1190.76   1-0.56250-0.39830 0.08982-0.71991-0.82190-0.56839
  -1  -6 -1245839.42 1246.79   1-0.33844 0.32348-0.13978-0.64240-0.93054-0.69474
   1   7 -13   83.04  131.74   1-0.03831 0.11641 0.44575-0.45817-0.89433-0.88120
   1   7 -12 8141.98  426.66   1-0.04074 0.07958 0.42377-0.42482-0.90485-0.90176
   1   7 -12 7257.27  368.52   1-0.73211-0.61035 0.32671-0.52200-0.59772-0.59579
   1  -7 -12 8833.98  437.81   1-0.51857 0.18426 0.03995-0.45027-0.85409-0.87366
   1   7 -11 9727.14  443.41   1-0.04282 0.04321 0.40458-0.38875-0.91349-0.92032
   1   7 -11 8970.21  376.66   1-0.73223-0.64486 0.32693-0.46653-0.59745-0.60538
   1  -7 -11 9751.33  380.82   1-0.50092 0.16750 0.02072-0.41428-0.86524-0.89460
   1   7 -1032599.59  869.30   1-0.04450 0.00723 0.38880-0.34928-0.92024-0.93698
   1   7 -1030746.91  785.38   1-0.73541-0.68244 0.33267-0.40553-0.59032-0.60811
   1  -7 -1030001.79  804.79   1-0.48424 0.14978 0.00292-0.37685-0.87492-0.91408
  -1   7  1022285.66 1003.39   1 0.07564-0.55909-0.67241-0.29365 0.73630 0.77535
   1   7  -923653.28  676.45   1-0.04573-0.02829 0.37710-0.30572-0.92504-0.95169
   1   7  -922872.44  578.35   1-0.74212-0.72335 0.34508-0.33794-0.57460-0.60211
   1  -7  -923938.73  584.76   1-0.46887 0.13075-0.01318-0.33773-0.88316-0.93211
  -1  -7   921609.96  612.41   1-0.63118-0.65090-0.38813 0.29452 0.67153 0.69969
   1  -7  -922059.62  636.90   1-0.43650 0.16347-0.21852-0.54229 0.87275 0.82413
  -1   7   917492.41  908.00   1 0.07723-0.52294-0.68788-0.36388 0.72169 0.77078
   1  -7  -820169.50  806.28   1 0.10365 0.66874 0.82859 0.55900 0.55016 0.49018
   1  -7  -821298.60  755.98   1 0.02910 0.59369 0.89195 0.62154-0.45118-0.51108
   1   7  -822531.29  762.06   1-0.04642-0.06329 0.37039-0.25718-0.92771-0.96428
   1   7  -821542.48  656.72   1-0.75308-0.76872 0.36649-0.26128-0.54639-0.58377
   1  -7  -820705.75  640.12   1-0.45527 0.10995-0.02719-0.29651-0.88993-0.94867
  -1  -7   821601.91  677.57   1-0.58516-0.57046-0.34631 0.28113 0.73324 0.77170
   1  -7  -821993.40  726.34   1-0.30477 0.26068-0.11146-0.38016 0.94587 0.88742
  -1   7   818749.05  791.18   1 0.08036-0.48526-0.71848-0.44966 0.69088 0.74987
   1  -7  -779124.25 1905.27   1 0.10142 0.63208 0.86835 0.65396 0.48545 0.41568
   1  -7  -778611.32 1922.61   1 0.05400 0.58435 0.97557 0.76066-0.21292-0.28269
   1   7  -774544.45 1484.66   1-0.04648-0.09764 0.36986-0.20246-0.92792-0.97440
   1   7  -770670.45 1572.77   1-0.76811-0.81815 0.39888-0.17365-0.50089-0.54814
   1  -7  -774700.41 1415.35   1-0.44411 0.08670-0.03853-0.25262-0.89513-0.96367
  -1  -7   777442.49 1443.18   1-0.54340-0.49425-0.30944 0.26283 0.78035 0.82863
   1  -7  -780973.57 1647.38   1-0.19808 0.33293-0.02784-0.24136 0.97978 0.91153
  -1   7   771852.21 1793.19   1 0.08555-0.44553-0.76948-0.55583 0.63291 0.70181
   1   7  -615673.76  553.13   1-0.04572-0.13119 0.37713-0.13993-0.92502-0.98143
   1   7  -613673.06  450.64   1-0.78557-0.86985 0.44417-0.07322-0.43078-0.48784
   1  -7  -616251.77  498.08   1-0.43640 0.06002-0.04629-0.20516-0.89856-0.97688
  -1  -7   615513.76  527.69   1-0.37770-0.29326-0.10338 0.41355-0.92013-0.86195
  -1  -7   617335.89  526.53   1-0.50743-0.42389-0.27836 0.23873 0.81548 0.87368
   1  -7  -616041.77  582.37   1-0.11115 0.38540 0.03853-0.11990 0.99305 0.91492
  -1   7   612787.68  757.42   1 0.09318-0.40348-0.84544-0.68684 0.52586 0.60451
   1   7  -550360.03  958.70   1-0.04391-0.16367 0.39439-0.06742-0.91789-0.98420
  -1  -7   546711.11  934.41   1-0.48317-0.36445 0.00179 0.46360-0.87551-0.80761
   1  -7  -553476.64  938.54   1-0.43364 0.02837-0.04905-0.15269-0.89974-0.98786
  -1  -7   550159.76  880.05   1-0.47752-0.35952-0.25290 0.20902 0.84143 0.90942
   1  -7  -551079.50 1045.26   1-0.04137 0.42073 0.09074-0.01250 0.99501 0.90709
  -1   7   550001.85 1456.79   1 0.04038-0.42190-0.11002-0.00525-0.99310-0.90662
  -1  -7   545934.93 1320.49   1 0.03212 0.15124-0.11613 0.34595-0.99271-0.92598
  -1   7   549009.77 1248.69   1 0.10240-0.35993-0.94052-0.83720 0.32391 0.41173
   1   7  -4 3261.19  248.64   1-0.04065-0.19471 0.42460 0.01804-0.90446-0.98069
   1   7  -4 3320.73  238.08   1-0.80171-0.95482 0.57272 0.16536-0.17097-0.24691
  -1  -7   4 2975.66  222.58   1-0.60170-0.44847 0.13711 0.54373-0.78685-0.70937
   1  -7  -4 2939.13  215.57   1-0.43832-0.01070-0.04436-0.09277-0.89771-0.99562
  -1  -7   4 3389.37  221.45   1-0.45441-0.30195-0.23346 0.17329 0.85965 0.93743
   1   7  -4 2694.70  227.06   1-0.06499-0.21756 0.07317-0.33353 0.99519 0.91728
  -1   7   4 3426.98  393.94   1-0.01256-0.44055-0.14894-0.09944-0.98876-0.89220
  -1   7   4 2962.68  293.58   1 0.10632-0.32146-0.99348-0.94522-0.04112 0.05668
   1   7  -354538.14 1053.19   1-0.03540-0.22375 0.47156 0.12026-0.88111-0.96719
  -1  -7   350656.46 1019.39   1-0.07522 0.11295 0.04817 0.39958-0.99600-0.90970
   1   7  -351990.69  993.53   1-0.76978-0.95703 0.63746 0.28510 0.03278-0.05290
  -1  -7   354056.24  956.89   1-0.71770-0.52993 0.30179 0.65324-0.62754-0.54077
   1  -7  -348488.69  833.39   1-0.45475-0.06153-0.02771-0.02090-0.89018-0.99788
  -1   7   350052.31  887.36   1-0.03481-0.42807-0.38228-0.38904-0.92338-0.81571
  -1  -7   351274.90 1043.18   1-0.43859-0.25168-0.22026 0.13132 0.87127 0.95885
   1   7  -351795.87 1050.05   1-0.10402-0.29103 0.04391-0.30761 0.99360 0.90590
  -1   7   352537.57 1387.38   1-0.05227-0.44594-0.17773-0.18350-0.98268-0.87604
  -1  -7   350779.24 1002.99   1 0.05561 0.24256-0.47933-0.12736 0.87586 0.96173
  -1   7   2110826.9 1656.72   1 0.08304-0.27535 0.98595 0.92442 0.14488 0.26385
   1   7  -2111415.7 1435.97   1-0.02723-0.24994 0.54034 0.24433-0.84100-0.93692
  -1  -7   2110262.4 1652.58   1-0.06907 0.15350 0.12588 0.42199-0.98963-0.89350
  -1   7   2109640.9 1671.59   1-0.08978-0.44876-0.16794-0.22911-0.98169-0.86377
   1   7  -2119216.4 1546.46   1-0.68845-0.91018 0.67501 0.37794 0.26530 0.16949
  -1  -7   2111163.3 1381.27   1-0.79398-0.57200 0.47235 0.76872-0.38271-0.28614
   1  -7  -2110142.9 1413.74   1-0.49099-0.13217 0.01008 0.07212-0.87110-0.98859
  -1  -7   2112149.1 1333.56   1-0.43047-0.20911-0.21351 0.08290 0.87698 0.97437
   1   7  -2108098.3 1485.12   1-0.13403-0.35548 0.02120-0.27513 0.99075 0.89326
  -1   7   2110917.1 1945.61   1-0.07994-0.43931-0.19760-0.25863-0.97701-0.86029
   1  -7  -2100730.3 1928.68   1 0.09747 0.45605-0.88900-0.82666 0.44740 0.32959
  -1  -7   2122571.9 1621.96   1 0.06410 0.28559-0.56074-0.26392 0.82550 0.92129
  -1   7   113387.93  500.98   1 0.10228-0.22173 0.85477 0.73796 0.50882 0.63736
   1   7  -113750.90  482.70   1-0.01484-0.27189 0.63564 0.39494-0.77183-0.87755
  -1  -7   113167.50  464.76   1-0.06150 0.19537 0.21407 0.45492-0.97487-0.86883
  -1   7   112807.04  571.92   1-0.09298-0.41762-0.22475-0.34114-0.96996-0.84214
  -1  -7   114808.37  480.72   1-0.79347-0.53700 0.60184 0.84344-0.09046 0.01511
   1  -7  -112221.78  445.62   1-0.56364-0.23920 0.09115 0.20827-0.82097-0.94836
  -1  -7   112928.20  435.92   1-0.43033-0.17452-0.21340 0.02785 0.87708 0.98425
   1   7  -113910.11  544.04   1-0.15498-0.41088 0.00524-0.23591 0.98790 0.88063
  -1   7   114577.58  710.99   1-0.09656-0.42162-0.20945-0.32574-0.97303-0.84624
   1  -7  -113407.45  530.21   1 0.10541 0.42958-0.98816-0.87080-0.11146-0.23908
  -1  -7   113853.19  517.47   1 0.07638 0.33242-0.67962-0.43794 0.72957 0.83528
  -1   7   017145.28  591.81   1 0.10622-0.18338 0.74013 0.56812 0.66401 0.80225
   1   7   016071.23  524.81   1 0.00350-0.28786 0.75811 0.57266-0.65210-0.76758
  -1  -7   016524.30  510.41   1-0.05195 0.23930 0.31572 0.50127-0.94742-0.83154
  -1   7   015957.47  523.03   1-0.09339-0.38368-0.23236-0.40398-0.96813-0.83041
  -1  -7   017443.95  480.22   1-0.72508-0.43422 0.66547 0.85190 0.17717 0.29275
   1  -7   016258.21  477.47   1-0.70421-0.41419 0.27977 0.45192-0.65253-0.79006
  -1  -7   016503.31  517.75   1-0.43840-0.14812-0.22010-0.03400 0.87141 0.98838
   1   7   015351.13  583.30   1-0.16677-0.45710-0.00376-0.18974 0.98598 0.86893
  -1   7   015382.97  703.63   1-0.10287-0.39363-0.21393-0.38548-0.97141-0.83454
  -1  -7   016635.26  581.71   1 0.09219 0.38281-0.83555-0.64914 0.54161 0.65731
  -1   7  -1121598.1 1612.00   1 0.10671-0.14836 0.66608 0.43881 0.73820 0.88624
   1   7   1114715.9 1669.36   1 0.02912-0.29655 0.89204 0.76170-0.45099-0.57606
  -1  -7  -1122764.0 1560.39   1-0.03954 0.28604 0.43472 0.56498-0.89969-0.77392
  -1   7  -1110536.8 1527.00   1-0.09279-0.34874-0.22122-0.44806-0.97079-0.82317
  -1  -7  -1121233.7 1500.53   1-0.63147-0.30605 0.67812 0.80922 0.37601 0.50148
  -1  -7  -1117894.9 1361.09   1-0.45474-0.13001-0.23374-0.10282 0.85939 0.98616
   1   7   1118562.6 1630.77   1-0.16915-0.49393-0.00559-0.13638 0.98557 0.85873
  -1   7  -1109854.4 2166.37   1-0.09945-0.35591-0.21151-0.43832-0.97230-0.82534
  -1  -7  -1118739.3 1644.53   1 0.10551 0.43041-0.97537-0.84407 0.19367 0.31982
   1   7   1122368.2 1874.99   1 0.05287-0.27225-0.45317-0.58457 0.88984 0.76429
  -1   7  -2218673.1 2195.80   1 0.10647-0.11415 0.62176 0.33931 0.77593 0.93372
   1   7   2224420.9 2525.02   1 0.06034-0.29966 0.98774 0.91243-0.14392-0.27868
  -1  -7  -2213943.3 2179.18   1-0.02333 0.33660 0.57148 0.64642-0.82028-0.68471
  -1   7  -2218871.3 2231.50   1-0.09166-0.31326-0.20063-0.48269-0.97536-0.81784
  -1  -7  -2205424.6 1883.05   1-0.47926-0.12007-0.25437-0.17861 0.84000 0.97656
   1   7   2225635.0 2328.21   1-0.16178-0.52100 0.00005-0.07556 0.98682 0.85020
  -1   7  -2216763.5 2814.20   1-0.08676-0.30891-0.20247-0.48455-0.97543-0.81840
  -1   7  -2224064.0 2124.80   1 0.07249-0.14739 0.64176 0.35921 0.76347 0.92154
   1   7   2229263.1 2642.01   1 0.07496-0.28471-0.66576-0.74202 0.74238 0.60690
  -1   7  -3130549.6 1726.74   1 0.10620-0.07997 0.59753 0.25989 0.79477 0.96231
   1   7   3137196.1 1878.91   1 0.08871-0.30563 0.96849 0.94805 0.23267 0.08824
  -1  -7  -3134065.1 1729.76   1-0.00317 0.39111 0.71605 0.73571-0.69803-0.55294
  -1   7  -3132528.8 1737.93   1-0.09016-0.27742-0.17447-0.51176-0.98052-0.81309
  -1  -7  -3144484.2 1528.83   1-0.51159-0.11795-0.28193-0.26133 0.81165 0.95801
   1   7   3139467.9 1886.72   1-0.14411-0.53777 0.01354-0.00689 0.98946 0.84305
  -1   7  -3134435.4 2111.37   1-0.06509-0.25293-0.18696-0.52430-0.98020-0.81309
   1   7   3124806.2 2211.21   1 0.09624-0.29787-0.87637-0.89723 0.47191 0.32593
   1   7   4 1047.20  156.02   1 0.10421-0.32440 0.81544 0.85012 0.56937 0.41478
  -1  -7  -4  924.86  126.54   1 0.01911 0.44776 0.84500 0.80948-0.53441-0.37978
  -1   7  -4 1035.43  132.62   1-0.08840-0.24154-0.14482-0.53721-0.98549-0.80811
  -1   7  -4  992.51  152.47   1-0.63304-0.78452 0.67817 0.28457 0.37326 0.55094
  -1   7  -4  832.11  155.39   1-0.62303-0.77548 0.16419-0.22915-0.76476-0.58830
  -1  -7  -4  985.99  122.00   1-0.55129-0.12322-0.31634-0.35092 0.77201 0.92826
   1   7   4 1027.65  155.08   1-0.11536-0.54346 0.03535 0.07010 0.99269 0.83649
  -1   7  -4  787.84  169.84   1-0.03464-0.18818-0.16500-0.55760-0.98568-0.80849
   1   7   4  869.74  153.69   1 0.10595-0.32260-0.98080-0.94650 0.16370 0.00770
   1   7   522607.83  704.28   1 0.10628-0.35679 0.60380 0.69354 0.79001 0.62585
  -1  -7  -523976.55  753.86   1 0.03952 0.50259 0.93317 0.84270-0.35723-0.19297
  -1   7  -523750.14  664.06   1-0.08640-0.20523-0.11249-0.56012-0.98988-0.80258
  -1   7  -519385.87  816.76   1-0.55473-0.67282 0.08078-0.36781-0.82809-0.64188
  -1  -7  -525113.68  639.56   1-0.59700-0.13448-0.35693-0.44668 0.71846 0.88452
   1   7   521914.98  744.01   1-0.07439-0.53694 0.06615 0.15608 0.99503 0.82905
  -1   7  -524525.90  875.40   1 0.00450-0.11472-0.13646-0.58432-0.99063-0.80336
  -1  -7  -523323.25  553.13   1-0.06130 0.40097-0.50710-0.59785-0.85969-0.69410
   1   7   524111.29  662.75   1 0.05658-0.40662 0.48859 0.57804 0.87067 0.70747
   1   7   521033.18  677.37   1 0.10592-0.35716-0.99135-0.90178-0.07749-0.24335
  -1  -7  -628815.15  881.80   1 0.05535 0.55282 0.97851 0.83293-0.19859-0.02458
  -1   7  -630105.77  803.30   1-0.08419-0.16871-0.07824-0.58110-0.99337-0.79614
  -1  -7  -628861.79  871.05   1-0.10151 0.39541-0.41270-0.55809-0.90518-0.72950
  -1   7  -623903.34  879.75   1-0.53457-0.61827 0.05777-0.44605-0.84314-0.64712
  -1  -7  -629470.24  773.10   1-0.07507 0.42188-0.35369-0.49934-0.93234-0.75674
  -1  -7  -630624.15  779.84   1-0.64779-0.15096-0.40361-0.54842 0.64610 0.82246
   1  -7   629699.99  847.67   1-0.03524 0.04801 0.09529 0.59905 0.99482 0.79926
  -1   7  -629681.85 1099.72   1 0.05240-0.03251-0.10109-0.60422-0.99349-0.79614
  -1  -7  -628856.62 1136.76   1 0.01560 0.51209-0.12831-0.27411-0.99161-0.81401
  -1  -7  -631395.04  780.21   1-0.09804 0.39852-0.40346-0.54946-0.90972-0.73434
  -1  -7  -7 4188.01  337.46   1 0.06614 0.59807 0.99483 0.79430-0.07703 0.10669
  -1   7  -7 5515.40  323.65   1-0.08178-0.13199-0.04248-0.60057-0.99574-0.78860
  -1  -7  -7 5097.50  328.30   1-0.09438 0.43689-0.25127-0.45188-0.96330-0.77776
  -1   7  -7 4577.06  284.48   1-0.53271-0.58201 0.05568-0.50338-0.84446-0.63863
  -1  -7  -7 5616.00  295.69   1-0.12705 0.40428-0.31524-0.51611-0.94046-0.75510
  -1  -7  -7 5098.42  270.02   1-0.70031-0.16912-0.45441-0.65431 0.55051 0.73707
   1  -7   7 5460.44  322.91   1-0.09071-0.04189 0.05392 0.61286 0.99441 0.78907
  -1  -7  -7 4405.24  402.50   1-0.05872 0.47206-0.18238-0.38345-0.98147-0.79379
  -1   7  -865465.95 1603.76   1-0.07918-0.09513-0.00549-0.61886-0.99684-0.77971
  -1  -7  -865086.07 1707.82   1-0.08686 0.47859-0.11980-0.37586-0.98899-0.79351
  -1   7  -868865.82 1684.78   1-0.53976-0.55467 0.06364-0.55067-0.83940-0.62376
  -1  -7  -865613.22 1493.87   1-0.17474 0.39097-0.27841-0.53450-0.94443-0.74929
  -1  -7  -860341.66 1429.05   1-0.75054-0.18491-0.50736-0.76239 0.42338 0.62012
   1  -7   865808.27 1671.17   1-0.15563-0.14125 0.00475 0.61888 0.98780 0.77267
  -1   7  -9 2763.59  245.95   1-0.07639-0.05803 0.03259-0.63600-0.99654-0.76949
  -1  -7  -9 2503.63  214.92   1-0.07945 0.52033-0.00927-0.32071-0.99679-0.79144
  -1   7  -9 2635.81  250.63   1-0.55177-0.53229 0.07736-0.59219-0.83039-0.60495
  -1  -7  -9 2976.46  223.85   1-0.21906 0.38102-0.24281-0.55411-0.94501-0.74011
   1  -7   9 2482.92  241.13   1-0.23061-0.25077-0.05308 0.61620 0.97159 0.74659
  -1   7 -10 2258.33  212.15   1-0.07342-0.02075 0.07163-0.65220-0.99472-0.75775
  -1   7 -10 1558.61  211.29   1-0.56667-0.51275 0.09471-0.63010-0.81847-0.58313
  -1  -7 -10 1665.99  178.68   1-0.26072 0.37382-0.20807-0.57466-0.94272-0.72802
  -1   7 -11 2451.59  213.32   1-0.07025 0.01673 0.11151-0.66765-0.99127-0.74428
  -1   7 -11 2342.70  207.95   1-0.58354-0.49522 0.11483-0.66522-0.80392-0.55876
  -1  -7 -11 2433.41  210.14   1-0.30013 0.36879-0.17403-0.59584-0.93788-0.71341
  -1   7 -1231603.47  760.15   1-0.06688 0.05440 0.15224-0.68217-0.98607-0.72916
  -1  -7 -1229803.43  747.34   1-0.33768 0.36572-0.14047-0.61752-0.93071-0.69635
   1   8 -12 4383.52  282.00   1-0.03981 0.03897 0.43222-0.44187-0.90088-0.89622
   1  -8 -12 3464.21  369.99   1-0.51744 0.22686 0.03872-0.42593-0.85483-0.87585
   1   8 -11  256.67  109.02   1-0.04178 0.00271 0.41421-0.40463-0.90921-0.91447
   1   8 -11  137.27   99.39   1-0.75599-0.70991 0.37245-0.44664-0.53828-0.54454
   1  -8 -11  310.19  107.09   1-0.49992 0.20998 0.01964-0.38977-0.86584-0.89665
   1   8 -10 6026.56  330.66   1-0.04335-0.03315 0.39962-0.36396-0.91565-0.93082
   1   8 -10 4312.38  340.73   1-0.76036-0.74868 0.38166-0.38219-0.52552-0.54166
   1  -8 -10 6006.01  312.73   1-0.48338 0.19212 0.00201-0.35218-0.87540-0.91600
  -1  -8  10 4434.28  409.64   1-0.65142-0.66412-0.40702 0.35642 0.64029 0.65718
   1   8  -9  -78.57  107.33   1-0.04446-0.06856 0.38911-0.31922-0.92011-0.94519
   1   8  -9   90.73   80.10   1-0.76781-0.79054 0.39819-0.31041-0.50190-0.52790
   1  -8  -9   60.48   75.14   1-0.46817 0.17293-0.01390-0.31287-0.88352-0.93391
  -1  -8   9   30.07   62.72   1-0.60450-0.58279-0.36370 0.34453 0.70872 0.73596
   1  -8  -9   38.25   61.94   1-0.41667 0.22473-0.20209-0.50020 0.88630 0.83623
  -1   8   9   18.04   86.57   1 0.08537-0.55623-0.76770-0.46934 0.63509 0.68580
   1   8  -868246.34 1160.48   1-0.04505-0.10345 0.38354-0.26953-0.92242-0.95741
   1   8  -871262.48 1089.78   1-0.77811-0.83503 0.42338-0.23011-0.46398-0.49977
   1  -8  -871218.66 1060.88   1-0.45474 0.15196-0.02773-0.27147-0.89019-0.95037
  -1  -8   873368.92 1153.51   1-0.56109-0.50494-0.32495 0.32812 0.76130 0.79835
   1  -8  -869000.01 1086.58   1-0.30734 0.29956-0.11350-0.35657 0.94480 0.88493
   1   8  -795649.35 1363.72   1-0.04500-0.13770 0.38404-0.21378-0.92221-0.96712
   1   8  -7102609.9 1225.29   1-0.79039-0.88173 0.45944-0.13879-0.40520-0.45087
   1  -8  -794297.47 1194.46   1-0.44375 0.12854-0.03889-0.22740-0.89530-0.96527
  -1  -8   784929.81 1305.59   1-0.28123-0.18968-0.19051 0.40722-0.94053-0.89341
  -1  -8   799072.61 1229.34   1-0.52267-0.43214-0.29146 0.30642 0.80116 0.84814
   1  -8  -794104.93 1305.38   1-0.21639 0.35606-0.04202-0.22991 0.97540 0.90573
   1   8  -6 1220.58  170.76   1-0.04415-0.17115 0.39210-0.15047-0.91886-0.97368
   1   8  -6  952.48  192.77   1-0.80110-0.92689 0.50645-0.03708-0.31896-0.37348
   1  -8  -6 1169.28  139.21   1-0.43617 0.10173-0.04652-0.17981-0.89865-0.97842
  -1  -8   6 1163.00  143.44   1-0.37561-0.24969-0.10535 0.43715-0.92076-0.86402
  -1  -8   6 1117.28  128.89   1-0.48943-0.36444-0.26300 0.27972 0.83143 0.88821
   1  -8  -6 1115.24  166.18   1-0.14099 0.39701 0.01591-0.11690 0.98988 0.91033
  -1   8   6  894.80  231.94   1 0.10295-0.43537-0.94644-0.81357 0.30601 0.38541
   1   8  -5 9566.35  399.27   1-0.04227-0.20357 0.40970-0.07761-0.91123-0.97597
   1   8  -5 8515.80  497.35   1-0.80299-0.96310 0.56354 0.07526-0.19397-0.25837
  -1  -8   5 9138.80  406.65   1-0.48548-0.32527 0.00423 0.49162-0.87423-0.80777
   1  -8  -510559.45  407.90   1-0.43345 0.07004-0.04924-0.12729-0.89982-0.98938
  -1  -8   5 9445.06  451.34   1-0.46205-0.30261-0.23988 0.24767 0.85379 0.92036
   1  -8  -5 9349.68  410.02   1-0.07960 0.42396 0.06225-0.01537 0.99488 0.90554
  -1   8   5 7192.91  714.56   1 0.10639-0.39737-0.99376-0.91594-0.03335 0.05604
   1   8  -4 7718.52  410.07   1-0.03903-0.23461 0.43932 0.00724-0.89748-0.97206
   1   8  -4 8511.31  401.83   1-0.78258-0.97695 0.62203 0.18889-0.02521-0.09939
  -1  -8   4 7651.30  382.61   1-0.60757-0.41285 0.14446 0.57665-0.78101-0.70499
   1  -8  -4 7291.35  328.97   1-0.43796 0.03113-0.04472-0.06755-0.89787-0.99722
  -1  -8   4 8014.30  366.17   1-0.44098-0.24708-0.22225 0.21013 0.86956 0.94593
  -1   8   4 9165.08  575.39   1 0.03251-0.43699-0.11584-0.09186-0.99273-0.89476
  -1  -8   4 7384.02  357.77   1 0.05182 0.24563-0.44309-0.01033 0.89497 0.96930
   1   8  -317098.74  611.31   1-0.03388-0.26377 0.48468 0.10787-0.87403-0.95853
   1   8  -314915.30  546.82   1-0.72438-0.95301 0.66574 0.28772 0.17903 0.09473
  -1  -8   315758.48  502.55   1-0.72337-0.49410 0.31140 0.68841-0.61624-0.53099
   1  -8  -314953.81  446.93   1-0.45374-0.01904-0.02875 0.00364-0.89066-0.99981
  -1  -8   315672.10  579.78   1-0.42659-0.19825-0.21029 0.16692 0.87965 0.96583
  -1   8   315334.03  749.96   1-0.00338-0.43859-0.14224-0.17352-0.98982-0.88177
  -1  -8   317225.51  590.53   1 0.05728 0.28564-0.49530-0.11767 0.86682 0.95108
  -1   8   278098.96 1379.57   1 0.08911-0.31075 0.96687 0.87975 0.23920 0.35980
   1   8  -270091.46 1102.62   1-0.02608-0.29033 0.54962 0.22810-0.83500-0.92933
  -1  -8   273454.11 1265.23   1-0.07354 0.19046 0.07000 0.39168-0.99483-0.90016
  -1   8   269924.47 1432.26   1-0.07653-0.47701 0.03080-0.05570-0.99659-0.87712
  -1  -8   276315.46 1031.97   1-0.79527-0.53160 0.47743 0.79960-0.37362-0.27933
  -1  -8   273574.28 1072.25   1-0.41915-0.15635-0.20414 0.11790 0.88466 0.98063
  -1   8   267520.53 1750.19   1-0.02880-0.42970-0.16076-0.24731-0.98657-0.86844
   1  -8  -262424.42 1762.26   1 0.09828 0.49829-0.89736-0.80936 0.43021 0.31085
  -1  -8   274631.00 1171.22   1 0.06547 0.32838-0.57391-0.25143 0.81629 0.91046
  -1   8   1535237.6 4400.95   1 0.10348-0.26200 0.83221 0.68983 0.54470 0.67489
   1   8  -1541824.4 4431.50   1-0.01449-0.31307 0.63819 0.37200-0.76973-0.87384
  -1  -8   1526921.3 4125.13   1-0.06771 0.23070 0.14237 0.40874-0.98749-0.88301
  -1   8   1560169.6 4674.02   1-0.08459-0.45079-0.08432-0.22608-0.99284-0.86352
   1  -8  -1520918.0 3856.75   1-0.55681-0.19088 0.08319 0.22591-0.82645-0.95526
  -1  -8   1521522.9 3775.87   1-0.41893-0.12168-0.20396 0.06291 0.88480 0.99057
  -1   8   1504199.2 4808.96   1-0.04444-0.41104-0.17209-0.31390-0.98407-0.85586
   1  -8  -1511597.8 4039.07   1 0.10503 0.47063-0.98557-0.84256-0.13274-0.26189
  -1  -8   1511091.9 3968.49   1 0.07713 0.37466-0.68687-0.41965 0.72267 0.82674
  -1   8   018369.35  643.78   1 0.10640-0.22458 0.72726 0.52958 0.67806 0.81798
   1   8   016826.58  590.83   1 0.00239-0.33050 0.75130 0.54036-0.65994-0.77380
  -1  -8   017792.02  626.85   1-0.06062 0.27209 0.22392 0.43504-0.97272-0.85831
  -1   8   019638.98  646.30   1-0.08715-0.41905-0.12448-0.32147-0.98838-0.84914
  -1  -8   020260.80  554.30   1-0.73131-0.39898 0.66296 0.87501 0.16018 0.27415
   1  -8   018562.31  562.60   1-0.69160-0.36008 0.26011 0.45782-0.67381-0.81285
  -1  -8   017563.88  527.66   1-0.42612-0.09441-0.20991 0.00181 0.87997 0.99553
  -1   8   019502.82  795.47   1-0.05088-0.38317-0.17674-0.37381-0.98294-0.84465
  -1  -8   017501.26  585.25   1 0.09201 0.42405-0.83371-0.62166 0.54446 0.65856
  -1   8  -1  938.61  126.69   1 0.10670-0.18983 0.65977 0.40691 0.74384 0.89352
   1   8   1 1265.81  148.86   1 0.02587-0.34132 0.87755 0.72170-0.47878-0.60219
  -1  -8  -1 1247.56  145.84   1-0.05181 0.31528 0.31721 0.47300-0.94693-0.82271
  -1   8  -1  977.25  144.96   1-0.08777-0.38535-0.13439-0.38661-0.98703-0.83787
  -1  -8  -1 1057.78  128.76   1-0.64585-0.27896 0.67833 0.83506 0.35032 0.47418
  -1  -8  -1 1054.46  133.96   1-0.44078-0.07461-0.22208-0.06552 0.86970 0.99505
  -1   8  -1 1074.91  201.61   1-0.04858-0.34656-0.17507-0.42741-0.98335-0.83498
  -1  -8  -1 1061.49  161.88   1 0.10515 0.47147-0.97107-0.81411 0.21437 0.33900
  -1   8  -2172114.5 1918.53   1 0.10645-0.15563 0.61894 0.31089 0.77818 0.93761
   1   8   2180078.4 2093.95   1 0.05539-0.34612 0.97859 0.87775-0.19818-0.33128
  -1  -8  -2180709.7 2122.82   1-0.04047 0.36092 0.42625 0.52679-0.90369-0.76955
  -1   8  -2178299.7 1996.77   1-0.08741-0.35069-0.12865-0.43611-0.98782-0.82874
  -1  -8  -2174607.0 1807.11   1-0.46286-0.06223-0.24055-0.13916 0.85316 0.98831
  -1   8  -2182768.7 2537.43   1-0.03789-0.30157-0.16735-0.47495-0.98516-0.82672
  -1   8  -2174355.3 1858.00   1 0.07241-0.18886 0.64102 0.33287 0.76409 0.92386
   1   8   2164554.7 2378.42   1 0.05251-0.34858-0.44965-0.55156 0.89165 0.75779
   1   8   3 2372.75  270.35   1 0.08466-0.35116 0.98196 0.93594 0.16905 0.02629
  -1  -8  -3 2247.18  196.52   1-0.02585 0.40992 0.55150 0.59666-0.83377-0.68988
  -1   8  -3 2710.25  222.28   1-0.08647-0.31544-0.11361-0.47630-0.98975-0.82075
  -1  -8  -3 2298.90  190.01   1-0.49215-0.05707-0.26531-0.21909 0.82908 0.97403
  -1   8  -3 1829.51  267.48   1-0.01908-0.24845-0.15369-0.51656-0.98793-0.81941
   1   8   3 2042.56  242.68   1 0.07643-0.35921-0.68009-0.72686 0.72912 0.58534
   1   8   4 9303.98  474.24   1 0.10310-0.36706 0.83996 0.84908 0.53274 0.37988
  -1  -8  -4 9104.18  427.95   1-0.00771 0.46239 0.68585 0.67569-0.72770-0.57413
  -1   8  -4 9577.06  421.72   1-0.08512-0.27978-0.09249-0.51040-0.99206-0.81314
  -1  -8  -4 9261.73  363.75   1-0.52823-0.05869-0.29626-0.30521 0.79573 0.95047
  -1   8  -4 9199.05  524.25   1 0.00767-0.18739-0.13414-0.55226-0.99093-0.81233
   1   8   4 6407.70  647.26   1 0.09753-0.37256-0.88964-0.88096 0.44611 0.29172
   1   8   554754.02 1012.42   1 0.10633-0.39820 0.60786 0.67202 0.78688 0.62435
  -1  -8  -548409.85  977.83   1 0.01203 0.51652 0.80758 0.74231-0.58962-0.42681
  -1   8  -553681.62  953.44   1-0.08345-0.24381-0.06711-0.54026-0.99424-0.80540
  -1  -8  -552567.17  832.67   1-0.57058-0.06662-0.33333-0.39746 0.75054 0.91519
  -1   8  -556899.46 1408.53   1 0.04227-0.11848-0.10861-0.58200-0.99318-0.80450
  -1  -8  -547569.66 1344.45   1 0.02852 0.53223-0.11879-0.18381-0.99250-0.82640
  -1  -8  -552433.59  809.83   1-0.06520 0.43858-0.49656-0.56180-0.86554-0.70143
   1   8   551226.42  952.36   1 0.05183-0.45277 0.44320 0.50705 0.89491 0.73341
  -1  -8  -6 9735.46  484.25   1 0.03053 0.56942 0.89810 0.77772-0.43871-0.26626
  -1   8  -611184.78  468.30   1-0.08151-0.20756-0.03859-0.56696-0.99592-0.79715
  -1  -8  -610024.24  504.29   1-0.10056 0.43786-0.38746-0.50731-0.91638-0.74223
  -1   8  -6 7212.78  562.17   1-0.64370-0.76887 0.19151-0.33776-0.74092-0.54290
  -1  -8  -610249.81  434.80   1-0.08571 0.45273-0.34596-0.46604-0.93432-0.76015
  -1  -8  -610657.08  409.06   1-0.61834-0.08006-0.37631-0.49550 0.68994 0.86491
   1  -8   610102.43  564.11   1-0.06867 0.05603 0.07043 0.59981 0.99515 0.79817
  -1  -8  -6 8785.17  579.63   1-0.02294 0.51507-0.15650-0.27678-0.98741-0.81122
  -1  -8  -610437.28  393.03   1-0.10240 0.43568-0.39049-0.51099-0.91489-0.74099
   1   8   6 9010.46  481.85   1 0.10627-0.43278-0.99326-0.87413-0.04616-0.22043
  -1  -8  -714572.74  616.02   1 0.04516 0.61845 0.95188 0.77647-0.30311-0.12088
  -1   8  -716905.29  619.89   1-0.07934-0.17112-0.00769-0.59133-0.99681-0.78806
  -1  -8  -715610.38  665.94   1-0.09182 0.48095-0.20364-0.37871-0.97473-0.79072
  -1   8  -714511.90  636.08   1-0.61960-0.71035 0.15976-0.42489-0.76848-0.56112
  -1  -8  -717927.08  586.25   1-0.13508 0.43773-0.30914-0.48443-0.94137-0.75743
  -1  -8  -717397.08  589.54   1-0.66883-0.09612-0.42358-0.59793 0.61092 0.79576
   1  -8   717101.88  650.98   1-0.11791-0.02765 0.03342 0.61798 0.99246 0.78570
  -1  -8  -713784.10  739.64   1-0.08857 0.48374-0.20376-0.37931-0.97500-0.78874
  -1   8  -8 1731.18  172.89   1-0.07694-0.13442 0.02520-0.61366-0.99671-0.77803
  -1  -8  -8 1675.19  193.96   1-0.08292 0.52406-0.05924-0.28978-0.99479-0.80086
  -1   8  -8 1437.59  189.26   1-0.61151-0.66788 0.14944-0.49045-0.77698-0.55980
  -1  -8  -8 2063.98  203.02   1-0.18077 0.42643-0.27365-0.50416-0.94468-0.75098
  -1  -8  -8 1753.16  174.27   1-0.72022-0.11315-0.47469-0.70413 0.50590 0.70099
   1  -8   8 1692.35  188.29   1-0.17546-0.11964-0.01043 0.62931 0.98443 0.76788
  -1   8  -9 3220.93  249.29   1-0.07434-0.09751 0.05973-0.63438-0.99544-0.76684
  -1   8  -9 2223.01  213.07   1-0.61278-0.63475 0.15105-0.54408-0.77567-0.54868
  -1  -8  -9 3155.66  237.30   1-0.22351 0.41806-0.23915-0.52488-0.94490-0.74143
   1  -8   9 2976.24  259.16   1-0.24172-0.22044-0.06174 0.63316 0.96837 0.74196
  -1   8 -10 1477.49  185.36   1-0.07152-0.06039 0.09563-0.65371-0.99284-0.75432
  -1  -8 -10 1752.69  197.62   1-0.26394 0.41209-0.20534-0.54635-0.94242-0.72916
  -1   8 -1132677.16  924.29   1-0.06851-0.02306 0.13271-0.67196-0.98878-0.74022
  -1  -8 -1126798.61 1113.76   1-0.30235 0.40806-0.17208-0.56831-0.93753-0.71449
  -1   8 -12  160.86  105.77   1-0.06529 0.01446 0.17094-0.68897-0.98311-0.72463
  -1  -8 -12  156.71  145.98   1-0.33910 0.40579-0.13917-0.59064-0.93039-0.69747
   1   9 -12  536.67  124.93   1-0.03866-0.00130 0.44269-0.45698-0.89583-0.88947
   1  -9 -12  858.21  150.03   1-0.51820 0.26759 0.03955-0.39952-0.85434-0.87680
  -1  -9  12  588.00  151.02   1 0.05168 0.01054-0.44175 0.45780 0.89564 0.88898
   1   9 -11  103.77   93.76   1-0.04050-0.03754 0.42598-0.41836-0.90382-0.90750
   1  -9 -11   26.88   72.75   1-0.50095 0.25043 0.02076-0.36308-0.86522-0.89747
   1   9 -10 8621.42  382.84   1-0.04195-0.07329 0.41262-0.37646-0.90993-0.92352
   1   9 -10 8581.71  361.23   1-0.78168-0.81123 0.43299-0.35659-0.44887-0.46339
   1  -9 -10 9185.14  439.70   1-0.48474 0.23225 0.00344-0.32516-0.87465-0.91669
  -1  -9  10 8510.70  397.12   1-0.62842-0.59968-0.38558 0.40348 0.67557 0.69106
   1   9  -9  -16.07  105.49   1-0.04295-0.10859 0.40335-0.33048-0.91403-0.93754
   1   9  -9  106.82   70.63   1-0.78839-0.85236 0.45288-0.28145-0.41633-0.44074
  -1  -9   9  119.14   61.55   1-0.58442-0.52127-0.34565 0.38822 0.73414 0.75996
   1   9  -812986.04  482.49   1-0.04342-0.14336 0.39898-0.27960-0.91592-0.94935
   1   9  -8 9971.20  585.49   1-0.79609-0.89445 0.48085-0.19893-0.36743-0.40047
   1  -9  -812958.96  420.97   1-0.45687 0.19131-0.02555-0.24371-0.88916-0.95079
  -1  -9   812379.84  427.46   1-0.54405-0.44645-0.31001 0.36868 0.77968 0.81531
   1  -9  -813383.55  536.60   1-0.31442 0.33395-0.11915-0.33645 0.94177 0.88049
  -1   9   810499.98  785.56   1 0.09906-0.54975-0.90541-0.68785 0.41280 0.47394
   1   9  -764440.55 1527.85   1-0.04325-0.17749 0.40057-0.22276-0.91524-0.95858
   1   9  -758889.83 1493.17   1-0.80271-0.93553 0.51881-0.10563-0.29407-0.33706
   1  -9  -762395.85 1451.56   1-0.44634 0.16744-0.03628-0.19921-0.89412-0.96554
  -1  -9   768618.86 1591.18   1-0.50852-0.37655-0.27928 0.34423 0.81449 0.86006
   1  -9  -764745.59 1591.85   1-0.23512 0.37877-0.05659-0.21886 0.97031 0.89923
   1   9  -641551.40  915.24   1-0.04229-0.21083 0.40950-0.15857-0.91132-0.96457
   1   9  -639360.26  874.48   1-0.80282-0.96995 0.56499-0.00419-0.19040-0.24326
   1  -9  -640199.87  762.27   1-0.43924 0.14014-0.04344-0.15114-0.89731-0.97852
  -1  -9   634816.49  870.23   1-0.36708-0.19968-0.11336 0.45473-0.92325-0.86795
  -1  -9   638769.60  789.34   1-0.47791-0.31148-0.25323 0.31512 0.84111 0.89648
   1  -9  -639899.71  918.15   1-0.16852 0.41092-0.00510-0.11230 0.98568 0.90472
  -1   9   632547.30 1322.90   1 0.10516-0.47458-0.98644-0.87905-0.12600-0.04501
   1   9  -5 3389.99  241.43   1-0.04032-0.24316 0.42759-0.08522-0.90306-0.96623
   1   9  -5 2377.82  298.41   1-0.78718-0.98851 0.61467 0.10061-0.05014-0.11277
   1  -9  -5 3314.35  219.34   1-0.43701 0.10796-0.04567-0.09815-0.89829-0.98929
  -1  -9   5 3687.25  247.43   1-0.45279-0.25191-0.23211 0.28107 0.86087 0.92603
   1  -9  -5 3765.84  281.46   1-0.11374 0.43126 0.03657-0.01544 0.99283 0.90209
   1   9  -435162.91  781.57   1-0.03705-0.27416 0.45702-0.00054-0.88868-0.96168
   1   9  -433736.01  768.36   1-0.74301-0.97865 0.65728 0.19837 0.12610 0.05359
  -1  -9   433107.98  774.23   1-0.60796-0.37176 0.14496 0.60272-0.78061-0.70605
   1  -9  -431073.41  648.85   1-0.44193 0.06864-0.04073-0.03798-0.89612-0.99691
  -1  -9   433242.64  696.98   1-0.43352-0.19821-0.21605 0.24196 0.87485 0.94982
   1  -9  -436114.93  838.00   1-0.06968 0.44088 0.06967 0.07284 0.99513 0.89460
  -1  -9   435436.05  879.10   1 0.05394 0.28917-0.46331-0.00489 0.88454 0.95726
   1   9  -350979.33 1084.30   1-0.03198-0.30346 0.50093 0.09866-0.86489-0.94772
   1   9  -349236.30  938.35   1-0.66174-0.93184 0.67785 0.27421 0.32031 0.23762
  -1  -9   346543.85  893.41   1-0.72491-0.45414 0.31405 0.71662-0.61308-0.52934
   1  -9  -347583.57  870.99   1-0.45786 0.01831-0.02453 0.03344-0.88868-0.99927
  -1  -9   347759.79  889.87   1-0.42035-0.15058-0.20514 0.19770 0.88386 0.96862
   1  -9  -346003.99  969.86   1-0.03556 0.44055 0.09505 0.15340 0.99483 0.88451
  -1   9   350575.38 1475.24   1 0.03948-0.43724-0.11068-0.16749-0.99307-0.88360
  -1  -9   347628.30  959.29   1 0.05936 0.32914-0.51525-0.11196 0.85498 0.93761
  -1   9   273839.10 1374.27   1 0.09269-0.34867 0.94916 0.83636 0.30080 0.42298
   1   9  -276023.53 1177.60   1-0.02442-0.33020 0.56293 0.21592-0.82613-0.91887
  -1   9   271428.96 1310.14   1-0.06401-0.50599 0.18564 0.07363-0.98053-0.85938
  -1  -9   268737.98 1191.86   1-0.07768 0.22785 0.01518 0.36238-0.99686-0.90374
  -1  -9   274105.83 1158.95   1-0.79526-0.49009 0.47740 0.82514-0.37367-0.28097
   1  -9  -276749.74 1223.94   1-0.49184-0.05006 0.01099 0.12420-0.87061-0.99099
  -1  -9   273973.99 1172.69   1-0.41355-0.10932-0.19952 0.14815 0.88834 0.98290
  -1   9   284424.28 1946.52   1 0.01604-0.42638-0.12798-0.24006-0.99164-0.87210
   1  -9  -272526.57 1579.42   1 0.09797 0.53940-0.89416-0.78051 0.43688 0.31598
  -1  -9   280639.31 1290.53   1 0.06732 0.37165-0.59179-0.24365 0.80326 0.89582
  -1   9   1 1059.98  146.65   1 0.10406-0.30289 0.81922 0.65126 0.56394 0.69578
   1   9  -1 1273.63  147.69   1-0.01341-0.35353 0.64597 0.35429-0.76323-0.86573
  -1  -9   1 1422.64  187.37   1-0.07321 0.26662 0.07425 0.36621-0.99454-0.89151
  -1   9   1 1366.41  168.15   1-0.07605-0.48377 0.03717-0.13007-0.99641-0.86547
  -1  -9   1 1330.56  145.12   1-0.79526-0.45582 0.59726 0.89006-0.10404-0.00171
   1  -9  -1 1304.81  144.65   1-0.55820-0.15078 0.08479 0.25309-0.82536-0.95561
  -1  -9   1 1079.54  146.86   1-0.41332-0.07463-0.19933 0.09318 0.88849 0.99284
  -1   9   1 1378.43  250.67   1 0.00132-0.40679-0.13879-0.30612-0.99032-0.86070
   1  -9  -1 1253.97  166.58   1 0.10496 0.51199-0.98508-0.81643-0.13631-0.26700
  -1  -9   1 1340.34  188.64   1 0.07844 0.41740-0.69973-0.40687 0.71008 0.81254
  -1   9   030311.80  742.36   1 0.10645-0.26598 0.72261 0.49934 0.68300 0.82456
   1   9   030372.38  800.13   1 0.00234-0.37208 0.75103 0.51459-0.66025-0.77249
  -1  -9   028289.05  751.48   1-0.06809 0.30615 0.13774 0.37436-0.98812-0.87528
  -1   9   029060.40  740.20   1-0.08064-0.45405-0.02596-0.24848-0.99640-0.85562
  -1  -9   032622.33  785.41   1-0.73938-0.36551 0.65919 0.89683 0.13700 0.24916
   1  -9   029568.48  702.44   1-0.68842-0.31540 0.25528 0.47855-0.67889-0.81945
  -1  -9   031113.48  687.82   1-0.41980-0.04665-0.20468 0.03267 0.88423 0.99837
  -1   9   031496.76 1030.01   1-0.00509-0.37891-0.14349-0.36609-0.98963-0.84993
  -1  -9   029509.50  778.32   1 0.09248 0.46594-0.83838-0.60069 0.53716 0.64966
  -1   9  -1 5597.40  320.56   1 0.10670-0.23128 0.66002 0.38157 0.74362 0.89493
   1   9   1 5317.83  306.72   1 0.02409-0.38462 0.86929 0.68792-0.49371-0.61548
  -1  -9  -1 5358.22  318.99   1-0.06204 0.34650 0.20807 0.38945-0.97614-0.85338
  -1   9  -1 5169.34  380.94   1-0.08247-0.42158-0.05253-0.33027-0.99520-0.84450
  -1  -9  -1 5283.74  285.31   1-0.66176-0.25339 0.67785 0.86020 0.32028 0.44253
  -1  -9  -1 5837.40  289.15   1-0.43306-0.02545-0.21566-0.03347 0.87518 0.99911
  -1   9  -1 5301.18  434.43   1-0.00361-0.34312-0.14240-0.42026-0.98980-0.84002
  -1  -9  -1 6020.48  375.98   1 0.10507 0.51281-0.97010-0.78749 0.21876 0.34186
  -1   9  -2119448.7 1621.51   1 0.10647-0.19706 0.62155 0.28792 0.77609 0.93716
   1   9   2131314.2 1803.41   1 0.05189-0.39112 0.97059 0.84421-0.23506-0.36649
  -1  -9  -2127811.3 1656.29   1-0.05472 0.38819 0.28727 0.41333-0.95628-0.82368
  -1   9  -2134358.9 1750.94   1-0.08292-0.38773-0.05923-0.39220-0.99479-0.83416
  -1  -9  -2131022.7 1511.72   1-0.45310-0.01103-0.23237-0.10534 0.86064 0.99437
  -1   9  -2138426.6 2173.20   1 0.00550-0.29970-0.13573-0.46885-0.99073-0.83087
   1   9   346379.93 1024.21   1 0.08127-0.39607 0.98953 0.91796 0.11920-0.02183
  -1  -9  -339152.44  912.18   1-0.04549 0.43173 0.37932 0.45010-0.92414-0.78166
  -1   9  -342173.90  923.87   1-0.08256-0.35305-0.05385-0.44205-0.99513-0.82458
  -1  -9  -341695.15  797.79   1-0.47975-0.00323-0.25479-0.18294 0.83958 0.98311
  -1   9  -344236.56 1249.99   1 0.02202-0.24888-0.12358-0.51197-0.99208-0.82215
   1   9   427179.39  954.12   1 0.10208-0.40954 0.85810 0.84163 0.50322 0.35201
  -1  -9  -424615.28  719.85   1-0.03358 0.47800 0.48732 0.50280-0.87257-0.72020
  -1   9  -426099.63  662.04   1-0.08164-0.31783-0.04045-0.48388-0.99584-0.81537
  -1  -9  -427281.48  621.06   1-0.51275-0.00176-0.28291-0.26623 0.81058 0.96390
   1  -9   426448.54  752.95   1-0.03288 0.20214 0.09704 0.54167 0.99473 0.81592
  -1   9  -430312.99  979.09   1 0.04577-0.19081-0.10601-0.54966-0.99330-0.81329
   1   9   418505.79 1394.85   1 0.07195-0.43966-0.63655-0.65384 0.76786 0.61578
   1   9   5   83.96   65.94   1 0.10621-0.43978 0.59806 0.63662 0.79438 0.63348
  -1  -9  -5   53.05   48.22   1-0.01861 0.52733 0.60779 0.56785-0.79387-0.63202
  -1   9  -5  131.58   88.61   1-0.08032-0.28219-0.02141-0.52007-0.99653-0.80615
  -1  -9  -5  123.96   84.32   1-0.04853 0.49702-0.37265-0.41193-0.92669-0.76372
  -1  -9  -5   15.64   48.30   1-0.55175-0.00635-0.31675-0.35525 0.77151 0.93474
   1  -9   5  -47.40   87.13   1-0.06263 0.13795 0.07493 0.57474 0.99521 0.80661
  -1  -9  -5   55.34   45.24   1-0.07206 0.47324-0.47778-0.51752-0.87551-0.71289
   1   9   5   25.92   82.26   1 0.09614-0.44994-0.87542-0.83719 0.47369 0.31089
  -1  -9  -642585.90  957.09   1-0.00133 0.57895 0.72796 0.63280-0.68561-0.51416
  -1   9  -647360.35 1003.75   1-0.07866-0.24627 0.00172-0.55218-0.99689-0.79651
  -1  -9  -639886.69  984.31   1-0.09829 0.48165-0.33281-0.42711-0.93785-0.76523
  -1  -9  -646788.60  860.07   1-0.09917 0.48076-0.33607-0.43057-0.93659-0.76385
  -1  -9  -643553.64  804.25   1-0.59569-0.01585-0.35576-0.44943 0.72012 0.89317
   1  -9   648295.98 1165.43   1-0.09957 0.06657 0.04726 0.60225 0.99390 0.79552
  -1  -9  -646100.01  814.12   1-0.10932 0.47028-0.36962-0.46461-0.92273-0.75031
   1   9   632280.09 1511.66   1 0.10528-0.47522-0.97258-0.87918 0.20736 0.03452
  -1   9  -7135212.0 1678.86   1-0.07672-0.21003 0.02816-0.58098-0.99665-0.78634
  -1  -9  -7127778.3 1860.45   1-0.08657 0.52764-0.11511-0.26490-0.98957-0.80710
  -1  -9  -7136034.1 1555.13   1-0.14585 0.46846-0.30090-0.45062-0.94243-0.75992
  -1  -9  -7140457.7 1591.34   1-0.64410-0.02993-0.40015-0.54887 0.65192 0.83537
   1  -9   7142686.8 2018.11   1-0.14376-0.01205 0.01380 0.62398 0.98951 0.78134
  -1  -9  -8263188.1 2670.68   1-0.69427-0.04574-0.44839-0.65220 0.56296 0.75665
   1  -9   8263153.6 3038.13   1-0.19540-0.09813-0.02577 0.63958 0.98038 0.76242
  -1   9  -9   81.45  131.90   1-0.07211-0.13681 0.08827-0.63134-0.99348-0.76333
  -1  -9  -9  329.37   98.52   1-0.23050 0.45264-0.23340-0.49360-0.94466-0.74260
   1  -9   9  154.81   83.37   1-0.25472-0.19200-0.07192 0.64860 0.96433 0.73650
  -1   9 -1013040.97  548.95   1-0.06947-0.09985 0.12109-0.65384-0.99020-0.75000
  -1  -9 -1014282.52  504.84   1-0.26948 0.44803-0.20061-0.51604-0.94187-0.73004
  -1   9 -11  374.95  146.26   1-0.06660-0.06268 0.15552-0.67465-0.98558-0.73546
  -1  -9 -11  617.11  116.91   1-0.30677 0.44513-0.16818-0.53883-0.93680-0.71519
   1  10 -11   56.89  143.64   1-0.03900-0.07749 0.43957-0.43033-0.89735-0.89933
   1 -10 -11  -26.27  137.71   1-0.50394 0.28893 0.02398-0.33427-0.86340-0.89709
  -1 -10  11   45.24  113.83   1 0.05144 0.08627-0.43949 0.43058 0.89677 0.89841
   1  10 -10  524.81  129.39   1-0.04033-0.11320 0.42757-0.38701-0.90307-0.91509
   1 -10 -10  711.28  120.41   1-0.48820 0.27026 0.00712-0.29591-0.87269-0.91618
  -1 -10  10  555.01  100.93   1-0.61178-0.54164-0.37032 0.44433 0.69897 0.71357
   1  10  -961625.57 1414.16   1-0.04120-0.14838 0.41955-0.33978-0.90679-0.92872
   1  10  -957279.01 1449.18   1-0.80132-0.90671 0.50790-0.25278-0.31608-0.33759
   1 -10  -964950.28 1373.22   1-0.47390 0.25016-0.00793-0.25573-0.88053-0.93381
  -1 -10   962221.19 1321.69   1-0.57016-0.46557-0.33296 0.42653 0.75103 0.77544
   1  10  -817819.81  572.73   1-0.04154-0.18302 0.41640-0.28768-0.90822-0.94007
   1  10  -817155.52  611.17   1-0.80399-0.94385 0.53795-0.16739-0.25335-0.28480
   1 -10  -816571.99  566.36   1-0.46151 0.22815-0.02078-0.21336-0.88688-0.94995
  -1 -10   816882.34  529.65   1-0.53258-0.39355-0.30003 0.40428 0.79140 0.82563
   1 -10  -815708.43  569.13   1-0.32455 0.36525-0.12725-0.31891 0.93726 0.87457
   1  10  -740061.00  876.50   1-0.04125-0.21702 0.41912-0.22971-0.90699-0.94875
   1 -10  -737430.36  776.33   1-0.45169 0.20357-0.03084-0.16819-0.89164-0.96450
  -1 -10   740420.83  802.42   1-0.49965-0.32624-0.27171 0.37744 0.82250 0.86665
   1 -10  -740780.03  898.30   1-0.25413 0.40120-0.07146-0.20811 0.96452 0.89203
   1  10  -634969.71 1025.52   1-0.04017-0.25025 0.42899-0.16458-0.90241-0.95408
   1  10  -627703.00 1149.91   1-0.78665-0.99495 0.61558 0.02059-0.04716-0.09823
   1 -10  -634765.61  936.97   1-0.44538 0.17548-0.03724-0.11937-0.89456-0.97721
  -1 -10   629060.55  926.99   1-0.35084-0.14194-0.12843 0.46523-0.92758-0.87372
  -1 -10   632350.28  922.90   1-0.47138-0.26352-0.24773 0.34625 0.84641 0.90036
   1 -10  -635045.72 1037.91   1-0.19447 0.42642-0.02505-0.10664 0.98058 0.89821
   1  10  -5  576.62  122.47   1-0.03812-0.28246 0.44750-0.09083-0.89346-0.95496
   1  10  -5  327.75  127.98   1-0.75007-0.99263 0.65313 0.11329 0.10392 0.04296
  -1 -10   5  315.18   78.17   1-0.47073-0.22756-0.01124 0.52731-0.88220-0.81863
   1 -10  -5  525.50   95.02   1-0.44402 0.14244-0.03862-0.06552-0.89518-0.98763
  -1 -10   5  384.24  100.84   1-0.44826-0.20593-0.22832 0.31049 0.86425 0.92799
   1 -10  -5  583.64  118.24   1-0.14501 0.44144 0.01285-0.01354 0.98934 0.89718
  -1 -10   5  437.98  163.09   1 0.05277 0.29487-0.45214 0.08708 0.89038 0.95155
   1  10  -4 4909.26  310.79   1-0.03476-0.31341 0.47707-0.00600-0.87817-0.94959
   1  10  -4 4254.20  313.79   1-0.68242-0.95943 0.67590 0.19131 0.27829 0.20709
  -1 -10   4 3797.44  248.99   1-0.60245-0.32476 0.13805 0.62138-0.78611-0.71302
   1 -10  -4 3852.99  251.79   1-0.44983 0.10222-0.03273-0.00440-0.89251-0.99475
  -1 -10   4 4657.22  274.17   1-0.43055-0.15380-0.21358 0.27006 0.87692 0.95047
   1 -10  -4 4527.16  288.01   1-0.10494 0.44707 0.04321 0.07200 0.99353 0.89159
  -1 -10   4 4269.28  288.06   1 0.05637 0.33302-0.48657-0.00249 0.87181 0.94291
   1  10  -314981.49  514.51   1-0.02971-0.34273 0.51998 0.09220-0.85365-0.93489
  -1 -10   312498.62  527.43   1-0.72244-0.41017 0.30981 0.73794-0.61813-0.53590
   1 -10  -314584.83  450.03   1-0.46657 0.05108-0.01555 0.06800-0.88434-0.99637
  -1 -10   316276.95  487.34   1-0.41847-0.10726-0.20358 0.22489 0.88511 0.96846
   1 -10  -315722.27  582.53   1-0.07367 0.44390 0.06669 0.15066 0.99505 0.88331
  -1 -10   317048.57  620.81   1 0.06179 0.37299-0.53856-0.10962 0.84031 0.92133
  -1  10   241366.67  980.86   1 0.09458-0.38825 0.93725 0.79886 0.33558 0.45942
   1  10  -243461.96  864.07   1-0.02231-0.36963 0.57947 0.20696-0.81468-0.90583
  -1  10   239430.84 1165.01   1-0.05249-0.53597 0.31021 0.17272-0.94921-0.82637
  -1 -10   238520.86  818.05   1-0.79410-0.44765 0.47282 0.84592-0.38187-0.28983
   1 -10  -240298.99  765.72   1-0.50099-0.01773 0.02080 0.15959-0.86519-0.98702
  -1 -10   239805.13  765.08   1-0.41224-0.06657-0.19844 0.17487 0.88919 0.98233
   1 -10  -242045.24  897.44   1-0.05071 0.43241 0.08381 0.22296 0.99519 0.87367
  -1  10   246834.09 1453.69   1 0.05626-0.42769-0.09822-0.23582-0.99357-0.87261
   1 -10  -234480.30 1536.54   1 0.09597 0.57882-0.87369-0.73438 0.47691 0.35446
  -1 -10   244899.56  902.21   1 0.06958 0.41532-0.61357-0.23978 0.78656 0.87750
  -1  10   1 2170.93  215.38   1 0.10426-0.34417 0.81412 0.62056 0.57125 0.70458
   1  10  -1 2246.46  217.16   1-0.01174-0.39339 0.65789 0.34071-0.75301-0.85390
  -1  10   1 2636.72  218.21   1-0.06760-0.51681 0.14365-0.04909-0.98731-0.85468
  -1 -10   1 1922.30  193.89   1-0.07817 0.30320 0.00855 0.32602-0.99690-0.89541
   1 -10  -1 2076.74  200.87   1-0.56686-0.11796 0.09494 0.28878-0.81831-0.95010
  -1 -10   1 2014.62  184.65   1-0.41202-0.03189-0.19826 0.11988 0.88934 0.99227
   1 -10  -1 1960.75  190.08   1-0.03565 0.41303 0.09498 0.28931 0.99484 0.86353
  -1  10   1 2506.28  324.47   1 0.04240-0.40724-0.10852-0.30138-0.99318-0.86215
   1 -10  -1 2293.46  246.81   1 0.10520 0.55366-0.98672-0.79242-0.12376-0.25597
  -1 -10   1 2233.01  212.38   1 0.08024 0.46063-0.71732-0.39882 0.69210 0.79294
  -1  10   041532.55  909.36   1 0.10643-0.30746 0.72459 0.47573 0.68090 0.82410
   1  10   048782.83 1028.42   1 0.00316-0.41280 0.75600 0.49407-0.65455-0.76516
  -1 -10   044847.53 1033.81   1-0.07455 0.34112 0.05691 0.31914-0.99559-0.88418
  -1  10   048999.39 1039.13   1-0.07398-0.48892 0.06435-0.18364-0.99518-0.85277
  -1 -10   044876.19  933.42   1-0.74890-0.33356 0.65386 0.91712 0.10769 0.21821
   1 -10   045759.93  917.34   1-0.69438-0.27986 0.26437 0.51321-0.66927-0.81134
  -1 -10   046380.81  859.52   1-0.41793-0.00334-0.20313 0.05984 0.88547 0.99820
  -1  10   050416.94 1398.86   1 0.03606-0.37928-0.11322-0.36134-0.99291-0.85180
  -1 -10   047568.58 1147.45   1 0.09348 0.50837-0.84848-0.58514 0.52090 0.63179
  -1  10  -146790.60  963.52   1 0.10671-0.27273 0.66562 0.36158 0.73861 0.89155
   1  10   152067.56  986.28   1 0.02351-0.42671 0.86655 0.65967-0.49853-0.61865
  -1 -10  -147047.45  956.84   1-0.07067 0.37941 0.10626 0.31315-0.99182-0.87062
  -1  10  -155035.93  988.18   1-0.07698-0.45762 0.02472-0.27851-0.99672-0.84439
  -1 -10  -148817.19  842.96   1-0.67865-0.22881 0.67638 0.88435 0.28623 0.40688
  -1 -10  -153474.76  864.05   1-0.43003 0.01900-0.21315-0.00533 0.87728 0.99980
  -1  10  -152265.04 1316.59   1 0.03693-0.34410-0.11257-0.41595-0.99295-0.84176
  -1 -10  -155345.70 1078.21   1 0.10527 0.55444-0.97245-0.76418 0.20798 0.32956
   1  10   211627.11  519.59   1 0.04981-0.43473 0.96524 0.81344-0.25656-0.38641
  -1 -10  -210146.72  462.01   1-0.06640 0.41797 0.15787 0.30952-0.98522-0.85410
  -1  10  -210782.60  431.75   1-0.07823-0.42458 0.00764-0.35082-0.99690-0.83465
  -1 -10  -210884.25  418.49   1-0.44834 0.03516-0.22839-0.07574 0.86418 0.99650
   1 -10   210747.27  451.05   1-0.03459 0.31077 0.09577 0.45565 0.99480 0.83414
  -1  10  -213123.74  738.26   1 0.04479-0.30193-0.10674-0.46539-0.99327-0.83201
   1  10   3  440.94  106.49   1 0.07874-0.44007 0.99337 0.89623 0.08368-0.05567
  -1 -10  -3  342.46   86.96   1-0.06168 0.45699 0.21208 0.30848-0.97530-0.83425
  -1  10  -3  432.80  112.10   1-0.07845-0.39049 0.00466-0.40905-0.99690-0.82473
  -1 -10  -3  443.65  106.57   1-0.47274 0.04522-0.24887-0.15138 0.84532 0.98743
   1 -10   3  319.59  102.05   1-0.04813 0.26278 0.08572 0.50079 0.99515 0.82471
  -1  10  -3  251.97  165.79   1 0.05944-0.25298-0.09585-0.50976-0.99361-0.82227
   1  10   443046.23 1243.50   1 0.10137-0.45172 0.86906 0.82702 0.48418 0.33462
  -1 -10  -435206.73 1072.10   1-0.05641 0.49664 0.26950 0.31055-0.96134-0.81049
  -1  10  -445079.39 1107.96   1-0.07798-0.35572 0.01117-0.45778-0.99689-0.81480
  -1 -10  -443229.69  975.10   1-0.50303 0.04938-0.27459-0.23227 0.81948 0.97139
   1 -10   438943.19 1070.59   1-0.06836 0.20811 0.07066 0.54091 0.99515 0.81492
   1  10   5 4144.88  278.91   1 0.10566-0.48179 0.56297 0.57594 0.81968 0.66042
  -1  10  -5 4240.93  280.48   1-0.07700-0.32044 0.02444-0.49974-0.99673-0.80471
  -1 -10  -5 4839.15  279.50   1-0.06809 0.51895-0.35872-0.37242-0.93095-0.76940
  -1 -10  -5 4647.53  267.58   1-0.53901 0.04782-0.30562-0.31850 0.78489 0.94671
   1 -10   5 4472.85  308.59   1-0.09519 0.14684 0.05055 0.57598 0.99417 0.80416
  -1 -10  -5 4321.10  250.58   1-0.08229 0.50452-0.44912-0.46336-0.88967-0.72852
  -1  10  -647482.22 1250.82   1-0.07563-0.28477 0.04275-0.53667-0.99621-0.79428
  -1 -10  -642231.05 1272.08   1-0.09156 0.52992-0.19885-0.26763-0.97574-0.80470
  -1 -10  -649580.14 1281.07   1-0.11524 0.50618-0.32413-0.39305-0.93896-0.76764
  -1 -10  -648836.87 1207.58   1-0.57983 0.04145-0.34155-0.40959 0.73968 0.91132
   1 -10   651054.04 1389.39   1-0.12859 0.07899 0.02533 0.60594 0.99137 0.79157
  -1 -10  -642646.45 1060.25   1-0.11913 0.50198-0.33931-0.40881-0.93309-0.76215
  -1  10  -764970.95 1066.99   1-0.07393-0.24877 0.06495-0.56970-0.99514-0.78329
  -1 -10  -765725.79 1062.00   1-0.15914 0.49666-0.29063-0.41477-0.94350-0.76242
  -1 -10  -763748.00 1061.08   1-0.62532 0.03028-0.38272-0.50582 0.68006 0.86210
   1 -10   765874.50 1296.41   1-0.16862 0.00453-0.00518 0.63061 0.98566 0.77608
  -1  10  -8 4378.99  300.18   1-0.07195-0.21249 0.09025-0.59964-0.99331-0.77153
  -1 -10  -8 4094.18  259.02   1-0.20045 0.48972-0.25792-0.43728-0.94514-0.75428
  -1 -10  -8 3594.62  231.29   1-0.67304 0.01700-0.42763-0.60589 0.60343 0.79536
   1 -10   8 3375.93  250.11   1-0.21531-0.07670-0.04118 0.64979 0.97567 0.75623
  -1  10  -9 9688.98  450.45   1-0.06972-0.17593 0.11800-0.62720-0.99056-0.75872
  -1 -10  -911688.49  460.36   1-0.23973 0.48489-0.22573-0.46036-0.94423-0.74360
   1 -10   9 9241.78  416.90   1-0.26907-0.16491-0.08320 0.66294 0.95951 0.73027
  -1  10 -10 9982.74  450.56   1-0.06724-0.13915 0.14799-0.65245-0.98670-0.74493
  -1 -10 -1012296.10  491.19   1-0.27722 0.48178-0.19396-0.48381-0.94102-0.73062
  -1  10 -11 9316.43  458.56   1-0.06452-0.10214 0.17981-0.67588-0.98158-0.72989
  -1 -10 -11 8878.62  462.99   1-0.31327 0.48012-0.16242-0.50749-0.93567-0.71549
   1  11 -1136692.33 1222.09   1-0.03728-0.11730 0.45501-0.44040-0.88970-0.89010
   1 -11 -1142472.62 1259.56   1-0.50880 0.32555 0.02926-0.30341-0.86038-0.89551
  -1 -11  1137170.66 1220.27   1 0.05314 0.12938-0.45566 0.44006 0.88856 0.88859
   1  11 -10   65.35  112.00   1-0.03849-0.15283 0.44415-0.39600-0.89512-0.90544
   1 -11 -10  265.26  115.89   1-0.49369 0.30626 0.01296-0.26448-0.86953-0.91446
   1  11  -938688.08 1033.72   1-0.03925-0.18789 0.43738-0.34751-0.89841-0.91865
   1 -11  -940183.38  828.65   1-0.48010 0.28544-0.00144-0.22366-0.87720-0.93193
  -1 -11   937315.75  815.12   1-0.56060-0.41456-0.32451 0.46060 0.76184 0.78484
  -1 -11   938888.46  908.19   1 0.05135 0.19669-0.43862 0.34682 0.89719 0.91707
   1  11  -8    4.60  102.07   1-0.03946-0.22241 0.43544-0.29418-0.89934-0.92950
   1 -11  -8   55.14   73.11   1-0.46852 0.26262-0.01353-0.18053-0.88334-0.94785
  -1 -11   8  -16.04   70.50   1-0.52573-0.34534-0.29410 0.43584 0.79818 0.83113
   1 -11  -8   -9.16   80.26   1-0.33672 0.39452-0.13700-0.30304 0.93158 0.86747
  -1 -11   8   91.43   97.94   1 0.05120 0.23108-0.43716 0.29314 0.89792 0.92772
   1  11  -716867.50  596.88   1-0.03903-0.25629 0.43928-0.23507-0.89749-0.93757
   1  11  -712027.27  581.73   1-0.78158-0.99683 0.62346-0.05243-0.02019-0.05971
   1 -11  -715461.04  518.49   1-0.45963 0.23712-0.02272-0.13449-0.88781-0.96212
  -1 -11   715798.49  605.43   1-0.49496-0.28011-0.26771 0.40707 0.82664 0.86938
   1 -11  -714445.84  512.80   1-0.27333 0.42344-0.08656-0.19758 0.95801 0.88411
  -1 -11   716648.31  584.90   1 0.05169 0.26612-0.44190 0.23326 0.89557 0.93528
   1  11  -6 2570.02  249.60   1-0.03783-0.28940 0.45010-0.16899-0.89217-0.94217
   1  11  -6 1889.95  233.99   1-0.74810-0.99758 0.65435 0.03357 0.11024 0.06082
   1 -11  -6 2567.68  196.41   1-0.45437 0.20797-0.02810-0.08464-0.89036-0.97446
  -1 -11   6 2654.41  190.50   1-0.46876-0.21946-0.24552 0.37409 0.84851 0.90104
   1 -11  -6 2230.81  220.75   1-0.21938 0.44295-0.04434-0.10019 0.97463 0.89093
  -1 -11   6 2450.81  222.64   1 0.05301 0.30199-0.45446 0.16556 0.88918 0.93882
   1  11  -523180.01  768.73   1-0.03564-0.32152 0.46941-0.09443-0.88226-0.94218
   1  11  -519509.70  847.30   1-0.68869-0.97260 0.67497 0.10943 0.26478 0.20508
   1 -11  -520929.18  652.75   1-0.45419 0.17375-0.02829-0.02960-0.89045-0.98434
  -1 -11   522700.61  714.80   1-0.44738-0.16362-0.22759 0.33685 0.86489 0.92722
   1 -11  -522289.33  762.94   1-0.17419 0.45370-0.00945-0.01023 0.98466 0.89109
  -1 -11   522760.18  797.87   1 0.05537 0.33889-0.47701 0.08787 0.87715 0.93671
   1  11  -410249.27  496.73   1-0.03222-0.35246 0.49893-0.00960-0.86603-0.93577
  -1 -11   4 8528.25  408.25   1-0.59014-0.27095 0.12285 0.63176-0.79789-0.72626
   1 -11  -410025.35  415.83   1-0.46131 0.13223-0.02099 0.03292-0.88698-0.99067
  -1 -11   410316.46  390.96   1-0.43105-0.11285-0.21399 0.29528 0.87658 0.94872
   1 -11  -410486.23  468.65   1-0.13745 0.45601 0.01860 0.07300 0.99033 0.88697
  -1 -11   410556.46  440.11   1 0.05907 0.37714-0.51247-0.00273 0.85666 0.92614
   1  11  -3 5689.25  328.29   1-0.02713-0.38168 0.54120 0.08792-0.84045-0.92010
  -1 -11   3 4581.10  278.68   1-0.71570-0.36194 0.29845 0.75214-0.63142-0.55070
   1 -11  -3 5449.33  287.73   1-0.47942 0.07972-0.00216 0.10698-0.87758-0.99105
  -1 -11   3 6164.04  310.93   1-0.41992-0.06727-0.20478 0.24932 0.88415 0.96608
   1 -11  -3 5781.18  329.75   1-0.10859 0.45042 0.04046 0.15004 0.99326 0.88011
  -1 -11   3 5554.25  336.58   1 0.06451 0.41713-0.56473-0.11014 0.82274 0.90214
  -1  11   217168.49  657.57   1 0.09536-0.42896 0.93164 0.76775 0.35063 0.47596
   1  11  -218567.55  657.03   1-0.01982-0.40868 0.59860 0.20060-0.80079-0.89035
  -1  11   216523.05  724.95   1-0.04168-0.56670 0.41510 0.25212-0.90881-0.78439
  -1 -11   214722.48  506.22   1-0.79126-0.40332 0.46242 0.86110-0.40008-0.30956
   1 -11  -219737.48  654.08   1-0.51508 0.00965 0.03612 0.20049-0.85637-0.97964
  -1 -11   217818.73  622.76   1-0.41420-0.02709-0.20006 0.19888 0.88792 0.97964
   1 -11  -218916.07  671.11   1-0.08725 0.43732 0.05652 0.22128 0.99458 0.87165
   1 -11  -219417.16  881.07   1 0.08968 0.61387-0.81041-0.64562 0.57895 0.45423
  -1 -11   219784.37  729.90   1 0.07216 0.45932-0.63860-0.23914 0.76614 0.85546
  -1  11   1 1652.82  188.37   1 0.10419-0.38571 0.81599 0.59685 0.56859 0.70355
   1  11  -1 2209.84  197.95   1-0.00957-0.43275 0.67309 0.33042-0.73949-0.83877
  -1  11   1 2015.36  226.56   1-0.05925-0.54997 0.23894 0.02069-0.96922-0.83492
  -1 -11   1 1750.09  167.51   1-0.80008-0.37752 0.58095 0.92464-0.14949-0.05013
   1 -11  -1 1808.83  194.26   1-0.58162-0.09122 0.11251 0.33192-0.80563-0.93888
  -1 -11   1 2116.42  208.62   1-0.41401 0.00755-0.19990 0.14387 0.88805 0.98956
   1 -11  -1 2210.25  227.11   1-0.07307 0.41705 0.06713 0.28708 0.99506 0.86234
   1 -11  -1 1748.55  216.64   1 0.10566 0.59555-0.98978-0.76984-0.09572-0.22946
  -1 -11   1 2358.82  230.66   1 0.08243 0.50424-0.73877-0.39462 0.66889 0.76812
  -1  11   0 1444.61  182.20   1 0.10634-0.34900 0.73191 0.45746 0.67305 0.81787
   1  11   0 1621.53  185.34   1 0.00467-0.45282 0.76516 0.47774-0.64381-0.75280
  -1  11   0 1646.08  177.86   1-0.06724-0.52369 0.14791-0.12559-0.98671-0.84259
  -1 -11   0 1304.24  169.75   1-0.08022 0.37698-0.02012 0.26761-0.99657-0.88671
  -1 -11   0 1528.16  172.77   1-0.75915-0.30233 0.64679 0.93566 0.07310 0.18199
   1 -11   0 1460.86  157.73   1-0.70883-0.25281 0.28719 0.56158-0.64426-0.78784
  -1 -11   0 1595.12  151.51   1-0.41945 0.03656-0.20439 0.08422 0.88446 0.99577
   1 -11   0 1617.05  180.58   1-0.06579 0.38989 0.07257 0.34771 0.99519 0.85268
  -1 -11   0 1614.81  208.90   1 0.09496 0.55105-0.86341-0.57432 0.49547 0.60538
  -1  11  -135502.52  971.65   1 0.10671-0.31418 0.67560 0.34597 0.72950 0.88407
   1  11   143112.19 1074.12   1 0.02392-0.46782 0.86849 0.63610-0.49512-0.61360
  -1  11  -139478.65 1044.29   1-0.07133-0.49348 0.09801-0.23073-0.99262-0.83859
  -1 -11  -132613.14  887.04   1-0.07794 0.41356 0.01169 0.24420-0.99688-0.87711
  -1 -11  -137172.54  976.93   1-0.69607-0.20476 0.67364 0.90724 0.24836 0.36740
  -1 -11  -141773.12  966.57   1-0.43058 0.05989-0.21361 0.01983 0.87690 0.99800
   1 -11   143549.76 1122.86   1-0.06516 0.35608 0.07304 0.40336 0.99519 0.84291
  -1 -11  -140617.19 1051.91   1 0.10569 0.59628-0.97752-0.74360 0.18242 0.30247
  -1  11  -2  115.19   91.95   1-0.07334-0.46121 0.07261-0.31136-0.99465-0.83085
  -1 -11  -2   58.20   66.76   1-0.07596 0.44984 0.03839 0.21567-0.99637-0.86667
  -1 -11  -2   82.62   76.06   1-0.44742 0.07752-0.22762-0.04934 0.86486 0.99576
   1 -11   2  -96.46  126.26   1-0.07098 0.31582 0.06870 0.45420 0.99510 0.83303
   1  11   393554.78 1874.87   1 0.07720-0.48310 0.99504 0.87233 0.06259-0.07508
  -1 -11  -391207.21 1505.41   1-0.07466 0.48545 0.05552 0.17756-0.99566-0.85604
  -1  11  -3107934.1 1569.98   1-0.07414-0.42771 0.06230-0.37692-0.99529-0.82157
  -1 -11  -398706.79 1247.50   1-0.46988 0.08951-0.24646-0.12334 0.84762 0.98831
   1 -11   398261.35 1668.55   1-0.08308 0.26927 0.05964 0.50032 0.99475 0.82289
   1  11   4 4262.10  451.35   1 0.10117-0.49339 0.87193 0.80431 0.47905 0.33112
  -1  11  -4 5190.83  330.23   1-0.07411-0.39339 0.06262-0.43184-0.99528-0.81163
  -1 -11  -4 4451.09  329.56   1-0.07499 0.51942 0.05121 0.11801-0.99586-0.84632
  -1 -11  -4 5813.16  374.42   1-0.04320 0.55096-0.37641-0.30932-0.92544-0.77508
  -1 -11  -4 5367.85  282.81   1-0.49782 0.09603-0.27014-0.20219 0.82413 0.97462
   1 -11   4 5207.77  334.91   1-0.10136 0.21655 0.04591 0.54177 0.99378 0.81214
  -1 -11  -4 4708.81  315.45   1-0.04736 0.54667-0.54388-0.47736-0.83782-0.68794
  -1  11  -5  181.24  134.42   1-0.07350-0.35846 0.07060-0.47909-0.99479-0.80122
  -1 -11  -5  234.04   94.33   1-0.09008 0.53845-0.34276-0.33089-0.93509-0.77496
  -1 -11  -5  142.60   68.58   1-0.53111 0.09716-0.29876-0.28601 0.79287 0.95328
   1 -11   5  327.68  128.40   1-0.12574 0.15774 0.02749 0.57854 0.99168 0.80025
  -1 -11  -5  229.04   87.44   1-0.09653 0.53179-0.40793-0.39666-0.90789-0.74822
  -1  11  -6 7140.20  392.10   1-0.07242-0.32309 0.08434-0.52058-0.99380-0.79031
  -1 -11  -6 8395.13  373.76   1-0.13371 0.52920-0.31019-0.35353-0.94122-0.77133
  -1 -11  -6 6813.70  361.25   1-0.56906 0.09366-0.33199-0.37441 0.75229 0.92251
   1 -11   6 7736.28  420.56   1-0.15618 0.09285 0.00433 0.61056 0.98771 0.78650
  -1  11  -724656.91  753.77   1-0.07098-0.28733 0.10241-0.55781-0.99220-0.77864
  -1 -11  -730144.59  762.12   1-0.17477 0.52251-0.27839-0.37695-0.94443-0.76477
  -1 -11  -727887.28  680.93   1-0.61115 0.08602-0.36975-0.46733 0.69984 0.87988
   1 -11   723967.31  792.16   1-0.19272 0.02187-0.02370 0.63770 0.98096 0.76996
  -1  11  -844491.19  978.01   1-0.06921-0.25126 0.12422-0.59124-0.98983-0.76635
  -1 -11  -846948.28  953.49   1-0.21377 0.51789-0.24713-0.40091-0.94510-0.75568
  -1 -11  -841448.87  825.82   1-0.65692 0.07457-0.41222-0.56486 0.63128 0.82180
   1 -11   842011.73 1200.59   1-0.23536-0.05531-0.05678 0.65981 0.97024 0.74938
  -1  11  -936741.34  827.24   1-0.06715-0.21490 0.14896-0.62174-0.98655-0.75315
  -1 -11  -938978.89  878.88   1-0.25114 0.51496-0.21617-0.42522-0.94349-0.74430
   1 -11   929876.66  753.83   1-0.28443-0.13883-0.09533 0.67644 0.95394 0.72328
  -1  11 -10  931.13  188.30   1-0.06484-0.17829 0.17615-0.64980-0.98222-0.73889
  -1 -11 -10  813.37  155.92   1-0.28704 0.51344-0.18547-0.44974-0.93978-0.73081
  -1 -11 -11  318.99  121.10   1-0.32175 0.51312-0.15485-0.47434-0.93407-0.71533
   1  12 -10  154.17  120.63   1-0.03644-0.19231 0.46241-0.40324-0.88591-0.89465
   1 -12 -10   93.92   89.40   1-0.50110 0.34033 0.02092-0.23094-0.86513-0.91150
  -1 -12  10   -1.68  145.16   1 0.05406 0.20627-0.46454 0.40170 0.88389 0.89223
   1  12  -9 4327.18  302.55   1-0.03706-0.22724 0.45688-0.35350-0.88875-0.90741
   1 -12  -9 3861.75  248.44   1-0.48837 0.31865 0.00730-0.18933-0.87260-0.92876
  -1 -12   9 3526.79  235.85   1-0.55486-0.36738-0.31947 0.49126 0.76815 0.78973
  -1 -12   9 4494.53  302.41   1 0.05354 0.24030-0.45954 0.35156 0.88653 0.90479
   1  12  -8 1102.79  211.49   1-0.03715-0.26163 0.45616-0.29896-0.88911-0.91769
   1 -12  -8  997.58  130.31   1-0.47777 0.29485-0.00388-0.14529-0.87847-0.94442
  -1 -12   8 1046.36  132.39   1-0.52227-0.30044-0.29112 0.46446 0.80154 0.83307
   1 -12  -8  621.08  163.60   1-0.35033 0.42234-0.14797-0.28837 0.92486 0.85933
  -1 -12   8 1011.18  177.69   1 0.05355 0.27485-0.45962 0.29634 0.88649 0.91467
   1  12  -731325.77  916.18   1-0.03658-0.29538 0.46114-0.23872-0.88657-0.92507
   1 -12  -729381.24  829.40   1-0.46999 0.26823-0.01200-0.09819-0.88258-0.95833
  -1 -12   727454.20  770.11   1-0.49359-0.23731-0.26654 0.43386 0.82783 0.86916
   1 -12  -727941.58  815.10   1-0.29267 0.44554-0.10185-0.18725 0.95077 0.87545
  -1 -12   729580.16  926.26   1 0.05421 0.31006-0.46595 0.23487 0.88314 0.92124
   1  12  -618497.61  654.21   1-0.03524-0.32834 0.47291-0.17169-0.88040-0.92882
   1 -12  -617487.95  557.03   1-0.46602 0.23781-0.01613-0.04708-0.88462-0.97017
  -1 -12   615523.14  506.27   1-0.46923-0.17848-0.24591 0.39933 0.84814 0.89926
   1 -12  -617921.00  593.71   1-0.24333 0.46044-0.06300-0.09323 0.96789 0.88278
  -1 -12   616674.35  704.33   1 0.05569 0.34608-0.48008 0.16559 0.87545 0.92347
   1  12  -530826.00  809.70   1-0.03293-0.36034 0.49287-0.09647-0.86947-0.92781
   1 -12  -529879.34  698.22   1-0.46729 0.20213-0.01481 0.00945-0.88397-0.97931
  -1 -12   529943.49  748.90   1-0.44938-0.12418-0.22926 0.36081 0.86341 0.92433
   1 -12  -531395.51  784.66   1-0.20189 0.46742-0.03079-0.00584 0.97892 0.88401
  -1 -12   530803.88  768.66   1 0.05820 0.38314-0.50408 0.08645 0.86169 0.91963
   1  12  -4  613.91  115.75   1-0.02940-0.39118 0.52256-0.01147-0.85209-0.92023
   1 -12  -4  949.44  130.69   1-0.47606 0.15896-0.00568 0.07381-0.87939-0.98452
  -1 -12   4  866.95  131.15   1-0.43425-0.07462-0.21665 0.31825 0.87434 0.94506
   1 -12  -4 1204.86  192.22   1-0.16788 0.46702-0.00461 0.07540 0.98579 0.88102
  -1 -12   4 1096.83  180.71   1 0.06201 0.42150-0.54066-0.00526 0.83894 0.90681
   1  12  -3   48.96   66.91   1-0.02425-0.42035 0.56420 0.08543-0.82527-0.90333
  -1 -12   3   -2.51   45.82   1-0.70393-0.30867 0.27932 0.75857-0.65303-0.57382
   1 -12  -3  -17.85   73.00   1-0.49599 0.10463 0.01542 0.15015-0.86818-0.98311
  -1 -12   3  -13.28   75.81   1-0.42398-0.02989-0.20813 0.27160 0.88142 0.96194
   1 -12  -3   29.24  136.81   1-0.14109 0.45936 0.01583 0.15103 0.98986 0.87531
  -1 -12   3  -34.98   78.48   1 0.06748 0.46152-0.59335-0.11310 0.80210 0.87988
  -1  12   2 6851.90  417.34   1 0.09532-0.47047 0.93191 0.74244 0.34991 0.47689
   1  12  -2 8464.88  400.24   1-0.01703-0.44744 0.61956 0.19613-0.78476-0.87253
  -1  12   2 7905.27  438.69   1-0.03148-0.59797 0.50519 0.31675-0.86243-0.73626
  -1 -12   2 6825.86  350.91   1-0.78641-0.35698 0.44670 0.87096-0.42662-0.33760
   1 -12  -2 8411.21  358.13   1-0.53370 0.03257 0.05679 0.24656-0.84376-0.96857
  -1 -12   210238.57  400.94   1-0.41870 0.00983-0.20377 0.22080 0.88496 0.97526
   1 -12  -2 8570.61  402.21   1-0.12115 0.44487 0.03097 0.22135 0.99215 0.86780
  -1 -12   2 8657.32  429.82   1 0.07502 0.50360-0.66633-0.24122 0.74186 0.82957
  -1  12   116971.74  614.24   1 0.10387-0.42747 0.82356 0.57886 0.55762 0.69439
   1  12  -120090.51  638.01   1-0.00696-0.47168 0.69090 0.32275-0.72290-0.82057
  -1  12   118266.54  781.05   1-0.05096-0.58321 0.32577 0.08203-0.94407-0.80816
  -1 -12   116839.84  492.77   1-0.80246-0.33840 0.56784 0.93710-0.18333-0.08556
   1 -12  -117690.16  531.06   1-0.60192-0.07004 0.13739 0.38237-0.78664-0.92134
  -1 -12   116101.60  476.96   1-0.41855 0.04444-0.20365 0.16576 0.88506 0.98516
   1 -12  -122551.64  661.46   1-0.10777 0.42380 0.04108 0.28664 0.99332 0.85919
   1 -12  -118889.63  682.34   1 0.10622 0.63754-0.99300-0.74741-0.05154-0.18681
  -1 -12   121815.16  688.00   1 0.08493 0.54816-0.76334-0.39355 0.64038 0.73798
  -1  12   0 2574.48  269.40   1 0.10617-0.39075 0.74362 0.44370 0.66011 0.80649
   1  12   0 3381.07  265.42   1 0.00678-0.49224 0.77767 0.46475-0.62863-0.73600
  -1  12   0 3272.72  262.95   1-0.06037-0.55835 0.22662-0.07239-0.97210-0.82643
  -1 -12   0 2609.09  227.90   1-0.08519 0.41344-0.09347 0.21990-0.99197-0.88357
   1 -12   0 3093.43  262.24   1-0.69352-0.19642 0.67413 0.97456 0.25410 0.10793
  -1 -12   0 2587.91  213.54   1-0.76959-0.27130 0.63764 0.95213 0.03353 0.14079
   1 -12   0 2517.55  247.67   1-0.73128-0.23376 0.32523 0.62519-0.59953-0.74463
  -1 -12   0 3194.95  232.43   1-0.42361 0.07385-0.20783 0.10641 0.88168 0.99157
   1 -12   0 4235.19  303.81   1-0.10073 0.39640 0.04638 0.34713 0.99383 0.84991
  -1 -12   0 4163.01  334.27   1 0.09672 0.59423-0.88134-0.56659 0.46247 0.57083
   1  12   1 2217.64  235.64   1 0.02517-0.50810 0.87429 0.61640-0.48474-0.60156
  -1  12  -1 1868.58  202.81   1-0.06550-0.52917 0.16850-0.18575-0.98352-0.82792
  -1 -12  -1 1830.58  188.68   1-0.08413 0.44880-0.07729 0.18084-0.99345-0.87513
  -1 -12  -1 1765.72  171.23   1-0.71361-0.18083 0.66933 0.92855 0.20673 0.32416
  -1 -12  -1 1891.22  168.71   1-0.43391 0.09799-0.21637 0.04270 0.87458 0.99427
   1 -12   1 2045.09  208.75   1-0.09983 0.36286 0.04706 0.40299 0.99389 0.84019
  -1 -12  -1 2173.42  224.73   1 0.10622 0.63830-0.98434-0.72486 0.14064 0.25911
   1  12   219806.32  713.15   1 0.04899-0.51856 0.96304 0.76019-0.26486-0.39139
  -1  12  -219564.12  757.15   1-0.06829-0.49767 0.13540-0.27410-0.98843-0.82291
  -1 -12  -217361.16  597.54   1-0.08381 0.48343-0.07247 0.13043-0.99384-0.86560
  -1 -12  -222089.14  705.49   1-0.44949 0.11688-0.22935-0.02544 0.86333 0.99281
   1 -12   221746.43  736.59   1-0.10490 0.32335 0.04324 0.45436 0.99354 0.83005
   1  12   3 1839.64  236.46   1 0.07667-0.52510 0.99550 0.84722 0.05556-0.08042
  -1  12  -3 1716.99  206.83   1-0.06966-0.46474 0.11874-0.34601-0.99047-0.81503
  -1 -12  -3 1882.63  181.65   1-0.47029 0.13055-0.24680-0.09805 0.84729 0.98658
   1 -12   3 1937.26  197.84   1-0.11580 0.27801 0.03501 0.50131 0.99265 0.81938
   1  12   418484.70  936.93   1 0.10170-0.53433 0.86418 0.77098 0.49278 0.34650
  -1  12  -421250.15  631.57   1-0.07008-0.43086 0.11354-0.40645-0.99105-0.80569
  -1 -12  -421230.84  594.59   1-0.07182 0.56382-0.35603-0.26337-0.93170-0.78277
  -1 -12  -420886.33  609.56   1-0.49617 0.13912-0.26874-0.17516 0.82558 0.97466
   1 -12   421471.32  651.72   1-0.13243 0.22693 0.02241 0.54390 0.99093 0.80788
  -1 -12  -417052.79  538.75   1-0.06790 0.56764-0.48921-0.39718-0.86951-0.72112
  -1  12  -5 1003.30  145.04   1-0.06982-0.39631 0.11672-0.45851-0.99070-0.79542
  -1 -12  -5 1063.24  146.86   1-0.11433 0.55569-0.32481-0.28736-0.93884-0.78014
  -1 -12  -5 1112.24  136.88   1-0.52695 0.14280-0.29515-0.25674 0.79699 0.95587
   1 -12   5 1255.53  189.69   1-0.15473 0.17019 0.00544 0.58210 0.98794 0.79509
  -1 -12  -5 1066.19  135.78   1-0.11586 0.55397-0.34949-0.31272-0.92974-0.77156
  -1  12  -638690.13  954.20   1-0.06904-0.36122 0.12625-0.50422-0.98959-0.78438
  -1 -12  -637641.25  992.52   1-0.15443 0.54997-0.29428-0.31205-0.94315-0.77469
  -1 -12  -637815.08  841.45   1-0.56244 0.14173-0.32614-0.34294 0.75979 0.92860
   1 -12   638308.16  960.64   1-0.18266 0.10782-0.01595 0.61588 0.98304 0.78041
  -1  12  -7 1354.20  186.47   1-0.06784-0.32573 0.14075-0.54497-0.98771-0.77259
  -1 -12  -7 1337.79  164.48   1-0.19260 0.54617-0.26422-0.33721-0.94503-0.76680
  -1 -12  -7 1183.91  133.36   1-0.60185 0.13676-0.36131-0.43328 0.71219 0.89082
   1 -12   7 1261.96  174.09   1-0.21617 0.03976-0.04185 0.64519 0.97545 0.76298
  -1  12  -811070.38  478.39   1-0.06629-0.28987 0.15923-0.58174-0.98501-0.75996
  -1 -12  -812147.59  465.11   1-0.22929 0.54392-0.23439-0.36265-0.94471-0.75672
  -1 -12  -810468.89  393.97   1-0.64509 0.12785-0.40107-0.52808 0.65038 0.83950
   1 -12   811566.84  485.67   1-0.25545-0.03395-0.07249 0.66972 0.96410 0.74182
  -1  12  -9  570.09  125.77   1-0.06442-0.25370 0.18098-0.61523-0.98137-0.74640
  -1 -12  -9  806.82  167.28   1-0.26461 0.54298-0.20477-0.38824-0.94236-0.74459
   1 -12   9  547.69  134.51   1-0.30056-0.11352-0.10811 0.68928 0.94761 0.71554
  -1  12 -1011761.15  629.64   1-0.06227-0.21725 0.20548-0.64597-0.97667-0.73178
  -1 -12 -1015680.40  660.25   1-0.29883 0.54314-0.17517-0.41387-0.93808-0.73054
   1  13 -1011169.77  526.18   1-0.03419-0.23159 0.48207-0.40908-0.87546-0.88261
   1 -13 -1012777.36  506.61   1-0.51036 0.37255 0.03095-0.19532-0.85940-0.90722
  -1 -13  1012086.08  522.67   1 0.05629 0.24991-0.48578 0.40611 0.87226 0.87898
   1  13  -9  146.50  126.36   1-0.03468-0.26639 0.47779-0.35810-0.87778-0.89486
   1 -13  -9  125.98  106.12   1-0.49861 0.34990 0.01824-0.15281-0.86663-0.92423
  -1 -13   9  177.83   88.69   1-0.55226-0.32333-0.31719 0.51918 0.77097 0.79114
  -1 -13   9  173.99  156.35   1 0.05592 0.28409-0.48229 0.35447 0.87422 0.89086
   1  13  -822382.31  666.38   1-0.03463-0.30065 0.47826-0.30237-0.87753-0.90453
   1 -13  -821793.16  595.56   1-0.48914 0.32497 0.00811-0.10771-0.87216-0.93956
  -1 -13   821408.49  579.98   1-0.52172-0.25845-0.29064 0.49057 0.80208 0.83219
   1 -13  -818657.50  641.22   1-0.36502 0.44909-0.15985-0.27462 0.91717 0.85023
  -1 -13   820940.91  645.30   1 0.05609 0.31881-0.48394 0.29767 0.87329 0.89985
   1  13  -722018.88  882.06   1-0.03392-0.33425 0.48434-0.24102-0.87421-0.91114
   1 -13  -725063.78  674.26   1-0.48264 0.29706 0.00123-0.05936-0.87581-0.95300
  -1 -13   726398.97  762.88   1-0.49490-0.19717-0.26765 0.45838 0.82669 0.86660
   1 -13  -727619.76  722.57   1-0.31211 0.46755-0.11730-0.17708 0.94277 0.86604
  -1 -13   724458.24  795.00   1 0.05692 0.35419-0.49190 0.23458 0.86878 0.90527
   1  13  -6 3614.01  298.44   1-0.03244-0.36708 0.49706-0.17305-0.86710-0.91395
   1 -13  -6 3570.79  235.64   1-0.48014 0.26517-0.00140-0.00677-0.87718-0.96417
  -1 -13   6 4037.47  256.72   1-0.47216-0.13998-0.24838 0.42249 0.84578 0.89549
   1 -13  -6 3501.27  251.92   1-0.26663 0.47857-0.08128-0.08589 0.96036 0.87383
  -1 -13   6 3289.40  282.92   1 0.05857 0.39038-0.50764 0.16370 0.85957 0.90598
   1  13  -526478.83  765.23   1-0.03000-0.39902 0.51754-0.09725-0.85512-0.91176
   1 -13  -525348.95  751.11   1-0.48310 0.22780 0.00172 0.05157-0.87555-0.97233
  -1 -13   528568.28  720.01   1-0.45368-0.08704-0.23285 0.38285 0.86020 0.91970
   1 -13  -528061.08  757.70   1-0.22830 0.48246-0.05127-0.00070 0.97223 0.87591
  -1 -13   525421.30  751.21   1 0.06122 0.42758-0.53311 0.08307 0.84382 0.90014
   1  13  -454680.45 1032.27   1-0.02634-0.42966 0.54755-0.01198-0.83635-0.90290
   1 -13  -453064.12 1004.36   1-0.49381 0.18269 0.01309 0.11817-0.86946-0.97604
  -1 -13   459025.07 1003.06   1-0.43961-0.03851-0.22111 0.33943 0.87054 0.93984
   1 -13  -461098.21 1101.30   1-0.19670 0.47964-0.02678 0.07885 0.98009 0.87391
  -1 -13   455364.25 1087.34   1 0.06515 0.46606-0.57086-0.00981 0.81845 0.88469
   1  13  -3 8042.75  420.93   1-0.02112-0.45875 0.58869 0.08442-0.80808-0.88454
   1 -13  -3 8207.15  389.34   1-0.51596 0.12614 0.03708 0.19739-0.85580-0.97217
  -1 -13   3 8410.17  359.56   1-0.43009 0.00543-0.21319 0.29217 0.87725 0.95634
   1 -13  -3 8481.03  403.86   1-0.17170 0.47020-0.00754 0.15327 0.98511 0.86914
  -1 -13   3 7728.31  438.56   1 0.07066 0.50611-0.62407-0.11816 0.77816 0.85433
   1  13  -218781.50  610.55   1-0.01390-0.48584 0.64248 0.19356-0.76617-0.85234
  -1  13   213834.71  743.43   1-0.02140-0.62943 0.58649 0.37257-0.80966-0.68190
   1 -13  -216641.11  540.16   1-0.55617 0.05159 0.08244 0.29779-0.82696-0.95323
  -1 -13   217315.32  530.90   1-0.42522 0.04476-0.20916 0.24104 0.88058 0.96948
   1 -13  -218169.19  666.77   1-0.15298 0.45448 0.00677 0.22277 0.98820 0.86244
  -1 -13   216529.07  604.87   1 0.07811 0.54823-0.69652-0.24591 0.71327 0.79935
   1  13  -1 3882.43  269.81   1-0.00401-0.51026 0.71055 0.31687-0.70363-0.79950
  -1  13   1 3212.37  356.78   1-0.04267-0.61647 0.40592 0.13668-0.91290-0.77542
   1 -13  -1 3088.95  244.49   1-0.62727-0.05390 0.16971 0.44026-0.76007-0.89624
  -1 -13   1 3495.99  271.81   1-0.42511 0.07932-0.20907 0.18597 0.88066 0.97934
   1 -13  -1 3571.30  298.32   1-0.14032 0.43270 0.01642 0.28760 0.98997 0.85442
  -1 -13   1 3548.48  344.23   1 0.08769 0.59230-0.79062-0.39515 0.60598 0.70216
   1  13   0 4365.29  283.66   1 0.00940-0.53114 0.79283 0.45443-0.60935-0.71510
  -1  13   0 4785.83  316.74   1-0.05343-0.59293 0.30059-0.02391-0.95225-0.80489
   1 -13   0 4241.96  286.25   1-0.76199-0.22297 0.38519 0.71082-0.52055-0.66709
  -1 -13   0 4756.29  264.71   1-0.42983 0.10906-0.21299 0.12689 0.87742 0.98590
   1 -13   0 5231.39  320.63   1-0.13351 0.40506 0.02159 0.34796 0.99081 0.84548
  -1 -13   0 5056.06  379.83   1 0.09872 0.63765-0.90186-0.56145 0.42059 0.52741
   1  13   111450.00  504.37   1 0.02713-0.54766 0.88322 0.59982-0.46815-0.58333
  -1  13  -111317.57  531.23   1-0.05952-0.56472 0.23598-0.14377-0.96993-0.81265
  -1 -13  -111652.07  414.38   1-0.43944 0.13392-0.22097 0.06373 0.87066 0.98894
   1 -13   111986.36  506.60   1-0.13241 0.37173 0.02243 0.40398 0.99094 0.83582
  -1 -13  -111437.95  546.08   1 0.10664 0.68016-0.99100-0.70587 0.08083 0.19776
   1  13   2 3690.52  288.02   1 0.05000-0.55904 0.96574 0.73724-0.25462-0.37939
  -1  13  -2 3590.09  261.21   1-0.06303-0.53394 0.19693-0.23807-0.97838-0.81130
  -1 -13  -2 3824.93  229.46   1-0.45393 0.15389-0.23306-0.00352 0.86001 0.98808
   1 -13   2 3411.47  266.01   1-0.13685 0.33284 0.01906 0.45579 0.99040 0.82550
   1  13   327865.46 1017.18   1 0.07718-0.56607 0.99505 0.82121 0.06244-0.07187
  -1  13  -330827.06  840.89   1-0.06497-0.50158 0.17464-0.31560-0.98248-0.80548
  -1 -13  -331680.98  754.60   1-0.06239 0.58036-0.36280-0.18934-0.92977-0.79203
  -1 -13  -329327.94  718.26   1-0.47327 0.16900-0.24932-0.07494 0.84489 0.98276
   1 -13   333017.51  807.89   1-0.14673 0.28852 0.01154 0.50345 0.98910 0.81442
  -1  13  -4 1471.16  195.21   1-0.06584-0.46816 0.16445-0.38104-0.98418-0.79726
  -1 -13  -4 1766.94  193.46   1-0.10257 0.57456-0.33356-0.21532-0.93712-0.78962
  -1 -13  -4 1444.00  150.15   1-0.49737 0.17936-0.26975-0.15054 0.82453 0.97219
   1 -13   4 1413.52  169.78   1-0.16196 0.23885-0.00008 0.54701 0.98679 0.80232
  -1  13  -5 4231.58  289.07   1-0.06595-0.43397 0.16319-0.43754-0.98438-0.78754
  -1 -13  -5 3264.36  312.34   1-0.14072 0.57079-0.30483-0.24181-0.94195-0.78468
  -1 -13  -5 3328.79  227.04   1-0.52605 0.18514-0.29438-0.23033 0.79787 0.95533
   1 -13   5 4266.23  320.32   1-0.18248 0.18389-0.01582 0.58646 0.98308 0.78882
  -1  13  -6 5038.10  315.15   1-0.06547-0.39919 0.16878-0.48720-0.98347-0.77670
  -1 -13  -6 4940.24  308.07   1-0.17727 0.56861-0.27641-0.26861-0.94454-0.77750
  -1 -13  -6 4491.74  292.11   1-0.55921 0.18640-0.32329-0.31446 0.76338 0.93078
   1 -13   6 4552.60  428.51   1-0.20821 0.12361-0.03567 0.62181 0.97743 0.77334
  -1  13  -7 5231.75  291.12   1-0.06453-0.36394 0.17976-0.53147-0.98159-0.76490
  -1 -13  -7 5047.25  316.92   1-0.21252 0.56774-0.24814-0.29556-0.94512-0.76831
  -1 -13  -7 4942.29  270.84   1-0.59616 0.18390-0.35617-0.40251 0.71953 0.89674
   1 -13   7 5299.15  318.08   1-0.23923 0.05815-0.05980 0.65287 0.96912 0.75523
  -1  13  -844085.84 1198.04   1-0.06319-0.32831 0.19508-0.57139-0.97874-0.75213
  -1 -13  -841354.61 1158.85   1-0.24677 0.56793-0.21985-0.32253-0.94380-0.75724
  -1 -13  -844241.11 1085.62   1-0.63694 0.17745-0.39347-0.49486 0.66292 0.85065
   1 -13   839204.11 1191.61   1-0.27555-0.01262-0.08831 0.67953 0.95722 0.73353
  -1  13  -930720.82  762.05   1-0.06151-0.29233 0.21398-0.60774-0.97489-0.73836
  -1 -13  -933738.69  827.39   1-0.28003 0.56905-0.19155-0.34944-0.94068-0.74435
   1 -13   931764.69  908.96   1-0.31735-0.08900-0.12149 0.70153 0.94049 0.70705
   1  14  -916676.10  895.19   1-0.03211-0.30543 0.49986-0.36151-0.86550-0.88091
   1 -14  -924171.70  859.50   1-0.51073 0.37926 0.03135-0.11411-0.85916-0.91822
  -1 -14   920003.46  701.73   1-0.55223-0.28187-0.31716 0.54482 0.77099 0.78975
  -1 -14   920133.26  852.30   1 0.05847 0.32807-0.50674 0.35567 0.86011 0.87513
  -1 -14   8   20.69  101.27   1-0.52354-0.21883-0.29221 0.51463 0.80032 0.82901
   1 -14  -8    9.35   89.54   1-0.38053 0.47502-0.17246-0.26159 0.90854 0.84018
   1  14  -720276.59  646.10   1-0.03107-0.37301 0.50862-0.24221-0.86042-0.89565
   1 -14  -718668.36  581.04   1-0.49744 0.32375 0.01697-0.01803-0.86733-0.94596
  -1 -14   721014.23  571.44   1-0.49839-0.15922-0.27063 0.48104 0.82362 0.86211
   1 -14  -720756.33  634.76   1-0.33157 0.48952-0.13287-0.16685 0.93402 0.85587
  -1 -14   719575.59  668.59   1 0.05981 0.39850-0.51957 0.23256 0.85232 0.88719
   1  14  -6  394.00  111.06   1-0.02944-0.40568 0.52224-0.17332-0.85228-0.89742
   1 -14  -6  504.60  121.27   1-0.49657 0.29021 0.01605 0.03626-0.86784-0.95627
  -1 -14   6  552.58  119.44   1-0.47711-0.10349-0.25256 0.44394 0.84176 0.89005
   1 -14  -6  378.60  121.74   1-0.28944 0.49721-0.09929-0.07827 0.95203 0.86409
  -1 -14   6  302.74  140.35   1 0.06162 0.43485-0.53693 0.16006 0.84137 0.88615
   1  14  -5  517.04  169.17   1-0.02684-0.43740 0.54348-0.09681-0.83898-0.89403
   1 -14  -5  712.55  118.57   1-0.50143 0.25095 0.02127 0.09671-0.86493-0.96315
  -1 -14   5  623.08  120.26   1-0.45984-0.05176-0.23801 0.40332 0.85550 0.91359
   1 -14  -5  552.60  128.95   1-0.25376 0.49844-0.07117 0.00502 0.96464 0.86690
  -1 -14   5  482.57  125.43   1 0.06443 0.47220-0.56390 0.07795 0.82332 0.87803
   1 -14  -4  -44.16   78.02   1-0.51434 0.20364 0.03531 0.16598-0.85685-0.96487
  -1 -14   4   -4.15   83.01   1-0.44671-0.00417-0.22702 0.35914 0.86539 0.93327
  -1 -14   4  -19.34   85.06   1 0.06846 0.51079-0.60283-0.01612 0.79492 0.85955
   1  14  -310117.29  566.10   1-0.01776-0.49693 0.61413 0.08445-0.78899-0.86366
   1 -14  -310070.24  481.12   1-0.53916 0.14448 0.06295 0.24863-0.83984-0.95775
  -1 -14   312116.32  482.79   1-0.43784 0.03914-0.21964 0.31136 0.87180 0.94948
   1 -14  -312625.20  508.63   1-0.20087 0.48243-0.02999 0.15654 0.97915 0.86182
  -1 -14   311977.11  514.08   1 0.07401 0.55089-0.65658-0.12501 0.75060 0.82516
   1  14  -2 4897.75  367.81   1-0.01048-0.52395 0.66678 0.19237-0.74517-0.82973
   1 -14  -2 4241.45  289.55   1-0.58247 0.06678 0.11354 0.35442-0.80488-0.93269
  -1 -14   2 5914.14  320.01   1-0.43334 0.07807-0.21589 0.25994 0.87498 0.96246
   1 -14  -2 5799.78  351.90   1-0.18317 0.46573-0.01635 0.22526 0.98294 0.85577
  -1 -14   2 5293.16  351.03   1 0.08137 0.59291-0.72839-0.25214 0.68030 0.76477
   1  14  -181350.64 1332.11   1-0.00067-0.54845 0.73214 0.31298-0.68114-0.77539
  -1 -14   182617.85 1217.24   1-0.43328 0.11259-0.21584 0.20483 0.87502 0.97229
  -1 -14   173209.95 1389.72   1 0.09061 0.63664-0.81969-0.39857 0.56558 0.66016
   1  14   0  430.77  109.58   1 0.01243-0.56961 0.80975 0.44574-0.58664-0.69054
  -1  14   0  345.80  106.32   1-0.04634-0.62737 0.37118 0.02118-0.92740-0.77842
  -1 -14   0  444.51  120.81   1-0.43772 0.14262-0.21954 0.14596 0.87189 0.97895
   1 -14   0  321.00  134.01   1-0.16457 0.41545-0.00208 0.34990 0.98636 0.83961
  -1 -14   0  435.36  140.64   1 0.10087 0.68120-0.92429-0.55821 0.36810 0.47366
   1  14   139656.85  955.93   1 0.02972-0.58658 0.89463 0.58572-0.44580-0.55932
  -1  14  -143349.58  932.80   1-0.05335-0.60009 0.30140-0.10386-0.95200-0.79315
  -1 -14  -143894.56  803.51   1-0.44672 0.16809-0.22703 0.08330 0.86538 0.98224
   1 -14   145619.57 1010.74   1-0.16330 0.38228-0.00111 0.40605 0.98657 0.83004
   1  14   2  770.14  139.57   1 0.05192-0.59862 0.97065 0.71662-0.23481-0.35791
  -1  14  -2  767.25  158.06   1-0.05760-0.57003 0.25684-0.20367-0.96473-0.79597
  -1 -14  -2  845.52  147.73   1-0.06451 0.58535-0.36129-0.10703-0.93021-0.80367
  -1 -14  -2  667.73  128.85   1-0.46026 0.18899-0.23837 0.01679 0.85517 0.98183
   1 -14   2 1034.43  166.99   1-0.16722 0.34391-0.00411 0.45823 0.98590 0.81959
  -1  14  -311718.76  528.63   1-0.06008-0.53823 0.22983-0.28593-0.97137-0.79280
  -1 -14  -310863.86  541.06   1-0.10056 0.58368-0.33505-0.13601-0.93681-0.80050
  -1 -14  -310597.97  392.09   1-0.47833 0.20538-0.25359-0.05359 0.84076 0.97721
   1 -14   312140.19  504.06   1-0.17623 0.30046-0.01102 0.50651 0.98428 0.80818
  -1  14  -4  -18.89   82.86   1-0.06141-0.50526 0.21512-0.35587-0.97465-0.78616
  -1 -14  -4   51.70   72.68   1-0.13536 0.58326-0.30893-0.16511-0.94140-0.79532
  -1 -14  -4    7.84   66.20   1-0.50085 0.21732-0.27273-0.12789 0.82143 0.96768
  -1  14  -535426.66  897.34   1-0.06189-0.47144 0.20980-0.41645-0.97578-0.77737
  -1 -14  -539451.00  917.26   1-0.16916 0.58383-0.28280-0.19420-0.94414-0.78830
  -1 -14  -535424.78  795.15   1-0.52768 0.22495-0.29579-0.20611 0.79627 0.95231
   1 -14   533126.21  969.56   1-0.20920 0.19851-0.03644 0.59149 0.97719 0.78148
  -1  14  -618640.94  603.62   1-0.06171-0.43697 0.21171-0.46977-0.97538-0.76704
  -1 -14  -619342.85  619.98   1-0.20214 0.58523-0.25656-0.22318-0.94515-0.77954
  -1 -14  -617527.33  547.07   1-0.55875 0.22831-0.32289-0.28843 0.76389 0.92988
   1 -14   616890.87  609.58   1-0.23309 0.14017-0.05501 0.62810 0.97089 0.76539
  -1  14  -7 1180.75  165.75   1-0.06103-0.40198 0.21938-0.51736-0.97372-0.75547
  -1 -14  -7 1498.12  212.12   1-0.23449 0.58731-0.23008-0.25196-0.94449-0.76913
  -1 -14  -7 1486.35  148.68   1-0.59345 0.22805-0.35374-0.37446 0.72296 0.89876
   1 -14   7 1229.99  200.88   1-0.26190 0.07691-0.07756 0.66073 0.96197 0.74667
  -1  14  -8 5436.01  337.98   1-0.05991-0.36657 0.23169-0.56028-0.97093-0.74276
  -1 -14  -8 5026.03  325.66   1-0.26617 0.59001-0.20344-0.28054-0.94221-0.75708
   1 -14   8 4897.54  305.20   1-0.29567 0.00869-0.10423 0.68923 0.94958 0.72448
  -1  14  -9 1987.56  202.73   1-0.05843-0.33078 0.24784-0.59943-0.96703-0.72887
  -1 -14  -9 2377.86  210.03   1-0.29732 0.59325-0.17651-0.30883-0.93831-0.74341
   1 -14   9 2235.03  238.16   1-0.33455-0.06476-0.13526 0.71339 0.93261 0.69776
   1  15  -8 7818.71  467.18   1-0.02900-0.37817 0.52587-0.30572-0.85006-0.87379
   1 -15  -8 7107.01  510.04   1-0.51777 0.37931 0.03907-0.02558-0.85462-0.92491
  -1 -15   8 8401.66  464.33   1-0.52732-0.18118-0.29548 0.53698 0.79662 0.82390
   1 -15  -8 5988.45  349.19   1-0.39567 0.49953-0.18482-0.24821 0.89960 0.82997
  -1 -15   8 8822.98  532.49   1 0.06169 0.40725-0.53762 0.29531 0.84092 0.86425
   1  15  -7 3985.06  277.05   1-0.02800-0.41148 0.53405-0.24228-0.84498-0.87862
   1 -15  -7 4369.96  292.90   1-0.51426 0.34841 0.03522 0.02579-0.85690-0.93698
  -1 -15   7 4271.11  277.66   1-0.50368-0.12307-0.27515 0.50215 0.81889 0.85597
   1 -15  -7 4566.73  308.38   1-0.35113 0.51139-0.14862-0.15696 0.92445 0.84488
  -1 -15   7 4825.07  333.13   1 0.06286 0.44296-0.54884 0.22895 0.83355 0.86680
   1  15  -6 1377.41  173.13   1-0.02622-0.44400 0.54854-0.17252-0.83570-0.87925
   1 -15  -6 1132.35  152.45   1-0.51520 0.31307 0.03625 0.08204-0.85630-0.94617
  -1 -15   6 1441.76  175.91   1-0.48370-0.06863-0.25813 0.46400 0.83630 0.88317
   1 -15  -6 1222.14  187.33   1-0.31184 0.51624-0.11709-0.07045 0.94288 0.85353
  -1 -15   6 1424.25  203.95   1 0.06483 0.47948-0.56780 0.15485 0.82060 0.86377
   1  15  -514684.13  631.63   1-0.02347-0.47556 0.57039-0.09540-0.82103-0.87449
   1 -15  -518856.06  642.26   1-0.52221 0.27171 0.04398 0.14474-0.85167-0.95143
  -1 -15   519498.83  540.23   1-0.46751-0.01799-0.24446 0.42250 0.84951 0.90618
   1 -15  -519137.58  630.72   1-0.27847 0.51517-0.09061 0.01120 0.95616 0.85701
  -1 -15   518863.52  735.10   1 0.06778 0.51698-0.59625 0.07126 0.79993 0.85302
   1  15  -421629.81  862.89   1-0.01953-0.50593 0.60081-0.00971-0.79914-0.86251
   1 -15  -425166.63  763.32   1-0.53756 0.22196 0.06114 0.21715-0.84100-0.95056
  -1 -15   427099.60  665.57   1-0.45522 0.02874-0.23414 0.37765 0.85903 0.92549
   1 -15  -427143.13  795.21   1-0.25084 0.50835-0.06888 0.08810 0.96557 0.85662
  -1 -15   425325.29  878.95   1 0.07193 0.55567-0.63634-0.02397 0.76804 0.83105
   1  15  -382914.67 1510.02   1-0.01413-0.53483 0.64084 0.08567-0.76754-0.84060
  -1 -15   382923.13 1117.84   1-0.44694 0.07147-0.22722 0.32940 0.86521 0.94147
   1 -15  -395025.22 1314.96   1-0.22876 0.49598-0.05164 0.16052 0.97210 0.85336
  -1 -15   386220.00 1407.72   1 0.07753 0.59595-0.69081-0.13374 0.71885 0.79180
   1  15  -2 1399.08  195.89   1-0.00677-0.56178 0.69220 0.19230-0.72166-0.80462
  -1 -15   2 1769.10  178.99   1-0.44276 0.11011-0.22374 0.27773 0.86827 0.95432
   1 -15  -2 1799.41  194.22   1-0.21207 0.47822-0.03867 0.22866 0.97648 0.84794
  -1 -15   2 1610.09  194.45   1 0.08477 0.63773-0.76181-0.25991 0.64222 0.72507
   1  15  -1 1176.38  157.50   1 0.00300-0.58630 0.75507 0.31042-0.65562-0.74825
  -1 -15   1 1431.04  167.09   1-0.44275 0.14458-0.22372 0.22257 0.86828 0.96413
   1 -15  -1 1466.47  174.96   1-0.20061 0.45523-0.02980 0.29271 0.97921 0.84087
   1  15   0 7909.39  435.62   1 0.01595-0.60761 0.82868 0.43917-0.55949-0.66175
  -1  15   0 6402.93  645.03   1-0.03910-0.66161 0.43871 0.06316-0.89777-0.74718
  -1 -15   0 8083.12  356.22   1-0.44695 0.17483-0.22723 0.16390 0.86521 0.97086
   1 -15   0 8924.97  475.55   1-0.19422 0.42725-0.02486 0.35273 0.98064 0.83248
   1  15   116247.88  621.40   1 0.03290-0.62492 0.90794 0.57352-0.41778-0.52966
  -1  15  -118992.76  679.18   1-0.04701-0.63528 0.36474-0.06601-0.92992-0.76945
  -1 -15  -115893.72  643.46   1-0.08247 0.57450-0.34832-0.01327-0.93374-0.81839
  -1 -15  -120221.71  630.61   1-0.45541 0.20083-0.23430 0.10166 0.85889 0.97433
   1 -15   114997.87  623.09   1-0.19283 0.39420-0.02379 0.40899 0.98094 0.82300
  -1  15  -240032.24 1061.80   1-0.05196-0.60592 0.31566-0.17034-0.94744-0.77706
  -1 -15  -234972.80  977.62   1-0.11147 0.57989-0.32695-0.04712-0.93844-0.81332
  -1 -15  -238844.80  925.84   1-0.46813 0.22257-0.24498 0.03581 0.84901 0.97425
   1 -15   243830.09 1184.39   1-0.19631 0.35628-0.02647 0.46149 0.98018 0.81245
  -1  15  -3 7929.34  430.27   1-0.05501-0.57469 0.28419-0.25708-0.95718-0.77693
  -1 -15  -3 6353.53  468.78   1-0.14075 0.58498-0.30481-0.08020-0.94195-0.80707
  -1 -15  -3 7921.37  368.38   1-0.48508 0.24007-0.25931-0.03367 0.83513 0.97017
   1 -15   3 7672.40  396.28   1-0.20455 0.31349-0.03285 0.51036 0.97830 0.80077
  -1  15  -4 9092.90  436.91   1-0.05679-0.54217 0.26544-0.33108-0.96245-0.77229
  -1 -15  -4 9525.87  446.33   1-0.17016 0.58994-0.28201-0.11261-0.94419-0.79955
  -1 -15  -4 8172.39  408.53   1-0.50620 0.25340-0.27731-0.10683 0.81660 0.96144
   1 -15   410026.50  451.85   1-0.21751 0.26609-0.04289 0.55549 0.97511 0.78779
  -1  15  -5 1190.93  184.55   1-0.05764-0.50871 0.25639-0.39537-0.96485-0.76477
  -1 -15  -5 1497.21  170.71   1-0.19959 0.59489-0.25861-0.14444-0.94513-0.79071
  -1 -15  -5 1376.11  138.48   1-0.53151 0.26255-0.29910-0.18385 0.79248 0.94724
   1 -15   5 1295.08  190.80   1-0.23513 0.21402-0.05660 0.59696 0.97031 0.77319
  -1  15  -6 3403.37  284.01   1-0.05778-0.47455 0.25492-0.45210-0.96523-0.75524
  -1 -15  -6 3564.57  267.89   1-0.22904 0.59986-0.23460-0.17568-0.94472-0.78057
  -1 -15  -6 3538.37  237.98   1-0.56058 0.26792-0.32450-0.26442 0.76187 0.92644
   1 -15   6 3740.51  293.66   1-0.25738 0.15732-0.07401 0.63472 0.96346 0.75655
  -1  15  -735466.37  945.91   1-0.05735-0.43983 0.25948-0.50279-0.96404-0.74413
  -1 -15  -735696.42  954.25   1-0.25831 0.60498-0.21012-0.20643-0.94293-0.76901
  -1 -15  -729875.16  680.79   1-0.59324 0.26970-0.35355-0.34864 0.72322 0.89761
   1 -15   731429.57  804.16   1-0.28427 0.09599-0.09519 0.66871 0.95400 0.73729
  -1  15  -826095.71  819.20   1-0.05646-0.40464 0.26897-0.54856-0.96149-0.73167
  -1 -15  -827257.03  823.65   1-0.28743 0.61024-0.18513-0.23666-0.93973-0.75603
   1 -15   829371.75  813.86   1-0.31586 0.02981-0.12030 0.69882 0.94114 0.71467
   1  16  -7 2802.42  247.87   1-0.02474-0.44975 0.56039-0.24143-0.82785-0.85990
   1 -16  -7 1864.57  195.50   1-0.53219 0.37018 0.05510 0.07093-0.84482-0.92624
  -1 -16   7 3352.66  224.46   1-0.51046-0.08842-0.28095 0.52197 0.81270 0.84836
   1 -16  -7 2957.45  232.45   1-0.37075 0.53322-0.16450-0.14721 0.91404 0.83306
  -1 -16   7 2607.86  275.84   1 0.06605 0.48757-0.57955 0.22389 0.81225 0.84388
   1  16  -611244.58  553.51   1-0.02279-0.48211 0.57571-0.17084-0.81733-0.85928
  -1 -16   611180.85  433.36   1-0.49165-0.03515-0.26488 0.48288 0.82952 0.87498
   1 -16  -612232.78  491.87   1-0.33389 0.53562-0.13473-0.06228 0.93293 0.84215
  -1 -16   610179.86  507.86   1 0.06818 0.52425-0.60010 0.14821 0.79701 0.83856
   1  16  -5 6505.45  428.87   1-0.01988-0.51351 0.59814-0.09315-0.80114-0.85300
  -1 -16   5 8061.61  384.33   1-0.47643 0.01452-0.25198 0.44061 0.84232 0.89757
   1 -16  -5 7625.75  407.27   1-0.30256 0.53252-0.10970 0.01773 0.94679 0.84622
  -1 -16   5 6975.80  453.05   1 0.07127 0.56189-0.62999 0.06317 0.77332 0.82479
   1  16  -4  393.48  158.06   1-0.01582-0.54375 0.62849-0.00743-0.77765-0.83920
  -1 -16   4  565.94  120.55   1-0.46490 0.06050-0.24227 0.39516 0.85156 0.91661
   1 -16  -4  382.36  139.70   1-0.27653 0.52410-0.08908 0.09352 0.95686 0.84650
  -1 -16   4  637.30  200.67   1 0.07552 0.60068-0.67122-0.03319 0.73740 0.79879
   1  16  -3  653.64  142.67   1-0.01025-0.57248 0.66837 0.08770-0.74375-0.81520
  -1 -16   3  762.63  136.43   1-0.45715 0.10270-0.23576 0.34650 0.85756 0.93241
   1 -16  -3  920.12  156.50   1-0.25567 0.51051-0.07267 0.16511 0.96402 0.84386
   1  16  -214398.30  874.22   1-0.00283-0.59936 0.71827 0.19286-0.69575-0.77689
  -1 -16   220079.78  561.48   1-0.45326 0.14105-0.23251 0.29459 0.86051 0.94515
   1 -16  -219841.45  641.92   1-0.23984 0.49189-0.06028 0.23268 0.96893 0.83898
   1  16  -120339.36  630.95   1 0.00701-0.62382 0.77904 0.30890-0.62692-0.71793
  -1 -16   121765.20  654.47   1-0.45329 0.17548-0.23253 0.23940 0.86049 0.95493
   1 -16  -122242.66  663.70   1-0.22890 0.46839-0.05174 0.29639 0.97207 0.83232
  -1 -16   0 3056.41  226.78   1-0.45728 0.20594-0.23587 0.18089 0.85746 0.96169
   1 -16   0 3665.34  323.47   1-0.22273 0.44010-0.04694 0.35636 0.97374 0.82419
  -1  16  -135343.46  954.44   1-0.04044-0.67025 0.42651-0.02974-0.90357-0.74153
  -1 -16  -135293.06  734.18   1-0.46527 0.23241-0.24258 0.11902 0.85127 0.96530
   1 -16   136469.08  976.70   1-0.22124 0.40715-0.04578 0.41270 0.97414 0.81480
  -1  16  -2 7542.67  512.17   1-0.04610-0.64160 0.37352-0.13798-0.92647-0.75451
  -1 -16  -2 7929.02  344.09   1-0.47725 0.25488-0.25268 0.05375 0.84165 0.96547
   1 -16   2 9578.62  508.59   1-0.22432 0.36962-0.04818 0.46548 0.97332 0.80418
  -1  16  -3 1128.85  169.36   1-0.04973-0.61093 0.33808-0.22868-0.93980-0.75793
  -1 -16  -3 1111.18  194.02   1-0.18302 0.58420-0.27186-0.02167-0.94477-0.81131
  -1 -16  -3 1476.78  156.69   1-0.49321 0.27338-0.26622-0.01495 0.82816 0.96178
   1 -16   3 1335.19  183.44   1-0.23191 0.32758-0.05409 0.51474 0.97122 0.79229
  -1  16  -416645.48  609.15   1-0.05196-0.57887 0.31564-0.30638-0.94745-0.75567
  -1 -16  -414354.64  591.05   1-0.20698 0.59461-0.25264-0.05767-0.94515-0.80193
  -1 -16  -415167.25  476.34   1-0.51309 0.28795-0.28321-0.08711 0.81025 0.95367
   1 -16   416404.22  545.71   1-0.24395 0.28109-0.06349 0.56052 0.96770 0.77897
  -1  16  -5  863.35  159.81   1-0.05318-0.54579 0.30321-0.37406-0.95143-0.74978
  -1 -16  -5  824.25  150.54   1-0.23207 0.60394-0.23209-0.09238-0.94460-0.79165
  -1 -16  -5  515.10  107.81   1-0.53692 0.29858-0.30380-0.16292 0.78702 0.94037
   1 -16   5  414.49  136.29   1-0.26039 0.23021-0.07637 0.60281 0.96247 0.76394
  -1  16  -623604.74  865.73   1-0.05363-0.51195 0.29854-0.43398-0.95288-0.74132
  -1 -16  -621873.12  934.07   1-0.25778 0.61261-0.21057-0.12607-0.94297-0.78025
  -1 -16  -622154.18  756.75   1-0.56431 0.30564-0.32778-0.24208 0.75769 0.92085
   1 -16   623590.60  828.23   1-0.28120 0.17495-0.09277 0.64159 0.95515 0.74682
  -1  16  -7 2438.25  235.31   1-0.05347-0.47749 0.30016-0.48761-0.95238-0.73090
  -1 -16  -7 2601.20  243.29   1-0.28398 0.62080-0.18813-0.15886-0.94019-0.76770
  -1 -16  -7 1917.22  188.11   1-0.59513 0.30926-0.35525-0.32471 0.72084 0.89381
   1 -16   7 2902.21  228.71   1-0.30638 0.11532-0.11274 0.67679 0.94520 0.72708
   1  17  -6  194.88  164.44   1-0.01916-0.52002 0.60364-0.16841-0.79702-0.83738
  -1 -17   6  139.68   98.38   1-0.50074-0.00280-0.27263 0.50076 0.82153 0.86557
   1 -17  -6   -4.11  122.20   1-0.35570 0.55525-0.15230-0.05422 0.92210 0.82991
   1  17  -514535.89  695.27   1-0.01611-0.55127 0.62636-0.09032-0.77936-0.82941
  -1 -17   518466.43  721.30   1-0.48639 0.04599-0.26042 0.45780 0.83402 0.88786
   1 -17  -517494.95  767.89   1-0.32613 0.55036-0.12851 0.02473 0.93654 0.83455
   1  17  -4   81.68  109.70   1-0.01185-0.58132 0.65709-0.00432-0.75371-0.81366
  -1 -17   4  235.47  119.47   1-0.47555 0.09129-0.25124 0.41182 0.84304 0.90667
   1 -17  -4  246.18  156.85   1-0.30155 0.54053-0.10890 0.09933 0.94721 0.83543
   1  17  -354124.24 1470.45   1-0.00612-0.60989 0.69656 0.09041-0.71746-0.78730
  -1 -17   358097.56 1350.49   1-0.46828 0.13302-0.24511 0.36278 0.84890 0.92232
   1 -17  -357951.82 1381.56   1-0.28177 0.52585-0.09322 0.17018 0.95494 0.83337
   1  17  -2  130.13   88.80   1 0.00141-0.63664 0.74528 0.19438-0.66674-0.74625
  -1 -17   2  185.72  124.26   1-0.46465 0.17110-0.24206 0.31067 0.85176 0.93498
   1 -17  -2   -5.78   98.66   1-0.26670 0.50647-0.08134 0.23724 0.96033 0.82897
  -1 -17   134347.76  707.21   1-0.46472 0.20549-0.24211 0.25544 0.85171 0.94473
   1 -17  -134824.55  805.23   1-0.25623 0.48249-0.07311 0.30065 0.96384 0.82268
  -1 -17   0 7599.33  337.54   1-0.46852 0.23614-0.24531 0.19708 0.84870 0.95152
   1 -17   0 8273.40  412.54   1-0.25026 0.45402-0.06842 0.36050 0.96575 0.81479
  -1 -17  -1   21.27   87.44   1-0.47609 0.26303-0.25169 0.13553 0.84260 0.95521
   1 -17   1  -39.24  151.11   1-0.24869 0.42114-0.06719 0.41691 0.96624 0.80549
   1 -17   2   65.44  150.88   1-0.25144 0.38394-0.06935 0.46993 0.96538 0.79482
  -1  17  -3 6007.83  367.66   1-0.04421-0.64695 0.39156-0.20070-0.91908-0.73564
  -1 -17  -3 5917.55  308.52   1-0.50249 0.30554-0.27413 0.00276 0.81996 0.95217
   1 -17   3 6037.38  344.60   1-0.25846 0.34247-0.07486 0.51960 0.96311 0.78276
  -1  17  -4 2158.50  213.90   1-0.04691-0.61535 0.36575-0.28177-0.92952-0.73616
  -1 -17  -4 2457.00  204.83   1-0.52126 0.32122-0.29024-0.06851 0.80251 0.94451
   1 -17   4 2253.10  211.00   1-0.26968 0.29680-0.08368 0.56595 0.95930 0.76915
  -1  17  -5 2891.69  245.31   1-0.04851-0.58266 0.35007-0.35270-0.93546-0.73219
  -1 -17  -5 2972.03  206.31   1-0.54376 0.33318-0.30975-0.14325 0.77998 0.93191
   1 -17   5 3205.77  265.58   1-0.28507 0.24696-0.09583 0.60898 0.95370 0.75375
   1  18  -4  440.64  120.68   1-0.00765-0.61865 0.68625-0.00066-0.72732-0.78566
  -1 -18   4  499.72  139.09   1-0.48700 0.12128-0.26094 0.42775 0.83350 0.89572
   1 -18  -4  441.29  162.37   1-0.32597 0.55750-0.12838 0.10565 0.93662 0.82342
  -1 -18   3   58.08   99.65   1-0.48017 0.16257-0.25514 0.37838 0.83924 0.91126
   1 -18  -3   93.35  110.66   1-0.30718 0.54189-0.11338 0.17565 0.94487 0.82188
  -1 -18   2 9949.52  466.68   1-0.47678 0.20042-0.25228 0.32608 0.84204 0.92385
   1 -18  -210778.01  514.60   1-0.29281 0.52181-0.10196 0.24225 0.95071 0.81793
  -1 -18   1 3062.06  215.96   1-0.47688 0.23477-0.25237 0.27082 0.84195 0.93356
   1 -18  -1 2602.47  232.79   1-0.28277 0.49740-0.09401 0.30537 0.95456 0.81199
  -1 -18   0 7687.50  364.19   1-0.48052 0.26559-0.25544 0.21258 0.83895 0.94035
   1 -18   0 8326.67  436.65   1-0.27697 0.46875-0.08943 0.36512 0.95670 0.80433
  -1 -18  -1 8984.55  415.92   1-0.48771 0.29285-0.26153 0.15132 0.83290 0.94410
   1 -18   1 9043.37  512.11   1-0.27534 0.43593-0.08814 0.42158 0.95729 0.79512
  -1 -18  -2 1421.93  147.06   1-0.49845 0.31657-0.27068 0.08701 0.82357 0.94456
   1 -18   2 1164.40  185.10   1-0.27781 0.39901-0.09009 0.47481 0.95640 0.78443
  -1 -18  -3 1523.15  159.45   1-0.51273 0.33675-0.28290 0.01962 0.81060 0.94138
   1 -18   3 1549.95  174.49   1-0.28432 0.35806-0.09523 0.52484 0.95398 0.77222
   2   0 -13   62.07   99.24   1-0.01496 0.42976 0.63481-0.09768-0.77252-0.89764
  -2   0  13  -94.04  133.06   1 0.06884-0.37894-0.60647 0.12424 0.79211 0.91704
   2   0 -12 8043.35  374.08   1-0.01666 0.39376 0.62235-0.05487-0.78255-0.91757
   2   0 -12 7859.44  332.78   1-0.66262-0.25085 0.21763-0.45876-0.71663-0.85241
  -2   0  12 5848.53  655.50   1 0.06775-0.34549-0.59591 0.07966 0.80018 0.93503
   2   0 -11   41.48  114.52   1-0.01770 0.35841 0.61461-0.00734-0.78862-0.93353
   2   0 -11  -88.65  104.60   1-0.65836-0.28098 0.21164-0.40950-0.72233-0.86796
  -2   0  11  -56.77   94.21   1 0.06709-0.31160-0.58955 0.03088 0.80493 0.94971
   2   0 -1072492.10 1258.58   1-0.01797 0.32383 0.61258 0.04589-0.79020-0.94499
   2   0 -1074991.71 1071.02   1-0.65667-0.31368 0.20929-0.35659-0.72454-0.88002
  -2   0  1070905.42 1267.66   1 0.06696-0.27718-0.58832-0.02302 0.80584 0.96054
   2   0  -9   76.78   72.80   1-0.01731 0.29019 0.61750 0.10607-0.78637-0.95107
   2   0  -9   10.85   80.65   1-0.65822-0.34962 0.21145-0.29919-0.72251-0.88783
   2   0  -9   -2.93   56.67   1-0.32020-0.01051-0.12377-0.63358 0.93922 0.77360
  -2   0   9  -24.94   98.84   1 0.06749-0.24211-0.59342-0.08327 0.80205 0.96666
   2   0  -8237847.7 2278.49   1-0.01549 0.25770 0.63090 0.17475-0.77570-0.95029
   2   0  -8226767.3 1899.88   1-0.66379-0.38958 0.21928-0.23611-0.71504-0.89020
   2   0  -8203545.4 3482.79   1-0.50559-0.23035-0.27678-0.73148 0.81716 0.64177
  -2   0   8226396.1 3739.73   1 0.06883-0.20622-0.60637-0.15136 0.79219 0.96672
   2   0  -7  -24.14   84.98   1-0.01220 0.22668 0.65462 0.25373-0.75585-0.94033
   2   0  -7  110.60   76.35   1-0.67430-0.43448 0.23435-0.16579-0.70027-0.88528
   2   0  -7   41.89   56.92   1-0.61813-0.37721-0.37612-0.77588 0.69024 0.50567
   2   0  -6130078.9 1598.14   1-0.00701 0.19757 0.69059 0.34497-0.72321-0.91758
  -2   0   6122126.5 1818.48   1-0.06072-0.26564 0.22283 0.56843-0.97296-0.77866
   2   0  -6125542.5 1551.40   1-0.69062-0.48520 0.25862-0.08642-0.67538-0.87012
  -2   0   6130242.2 1892.03   1-0.75928-0.96556-0.59719-0.25192-0.25856-0.06496
   2   0  -6133047.8 1731.25   1-0.69139-0.48487-0.44554-0.79028 0.56874 0.37462
  -2   0   6130076.9 1901.01   1 0.07474-0.13121-0.66368-0.31896 0.74426 0.93864
   2   0  -5  837.19  132.08   1 0.00063 0.17086 0.74039 0.45004-0.67217-0.87650
  -2   0   5  -33.70   79.16   1-0.04745-0.21796 0.36043 0.65077-0.93157-0.72731
  -2   0   5    5.17   55.65   1-0.51401-0.68530 0.03494 0.32425-0.85707-0.65208
  -2   0   5   20.93   51.64   1-0.77803-0.94994-0.60165-0.31158-0.18075 0.02285
   2   0  -5   20.05   45.67   1-0.73844-0.56631-0.49400-0.78369 0.45897 0.25514
  -2   0   5  -38.95   81.65   1 0.07973-0.09161-0.71225-0.42257 0.69737 0.90168
   2   0  -4 7334.37  344.49   1 0.01133 0.14721 0.80366 0.56863-0.59496-0.80930
  -2   0   4 7527.22  367.33   1-0.03085-0.16694 0.51046 0.74554-0.85934-0.64521
   2   0  -4 6824.98  317.81   1-0.74261-0.60583 0.34601 0.11141-0.57341-0.78774
  -2   0   4 7218.29  321.04   1-0.59325-0.73006 0.12666 0.36091-0.79498-0.58030
  -2   0   4 8099.78  389.02   1-0.78824-0.92577-0.60247-0.36759-0.12526 0.08836
   2   0  -4 7876.92  326.27   1-0.76754-0.62988-0.52721-0.76188 0.36457 0.15090
  -2   0   4 7943.46  385.25   1 0.08619-0.05061-0.77575-0.54125 0.62512 0.83933
   2   0  -4 7289.55  366.92   1 0.05782 0.19469-0.50049-0.73493 0.86380 0.64958
   2   0  -3   27.07   86.65   1 0.02536 0.12691 0.87519 0.69543-0.48310-0.70729
  -2   0   3  -34.18   58.81   1-0.01065-0.11232 0.66559 0.84539-0.74623-0.52218
   2   0  -3   -8.53   46.26   1-0.77456-0.67219 0.41433 0.23498-0.47788-0.70209
  -2   0   3   25.98   56.49   1-0.67393-0.77620 0.23380 0.41295-0.70082-0.47642
  -2   0   3   55.61   79.45   1-0.79338-0.89654-0.60201-0.42232-0.09006 0.13357
   2   0  -3   -0.47   43.03   1-0.78478-0.68152-0.54960-0.72909 0.28642 0.06277
  -2   0   3  -66.69   85.39   1 0.09372-0.00866-0.85093-0.67153 0.51683 0.74092
   2   0  -3   35.28   77.31   1 0.07308 0.17540-0.64755-0.82685 0.75850 0.53437
   2   0  -2142198.0 1751.87   1 0.04239 0.10962 0.94303 0.81850-0.32997-0.56393
  -2   0   2138058.9 1768.91   1 0.01238-0.05486 0.80947 0.93399-0.58701-0.35304
   2   0  -2140825.6 1718.85   1-0.79956-0.73176 0.49732 0.37270-0.33670-0.57061
  -2   0   2136701.5 1574.43   1-0.74645-0.81441 0.35336 0.47746-0.56386-0.32979
  -2   0   2141100.2 1704.14   1-0.79542-0.86421-0.60154-0.47704-0.07376 0.15988
   2   0  -2132123.4 1684.17   1-0.79419-0.72535-0.56396-0.68833 0.22625-0.00738
  -2   0   2132224.9 1906.44   1 0.10111 0.03278-0.92675-0.80255 0.36180 0.59568
   2   0  -2139287.7 1847.41   1 0.08775 0.15559-0.79121-0.91542 0.60520 0.37120
   2   0  -1   97.42   91.07   1 0.06079 0.09365 0.98843 0.91912-0.13889-0.38267
  -2   0   1   -4.53   83.52   1 0.03593 0.00305 0.91991 0.98918-0.39047-0.14667
  -2   0   1  100.78   73.00   1-0.79471-0.82830 0.47521 0.54409-0.37761-0.13369
   2   0  -1   50.88   66.07   1-0.79892-0.76447-0.57268-0.64186 0.18373-0.05991
  -2   0   1   15.13   81.59   1 0.10601 0.07221-0.98161-0.91255 0.15873 0.40253
   2   0  -1    4.98  102.82   1 0.09940 0.13317-0.90889-0.97789 0.40499 0.16117
   2   0   0483131.3 3875.14   1 0.07784 0.07628 0.99440 0.98030 0.07139-0.18217
  -2   0   0493584.4 4114.78   1 0.05688 0.05839 0.98163 0.99572-0.18207 0.07151
  -2   0   0472458.3 3763.97   1-0.79288-0.79291-0.60210-0.58798-0.09384 0.15983
   2   0   0487222.1 3852.81   1-0.80096-0.80090-0.57724-0.59124 0.15888-0.09476
  -2   0   0504202.5 4275.90   1 0.10597 0.10673-0.99166-0.97777-0.07326 0.18046
   2   0   0467070.7 4057.73   1 0.10572 0.10496-0.97790-0.99176 0.18035-0.07339
   2   0   1    3.66   88.99   1 0.09119 0.05522 0.95731 0.99841 0.27427 0.01091
  -2   0  -1   22.57   68.29   1 0.07307 0.10896 0.99729 0.95618 0.00835 0.27172
   2   0   1  676.11  112.30   1-0.65557-0.69126 0.67813 0.71934 0.33218 0.06859
  -2   0  -1   -2.88   51.63   1-0.76099-0.72520 0.64534 0.60422 0.06651 0.33013
  -2   0  -1    7.27   60.25   1-0.78770-0.75336-0.60248-0.64356-0.12855 0.13512
   2   0   1    1.13   50.17   1-0.80149-0.83582-0.57856-0.53737 0.15126-0.11237
   2   0   2   91.61   92.73   1 0.09998 0.02976 0.88762 0.98388 0.44957 0.17631
  -2   0  -2   92.64   64.80   1 0.08421 0.15459 0.98314 0.88685 0.16226 0.43541
  -2   0  -2   75.19   63.81   1-0.69385-0.62360 0.67407 0.57754 0.25336 0.52683
   2   0   2   13.94   64.28   1-0.80086-0.86958-0.57698-0.48061 0.16035-0.11328
   2   0   3   15.44   62.85   1 0.10478 0.00020 0.79995 0.95144 0.59084 0.30780
  -2   0  -3    1.57   54.45   1 0.09132 0.19611 0.95663 0.80518 0.27658 0.55966
  -2   0  -3  104.27   72.46   1-0.62238-0.51756 0.67769 0.52585 0.39162 0.67499
  -2   0  -3  -33.66   87.08   1-0.76343-0.66034-0.59839-0.74986-0.24307 0.04063
   2   0   3    1.53   43.80   1-0.79874-0.90185-0.57231-0.42076 0.18562-0.09801
   2   0   4 7477.63  406.15   1 0.10660-0.03250 0.70601 0.91266 0.70012 0.40742
  -2   0  -4 6968.57  347.99   1 0.09571 0.23482 0.92894 0.72229 0.35762 0.65049
   2   0   4 7232.56  336.41   1-0.79414-0.93164-0.56387-0.35714 0.22667-0.06696
   2   0   5   60.63   95.84   1 0.10638-0.06717 0.61234 0.87417 0.78340 0.48094
   2   0   5   28.18   45.14   1-0.78535-0.95726-0.55041-0.28849 0.28328-0.02026
   2   0   5    7.17   53.79   1 0.06829-0.10598 0.60119 0.86287 0.79618 0.49417
   2   0   6 8278.71  391.81   1 0.10480-0.10319 0.52195 0.83897 0.84650 0.53430
   2   0   6 7424.08  378.85   1-0.76985-0.97616-0.53004-0.21294 0.35547 0.04193
  -2   0  -6 8272.85  313.83   1-0.06134 0.14486-0.50700-0.82450-0.85975-0.54700
   2   0   6 7422.56  340.30   1 0.05829-0.15050 0.50496 0.82180 0.86116 0.54953
  -2   0  -7 -121.26  103.61   1-0.10238 0.13859-0.43758-0.80983-0.89332-0.57005
   2   0   7   18.81   45.89   1-0.74355-0.98444-0.49957-0.12728 0.44447 0.12111
  -2   0  -7   19.62   53.82   1-0.08868 0.15181-0.43081-0.80356-0.89807-0.57552
  -2   0  -8   28.61  124.65   1-0.09929 0.17603-0.35595-0.78342-0.92921-0.59604
  -2   0  -8  113.04   98.13   1-0.08456 0.19101-0.34679-0.77530-0.93412-0.60201
   2   0   8  105.54   64.66   1-0.70028-0.97569-0.45438-0.02686 0.55057 0.21749
  -2   0  -8  123.78   73.82   1-0.11244 0.16235-0.36006-0.78806-0.92612-0.59379
  -2   0  -9   11.52   92.37   1-0.09573 0.21393-0.27812-0.76080-0.95576-0.61270
  -2   0  -9   50.52   66.12   1-0.14813 0.16183-0.29915-0.78287-0.94263-0.60076
  -2   0 -1051068.65 1136.20   1-0.09182 0.25219-0.20356-0.74147-0.97474-0.62178
  -2   0 -1051886.05 1071.56   1-0.20553 0.13879-0.25382-0.79276-0.94516-0.59352
  -2   0 -11  -16.85   75.51   1-0.08761 0.29040-0.13183-0.72506-0.98739-0.62445
  -2   0 -11  -53.49   80.35   1-0.25811 0.12073-0.21029-0.80456-0.94294-0.58146
  -2   0 -12 4801.73  319.60   1-0.08312 0.32920-0.06222-0.71067-0.99459-0.62174
  -2   0 -12 5671.24  307.24   1-0.30665 0.10658-0.16829-0.81778-0.93682-0.56557
  -2   0 -13   13.52  116.46   1-0.07837 0.36827 0.00583-0.69801-0.99690-0.61411
  -2   0 -13  -20.13  154.36   1-0.35189 0.09588-0.12746-0.83222-0.92732-0.54608
   2  -1 -1312066.98  466.89   1-0.01160 0.47466 0.65891-0.04809-0.75212-0.87885
   2   1 -1311957.62  472.10   1-0.01760 0.38558 0.61534-0.14265-0.78806-0.91157
   2   1 -1310646.55  485.82   1-0.68201-0.27735 0.24567-0.51152-0.68883-0.81327
   2  -1 -1311344.54  399.43   1-0.65705-0.16940 0.20982-0.49626-0.72405-0.85148
  -2   1  13 9729.41  775.57   1 0.07067-0.41852-0.62421 0.08085 0.77805 0.90459
  -2  -1  1310756.38  532.13   1 0.06735-0.33901-0.59213 0.16424 0.80302 0.92633
   2  -1 -12 5907.72  318.45   1-0.01321 0.43874 0.64746-0.00427-0.76198-0.89860
   2   1 -12 4729.72  284.39   1-0.01937 0.34963 0.60206-0.10065-0.79821-0.93146
   2   1 -12 5369.70  266.28   1-0.67669-0.30641 0.23782-0.46412-0.69679-0.83108
   2  -1 -12 4183.09  263.15   1-0.64982-0.19656 0.19984-0.45098-0.73334-0.87061
  -2   1  12 5021.05  325.33   1 0.06968-0.38497-0.61456 0.03535 0.78578 0.92224
  -2  -1  12 5080.07  436.60   1 0.06619-0.30563-0.58089 0.12034 0.81128 0.94451
   2  -1 -1121561.75  729.79   1-0.01410 0.40355 0.64106 0.04459-0.76735-0.91386
   2   1 -1122066.85  694.92   1-0.02051 0.31418 0.59338-0.05406-0.80465-0.94782
   2   1 -1120828.75  649.89   1-0.67349-0.33761 0.23317-0.41353-0.70145-0.84558
   2  -1 -1123844.21  674.48   1-0.64457-0.22569 0.19269-0.40289-0.73986-0.88698
  -2   1  1118658.73  829.52   1 0.06914-0.35097-0.60934-0.01456 0.78988 0.93627
  -2  -1  1123892.51  782.65   1 0.06544-0.27183-0.57367 0.07241 0.81646 0.95961
   2  -1 -10 2624.27  239.20   1-0.01414 0.36920 0.64078 0.09958-0.76758-0.92399
   2   1 -10 2830.56  214.66   1-0.02094 0.27944 0.59006-0.00211-0.80708-0.96015
   2   1 -10 2997.45  213.08   1-0.67295-0.37145 0.23239-0.35906-0.70222-0.85620
   2  -1 -10 3075.12  240.45   1-0.64181-0.25732 0.18897-0.35136-0.74321-0.90018
  -2   1  10 2347.06  346.60   1 0.06916-0.31640-0.60953-0.06989 0.78973 0.94604
  -2  -1  10 2512.15  224.06   1 0.06520-0.23752-0.57135 0.01959 0.81810 0.97118
   2  -1  -9 1033.25  141.58   1-0.01314 0.33589 0.64796 0.16203-0.76155-0.92785
   2   1  -9 1160.02  141.05   1-0.02052 0.24555 0.59324 0.05633-0.80475-0.96774
   2   1  -9 1201.73  137.35   1-0.67570-0.40859 0.23638-0.29982-0.69824-0.86206
   2  -1  -9 1078.66  143.11   1-0.64220-0.29210 0.18949-0.29559-0.74274-0.90956
   2  -1  -9  944.00  144.17   1-0.43874-0.08760-0.22039-0.70462 0.87116 0.70414
   2   1  -9  866.61  154.21   1-0.23168 0.03648-0.05391-0.58942 0.97129 0.80700
  -2   1   9 1265.62  166.02   1 0.06987-0.28115-0.61640-0.13190 0.78432 0.95055
  -2  -1   9 1154.95  150.92   1 0.06558-0.20259-0.57505-0.03924 0.81547 0.97847
   2  -1  -896658.36 1806.54   1-0.01084 0.30389 0.66424 0.23358-0.74743-0.92362
   2   1  -898533.86 1810.03   1-0.01906 0.21271 0.60436 0.12271-0.79648-0.96937
   2   1  -896232.21 1754.20   1-0.68248-0.44977 0.24637-0.23458-0.68811-0.86178
   2  -1  -894642.32 1738.28   1-0.64654-0.33083 0.19537-0.23446-0.73743-0.91409
  -2  -1   8100573.3 2060.80   1-0.75455-0.98806-0.59571-0.11445-0.27527-0.10311
   2  -1  -890612.55 1672.74   1-0.61318-0.29651-0.37160-0.80077 0.69707 0.52042
   2   1  -889647.76 1776.39   1-0.40485-0.17104-0.19236-0.67265 0.89391 0.71991
  -2   1   897084.85 1911.18   1 0.07143-0.24503-0.63154-0.20218 0.77204 0.94819
  -2  -1   896351.94 1878.53   1 0.06674-0.16689-0.58622-0.10556 0.80739 0.98030
   2  -1  -7 6835.27  356.26   1-0.00688 0.27354 0.69149 0.31610-0.72234-0.90843
   2   1  -7 6972.04  335.71   1-0.01627 0.18109 0.62520 0.19883-0.78029-0.96315
   2   1  -7 7010.14  324.79   1-0.69402-0.49570 0.26381-0.16204-0.66987-0.85324
   2  -1  -7 6423.32  289.00   1-0.65583-0.37451 0.20812-0.16646-0.72564-0.91215
  -2  -1   7 6814.24  377.87   1-0.78456-0.98370-0.60238-0.17632-0.14691 0.03525
   2  -1  -7 6851.59  358.76   1-0.70585-0.42345-0.45998-0.83427 0.53868 0.35310
   2   1  -7 6657.41  317.61   1-0.52375-0.32440-0.29239-0.71755 0.80011 0.61634
  -2   1   7 7017.42  365.66   1 0.07404-0.20787-0.65688-0.28267 0.75034 0.93642
  -2  -1   7 6520.25  363.48   1 0.06886-0.13022-0.60668-0.18115 0.79195 0.97479
   2  -1  -630378.39  743.50   1-0.00075 0.24532 0.73166 0.41153-0.68166-0.87775
   2   1  -629362.80  726.75   1-0.01179 0.15126 0.65754 0.28644-0.75332-0.94608
  -2   1   628334.94  753.17   1-0.05979-0.30625 0.23303 0.55312-0.97062-0.77476
   2   1  -628137.02  710.42   1-0.71117-0.54724 0.29100-0.07960-0.63995-0.83317
   2  -1  -628922.66  690.82   1-0.67119-0.42426 0.22984-0.08949-0.70475-0.90110
  -2  -1   629613.03  858.94   1-0.79803-0.96279-0.60055-0.22968-0.04978 0.14239
   2  -1  -629819.46  689.68   1-0.75859-0.51057-0.51656-0.83580 0.39710 0.20185
   2   1  -628309.82  677.19   1-0.60776-0.44287-0.36667-0.73675 0.70439 0.51094
  -2   1   627394.25  718.85   1 0.07791-0.16940-0.69447-0.37525 0.71528 0.91130
  -2  -1   630311.42  854.88   1 0.07216-0.09238-0.63857-0.26819 0.76616 0.95892
   2  -1  -5237794.0 2274.05   1 0.00806 0.21983 0.78514 0.52029-0.61925-0.82520
   2   1  -5243244.1 2318.33   1-0.00511 0.12359 0.70333 0.38749-0.71084-0.91355
  -2   1   5235018.1 2245.90   1-0.04505-0.25709 0.38356 0.64839-0.92241-0.71657
  -2  -1   5233650.5 2199.42   1-0.05011-0.17908 0.33422 0.65006-0.94115-0.73847
   2   1  -5227506.6 2123.22   1-0.73407-0.60453 0.33023 0.01487-0.59336-0.79644
   2  -1  -5230976.8 2095.24   1-0.69358-0.48105 0.26315-0.00108-0.67058-0.87668
  -2  -1   5247346.5 2235.56   1-0.54286-0.67258 0.06716 0.38217-0.83712-0.63369
  -2  -1   5249007.8 2487.70   1-0.80304-0.93350-0.59551-0.27987 0.02197 0.22414
   2   1  -5246563.8 2315.79   1-0.66716-0.53657-0.42198-0.73704 0.61385 0.41091
  -2   1   5240168.6 2518.89   1 0.08318-0.12958-0.74617-0.48213 0.66053 0.86646
  -2  -1   5236553.1 2322.38   1 0.07684-0.05307-0.68413-0.36881 0.72529 0.92798
   2  -1  -4  515.99   94.46   1 0.02017 0.19758 0.85031 0.64078-0.52588-0.74185
   2   1  -4  503.96  101.86   1 0.00431 0.09870 0.76299 0.50241-0.64639-0.85897
  -2   1   4  559.62  102.22   1-0.02635-0.20397 0.54750 0.75707-0.83638-0.62066
  -2  -1   4  797.91  138.56   1-0.03538-0.13003 0.47168 0.73223-0.88105-0.66851
   2   1  -4  591.96   98.13   1-0.76123-0.66595 0.38354 0.12337-0.52289-0.73571
   2  -1  -4  537.68   97.61   1-0.72354-0.54539 0.31169 0.10271-0.61590-0.83186
  -2  -1   4  584.28   94.96   1-0.62301-0.71833 0.16417 0.42399-0.76478-0.55156
  -2   1   4  556.81   99.60   1-0.55847-0.73678 0.08511 0.29374-0.82514-0.60898
  -2  -1   4  545.00  121.48   1-0.80406-0.90014-0.59009-0.32964 0.07255 0.28474
   2  -1  -4  641.53  103.29   1-0.79961-0.62047-0.57413-0.78325 0.17604-0.03900
   2   1  -4  628.83   97.47   1-0.70865-0.61244-0.46282-0.72286 0.53254 0.31997
  -2   1   4  577.83  122.80   1 0.08979-0.08857-0.81154-0.60258 0.57734 0.79312
  -2  -1   4  602.48  116.98   1 0.08306-0.01231-0.74493-0.48478 0.66194 0.87454
   2  -1  -4  581.23  108.21   1 0.06092 0.23920-0.53016-0.73895 0.84570 0.62986
   2   1  -4  601.77  127.20   1 0.05432 0.14977-0.46701-0.72711 0.88257 0.66997
   2  -1  -346424.53  866.85   1 0.03556 0.17862 0.91847 0.76422-0.39388-0.61972
   2   1  -345367.32  902.08   1 0.01703 0.07707 0.83431 0.62904-0.55101-0.77353
  -2   1   346488.59  853.53   1-0.00361-0.14676 0.71319 0.86751-0.70096-0.47527
  -2  -1   345619.41  945.84   1-0.01750-0.07764 0.61612 0.82141-0.78745-0.56501
   2   1  -346687.53  769.77   1-0.78811-0.72716 0.45199 0.24701-0.41783-0.64047
   2  -1  -344901.50  725.09   1-0.75877-0.61491 0.37828 0.22450-0.53024-0.75596
  -2  -1   347969.18  793.18   1-0.70115-0.76191 0.27493 0.47978-0.65786-0.43508
  -2   1   348617.32  847.35   1-0.64012-0.78388 0.18670 0.34029-0.74523-0.51934
  -2   1   348366.62 1025.72   1-0.75093-0.89561-0.59450-0.44042-0.28751-0.06245
   2  -1  -350241.30  878.73   1-0.80382-0.65908-0.58697-0.74102 0.09660-0.12842
  -2  -1   348522.71  901.51   1-0.80365-0.86535-0.58598-0.38071 0.10371 0.32591
   2   1  -349205.69  860.79   1-0.73689-0.67507-0.49232-0.69730 0.46325 0.24090
  -2   1   346726.71 1055.77   1 0.09713-0.04701-0.88549-0.73182 0.45438 0.67987
  -2  -1   346833.41  967.64   1 0.09058 0.02962-0.81944-0.61439 0.56595 0.78844
   2  -1  -345062.21  921.31   1 0.07683 0.22051-0.68396-0.83764 0.72545 0.49971
   2   1  -345665.18 1007.43   1 0.06888 0.12978-0.60687-0.81183 0.79180 0.56928
   2  -1  -250164.53  917.81   1 0.05325 0.16197 0.97383 0.87482-0.22091-0.45655
   2   1  -250471.76  917.45   1 0.03301 0.05871 0.90837 0.75834-0.41685-0.64919
  -2   1   250054.25 1028.84   1 0.02162-0.08714 0.85746 0.95648-0.51409-0.27848
  -2  -1   251734.58  984.83   1 0.00321-0.02256 0.75634 0.90638-0.65416-0.42185
   2   1  -248002.86  887.34   1-0.80372-0.77743 0.53116 0.38099-0.26812-0.50044
   2  -1  -246698.58  832.22   1-0.79158-0.68208 0.46357 0.36501-0.39811-0.63365
  -2  -1   249242.64  892.26   1-0.76624-0.79270 0.39461 0.54427-0.50710-0.27454
  -2   1   250853.45  826.35   1-0.71917-0.82853 0.30427 0.40275-0.62465-0.38899
  -2   1   248475.68 1030.46   1-0.75654-0.86684-0.59634-0.49745-0.26835-0.03329
   2  -1  -252449.00 1002.45   1-0.80355-0.69320-0.59408-0.69294 0.03682-0.19822
  -2  -1   250684.10  886.80   1-0.80325-0.83058-0.58411-0.43413 0.11654 0.34878
   2   1  -248064.91  861.32   1-0.75542-0.72802-0.51290-0.66272 0.40776 0.17544
  -2   1   248115.23  961.23   1 0.10358-0.00616-0.95336-0.85481 0.28349 0.51889
   2  -1  -251757.56 1062.60   1 0.09147 0.20074-0.82833-0.92690 0.55270 0.31710
   2   1  -246645.03 1134.17   1 0.08342 0.10972-0.74853-0.89831 0.65783 0.42542
   2  -1  -1216939.5 2348.35   1 0.07096 0.14534 0.99730 0.95355-0.01839-0.26382
   2   1  -1206677.5 2268.56   1 0.05126 0.04261 0.96901 0.87416-0.24164-0.48375
  -2   1   1212281.2 2296.08   1 0.04606-0.02831 0.95463 0.99840-0.29419-0.04875
  -2  -1   1209462.1 2204.96   1 0.02535 0.03399 0.87513 0.96991-0.48321-0.24106
   2   1  -1218017.9 2081.31   1-0.79077-0.79893 0.60785 0.51280-0.07202-0.31422
   2  -1  -1215066.7 2164.62   1-0.80348-0.72865 0.55839 0.51465-0.20644-0.45188
  -2   1   1215130.7 2088.15   1-0.78078-0.85585 0.43051 0.47382-0.45280-0.20737
  -2   1   1201432.8 2191.09   1-0.75709-0.83302-0.59652-0.55282-0.26641-0.02133
   2  -1  -1220038.3 2356.32   1-0.80173-0.72579-0.59767-0.64136-0.00364-0.24872
  -2  -1   1210640.1 2146.68   1-0.80339-0.79633-0.58472-0.48992 0.11247 0.35471
   2   1  -1213378.3 2045.59   1-0.76670-0.77372-0.52619-0.62094 0.36781 0.12558
  -2  -1   1212107.0 2258.08   1 0.10475 0.11237-0.96639-0.87168 0.23473 0.47700
   2  -1  -1220583.3 2425.40   1 0.10205 0.17724-0.93674-0.98009 0.33479 0.08945
   2   1  -1219513.7 2557.59   1 0.09594 0.08812-0.87335-0.96793 0.47754 0.23522
   2  -1   0182975.8 2134.27   1 0.08593 0.12586 0.97832 0.98979 0.18840-0.06683
   2   1   0183096.0 2269.83   1 0.06954 0.02654 0.99692 0.95727-0.03604-0.28794
  -2   1   0187177.8 2039.78   1 0.06623 0.02624 0.99490 0.98345-0.07598 0.17924
  -2  -1   0182308.2 2111.10   1 0.04640 0.08939 0.95564 0.99523-0.29083-0.03889
   2  -1   0195557.2 1958.84   1-0.76834-0.72809 0.63887 0.65029 0.03856-0.21677
  -2   1   0189902.3 1778.29   1-0.80403-0.84437 0.54689 0.53530-0.23332 0.02206
  -2   1   0180831.5 2084.53   1-0.75296-0.79452-0.59519-0.60668-0.28068-0.02559
   2  -1   0180750.8 1962.99   1-0.80014-0.75858-0.59923-0.58774-0.02616-0.28126
  -2  -1   0189146.9 2042.56   1-0.80390-0.76244-0.58760-0.54790 0.09195 0.34420
   2   1   0184441.2 1951.15   1-0.77282-0.81424-0.53375-0.57332 0.34328 0.09106
  -2  -1   0181323.2 1983.01   1 0.10663 0.14882-0.99428-0.95474 0.00530 0.25751
   2  -1   0192850.2 2244.61   1 0.10653 0.14720-0.98900-0.97725 0.10258-0.15267
   2   1   0186090.0 2233.41   1 0.10405 0.06187-0.95848-0.99799 0.26548 0.01326
   2  -1   1188719.1 2144.49   1 0.09657 0.10225 0.92205 0.98868 0.37481 0.10971
   2   1   1192691.2 2194.77   1 0.08510 0.00767 0.98074 0.99627 0.17576-0.08592
  -2   1  -1183763.5 2034.39   1 0.08061 0.07512 0.99067 0.92401 0.10987 0.37490
  -2  -1  -1191750.3 2108.58   1 0.06396 0.14135 0.99265 0.97710-0.10267 0.15903
   2   1   1195997.9 2156.94   1-0.63484-0.71200 0.67822 0.69380 0.37011 0.10814
   2  -1   1202524.9 2045.71   1-0.67345-0.66767 0.67695 0.74377 0.29697 0.03177
  -2  -1  -1200659.5 1954.98   1-0.74628-0.66902 0.65544 0.63993 0.11601 0.37800
  -2   1  -1195459.6 1932.44   1-0.77728-0.78304 0.62914 0.56236 0.00039 0.26569
  -2   1  -1203044.6 2381.89   1-0.74387-0.75105-0.59201-0.65870-0.31011-0.04501
   2  -1   1181747.4 2079.74   1-0.79971-0.79252-0.59956-0.53287-0.03145-0.29655
  -2  -1  -1187599.8 2085.95   1-0.80394-0.72810-0.59215-0.60763 0.05496 0.31723
   2   1   1197343.6 1962.39   1-0.77484-0.85065-0.53630-0.52070 0.33466 0.07245
   2  -1   1185843.4 2183.16   1 0.10550 0.11163-0.98874-0.92178-0.10607-0.37127
   2   1   1196485.3 2313.05   1 0.10671 0.02998-0.99291-0.97725 0.05219-0.20995
   2   1   2283918.9 2590.13   1 0.09628-0.01540 0.92445 0.99513 0.36892 0.09730
  -2   1  -2263770.3 2144.36   1 0.08987 0.11878 0.96358 0.84172 0.25186 0.52668
  -2  -1  -2272003.5 2295.47   1 0.07697 0.18885 0.99525 0.92453 0.05954 0.33100
  -2  -1  -2288287.6 1941.91   1-0.67828-0.56655 0.67643 0.60553 0.28701 0.55887
  -2   1  -2290042.9 2052.05   1-0.71403-0.68525 0.66921 0.54706 0.20569 0.48078
   2  -1   2271227.7 2298.29   1-0.80059-0.82779-0.59885-0.47697-0.02027-0.29539
  -2  -1  -2287130.0 2181.11   1-0.80207-0.69184-0.59722-0.66789 0.00206 0.27434
   2   1   2286113.5 2060.85   1-0.77318-0.88340-0.53420-0.46342 0.34177 0.06958
   2  -1   3 1634.06  204.55   1 0.10600 0.04289 0.75306 0.93014 0.64934 0.36467
   2   1   3 1571.91  173.80   1 0.10300-0.04313 0.84172 0.96765 0.52998 0.24857
  -2   1  -3 1502.24  172.07   1 0.09548 0.15868 0.93070 0.75367 0.35308 0.63780
  -2  -1  -3 1536.38  167.85   1 0.08581 0.23209 0.97867 0.85275 0.18665 0.46790
  -2  -1  -3 1539.82  147.25   1-0.60970-0.46340 0.67676 0.55054 0.41261 0.69437
  -2   1  -3 1622.10  160.93   1-0.64051-0.57716 0.67832 0.50085 0.36002 0.64499
  -2  -1  -3 1570.37  181.92   1-0.79627-0.65166-0.60127-0.72713-0.06639 0.21589
   2  -1   3 1582.58  161.64   1-0.80233-0.86389-0.59684-0.41976 0.00676-0.27835
   2   1   3 1495.48  144.13   1-0.76762-0.91223-0.52731-0.40135 0.36427 0.08208
   2  -1   4 1753.51  177.47   1 0.10670 0.00905 0.66197 0.89421 0.74188 0.44755
   2   1   4 1697.93  181.04   1 0.10611-0.07435 0.74677 0.92789 0.65654 0.36534
  -2   1  -4 1549.77  162.77   1 0.09881 0.19645 0.90091 0.66868 0.42260 0.71712
  -2  -1  -4 1364.31  155.65   1 0.09149 0.27220 0.95576 0.77470 0.27952 0.57074
  -2  -1  -4 1565.24  173.60   1-0.78400-0.60501-0.60234-0.78340-0.15003 0.14226
   2  -1   4 1685.12  176.18   1-0.80385-0.89980-0.59276-0.36050 0.04940-0.24573
   2   1   4 1503.15  156.94   1-0.75713-0.93624-0.51487-0.33370 0.40206 0.10998
   2  -1   4 1530.80  159.80   1 0.07413-0.02423 0.65776 0.88990 0.74956 0.45549
   2  -1   5 3802.64  263.95   1 0.10584-0.02625 0.57331 0.86073 0.81247 0.50838
   2   1   5 4227.54  282.57   1 0.10666-0.10834 0.64889 0.88513 0.75336 0.45254
  -2  -1  -5 3325.63  248.51   1 0.09506 0.31021 0.93382 0.69756 0.34486 0.64588
  -2  -1  -5 3989.81  277.82   1-0.76208-0.54871-0.59801-0.83425-0.24822 0.05409
   2  -1   5 3919.84  263.94   1-0.80355-0.93388-0.58544-0.29798 0.10751-0.19763
   2   1   5 3752.67  271.41   1-0.74014-0.95367-0.49585-0.25951 0.45422 0.15217
   2  -1   5 3832.33  268.67   1 0.06451-0.06837 0.56469 0.85199 0.82277 0.51907
   2   1   5 3994.78  274.96   1 0.07186-0.14381 0.63574 0.87182 0.76854 0.46823
   2  -1   639579.64  820.77   1 0.10394-0.06260 0.48857 0.83118 0.86630 0.55246
   2   1   640159.95  829.51   1 0.10548-0.14398 0.55306 0.84448 0.82643 0.51586
   2  -1   633686.28  769.72   1-0.79912-0.96389-0.57309-0.23038 0.18154-0.13349
   2   1   634516.14  751.35   1-0.71381-0.96183-0.46808-0.17651 0.52091 0.20909
  -2   1  -640696.61  726.32   1-0.07119 0.09349-0.48017-0.82316-0.87427-0.56004
  -2  -1  -641260.83  767.66   1-0.05269 0.19502-0.52997-0.82196-0.84637-0.53510
   2  -1   639104.43  781.01   1 0.05516-0.11223 0.47504 0.81749 0.87823 0.56489
   2   1   637973.18  796.75   1 0.06119-0.18900 0.53280 0.82403 0.84402 0.53408
  -2   1  -7158572.5 2715.29   1-0.10140 0.09806-0.40960-0.80739-0.90661-0.58180
  -2  -1  -7147630.3 2522.30   1-0.10320 0.17927-0.46321-0.80991-0.88021-0.55847
  -2   1  -7142077.6 2393.52   1-0.03207 0.16764-0.38419-0.78305-0.92269-0.59892
   2   1   7138483.6 2577.99   1-0.67365-0.95629-0.42822-0.08131 0.60234 0.28085
  -2   1  -7163548.7 2692.51   1-0.09691 0.10207-0.40681-0.80507-0.90835-0.58432
  -2  -1  -7149496.8 2417.71   1-0.08153 0.20048-0.45128-0.79853-0.88864-0.56758
   2   1   7150804.9 2614.34   1 0.05087-0.23384 0.43403 0.78041 0.89946 0.57988
  -2   1  -812446.05  454.90   1-0.09830 0.13550-0.33309-0.78610-0.93775-0.60304
  -2  -1  -812353.86  462.94   1-0.10012 0.21670-0.37627-0.77820-0.92108-0.58943
  -2   1  -812145.14  412.66   1-0.10419 0.12990-0.33236-0.78644-0.93737-0.60384
  -2  -1  -811897.91  450.68   1-0.06990 0.24717-0.35742-0.76035-0.93132-0.60064
   2   1   811428.15  462.14   1-0.61197-0.92934-0.37050 0.03178 0.69871 0.36785
  -2   1  -813029.54  400.89   1-0.11932 0.11396-0.33873-0.79224-0.93328-0.59946
  -2  -1  -811688.77  409.36   1-0.10652 0.20978-0.37810-0.78061-0.91961-0.58875
  -2   1  -934172.00  819.97   1-0.09482 0.17333-0.25992-0.76814-0.96096-0.61636
  -2  -1  -932496.48  767.45   1-0.09648 0.25468-0.29361-0.75076-0.95104-0.60949
  -2   1  -930547.13  784.79   1-0.16792 0.10054-0.28377-0.79307-0.94407-0.60077
  -2  -1  -934241.87  734.91   1-0.13282 0.21863-0.31086-0.76901-0.94112-0.60068
  -2   1  -930018.52 1039.17   1-0.24177 0.02534-0.31031-0.81898-0.91937-0.57325
  -2   1 -10   48.20  111.42   1-0.09103 0.21147-0.18952-0.75296-0.97764-0.62314
  -2  -1 -10   77.36   90.14   1-0.09243 0.29308-0.21469-0.72706-0.97229-0.62086
  -2   1 -10   31.45   99.72   1-0.22514 0.07770-0.23782-0.80233-0.94485-0.59178
  -2  -1 -10   90.99   85.43   1-0.18998 0.19583-0.26631-0.77968-0.94497-0.59476
  -2   1 -1110299.12  511.83   1-0.08697 0.24952-0.12152-0.74026-0.98877-0.62429
  -2  -1 -1110032.65  465.31   1-0.08805 0.33149-0.13906-0.70677-0.98636-0.62497
  -2   1 -1111176.48  446.87   1-0.27730 0.06006-0.19390-0.81375-0.94101-0.57810
  -2  -1 -1110577.35  408.00   1-0.24259 0.17774-0.22334-0.79203-0.94406-0.58401
  -2   1 -12 7163.72  414.10   1-0.08265 0.28814-0.05525-0.72922-0.99504-0.62064
  -2  -1 -12 7118.65  405.50   1-0.08338 0.37047-0.06597-0.68890-0.99433-0.62302
  -2   1 -12 7361.42  398.33   1-0.32530 0.04644-0.15166-0.82672-0.93336-0.56068
  -2  -1 -12 7838.04  388.84   1-0.29131 0.16340-0.18175-0.80567-0.93919-0.56937
  -2   1 -13 7294.09  399.17   1-0.07808 0.32703 0.00976-0.71959-0.99689-0.61255
  -2  -1 -13 7039.00  367.67   1-0.07841 0.40976 0.00525-0.67308-0.99690-0.61566
  -2   1 -13 7739.46  367.76   1-0.36993 0.03635-0.11069-0.84103-0.92243-0.53975
  -2  -1 -13 8477.85  394.21   1-0.33686 0.15239-0.14121-0.82040-0.93090-0.55110
   2   2 -1355752.50 1108.72   1-0.01965 0.34212 0.59994-0.18354-0.79980-0.92155
   2   2 -1354365.44 1058.92   1-0.69603-0.33286 0.26693-0.51600-0.66654-0.78926
   2  -2 -1360746.54  929.93   1-0.64646-0.11731 0.19525-0.48526-0.73753-0.86646
  -2   2  1352779.87 1223.94   1 0.07287-0.45775-0.64550 0.03390 0.76027 0.88843
  -2  -2  1354289.77 1343.81   1 0.06620-0.29875-0.58098 0.20105 0.81121 0.93291
   2  -2 -12 7320.32  427.25   1-0.00885 0.48463 0.67806 0.05181-0.73495-0.87317
   2   2 -12 7663.45  410.51   1-0.02141 0.30604 0.58640-0.14180-0.80973-0.94139
   2   2 -12 8387.83  348.11   1-0.69176-0.36298 0.26035-0.46732-0.67355-0.80613
   2  -2 -12 8385.77  333.91   1-0.63843-0.14367 0.18444-0.44082-0.74724-0.88601
  -2   2  12 6013.68  670.16   1 0.07200-0.42407-0.63704-0.01278 0.76745 0.90553
  -2  -2  12 7902.62  446.96   1 0.06499-0.26541-0.56930 0.15758 0.81955 0.95116
   2  -2 -11  440.37  102.53   1-0.00952 0.44966 0.67343 0.10246-0.73918-0.88730
   2   2 -11  608.03  120.16   1-0.02261 0.27054 0.57710-0.09583-0.81635-0.95792
   2   2 -11  509.11  130.46   1-0.68968-0.39528 0.25718-0.41525-0.67690-0.81933
   2  -2 -11  548.99  108.04   1-0.63241-0.17185 0.17646-0.39336-0.75426-0.90317
  -2   2  11  532.25  143.73   1 0.07161-0.38991-0.63327-0.06415 0.77060 0.91861
  -2  -2  11  843.42  154.20   1 0.06418-0.23168-0.56149 0.11025 0.82498 0.96652
   2  -2 -10 6838.17  332.80   1-0.00923 0.41564 0.67541 0.15970-0.73738-0.89539
   2   2 -10 6401.63  372.14   1-0.02315 0.23569 0.57288-0.04479-0.81931-0.97079
   2   2 -10 7405.45  349.49   1-0.69029-0.43030 0.25812-0.35905-0.67591-0.82820
   2  -2 -10 7079.89  320.79   1-0.62868-0.20251 0.17155-0.34302-0.75850-0.91723
  -2   2  10 4800.08  371.67   1 0.07181-0.35517-0.63522-0.12124 0.76898 0.92690
  -2  -2  10 6331.33  365.20   1 0.06385-0.19745-0.55838 0.05822 0.82712 0.97858
   2  -2  -9 5892.42  335.37   1-0.00777 0.38279 0.68541 0.22497-0.72811-0.89602
   2   2  -9 5602.54  326.68   1-0.02291 0.20163 0.57477 0.01236-0.81799-0.97938
   2   2  -9 5842.93  304.50   1-0.69422-0.46861 0.26412-0.29780-0.66955-0.83169
   2  -2  -9 5537.57  283.01   1-0.62799-0.23622 0.17064-0.28868-0.75928-0.92782
  -2  -2   9 5914.68  418.16   1-0.77171-0.99806-0.60046-0.03840-0.20954-0.04881
   2  -2  -9 5192.22  329.30   1-0.57508-0.18252-0.33733-0.79604 0.74530 0.57705
   2   2  -9 5237.62  357.30   1-0.16660 0.06005-0.00363-0.56483 0.98601 0.82301
  -2   2   9 4684.33  495.04   1-0.26713-0.65905-0.32740 0.13313-0.90633-0.74021
  -2   2   9 6473.08  394.22   1 0.07274-0.31969-0.64423-0.18539 0.76135 0.92920
  -2  -2   9 6355.61  375.37   1 0.06413-0.16263-0.56102 0.00043 0.82530 0.98668
   2  -2  -8  939.80  135.06   1-0.00480 0.35141 0.70538 0.30022-0.70880-0.88677
   2   2  -8  791.69  128.27   1-0.02171 0.16852 0.58411 0.07697-0.81138-0.98268
   2   2  -8  831.35  113.92   1-0.70209-0.51088 0.27641-0.23026-0.65623-0.82823
   2  -2  -8  980.97  117.75   1-0.63115-0.27378 0.17479-0.22928-0.75570-0.93405
  -2  -2   8  868.71  133.14   1-0.79718-0.98917-0.60093-0.09407-0.05807 0.11266
   2  -2  -8  771.88  117.45   1-0.70841-0.35012-0.46258-0.86640 0.53307 0.35602
   2   2  -8  721.91  138.23   1-0.31920-0.12684-0.12297-0.62887 0.93967 0.76709
  -2   2   8  836.98  152.61   1 0.07456-0.28332-0.66194-0.25825 0.74583 0.92359
  -2  -2   8  995.45  164.46   1 0.06514-0.12707-0.57080-0.06448 0.81849 0.98979
   2  -2  -715145.92  485.08   1 0.00002 0.32193 0.73657 0.38667-0.67635-0.86419
   2   2  -714931.63  513.76   1-0.01931 0.13662 0.60249 0.15062-0.79789-0.97910
  -2   2   712651.63  538.57   1-0.07179-0.39423 0.09224 0.44210-0.99314-0.80567
   2   2  -713773.01  438.62   1-0.71456-0.55774 0.29657-0.15484-0.63358-0.81544
   2  -2  -714650.69  481.02   1-0.63912-0.31631 0.18537-0.16365-0.74642-0.93443
  -2  -2   714464.92  644.49   1-0.80394-0.96165-0.59217-0.14054 0.05479 0.23552
   2  -2  -715144.70  591.27   1-0.76976-0.44591-0.52993-0.87890 0.35586 0.16936
   2   2  -713683.75  445.32   1-0.43334-0.27543-0.21590-0.66665 0.87498 0.69260
  -2   2   714245.53  567.43   1 0.07747-0.24581-0.69020-0.34145 0.71945 0.90718
  -2  -2   714582.43  521.84   1 0.06708-0.09059-0.58943-0.13825 0.80502 0.98624
   2  -2  -654354.29  986.06   1 0.00727 0.29488 0.78055 0.48592-0.62504-0.82275
   2   2  -655708.72  988.92   1-0.01537 0.10615 0.63179 0.23520-0.77498-0.96613
  -2   2   654517.94 1089.45   1-0.05935-0.34725 0.23782 0.53238-0.96949-0.77199
   2   2  -653807.03  888.71   1-0.73200-0.60957 0.32652-0.06964-0.59795-0.78966
   2  -2  -657715.24  949.24   1-0.65329-0.36487 0.20461-0.08916-0.72892-0.92677
  -2  -2   650208.87 1215.53   1-0.80217-0.92555-0.58045-0.18411 0.13998 0.33082
   2  -2  -652781.43 1104.95   1-0.79648-0.50705-0.56796-0.86184 0.20742 0.01096
   2   2  -654454.38 1013.19   1-0.51974-0.39629-0.28893-0.68456 0.80397 0.61181
  -2   2   656342.60 1081.87   1 0.08164-0.20709-0.73105-0.43747 0.67742 0.87505
  -2  -2   653607.28 1040.99   1 0.07014-0.05298-0.61901-0.22297 0.78224 0.97338
   2  -2  -5 1782.25  175.18   1 0.01758 0.27083 0.83718 0.59789-0.54663-0.75442
   2   2  -5 1470.96  147.39   1-0.00947 0.07774 0.67379 0.33246-0.73886-0.93990
  -2   2   5 1737.91  188.52   1-0.04300-0.29658 0.40287 0.64220-0.91424-0.70683
  -2  -2   5 1563.44  175.37   1-0.05295-0.14040 0.30550 0.64683-0.95071-0.74959
   2   2  -5 1380.61  130.55   1-0.75383-0.66564 0.36801 0.02703-0.54433-0.74578
   2  -2  -5 1725.10  156.01   1-0.67489-0.42086 0.23521-0.00331-0.69942-0.90711
  -2  -2   5 1741.63  174.64   1-0.56778-0.65601 0.09602 0.43666-0.81755-0.61560
   2  -2  -5 1863.64  181.37   1-0.80398-0.54896-0.58835-0.82716 0.08627-0.12013
  -2  -2   5 1699.91  176.87   1-0.79695-0.88594-0.56883-0.22768 0.20321 0.40405
   2   2  -5 1668.68  152.42   1-0.58482-0.49582-0.34600-0.68654 0.73365 0.53180
  -2   2   5 1616.12  179.59   1 0.08717-0.16701-0.78550-0.54710 0.61268 0.82022
  -2  -2   5 1684.17  181.53   1 0.07455-0.01402-0.66183-0.32093 0.74593 0.94699
   2  -2  -423188.80  619.15   1 0.03115 0.25007 0.90071 0.71673-0.43328-0.65096
   2   2  -421661.36  630.45   1-0.00105 0.05180 0.72972 0.44365-0.68374-0.89469
  -2   2   422330.07  598.16   1-0.02193-0.24110 0.58241 0.76649-0.81259-0.59528
  -2  -2   422917.39  642.37   1-0.03989-0.09302 0.43154 0.71762-0.90120-0.69018
   2   2  -421639.71  518.88   1-0.77793-0.72404 0.42290 0.13709-0.46473-0.67599
   2  -2  -422600.20  593.64   1-0.70478-0.48514 0.28067 0.09725-0.65153-0.86900
  -2  -2   423055.94  563.08   1-0.64789-0.70155 0.19720 0.48272-0.73576-0.52420
  -2   2   424791.14  659.14   1-0.51857-0.73842 0.03996 0.22287-0.85409-0.63643
   2  -2  -423487.88  634.40   1-0.80129-0.58071-0.59817-0.78184-0.01045-0.22691
  -2  -2   422013.77  556.01   1-0.79134-0.84601-0.55932-0.27342 0.24684 0.45771
   2   2  -423379.14  600.16   1-0.63325-0.57853-0.39004-0.67556 0.66847 0.45706
  -2   2   423200.36  693.19   1 0.09378-0.12600-0.85153-0.66821 0.51583 0.73321
  -2  -2   421945.41  672.11   1 0.08049 0.02653-0.71973-0.43394 0.68956 0.90054
   2  -2  -422405.22  754.71   1 0.06357 0.28327-0.55564-0.73876 0.82898 0.61153
   2  -2  -3180313.2 1734.33   1 0.04758 0.23218 0.95909 0.83038-0.27904-0.50651
   2   2  -3174840.7 1813.00   1 0.01042 0.02894 0.79862 0.56785-0.60173-0.82262
  -2   2   3170976.4 1613.41   1 0.00351-0.18116 0.75818 0.88701-0.65202-0.42471
  -2  -2   3171707.4 1581.33   1-0.02412-0.04283 0.56526 0.79606-0.82455-0.60369
   2   2  -3168028.2 2084.47   1-0.79814-0.77889 0.49009 0.25900-0.35038-0.57117
   2  -2  -3171933.9 1457.03   1-0.74209-0.55673 0.34504 0.21683-0.57466-0.80188
  -2  -2   3172238.8 1600.26   1-0.72275-0.74200 0.31034 0.54075-0.61750-0.39623
  -2   2   3178367.2 1708.71   1-0.59931-0.78470 0.13414 0.26200-0.78919-0.56176
   2  -2  -3172536.5 1803.84   1-0.79402-0.60781-0.60188-0.73036-0.08517-0.31165
  -2  -2   3181859.6 1711.22   1-0.78709-0.80736-0.55290-0.32218 0.27347 0.49433
  -2   2   3159058.6 2326.59   1 0.10056-0.08516-0.92097-0.79288 0.37641 0.60339
  -2  -2   3173596.2 1843.81   1 0.08787 0.06833-0.79242-0.56172 0.60360 0.82449
   2  -2  -3176388.2 2118.46   1 0.08011 0.26521-0.71596-0.84400 0.69351 0.46616
   2  -2  -2  836.36  128.45   1 0.06516 0.21542 0.99393 0.92052-0.08861-0.32591
  -2   2   2 1076.55  138.74   1 0.03078-0.11946 0.89914 0.97263-0.43657-0.19929
   2   2  -2  926.36  140.12   1 0.02520 0.00938 0.87446 0.69893-0.48443-0.71512
  -2  -2   2  913.11  122.63   1-0.00568 0.01007 0.69954 0.87508-0.71456-0.48387
   2   2  -2  841.80  122.67   1-0.80298-0.81816 0.56360 0.38779-0.19382-0.42453
  -2  -2   2  885.85  108.92   1-0.77986-0.76489 0.42801 0.60330-0.45674-0.22573
   2  -2  -2  960.17  114.57   1-0.78092-0.62993 0.43089 0.35791-0.45219-0.68925
  -2   2   2  938.36  120.46   1-0.68277-0.83364 0.24680 0.31958-0.68767-0.45043
   2  -2  -2 1191.13  154.25   1-0.78586-0.63403-0.60245-0.67573-0.13952-0.37601
  -2  -2   2  891.05  107.75   1-0.78525-0.77112-0.55026-0.37471 0.28388 0.51473
   2   2  -2  838.01  106.73   1-0.69350-0.70759-0.44763-0.62297 0.56451 0.33348
  -2   2   2  975.37  148.03   1 0.10557-0.04562-0.97608-0.90312 0.19004 0.42693
  -2  -2   2 1306.52  160.65   1 0.09603 0.11070-0.87425-0.69881 0.47587 0.70668
   2  -2  -2  956.42  165.93   1 0.09458 0.24558-0.85959-0.93240 0.50215 0.26515
   2  -2  -1108132.8 1499.18   1 0.08109 0.19690 0.98986 0.97169 0.11662-0.13051
  -2   2   1105392.5 1432.71   1 0.05544-0.06042 0.97869 0.99694-0.19769 0.04942
   2   2  -1104905.2 1509.47   1 0.04281-0.00733 0.94440 0.82406-0.32598-0.56645
  -2  -2   1104729.4 1398.88   1 0.01466 0.06478 0.82183 0.94210-0.56953-0.32901
  -2  -2   1100850.0 1308.18   1-0.80393-0.75425 0.53595 0.65635-0.25774-0.01706
   2  -2  -1110006.3 1291.07   1-0.80377-0.68743 0.53214 0.51401-0.26601-0.51305
  -2   2   1110140.0 1371.45   1-0.75691-0.87345 0.37437 0.39208-0.53565-0.28869
   2  -2  -1107228.7 1566.94   1-0.77917-0.66171-0.60182-0.61991-0.17521-0.42171
   2   2  -1101307.0 1318.38   1-0.70991-0.75843-0.46410-0.58428 0.52974 0.28878
  -2   2   1102743.1 1396.96   1 0.10642-0.01021-0.99387-0.97606-0.02963 0.21721
  -2  -2   1100033.1 1391.29   1 0.10319 0.15227-0.94905-0.82873 0.29774 0.53852
   2  -2  -198929.01 1412.92   1 0.10394 0.22059-0.95734-0.97509 0.26959 0.02274
   2   2  -1106315.2 1589.93   1 0.09158 0.04201-0.82937-0.94967 0.55113 0.31042
   2  -2   052161.06  991.18   1 0.09320 0.17468 0.94615 0.98319 0.31001 0.05303
  -2   2   052699.52  980.47   1 0.07422-0.00716 0.99697 0.95994 0.02318 0.28011
   2   2   051593.43 1025.59   1 0.06153-0.02298 0.98953 0.92438-0.13051-0.38077
  -2  -2   052035.99  965.45   1 0.03511 0.11960 0.91674 0.98178-0.39793-0.14762
   2   2   048499.37  927.96   1-0.71155-0.79561 0.66993 0.60456 0.21184-0.03863
   2  -2   052682.51  884.39   1-0.78031-0.69855 0.62523 0.66229-0.01390-0.27090
  -2  -2   056518.64  902.70   1-0.78618-0.70201 0.61638 0.68172-0.04451 0.20598
  -2   2   055297.75  885.33   1-0.80049-0.88235 0.50261 0.46541-0.32647-0.06949
  -2  -2   054348.79  942.23   1-0.78961-0.70670-0.55666-0.49147 0.25812 0.50894
   2   2   055856.67  919.17   1-0.71929-0.80223-0.47373-0.53874 0.50812 0.25724
   2  -2   053143.25 1081.04   1 0.10671 0.18881-0.99372-0.95632 0.03364-0.22314
  -2  -2   053359.37 1009.37   1 0.10666 0.19029-0.99150-0.92631 0.07447 0.32515
   2   2   055002.54 1154.07   1 0.10134 0.01771-0.92925-0.99436 0.35527 0.10455
   2  -2   122592.15  685.58   1 0.10097 0.14810 0.87477 0.96703 0.47389 0.20715
  -2   2  -125233.34  694.18   1 0.08663 0.03965 0.97608 0.88385 0.19937 0.46608
   2   2   124476.89  796.40   1 0.07869-0.04024 0.99343 0.98339 0.08301-0.17698
  -2  -2  -124327.73  633.68   1 0.05343 0.17231 0.97425 0.98418-0.21901 0.04106
   2   2   124013.66  653.61   1-0.61139-0.73002 0.67691 0.66687 0.40985 0.14948
   2  -2   125866.74  630.13   1-0.68832-0.64106 0.67503 0.76748 0.26559-0.00121
  -2  -2  -126872.64  630.91   1-0.73434-0.61571 0.66162 0.67166 0.15165 0.41202
  -2   2  -126067.96  592.05   1-0.79269-0.83993 0.60365 0.51127-0.08498 0.18193
   2  -2   125452.08  711.62   1-0.77476-0.72605-0.60108-0.50879-0.19604-0.46257
  -2  -2  -125736.61  629.15   1-0.79470-0.67735-0.56482-0.55478 0.22229 0.48313
   2   2   123608.06  600.22   1-0.72259-0.83995-0.47715-0.48701 0.50018 0.23937
  -2  -2  -125645.87  663.41   1 0.10431 0.22247-0.98041-0.97043-0.16704 0.09356
   2  -2   123221.46  680.65   1 0.10429 0.15185-0.98024-0.88764-0.16804-0.43477
   2   2   123827.72  681.66   1 0.10615-0.01199-0.98345-0.99342 0.14677-0.11387
   2  -2   2 7459.65  353.67   1 0.10510 0.11789 0.78999 0.93746 0.60403 0.32752
  -2   2  -2 6783.42  353.13   1 0.09415 0.08156 0.94013 0.79270 0.32753 0.60412
   2   2   2 7250.72  401.62   1 0.09204-0.06123 0.95284 0.99793 0.28917 0.01923
  -2  -2  -2 7470.07  372.99   1 0.06807 0.22133 0.99621 0.95100-0.05399 0.21584
  -2   2  -2 7967.01  344.50   1-0.73827-0.75088 0.65975 0.51207 0.14027 0.41707
   2  -2   2 6915.76  373.50   1-0.77753-0.76319-0.60157-0.45409-0.18317-0.45971
  -2  -2  -2 7234.64  339.45   1-0.80005-0.64831-0.57511-0.62025 0.17072 0.44156
   2   2   2 7022.40  301.67   1-0.72017-0.87195-0.47464-0.42933 0.50603 0.23530
   2   2   2 6617.23  340.88   1 0.10629-0.04640-0.99336-0.94813-0.04390-0.31446
   2  -2   397432.01 1459.65   1 0.10663 0.08488 0.70174 0.90438 0.70439 0.41817
   2   2   394190.85 1353.52   1 0.10074-0.08686 0.87791 0.97825 0.46810 0.18834
  -2   2  -394020.60 1307.91   1 0.09853 0.12027 0.90385 0.70124 0.41634 0.70270
  -2  -2  -393586.41 1294.18   1 0.07868 0.26645 0.99344 0.89310 0.08286 0.36243
  -2   2  -398048.13 1258.19   1-0.66451-0.64264 0.67768 0.47459 0.31488 0.60147
   2  -2   393168.67 1358.90   1-0.78298-0.80302-0.60226-0.39958-0.15557-0.44212
  -2  -2  -393269.64 1186.18   1-0.80366-0.61753-0.58603-0.68627 0.10339 0.38428
   2   2   395840.37 1222.37   1-0.71179-0.89800-0.46602-0.36555 0.52551 0.24485
   2  -2   460276.39 1078.17   1 0.10641 0.05021 0.61509 0.87292 0.78123 0.48526
   2   2   461121.97 1278.29   1 0.10528-0.11665 0.78386 0.93939 0.61194 0.32236
  -2   2  -456076.19 1151.55   1 0.10105 0.15724 0.87366 0.61580 0.47591 0.77204
  -2  -2  -459550.05 1121.55   1 0.08591 0.30809 0.97837 0.82283 0.18814 0.47751
   2  -2   452845.26  973.22   1-0.79008-0.84449-0.60240-0.34453-0.11345-0.41001
  -2  -2  -454938.66  977.01   1-0.80295-0.58244-0.59571-0.75114 0.01981 0.31071
   2   2   460399.99  962.99   1-0.69659-0.91722-0.45069-0.29506 0.55823 0.26765
   2  -2   461073.85 1067.91   1 0.06955 0.01257 0.61331 0.87106 0.78677 0.49100
   2  -2   513915.46  497.67   1 0.10504 0.01439 0.53207 0.84509 0.84015 0.53442
   2   2   513445.78  519.47   1 0.10670-0.14975 0.68269 0.89334 0.72286 0.42368
  -2  -2  -512406.49  479.97   1 0.09063 0.34723 0.96006 0.74932 0.26470 0.56386
  -2  -2  -511693.14  453.28   1-0.79464-0.53975-0.60174-0.81238-0.08023 0.22066
   2  -2   512332.50  471.12   1-0.79733-0.88612-0.60087-0.28780-0.05667-0.36324
   2   2   514133.83  487.53   1-0.67262-0.92784-0.42722-0.21626 0.60420 0.30387
  -2   2  -514071.41  436.77   1-0.05427 0.03461-0.52581-0.83905-0.84886-0.54294
   2  -2   513339.26  482.73   1 0.06053-0.03095 0.52650 0.83941 0.84801 0.54261
   2   2   513798.42  487.45   1 0.07520-0.18187 0.66809 0.87855 0.74027 0.44165
   2   2   6119608.5 1584.24   1 0.10598-0.18493 0.58164 0.84748 0.80650 0.49756
  -2   2  -6117217.9 1567.28   1-0.10293 0.02067-0.45437-0.82248-0.88484-0.56841
  -2  -2  -6109142.3 1609.61   1-0.77457-0.48530-0.60105-0.86688-0.19692 0.11399
   2   2   6108970.2 1477.12   1-0.63770-0.92736-0.39417-0.12805 0.66178 0.35157
  -2   2  -6121179.2 1375.24   1-0.08216 0.04101-0.44947-0.81797-0.88950-0.57378
  -2  -2  -6110489.2 1261.98   1-0.04534 0.24388-0.54908-0.81557-0.83453-0.52474
   2  -2   6124684.5 1538.75   1 0.05184-0.07416 0.44327 0.81133 0.89488 0.57985
   2   2   6117086.8 1514.89   1 0.06384-0.22774 0.55829 0.82391 0.82718 0.51893
  -2   2  -713448.57  503.23   1-0.10025 0.05770-0.37949-0.80282-0.91974-0.59341
  -2   2  -713631.96  499.17   1-0.05718 0.10105-0.36652-0.79096-0.92864-0.60345
   2  -2   711908.23  551.43   1-0.80365-0.96123-0.58596-0.16252 0.10385-0.22274
   2   2   711443.27  475.72   1-0.58642-0.91078-0.34744-0.02594 0.73170 0.41206
  -2   2  -712337.90  474.05   1-0.10612 0.05135-0.37932-0.80308-0.91915-0.59364
  -2  -2  -713385.75  443.17   1-0.07552 0.24800-0.46817-0.78991-0.88040-0.56082
   2   2   712952.75  487.58   1 0.05278-0.27332 0.45227 0.77305 0.89031 0.57243
  -2   2  -813557.09  550.00   1-0.09716 0.09513-0.30796-0.78652-0.94642-0.61018
  -2  -2  -813755.94  563.13   1-0.10080 0.25753-0.39377-0.77016-0.91366-0.58354
  -2   2  -814213.04  538.64   1-0.12940 0.06320-0.31345-0.79311-0.94074-0.60578
  -2  -2  -814928.29  567.37   1-0.05965 0.29890-0.36476-0.74211-0.92918-0.59993
   2  -2   810851.36  591.86   1-0.79608-0.98812-0.56724-0.08854 0.21090-0.12553
   2   2   811822.19  511.01   1-0.51237-0.87130-0.28259 0.09411 0.81092 0.48162
  -2  -2  -814807.71  508.35   1-0.10163 0.25618-0.39279-0.76979-0.91399-0.58461
  -2   2  -942533.82  892.55   1-0.09375 0.13289-0.23927-0.77303-0.96641-0.62028
  -2  -2  -939106.21  824.66   1-0.09707 0.29561-0.30602-0.73764-0.94705-0.60704
  -2   2  -938176.75  856.19   1-0.19269 0.03429-0.26415-0.79903-0.94503-0.60030
  -2  -2  -940109.13  784.79   1-0.12157 0.27136-0.31937-0.75194-0.93979-0.60077
  -2   2  -936776.59 1185.62   1-0.17220 0.05337-0.26260-0.79679-0.94941-0.60188
  -2   2 -1038801.82  982.93   1-0.09007 0.17091-0.17287-0.76186-0.98081-0.62478
  -2  -2 -1036993.53  918.71   1-0.09286 0.33417-0.22252-0.70935-0.97049-0.62060
  -2   2 -1037118.08 1147.55   1-0.24923 0.01227-0.21778-0.80799-0.94363-0.58906
  -2  -2 -1038305.60  910.89   1-0.17815 0.24915-0.27572-0.76350-0.94458-0.59579
  -2   2 -1129384.16  746.75   1-0.08615 0.20881-0.10846-0.75272-0.99036-0.62434
  -2  -2 -1126872.13  758.56   1-0.08828 0.37278-0.14279-0.68498-0.98580-0.62595
  -2   2 -1126197.52  708.84   1-0.30044-0.00455-0.17377-0.81919-0.93783-0.57349
  -2  -2 -1128304.30  708.30   1-0.23047 0.23136-0.23342-0.77654-0.94466-0.58604
  -2   2 -12 2239.01  218.16   1-0.08198 0.24729-0.04540-0.74489-0.99559-0.61966
  -2  -2 -12 1926.46  218.53   1-0.08338 0.41199-0.06605-0.66346-0.99432-0.62455
  -2   2 -12 1987.35  214.01   1-0.34741-0.01700-0.13157-0.83227-0.92843-0.55410
  -2  -2 -12 1883.16  203.09   1-0.27909 0.21712-0.19236-0.79069-0.94080-0.57240
  -2   2 -13 5468.05  339.89   1-0.07757 0.28600 0.01668-0.73819-0.99684-0.61095
  -2  -2 -13 4478.85  313.63   1-0.07817 0.45153 0.00849-0.64433-0.99690-0.61721
   2   3 -13 6885.82  345.95   1-0.02115 0.29908 0.58847-0.22050-0.80823-0.92839
   2   3 -13 6825.09  317.92   1-0.71088-0.38920 0.29051-0.51798-0.64050-0.76171
   2  -3 -13 7082.14  309.93   1-0.63727-0.06663 0.18289-0.47206-0.74861-0.87904
  -2   3  13 5964.39  364.80   1 0.07545-0.49659-0.67052-0.01677 0.73804 0.86782
  -2  -3  13 6156.55  381.82   1 0.06536-0.25817-0.57285 0.23483 0.81704 0.93712
   2  -3 -1266141.77 1145.79   1-0.00333 0.53164 0.71501 0.11428-0.69910-0.83921
   2   3 -1266108.04 1088.03   1-0.02291 0.26301 0.57478-0.17893-0.81798-0.94805
   2   3 -1268254.07  966.64   1-0.70770-0.42041 0.28535-0.46788-0.64632-0.77738
   2  -3 -1269372.35  982.53   1-0.62867-0.09222 0.17153-0.42795-0.75851-0.89908
  -2  -3  1272747.37 1248.86   1 0.06412-0.22486-0.56094 0.19160 0.82536 0.95536
   2  -3 -1110313.97  446.04   1-0.00370 0.49697 0.71263 0.16716-0.70152-0.85150
   2   3 -11 9462.43  434.08   1-0.02414 0.22748 0.56515-0.13329-0.82463-0.96461
   2   3 -1110744.62  411.50   1-0.70674-0.45384 0.28381-0.41418-0.64805-0.78897
   2  -3 -1110429.54  410.32   1-0.62178-0.11973 0.16257-0.38167-0.76612-0.91650
  -2   3  11 8907.22  552.37   1 0.07452-0.42842-0.66152-0.11806 0.74620 0.89583
  -2  -3  1110218.02  553.53   1 0.06327-0.19116-0.55277 0.14463 0.83092 0.97084
   2  -3 -1088177.97 1431.41   1-0.00297 0.46339 0.71737 0.22717-0.69668-0.85653
   2   3 -1086858.92 1222.87   1-0.02474 0.19257 0.56034-0.08283-0.82788-0.97778
   2   3 -1088366.03 1157.00   1-0.70848-0.48998 0.28662-0.35611-0.64489-0.79567
   2  -3 -1093686.67 1235.43   1-0.61720-0.14955 0.15668-0.33231-0.77104-0.93123
  -2   3  1092791.89 1547.59   1 0.07494-0.39346-0.66558-0.17726 0.74254 0.90209
  -2  -3  1098172.52 1455.23   1 0.06289-0.15699-0.54914 0.09312 0.83335 0.98319
   2  -3  -915485.81  579.74   1-0.00090 0.43115 0.73069 0.29576-0.68269-0.85242
   2   3  -915345.83  555.19   1-0.02462 0.15839 0.56134-0.02656-0.82721-0.98701
   2   3  -915831.13  530.27   1-0.71347-0.52936 0.29476-0.29272-0.63566-0.79629
   2  -3  -914855.00  586.36   1-0.61556-0.18231 0.15459-0.27916-0.77277-0.94277
  -2  -3   915063.05  799.20   1-0.80202-0.98698-0.59728-0.00966 0.00125 0.16054
  -2   3   914010.61  931.08   1-0.15146-0.58491-0.24815 0.18686-0.95680-0.78927
  -2   3   915946.54  676.45   1 0.07612-0.35773-0.67710-0.24392 0.73194 0.90140
  -2  -3   915521.91  666.93   1 0.06309-0.12225-0.55105 0.03607 0.83208 0.99184
   2  -3  -846511.34 1145.57   1 0.00287 0.40062 0.75424 0.37457-0.65658-0.83617
   2   3  -844951.69 1050.60   1-0.02360 0.12509 0.56935 0.03671-0.82175-0.99146
  -2   3   838851.20  952.29   1-0.08290-0.48130-0.05882 0.32076-0.99482-0.81575
   2   3  -843290.28 1022.57   1-0.72223-0.57251 0.30945-0.22278-0.61856-0.78904
   2  -3  -847613.55 1115.96   1-0.61767-0.21881 0.15729-0.22121-0.77053-0.95035
  -2  -3   837925.80 1018.49   1-0.80278-0.95344-0.58237-0.05005 0.12795 0.29739
   2  -3  -843793.37 1138.37   1-0.77354-0.37380-0.53465-0.91318 0.34026 0.16235
   2   3  -840824.79  906.33   1-0.24852-0.09768-0.06706-0.59864 0.96630 0.79503
  -2   3   846395.00 1060.32   1 0.07823-0.32101-0.69764-0.31935 0.71215 0.89160
  -2  -3   848494.89 1164.34   1 0.06400-0.08679-0.55979-0.02781 0.82615 0.99583
   2  -3  -721196.06  608.78   1 0.00881 0.37225 0.78944 0.46504-0.61375-0.80321
   2   3  -720640.61  584.10   1-0.02148 0.09291 0.58586 0.10849-0.81012-0.98974
  -2   3   718689.87  610.49   1-0.07307-0.43704 0.07603 0.40038-0.99442-0.80540
   2   3  -721898.26  595.81   1-0.73515-0.61982 0.33219-0.14478-0.59092-0.77126
   2  -3  -719770.83  591.88   1-0.62456-0.26010 0.16618-0.15708-0.76308-0.95271
   2  -3  -721347.33  600.20   1-0.80065-0.43532-0.57649-0.89993 0.16312-0.02474
  -2  -3   721844.66  639.51   1-0.79445-0.91071-0.56440-0.08726 0.22426 0.40370
   2   3  -721176.91  630.69   1-0.35326-0.23680-0.15033-0.62670 0.92336 0.74240
  -2   3   721753.68  672.22   1 0.08145-0.28325-0.72913-0.40602 0.67950 0.86885
  -2  -3   720723.32  611.11   1 0.06579-0.05046-0.57700-0.10016 0.81408 0.99369
   2  -3  -6122616.9 1578.26   1 0.01755 0.34665 0.83704 0.56800-0.54685-0.74645
   2   3  -6115883.4 1536.27   1-0.01797 0.06202 0.61261 0.19053-0.79017-0.97972
  -2   3   6114226.4 1585.36   1-0.05965-0.38917 0.23458 0.50366-0.97026-0.77127
   2   3  -6120762.6 1534.73   1-0.75204-0.67094 0.36440-0.05740-0.54921-0.73928
   2  -3  -6121114.7 1439.13   1-0.63748-0.30756 0.18317-0.08504-0.74837-0.94771
   2  -3  -6118005.9 1611.68   1-0.80305-0.47213-0.59548-0.86387 0.02226-0.17554
  -2  -3   6110226.9 1455.33   1-0.78283-0.86479-0.54688-0.12501 0.29680 0.48630
   2   3  -6110355.1 1517.22   1-0.43633-0.35432-0.21838-0.63964 0.87287 0.68213
  -2   3   6124802.1 1870.54   1 0.08591-0.24424-0.77303-0.50510 0.62852 0.82777
  -2  -3   6112927.6 1601.82   1 0.06865-0.01304-0.60467-0.18298 0.79350 0.98303
   2  -3  -524014.23  640.92   1 0.02939 0.32417 0.89322 0.67950-0.44864-0.65816
   2   3  -525295.99  656.93   1-0.01266 0.03302 0.65136 0.28455-0.75865-0.95809
  -2   3   524550.21  701.79   1-0.04144-0.33656 0.41735 0.63117-0.90779-0.69881
   2   3  -525947.36  675.65   1-0.77204-0.72535 0.40816 0.04160-0.48718-0.68712
   2  -3  -523364.34  578.55   1-0.65801-0.36248 0.21115-0.00181-0.72279-0.93198
  -2  -3   523284.73  625.46   1-0.58889-0.63563 0.12132 0.48753-0.79905-0.59856
   2  -3  -524812.01  740.99   1-0.79347-0.49699-0.60199-0.81525-0.08938-0.29725
  -2  -3   525483.83  586.33   1-0.77103-0.81860-0.53151-0.16481 0.35070 0.55019
   2   3  -523953.12  613.85   1-0.50187-0.45432-0.27360-0.63969 0.82052 0.61998
  -2   3   523620.52  686.27   1 0.09155-0.20422-0.82908-0.61620 0.55157 0.76064
   2  -3  -4108421.8 1548.52   1 0.04430 0.30476 0.94920 0.79077-0.31152-0.53084
   2   3  -4108820.0 1548.81   1-0.00507 0.00625 0.70357 0.39201-0.71060-0.91993
  -2   3   4107357.6 1457.27   1-0.01765-0.27824 0.61494 0.77354-0.78837-0.56939
  -2  -3   4106417.5 1373.74   1-0.04436-0.05595 0.39015 0.70173-0.91968-0.71023
   2   3  -4103954.0 1325.19   1-0.79154-0.77914 0.46341 0.15202-0.39837-0.60812
   2  -3  -4109141.9 1378.72   1-0.68739-0.42625 0.25372 0.09586-0.68052-0.89950
  -2  -3   4104732.3 1384.89   1-0.66834-0.68051 0.22574 0.53683-0.70877-0.49871
  -2   3   4105883.6 1358.43   1-0.47354-0.73487-0.00831 0.14901-0.88072-0.66162
   2  -3  -4106543.9 1547.04   1-0.77890-0.51679-0.60178-0.75985-0.17651-0.39439
  -2  -3   4106887.8 1387.58   1-0.76136-0.77465-0.51981-0.20841 0.38744 0.59704
   2   3  -4108623.4 1346.46   1-0.55257-0.53946-0.31746-0.62845 0.77063 0.56037
  -2   3   4107294.6 1751.04   1 0.09790-0.16364-0.89340-0.73584 0.43845 0.65707
  -2  -3   4105276.8 1500.81   1 0.07849 0.06596-0.70021-0.38878 0.70959 0.91896
   2  -3  -4103883.1 1437.65   1 0.06573 0.32685-0.57646-0.73393 0.81447 0.59540
   2  -3  -334427.86  750.21   1 0.06108 0.28718 0.98887 0.88570-0.13560-0.36475
  -2   3   333584.87  761.35   1 0.01071-0.21542 0.80020 0.90347-0.59963-0.37057
   2   3  -333397.51  713.00   1 0.00532-0.01764 0.76907 0.51278-0.63913-0.85833
  -2  -3   331158.39  759.40   1-0.03049-0.00767 0.51344 0.76973-0.85758-0.63831
   2   3  -335723.17  680.92   1-0.80350-0.82575 0.52776 0.27111-0.27540-0.49459
  -2  -3   333481.48  673.01   1-0.73918-0.71707 0.33960 0.59565-0.58161-0.36193
   2  -3  -333877.16  657.34   1-0.72588-0.49913 0.31574 0.21313-0.61105-0.83990
  -2   3   333523.06  795.04   1-0.55138-0.77827 0.07690 0.17914-0.83070-0.60182
   2  -3  -333028.42  782.55   1-0.76370-0.53596-0.59846-0.70133-0.24206-0.46996
  -2  -3   332516.34  638.16   1-0.75474-0.73362-0.51213-0.25590 0.40997 0.62953
   2   3  -335878.09  728.90   1-0.59114-0.61248-0.35166-0.60748 0.72586 0.50578
  -2   3   331693.16  779.68   1 0.10366-0.12348-0.95418-0.85174 0.28070 0.50919
  -2  -3   335561.27  822.69   1 0.08567 0.10768-0.77061-0.51436 0.63151 0.85078
   2  -3  -334432.17  862.52   1 0.08289 0.30942-0.74326-0.84566 0.66383 0.43486
   2   3  -333119.64  799.49   1 0.05926 0.03733-0.51427-0.77055 0.85557 0.63628
   2  -3  -245604.27  926.34   1 0.07732 0.26902 0.99493 0.94714 0.06427-0.17475
  -2   3   244790.96  880.73   1 0.03956-0.15218 0.93333 0.98129-0.35681-0.11787
   2   3  -242003.38  977.39   1 0.01896-0.03836 0.84421 0.64319-0.53567-0.76474
  -2  -3   244031.15  865.40   1-0.01421 0.04301 0.64025 0.84125-0.76803-0.53891
   2   3  -243919.87  811.21   1-0.79655-0.85323 0.59359 0.39220-0.11465-0.34376
  -2  -3   244077.98  753.41   1-0.78892-0.73247 0.45461 0.65548-0.41342-0.18392
   2  -3  -244994.10  844.02   1-0.76892-0.57647 0.40075 0.35337-0.49814-0.73675
  -2   3   247478.86  870.12   1-0.63612-0.82848 0.18136 0.22858-0.74997-0.51123
   2  -3  -243913.72 1035.40   1-0.75059-0.55723-0.59439-0.64207-0.28862-0.52652
  -2  -3   242503.47  828.46   1-0.75211-0.69656-0.50913-0.30806 0.41846 0.64798
   2   3  -245199.78  844.20   1-0.61918-0.67479-0.37708-0.57789 0.68878 0.45901
  -2   3   246833.27  898.44   1 0.10664-0.08596-0.99096-0.94359 0.08130 0.31974
   2  -3  -242687.69  975.84   1 0.09710 0.28953-0.88524-0.93240 0.45487 0.21633
  -2  -3   244589.61  898.92   1 0.09384 0.15028-0.85210-0.65097 0.51488 0.74407
   2   3  -245959.25  986.44   1 0.07299 0.01651-0.64666-0.84780 0.75926 0.53005
   2  -3  -1 1426.22  152.06   1 0.09035 0.24766 0.96136 0.96878 0.26000 0.01120
  -2   3   1 1350.08  174.94   1 0.06380-0.09356 0.99246 0.98511-0.10458 0.14418
   2   3  -1 1380.25  179.59   1 0.03565-0.05601 0.91883 0.77303-0.39303-0.63188
  -2  -3   1 1273.65  140.55   1 0.00411 0.09570 0.76181 0.90757-0.64778-0.40884
   2   3  -1 1293.55  160.76   1-0.75875-0.84984 0.64709 0.50073 0.07451-0.16438
  -2  -3   1 1978.49  172.22   1-0.80370-0.71254 0.55513 0.70118-0.21419 0.02484
   2  -3  -1 1501.85  148.18   1-0.80110-0.64326 0.50647 0.51389-0.31892-0.56755
  -2   3   1 1370.60  132.33   1-0.72021-0.87818 0.30602 0.29813-0.62260-0.37404
  -2  -3   1 1207.03  127.48   1-0.75371-0.66375-0.51095-0.36505 0.41333 0.65281
   2   3  -1 1305.87  134.69   1-0.63835-0.72840-0.39478-0.54043 0.66079 0.42113
  -2   3   1 1398.90  162.38   1 0.10491-0.05315-0.98473-0.99256-0.13890 0.10947
   2  -3  -1 1321.27  184.29   1 0.10522 0.26329-0.97187-0.96397 0.21066-0.03770
  -2  -3   1 1240.40  155.93   1 0.10157 0.19207-0.93169-0.78573 0.34874 0.58798
   2   3  -1 1404.12  173.62   1 0.08636-0.00473-0.77747-0.92337 0.62295 0.38387
   2  -3   0 9851.68  419.23   1 0.09916 0.22221 0.89713 0.95972 0.43048 0.17189
  -2   3   0 9461.18  428.69   1 0.08077-0.04209 0.99041 0.92781 0.11205 0.37065
   2   3   0 9064.03  430.59   1 0.05421-0.07180 0.97603 0.88535-0.21074-0.45934
  -2  -3   0 9750.32  416.98   1 0.02338 0.14934 0.86589 0.95640-0.49967-0.25097
   2   3   0 9550.14  411.45   1-0.68556-0.81109 0.67546 0.58447 0.27157 0.02270
  -2  -3   010181.41  403.94   1-0.77916-0.65350 0.62675 0.71770-0.00839 0.24048
   2  -3   010465.35  368.05   1-0.78913-0.66588 0.61111 0.67378-0.06172-0.32033
  -2   3   0 9843.71  342.88   1-0.78490-0.90852 0.44219 0.37908-0.43403-0.17571
  -2  -3   0 9429.70  358.81   1-0.75932-0.63494-0.51742-0.42668 0.39459 0.64403
   2   3   0 9324.33  357.53   1-0.64958-0.77407-0.40529-0.49578 0.64325 0.39372
   2  -3   0 9172.96  403.96   1 0.10645 0.22998-0.99399-0.93095-0.02528-0.28360
  -2  -3   0 9531.78  385.95   1 0.10629 0.23134-0.98535-0.89452 0.13335 0.38250
   2   3   0 9446.50  435.82   1 0.09748-0.02773-0.88911-0.97981 0.44718 0.19799
   2  -3   136954.99  838.17   1 0.10416 0.19285 0.81659 0.93443 0.56773 0.29938
  -2   3  -137345.42  832.58   1 0.09126 0.00280 0.95695 0.83915 0.27550 0.54388
   2   3   136931.35  968.28   1 0.07236-0.08800 0.99737 0.96183-0.00073-0.25910
  -2  -3  -136449.92  774.62   1 0.04174 0.20211 0.94086 0.97627-0.33618-0.07774
   2  -3   137571.79  718.54   1-0.69997-0.61124 0.67283 0.79090 0.23943-0.02898
  -2  -3  -137286.77  690.62   1-0.72557-0.56547 0.66529 0.70095 0.17585 0.43461
  -2   3  -137114.11  676.59   1-0.80292-0.89177 0.56413 0.44605-0.19251 0.07600
  -2  -3  -138292.13  739.50   1-0.76819-0.60939-0.52801-0.49238 0.36204 0.62145
   2   3   137306.89  682.31   1-0.65354-0.81246-0.40902-0.44434 0.63685 0.37744
  -2  -3  -136925.14  737.22   1 0.10543 0.26502-0.98830-0.95267-0.11020 0.14888
   2   3   140601.40  894.81   1 0.10443-0.05514-0.96280-0.99842 0.24917-0.00994
   2  -3   298574.78 1454.52   1 0.10635 0.16051 0.73118 0.90422 0.67384 0.39573
  -2   3  -295533.32 1258.09   1 0.09731 0.04314 0.91560 0.74261 0.39012 0.66832
   2   3   296051.52 1344.97   1 0.08749-0.10730 0.97311 0.99269 0.21304-0.05507
  -2  -3  -2100862.5 1397.51   1 0.05754 0.25229 0.98290 0.96313-0.17489 0.09332
  -2  -3  -296793.32 1202.30   1-0.66053-0.46587 0.67792 0.65826 0.32265 0.59130
  -2   3  -2101486.2 1159.92   1-0.76468-0.81876 0.64223 0.46894 0.05278 0.33122
  -2  -3  -296696.21 1132.98   1-0.77920-0.58599-0.54197-0.56152 0.31480 0.58420
   2   3   297013.09 1249.60   1-0.65042-0.84378-0.40608-0.38624 0.64189 0.37260
   2   3   297013.48 1415.42   1 0.10671-0.08742-0.99271-0.97312 0.05600-0.21302
   2  -3   3 5999.09  317.03   1 0.10665 0.12636 0.64677 0.87500 0.75518 0.46733
   2   3   3 6051.80  336.73   1 0.09809-0.13096 0.90830 0.98302 0.40665 0.12852
  -2  -3  -3 5904.61  319.80   1 0.06982 0.29897 0.99702 0.92216-0.03256 0.24540
  -2   3  -3 6565.41  329.33   1-0.69439-0.71398 0.67397 0.44525 0.25214 0.54034
   2  -3   3 6899.82  461.71   1-0.74968-0.72820-0.59408-0.36579-0.29161-0.57958
  -2  -3  -3 6211.97  283.86   1-0.79051-0.56291-0.55803-0.63276 0.25234 0.53173
   2   3   3 6229.20  297.13   1-0.63997-0.86776-0.39629-0.32128 0.65832 0.37915
   2  -3   3 5790.31  356.77   1 0.07341 0.09235 0.65071 0.87892 0.75576 0.46792
   2   3   3 5531.24  311.20   1 0.10546-0.12320-0.98851-0.91372-0.10824-0.38720
   2  -3   415914.91  510.57   1 0.10571 0.09097 0.56581 0.84923 0.81772 0.52011
   2   3   416807.47  591.74   1 0.10415-0.15925 0.81695 0.94691 0.56721 0.27926
  -2  -3  -416087.24  592.97   1 0.07867 0.34233 0.99346 0.86349 0.08269 0.37036
  -2   3  -417481.52  532.29   1-0.62201-0.60704 0.67767 0.39363 0.39223 0.69032
   2  -3   415607.17  576.19   1-0.76117-0.77406-0.59775-0.31427-0.25162-0.54960
  -2  -3  -417556.16  499.66   1-0.79980-0.53776-0.57455-0.70444 0.17378 0.46321
   2   3   416377.59  488.18   1-0.62132-0.88355-0.37904-0.24888 0.68576 0.39671
   2  -3   417055.02  620.35   1 0.06477 0.04919 0.56720 0.85056 0.82102 0.52356
   2  -3   585367.83 1244.26   1 0.10395 0.05476 0.48892 0.82752 0.86611 0.55875
   2   3   586558.96 1359.95   1 0.10654-0.19137 0.71348 0.89853 0.69252 0.39497
  -2  -3  -577290.06 1337.72   1 0.08475 0.38283 0.98171 0.79654 0.17043 0.46791
   2  -3   580679.58 1363.39   1-0.77428-0.82155-0.60099-0.26232-0.19820-0.50620
  -2  -3  -586445.81 1248.34   1-0.80405-0.50763-0.58940-0.77441 0.07809 0.37760
   2   3   580334.50 1162.08   1-0.59233-0.88924-0.35273-0.16720 0.72437 0.42577
  -2   3  -582564.61 1173.51   1-0.06857-0.02119-0.48738-0.82612-0.87049-0.56308
   2  -3   585704.32 1206.56   1 0.05640 0.00630 0.48684 0.82536 0.87166 0.56456
   2   3   6110385.1 1411.30   1 0.10632-0.22604 0.60746 0.84770 0.78719 0.47989
  -2   3  -6119136.2 1431.11   1-0.10166-0.01956-0.41695-0.81060-0.90322-0.58526
  -2  -3  -6117115.2 1466.73   1-0.79931-0.46852-0.59982-0.84005-0.03600 0.27348
   2   3   6106536.2 1392.19   1-0.55160-0.88296-0.31661-0.07591 0.77167 0.46326
  -2   3  -6116731.2 1273.23   1-0.09415-0.01248-0.41492-0.80893-0.90496-0.58777
   2   3   6116041.1 1359.49   1 0.06621-0.26677 0.58110 0.82111 0.81112 0.50458
   2   3   749768.12 1099.35   1 0.10436-0.26245 0.50409 0.79951 0.85732 0.54026
  -2   3  -747562.16 1080.56   1-0.09893 0.01751-0.34746-0.79633-0.93246-0.60459
  -2   3  -749047.24 1067.33   1-0.08954 0.02720-0.34316-0.79318-0.93499-0.60837
  -2  -3  -747911.01 1203.45   1-0.78024-0.41507-0.60197-0.89739-0.16983 0.14966
   2  -3   740400.18 1080.42   1-0.79822-0.91424-0.60045-0.15140-0.04779-0.37581
   2   3   746904.41 1143.75   1-0.49428-0.86019-0.26712 0.02878 0.82724 0.50915
  -2   3  -748010.44 1027.34   1-0.11622-0.00025-0.34838-0.79764-0.93011-0.60312
  -2  -3  -749403.81 1049.13   1-0.07074 0.29430-0.48143-0.77767-0.87362-0.55552
   2   3   748684.49 1123.39   1 0.05435-0.31315 0.46724 0.76240 0.88245 0.56627
  -2   3  -812174.91  501.23   1-0.09586 0.05492-0.28078-0.78488-0.95497-0.61720
  -2  -3  -814521.90  585.90   1-0.10134 0.29850-0.40809-0.75893-0.90729-0.57871
  -2   3  -813286.78  495.83   1-0.16095-0.00983-0.28921-0.79445-0.94363-0.60724
  -2  -3  -813845.30  541.57   1-0.05338 0.34666-0.36922-0.72100-0.92780-0.59998
   2  -3   810161.03  561.28   1-0.80391-0.95435-0.59241-0.08816 0.05266-0.28535
   2   3   811837.57  549.25   1-0.41413-0.81453-0.20000 0.15108 0.88796 0.56010
  -2   3  -811779.44  592.97   1-0.22867-0.07892-0.30142-0.80587-0.92566-0.58680
  -2  -3  -814378.11  502.20   1-0.09785 0.30148-0.40404-0.75554-0.90948-0.58159
  -2   3  -9 5420.09  305.28   1-0.09253 0.09260-0.21642-0.77572-0.97190-0.62423
  -2  -3  -9 5040.44  310.40   1-0.09748 0.33670-0.31495-0.72102-0.94408-0.60559
  -2   3  -9 6202.10  334.88   1-0.22298-0.03748-0.23959-0.80004-0.94491-0.59876
  -2  -3  -9 5950.06  302.73   1-0.11401 0.32041-0.32505-0.73204-0.93879-0.60120
  -2   3  -9 5454.42  452.62   1-0.11490 0.06914-0.22246-0.78217-0.96814-0.61920
  -2   3 -1011195.58  477.45   1-0.08895 0.13052-0.15387-0.76840-0.98407-0.62651
  -2  -3 -1010684.49  492.57   1-0.09308 0.37546-0.22658-0.68786-0.96953-0.62117
  -2   3 -1011165.70  498.92   1-0.27808-0.05807-0.19323-0.80901-0.94092-0.58491
  -2  -3 -1011679.51  485.32   1-0.16973 0.29906-0.28235-0.74456-0.94417-0.59681
  -2   3 -11 2082.28  201.96   1-0.08515 0.16828-0.09293-0.76270-0.99202-0.62446
  -2  -3 -11 2103.79  234.35   1-0.08826 0.41433-0.14251-0.65917-0.98584-0.62754
  -2   3 -11 2268.97  265.12   1-0.32783-0.07343-0.14938-0.82038-0.93284-0.56707
  -2  -3 -11 2582.31  249.34   1-0.22140 0.28177-0.24089-0.75832-0.94496-0.58783
  -2   3 -1259079.76 1014.73   1-0.08112 0.20662-0.03298-0.75798-0.99615-0.61867
  -2  -3 -1251221.32 1072.30   1-0.08310 0.45380-0.06190-0.63379-0.99461-0.62638
  -2   3 -1256269.08 1053.69   1-0.37337-0.08444-0.10746-0.83374-0.92143-0.54566
  -2  -3 -1261932.41 1018.83   1-0.26977 0.26792-0.20036-0.77312-0.94184-0.57488
   2   4 -13 3289.68  237.43   1-0.02218 0.25651 0.58045-0.25402-0.81399-0.93256
   2   4 -13 3454.35  225.07   1-0.72621-0.44603 0.31632-0.51773-0.61036-0.73006
   2  -4 -13 3344.68  221.22   1-0.62964-0.01731 0.17281-0.45635-0.75741-0.88963
  -2   4  13 2430.16  391.99   1 0.07842-0.53497-0.69946-0.07092 0.71034 0.84188
  -2  -4  13 3337.28  478.70   1 0.06481-0.21730-0.56757 0.26577 0.82076 0.93922
   2   4 -12   44.98   80.73   1-0.02393 0.22046 0.56680-0.21241-0.82350-0.95198
   2   4 -12   35.46   87.06   1-0.72411-0.47832 0.31269-0.46611-0.61471-0.74426
   2  -4 -12  116.97   82.40   1-0.62038-0.04244 0.16077-0.41315-0.76764-0.90967
  -2   4  12  -10.55  108.41   1 0.07788-0.50097-0.69421-0.12085 0.71554 0.85698
  -2  -4  12  127.11  147.56   1 0.06356-0.18400-0.55561 0.22259 0.82900 0.95738
   2  -4 -11  302.14  105.97   1 0.00357 0.54578 0.75851 0.23853-0.65164-0.80325
   2   4 -11  196.54  119.63   1-0.02515 0.18492 0.55706-0.16688-0.83008-0.96847
   2   4 -11  267.41   94.36   1-0.72423-0.51283 0.31288-0.41066-0.61448-0.75389
   2  -4 -11  256.23  101.83   1-0.61287-0.06933 0.15116-0.36751-0.77558-0.92742
   2  -4 -1031130.42  770.91   1 0.00489 0.51279 0.76648 0.30177-0.64224-0.80372
   2   4 -1031358.30  696.56   1-0.02579 0.14998 0.55195-0.11671-0.83347-0.98177
   2   4 -1030415.95  647.53   1-0.72699-0.54998 0.31767-0.35063-0.60874-0.75800
   2  -4 -1030212.75  931.43   1-0.60759-0.09845 0.14449-0.31894-0.78099-0.94264
  -2  -4  1025794.01  879.64   1-0.80336-0.98118-0.59470 0.07371 0.03058 0.17844
  -2   4  1026012.00 1189.31   1 0.07854-0.43121-0.70069-0.23769 0.70912 0.87037
  -2  -4  1034796.60  831.70   1 0.06229-0.11618-0.54338 0.12453 0.83716 0.98539
   2  -4  -9  129.46   86.30   1 0.00778 0.48137 0.78349 0.37405-0.62134-0.79269
   2   4  -9  145.06   84.78   1-0.02574 0.11573 0.55238-0.06102-0.83319-0.99140
   2   4  -9  118.84   67.46   1-0.73283-0.59022 0.32800-0.28504-0.59612-0.75524
   2  -4  -9   -2.94   84.76   1-0.60516-0.13042 0.14144-0.26674-0.78343-0.95490
  -2  -4   9   58.73   71.34   1-0.80004-0.94357-0.57508 0.03803 0.17092 0.32896
  -2   4   9   40.61  118.47   1 0.08000-0.39521-0.71497-0.30714 0.69455 0.86571
  -2  -4   9  205.78  112.27   1 0.06244-0.08148-0.54483 0.06794 0.83621 0.99435
   2  -4  -8275058.1 4607.99   1 0.01275 0.45201 0.81154 0.45749-0.58414-0.76575
   2   4  -8281794.4 4764.54   1-0.02485 0.08231 0.55945 0.00132-0.82848-0.99660
  -2   4   8244253.8 2701.23   1-0.08539-0.52533-0.09668 0.25738-0.99164-0.81103
   2   4  -8279068.0 4544.25   1-0.74197-0.63355 0.34480-0.21306-0.57496-0.74378
   2  -4  -8282767.2 4679.94   1-0.60637-0.16602 0.14295-0.20998-0.78222-0.96350
   2  -4  -8261622.5 2434.98   1-0.80173-0.36049-0.57920-0.93221 0.14746-0.03180
  -2  -4   8265430.2 2895.38   1-0.78663-0.89590-0.55224 0.00559 0.27609 0.44421
  -2   4   8272651.1 5288.64   1-0.21388-0.65456-0.29132 0.06290-0.93240-0.75338
  -2  -4   8278350.8 5047.96   1 0.06328-0.04609-0.55287 0.00476 0.83085 0.99892
   2  -4  -744088.29  829.71   1 0.02007 0.42501 0.84978 0.55098-0.52675-0.71817
   2   4  -741347.87  840.38   1-0.02294 0.04991 0.57455 0.07168-0.81814-0.99617
  -2   4   738455.43 1015.36   1-0.07525-0.48075 0.04773 0.34657-0.99602-0.80545
   2   4  -739606.20  775.05   1-0.75478-0.68076 0.36996-0.13266-0.54169-0.72038
   2  -4  -742157.20  735.92   1-0.61224-0.20628 0.15036-0.14733-0.77623-0.96733
   2  -4  -738425.93  946.49   1-0.80111-0.39435-0.59836-0.89639-0.01309-0.20236
  -2  -4   746155.17  884.72   1-0.76947-0.84434-0.52957-0.02691 0.35701 0.53512
   2   4  -736449.01  818.49   1-0.28411-0.20916-0.09507-0.59710 0.95406 0.77441
  -2   4   744379.60  991.95   1 0.08593-0.32019-0.77326-0.47579 0.62823 0.81920
  -2  -4   739783.32 1044.80   1 0.06496-0.00987-0.56902-0.06652 0.81974 0.99773
   2  -4  -652556.73 1007.19   1 0.03037 0.40100 0.89741 0.65395-0.44014-0.64150
   2   4  -648379.52  959.62   1-0.01974 0.01881 0.59925 0.15166-0.80031-0.98825
  -2   4   647301.33 1091.11   1-0.06082-0.43188 0.22168 0.46525-0.97321-0.77266
   2   4  -655622.86  978.31   1-0.77053-0.73093 0.40455-0.04281-0.49254-0.68110
   2  -4  -649497.50  879.45   1-0.62407-0.25251 0.16555-0.07690-0.76362-0.96453
   2  -4  -649078.24 1061.51   1-0.78595-0.41356-0.60245-0.84529-0.13900-0.33827
  -2  -4   649992.38  893.50   1-0.75231-0.79297-0.50936-0.06201 0.41780 0.60608
   2   4  -647849.39  960.39   1-0.36137-0.32080-0.15689-0.60373 0.91912 0.72978
  -2   4   646559.03 1028.39   1 0.09057-0.28118-0.81931-0.57687 0.56614 0.76691
  -2  -4   645780.05 1046.55   1 0.06767 0.02738-0.59519-0.14784 0.80072 0.98863
   2  -4  -5 3002.86  250.08   1 0.04371 0.38003 0.94735 0.75921-0.31720-0.52836
   2   4  -5 3206.68  224.54   1-0.01490-0.01074 0.63526 0.24296-0.77214-0.96997
  -2   4   5 3181.06  257.92   1-0.04055-0.37720 0.42551 0.61383-0.90404-0.69348
   2   4  -5 2796.33  219.71   1-0.78723-0.78189 0.44923 0.05701-0.42243-0.62079
   2  -4  -5 2936.89  203.08   1-0.64348-0.30646 0.19123 0.00382-0.74118-0.95187
  -2  -4   5 3027.11  215.57   1-0.60626-0.61151 0.14282 0.53460-0.78232-0.58330
   2  -4  -5 2701.42  232.38   1-0.76502-0.42701-0.59882-0.78648-0.23692-0.44621
  -2  -4   5 3113.69  203.58   1-0.73681-0.74305-0.49224-0.10005 0.46345 0.66170
   2   4  -5 3159.27  230.65   1-0.42405-0.41794-0.20820-0.59989 0.88137 0.68224
  -2   4   5 3071.99  277.82   1 0.09612-0.24141-0.87524-0.68814 0.47403 0.68423
  -2  -4   5 3196.36  251.83   1 0.07164 0.06590-0.63356-0.24134 0.77037 0.96819
   2  -4  -413473.41  503.56   1 0.05935 0.36131 0.98612 0.85326-0.15501-0.37601
   2   4  -414237.33  498.84   1-0.00797-0.03812 0.68409 0.34706-0.72934-0.93706
  -2   4   414432.74  545.04   1-0.01367-0.31578 0.64415 0.77726-0.76477-0.54418
   2   4  -414738.86  454.63   1-0.80061-0.82989 0.50335 0.16579-0.32504-0.53271
  -2  -4   413420.32  418.69   1-0.68449-0.65515 0.24937 0.58616-0.68503-0.47664
   2  -4  -413244.94  422.27   1-0.67214-0.36950 0.23121 0.09905-0.70339-0.92393
  -2   4   414747.26  504.55   1-0.42379-0.72655-0.05884 0.07284-0.90384-0.68323
   2  -4  -412721.65  505.42   1-0.74330-0.43967-0.59180-0.72426-0.31185-0.53115
  -2  -4   413686.93  469.98   1-0.72464-0.69646-0.47930-0.14228 0.49513 0.70334
   2   4  -414037.81  477.28   1-0.47396-0.50230-0.24990-0.58645 0.84433 0.63541
  -2   4   413629.69  597.75   1 0.10180-0.20131-0.93414-0.80215 0.34207 0.56215
  -2  -4   413988.99  495.39   1 0.07706 0.10595-0.68619-0.34912 0.72332 0.93106
   2  -4  -412597.51  518.62   1 0.06735 0.36989-0.59208-0.72389 0.80305 0.58237
   2  -4  -3 3974.34  260.63   1 0.07525 0.34285 0.99649 0.91907 0.03663-0.19428
  -2   4   3 4132.98  288.33   1 0.01771-0.24995 0.83783 0.91560-0.54563-0.31493
   2   4  -3 4073.91  260.69   1 0.00154-0.06296 0.74606 0.46428-0.66586-0.88344
  -2  -4   3 3857.02  259.02   1-0.03660 0.02767 0.46102 0.74282-0.88663-0.66891
   2   4  -3 3702.47  248.92   1-0.80301-0.86670 0.56329 0.28099-0.19458-0.41215
  -2  -4   3 3675.71  240.14   1-0.75163-0.68802 0.36357 0.64521-0.55032-0.33215
   2  -4  -3 3841.51  228.88   1-0.71081-0.44257 0.29041 0.21335-0.64062-0.87098
  -2   4   3 4092.54  246.86   1-0.49638-0.76479 0.01584 0.09236-0.86795-0.63761
  -2  -4   3 3600.36  266.37   1-0.71690-0.65431-0.47125-0.18951 0.51377 0.73209
   2   4  -3 4288.78  246.53   1-0.51274-0.57554-0.28291-0.56430 0.81058 0.59187
  -2   4   3 3958.20  271.15   1 0.10591-0.16268-0.98032-0.90347 0.16656 0.39656
  -2  -4   3 3886.33  264.40   1 0.08398 0.14742-0.75401-0.47211 0.65147 0.86912
   2  -4  -3 3624.04  274.35   1 0.08516 0.35312-0.76566-0.84241 0.63757 0.40699
   2   4  -3 3659.78  281.01   1 0.05391-0.00943-0.46305-0.74498 0.88468 0.66701
   2  -4  -268693.51 1160.30   1 0.08859 0.32179 0.96896 0.94675 0.23075-0.00993
  -2   4   266842.14 1122.75   1 0.04772-0.18553 0.95950 0.98193-0.27763-0.03703
   2   4  -268691.39 1122.39   1 0.01411-0.08473 0.81890 0.59238-0.57375-0.80118
  -2  -4   264763.23  957.86   1-0.02233 0.07633 0.57929 0.80581-0.81481-0.58722
   2   4  -268522.06 1039.91   1-0.78402-0.88211 0.61986 0.39268-0.03273-0.26012
  -2  -4   271867.98  991.09   1-0.79467-0.69673 0.47504 0.70148-0.37792-0.14993
   2  -4  -270785.18 1005.57   1-0.75671-0.52277 0.37395 0.35213-0.53623-0.77634
  -2   4   273775.59 1104.96   1-0.57853-0.81250 0.10880 0.13027-0.80836-0.56820
  -2  -4   266903.06  898.69   1-0.71382-0.61681-0.46809-0.24151 0.52089 0.74913
   2   4  -266874.00 1036.77   1-0.54154-0.63876-0.30782-0.53410 0.78228 0.55381
  -2   4   265261.91 1012.55   1 0.10632-0.12771-0.99346-0.97174-0.04145 0.19851
   2  -4  -268964.78 1185.44   1 0.09908 0.33292-0.90556-0.92706 0.41247 0.17239
  -2  -4   268925.09 1191.25   1 0.09206 0.18992-0.83416-0.60738 0.54377 0.77137
   2   4  -265781.31 1148.90   1 0.06699-0.03089-0.58865-0.81544 0.80559 0.57800
   2  -4  -117137.48  568.48   1 0.09797 0.29692 0.90950 0.94247 0.40399 0.15356
  -2   4   117150.47  600.28   1 0.07091-0.12794 0.99730 0.96439-0.01899 0.23143
   2   4  -116803.22  584.71   1 0.02979-0.10339 0.89493 0.72362-0.44520-0.68240
  -2  -4   117046.48  548.82   1-0.00606 0.12700 0.69698 0.86821-0.71705-0.47965
  -2  -4   116782.42  462.61   1-0.80231-0.66965 0.56887 0.74050-0.18075 0.05669
   2  -4  -117117.84  490.18   1-0.79650-0.59716 0.48260 0.51559-0.36424-0.61446
  -2   4   117524.61  548.67   1-0.66792-0.86738 0.22514 0.19155-0.70935-0.45928
  -2  -4   115526.25  480.85   1-0.71579-0.58436-0.47012-0.29870 0.51635 0.75451
   2   4  -116805.58  566.97   1-0.56151-0.69318-0.32532-0.49642 0.76083 0.52254
   2  -4  -115870.91  590.70   1 0.10600 0.30549-0.98146-0.94790 0.15967-0.09022
  -2  -4   117119.47  578.33   1 0.10009 0.23201-0.91605-0.74443 0.38836 0.62609
   2   4  -116741.44  587.62   1 0.08031-0.05221-0.71792-0.88946 0.69146 0.45400
   2  -4   0254831.9 2067.75   1 0.10348 0.26797 0.83227 0.92049 0.54461 0.28437
  -2   4   0248758.7 2181.33   1 0.08595-0.07840 0.97825 0.89008 0.18874 0.44900
   2   4   0246104.9 2206.55   1 0.04785-0.11966 0.95987 0.84371-0.27631-0.52328
  -2  -4   0241668.0 2027.69   1 0.01155 0.17904 0.80489 0.92090-0.59330-0.34623
  -2  -4   0252800.6 1774.76   1-0.77360-0.60645 0.63344 0.74999 0.01679 0.26404
   2  -4   0259394.2 1830.46   1-0.79519-0.63046 0.59745 0.68572-0.10348-0.36372
  -2  -4   0242069.4 1820.72   1-0.72265-0.55679-0.47722-0.36096 0.50002 0.74811
   2  -4   0236524.3 1966.62   1 0.10596 0.27092-0.99163-0.90294-0.07375-0.33360
  -2  -4   0245594.1 1998.49   1 0.10570 0.27215-0.97767-0.86119 0.18161 0.42926
   2   4   0256588.0 2234.48   1 0.09237-0.07459-0.83727-0.95365 0.53891 0.29149
   2  -4   1167223.9 1819.91   1 0.10607 0.23622 0.74931 0.89274 0.65366 0.38368
  -2   4  -1169292.4 1852.07   1 0.09472-0.03524 0.93627 0.79286 0.33826 0.60837
   2   4   1174978.0 1894.82   1 0.06639-0.13546 0.99504 0.93394-0.07405-0.33075
  -2  -4  -1168083.6 1627.67   1 0.02931 0.23117 0.89283 0.95365-0.44942-0.19260
   2  -4   1175977.0 1779.76   1-0.70811-0.57791 0.67088 0.81457 0.22022-0.04980
  -2  -4  -1168444.0 1470.10   1-0.72002-0.51845 0.66729 0.72858 0.19047 0.44762
  -2   4  -1177175.5 1549.80   1-0.80077-0.93118 0.50436 0.36068-0.32307-0.05297
   2   4   1168301.3 1572.02   1-0.57717-0.77774-0.33918-0.39995 0.74284 0.48492
  -2  -4  -1180667.0 1693.53   1 0.10611 0.30713-0.99246-0.93119-0.06125 0.19630
   2   4   1182568.4 2087.65   1 0.10131-0.09971-0.92890-0.99011 0.35619 0.09858
   2  -4   2119201.3 1580.32   1 0.10671 0.20232 0.66733 0.86597 0.73707 0.45733
  -2   4  -2111847.6 1407.48   1 0.09959 0.00395 0.89225 0.69368 0.44041 0.72026
   2   4   2115892.3 1429.10   1 0.08287-0.15343 0.98633 0.98034 0.14240-0.12401
  -2  -4  -2113644.6 1379.86   1 0.04560 0.28182 0.95323 0.95892-0.29877-0.03218
  -2  -4  -2117592.9 1283.70   1-0.65758-0.42145 0.67806 0.68403 0.32834 0.59538
  -2   4  -2120542.2 1416.66   1-0.78933-0.88501 0.61072 0.41182-0.06295 0.21714
  -2  -4  -2115302.8 1162.37   1-0.74841-0.51372-0.50496-0.49893 0.42998 0.69796
   2   4   2116611.7 1218.07   1-0.57333-0.80834-0.33577-0.34137 0.74735 0.47962
   2   4   2111882.5 1441.27   1 0.10591-0.12963-0.98033-0.98640 0.16653-0.10101
   2  -4   357954.35 1069.13   1 0.10608 0.16725 0.58888 0.84270 0.80122 0.51173
  -2   4  -352820.78 1030.03   1 0.10227 0.04108 0.85501 0.60119 0.50841 0.79804
   2   4   354130.91 1145.64   1 0.09520-0.17545 0.93278 0.98190 0.34762 0.07120
  -2  -4  -353703.67 1066.79   1 0.05920 0.32982 0.98587 0.93641-0.15665 0.11972
  -2   4  -358248.54  981.35   1-0.72920-0.79026 0.66385 0.40951 0.16602 0.45582
  -2  -4  -355736.68  962.57   1-0.76495-0.49584-0.52408-0.57321 0.37441 0.65234
   2   4   354782.01 1007.96   1-0.56140-0.83086-0.32522-0.27565 0.76095 0.48340
   2  -4   356000.43 1107.86   1 0.06783 0.12817 0.59672 0.85054 0.79957 0.51004
   2   4   349789.45  960.62   1 0.10658-0.16351-0.99428-0.94514-0.00534-0.28277
   2  -4   434027.40  823.58   1 0.10462 0.13134 0.51455 0.82356 0.85104 0.55180
   2   4   435736.82  944.90   1 0.10279-0.20218 0.84579 0.95017 0.52351 0.23725
  -2  -4  -434493.55  838.32   1 0.06964 0.37467 0.99696 0.89244-0.03480 0.25130
  -2   4  -434973.83  746.07   1-0.65583-0.68233 0.67812 0.36846 0.33169 0.63139
  -2  -4  -435836.13  686.51   1-0.78152-0.47803-0.54509-0.64938 0.30344 0.59142
   2   4   434493.31  754.35   1-0.54058-0.84449-0.30699-0.20225 0.78327 0.49591
  -2   4  -436138.19  694.73   1-0.05665-0.08509-0.51950-0.82849-0.85258-0.55348
   2  -4   436202.45  726.44   1 0.05983 0.08565 0.51975 0.82873 0.85221 0.55305
   2   4   433250.09  813.61   1 0.10480-0.19983-0.98396-0.87961-0.14429-0.43167
   2   4   547023.02 1085.74   1 0.10621-0.23309 0.74098 0.90056 0.66306 0.36695
  -2  -4  -539664.13  927.11   1 0.07718 0.41674 0.99506 0.83547 0.06242 0.35820
  -2   4  -545990.00  887.49   1-0.10262-0.09638-0.44483-0.80880-0.88971-0.58012
   2  -4   537912.96  979.66   1-0.74276-0.74850-0.59160-0.22733-0.31353-0.62294
  -2  -4  -544848.91  838.86   1-0.79550-0.45756-0.56621-0.72566 0.21582 0.51384
   2   4   542401.58  862.76   1-0.50925-0.84769-0.27991-0.11996 0.81382 0.51674
  -2   4  -544620.95  814.23   1-0.08391-0.07805-0.44450-0.80874-0.89183-0.58295
   2  -4   546779.94  902.94   1 0.05211 0.04341 0.44591 0.81004 0.89355 0.58476
   2   4   6  306.11   99.63   1 0.10654-0.26727 0.63023 0.84488 0.76905 0.46338
  -2  -4  -6  312.07  107.40   1 0.08243 0.45640 0.98727 0.77249 0.13595 0.44151
  -2   4  -6  263.11   90.53   1-0.10018-0.05959-0.37788-0.79708-0.92041-0.60092
  -2   4  -6  304.99   91.77   1-0.04748-0.00660-0.37340-0.79377-0.92645-0.60817
   2  -4   6  310.75  109.74   1-0.76114-0.80125-0.59774-0.17827-0.25171-0.57113
  -2  -4  -6  273.02   81.67   1-0.80348-0.43116-0.58512-0.79971 0.10968 0.41779
   2   4   6  351.08  100.30   1-0.46566-0.83856-0.24291-0.02779 0.85096 0.54408
  -2   4  -6  286.30   91.16   1-0.10703-0.06687-0.37655-0.79606-0.92018-0.60150
   2   4   6  284.21   87.35   1 0.06826-0.30612 0.60084 0.81524 0.79644 0.49159
   2   4   7 8234.03  370.44   1 0.10477-0.30349 0.52076 0.79060 0.84724 0.53182
  -2   4  -7 7457.50  357.67   1-0.09743-0.02249-0.31369-0.78811-0.94451-0.61511
  -2   4  -7 7220.58  327.26   1-0.13039-0.05513-0.31271-0.78830-0.94085-0.61280
   2  -4   7 6617.97  386.06   1-0.77904-0.85352-0.60180-0.12714-0.17585-0.50529
  -2  -4  -7 7874.20  395.34   1-0.80081-0.39411-0.59866-0.86847-0.01738 0.30069
   2   4   7 6911.28  400.62   1-0.40613-0.81350-0.19341 0.07687 0.89311 0.57645
  -2   4  -7 7231.38  467.49   1-0.25198-0.17807-0.31721-0.79193-0.91426-0.58407
  -2  -4  -7 8534.91  312.65   1-0.06725 0.33929-0.49098-0.76172-0.86856-0.55194
   2   4   7 7747.96  360.45   1 0.05551-0.35339 0.47834 0.74789 0.87641 0.56193
  -2   4  -8 5746.18  323.98   1-0.09440 0.01487-0.25176-0.78138-0.96317-0.62387
  -2  -4  -8 6180.59  362.67   1-0.10173 0.33962-0.41878-0.74408-0.90236-0.57531
  -2   4  -8 5480.42  295.64   1-0.19971-0.09007-0.25852-0.78933-0.94513-0.60732
  -2  -4  -8 6994.50  350.04   1-0.05068 0.39085-0.37113-0.69733-0.92719-0.60079
  -2  -4  -8 5530.92  352.16   1-0.78049-0.33942-0.60200-0.92700-0.16858 0.15951
   2  -4   8 4324.23  344.91   1-0.79416-0.90303-0.60185-0.07200-0.08404-0.42349
   2   4   8 4928.21  356.77   1-0.32495-0.76678-0.12757 0.19789 0.93708 0.61063
  -2   4  -8 6066.54  487.92   1-0.16789-0.05966-0.25960-0.78958-0.95100-0.61073
  -2  -4  -8 6636.99  315.85   1-0.09523 0.34561-0.41174-0.73774-0.90630-0.57989
  -2   4  -9 7130.09  402.42   1-0.09114 0.05247-0.19156-0.77641-0.97723-0.62803
  -2  -4  -9 7046.83  365.64   1-0.09771 0.37799-0.31986-0.70038-0.94241-0.60545
  -2   4  -9 6417.53  349.97   1-0.25947-0.11532-0.20914-0.79528-0.94283-0.59517
  -2  -4  -9 6696.26  308.31   1-0.10982 0.36608-0.32817-0.70959-0.93821-0.60204
  -2   4  -9 6389.41  503.43   1-0.06650 0.07602-0.18797-0.77321-0.97992-0.62956
  -2  -4  -9 6310.86  278.16   1-0.11969 0.35545-0.33756-0.71881-0.93366-0.59745
  -2   4 -10 9046.90  431.84   1-0.08767 0.08993-0.13288-0.77294-0.98724-0.62806
  -2  -4 -10 8494.16  472.54   1-0.09306 0.41699-0.22625-0.66200-0.96961-0.62279
  -2   4 -10 8108.39  412.56   1-0.31223-0.13370-0.16334-0.80470-0.93585-0.57842
  -2  -4 -10 9354.74  415.44   1-0.16447 0.34581-0.28647-0.72310-0.94386-0.59793
  -2   4 -11 5383.49  317.45   1-0.08399 0.12792-0.07516-0.77045-0.99362-0.62452
  -2  -4 -11 4307.36  361.17   1-0.08796 0.45616-0.13753-0.62868-0.98658-0.62982
  -2   4 -11 6175.43  334.52   1-0.35969-0.14663-0.12024-0.81687-0.92528-0.55786
  -2  -4 -11 6383.99  318.47   1-0.21536 0.32930-0.24583-0.73768-0.94508-0.58938
  -2   4 -12 7696.28  434.94   1-0.08008 0.16613-0.01811-0.76878-0.99662-0.61755
  -2  -4 -12 4376.70  342.98   1-0.08259 0.49467-0.05426-0.59954-0.99510-0.62915
  -2   4 -12 6718.38  560.28   1-0.40334-0.15590-0.07885-0.83071-0.91164-0.53442
  -2  -4 -12 9034.63  411.97   1-0.26319 0.31599-0.20598-0.75316-0.94249-0.57697
   2   5 -13 9076.85  442.10   1-0.02281 0.21434 0.57554-0.28443-0.81745-0.93442
   2   5 -13 8549.79  451.50   1-0.74157-0.50261 0.34405-0.51564-0.57593-0.69389
   2  -5 -13 7287.29  364.90   1-0.62342 0.03039 0.16469-0.43890-0.76434-0.89802
  -2  -5  13 8365.26  545.27   1 0.06454-0.17615-0.56497 0.29403 0.82257 0.93942
   2   5 -12  203.35  103.56   1-0.02452 0.17833 0.56209-0.24260-0.82670-0.95359
   2   5 -12  125.29  112.67   1-0.74049-0.53594 0.34202-0.46241-0.57852-0.70635
   2  -5 -12  233.20  102.23   1-0.61372 0.00569 0.15225-0.39610-0.77469-0.91818
  -2   5  12  230.59  109.66   1 0.08144-0.53883-0.72904-0.18132 0.67960 0.82266
  -2  -5  12  126.93  150.47   1 0.06331-0.14284-0.55312 0.25074 0.83069 0.95745
   2   5 -1124299.95  632.55   1-0.02573 0.14281 0.55244-0.19699-0.83315-0.96994
   2   5 -1124416.83  653.20   1-0.74155-0.57141 0.34402-0.40516-0.57596-0.71366
   2  -5 -1125917.46  661.92   1-0.60573-0.02071 0.14215-0.35095-0.78286-0.93616
  -2   5  1123543.11  778.07   1 0.08168-0.50404-0.73141-0.23887 0.67702 0.82998
  -2  -5  1125945.48  761.54   1 0.06244-0.10915-0.54484 0.20387 0.83620 0.97289
   2   5 -10   44.07   86.77   1-0.02638 0.10786 0.54726-0.14690-0.83654-0.98325
   2   5 -10   70.42   78.89   1-0.74512-0.60939 0.35080-0.34313-0.56720-0.71477
  -2  -5  10   27.94   66.48   1-0.79869-0.93510-0.57221 0.12170 0.18616 0.33280
  -2   5  10   49.61   95.39   1 0.08261-0.46857-0.74055-0.30319 0.66689 0.82976
  -2  -5  10  -86.09  135.40   1 0.06203-0.07502-0.54087 0.15270 0.83881 0.98541
   2  -5  -921023.93  693.69   1 0.01896 0.53406 0.84422 0.46042-0.53565-0.70907
   2   5  -920965.35  585.80   1-0.02636 0.07357 0.54738-0.09151-0.83646-0.99308
   2   5  -921789.90  582.71   1-0.75149-0.65017 0.36330-0.27538-0.55068-0.70812
   2  -5  -920488.46  590.64   1-0.59686-0.08062 0.13110-0.25150-0.79155-0.96449
  -2  -5   919065.33  576.38   1-0.78198-0.88415-0.54572 0.09290 0.30112 0.45786
  -2   5   921104.88  958.72   1-0.00286-0.51937-0.14185 0.24211-0.98988-0.81953
  -2   5   915397.36  910.99   1 0.08437-0.43227-0.75779-0.37561 0.64701 0.81978
  -2  -5   923095.43  710.80   1 0.06216-0.04034-0.54211 0.09632 0.83800 0.99453
   2  -5  -8   91.59   85.34   1 0.02524 0.50606 0.87465 0.54622-0.48408-0.66748
   2   5  -8   55.50   80.89   1-0.02556 0.04007 0.55385-0.02978-0.83222-0.99875
  -2   5   8   49.79   89.63   1-0.08882-0.57056-0.15169 0.17673-0.98442-0.80201
   2   5  -8   82.66   82.25   1-0.76080-0.69387 0.38260-0.20084-0.52420-0.69151
   2  -5  -8  -42.39   84.10   1-0.59734-0.11550 0.13170-0.19567-0.79109-0.97384
   2  -5  -8   26.16   65.87   1-0.80057-0.31790-0.59888-0.92650-0.02063-0.20130
  -2  -5   8   86.26   78.06   1-0.76107-0.82909-0.51946 0.06383 0.38848 0.55545
   2   5  -8   44.33   89.83   1-0.13925-0.07138 0.01723-0.56563 0.99010 0.82156
  -2   5   8   24.77  102.44   1-0.13410-0.61631-0.23599 0.09271-0.96245-0.78202
  -2   5   8  -43.88  102.02   1 0.08707-0.39502-0.78451-0.45751 0.61395 0.79663
  -2  -5   8 -127.08  100.54   1 0.06295-0.00500-0.54971 0.03357 0.83297 0.99942
   2  -5  -771342.13 1561.67   1 0.03417 0.48065 0.91304 0.63985-0.40641-0.59962
   2   5  -768238.71 1381.00   1-0.02379 0.00753 0.56790 0.03954-0.82274-0.99918
  -2   5   763062.96 1548.23   1-0.07862-0.52565 0.00236 0.27569-0.99690-0.80478
   2   5  -767329.35 1494.17   1-0.77273-0.74021 0.40982-0.11836-0.48468-0.66186
   2  -5  -772399.76 1379.89   1-0.60236-0.15491 0.13793-0.13418-0.78621-0.97877
   2  -5  -763207.85 1468.39   1-0.78194-0.33366-0.60216-0.87459-0.16110-0.35178
  -2  -5   765964.46 1487.82   1-0.73922-0.77282-0.49484 0.03329 0.45681 0.63374
   2   5  -763712.92 1483.00   1-0.22414-0.19063-0.04803-0.57568 0.97337 0.79513
  -2   5   773346.64 1819.64   1-0.23011-0.67801-0.30239-0.02895-0.92498-0.73447
  -2  -5   771633.95 1533.81   1 0.06456 0.03114-0.56514-0.03699 0.82246 0.99883
   2  -5  -6  776.96  133.78   1 0.04607 0.45826 0.95467 0.73682-0.29407-0.49707
   2   5  -6  715.09  114.98   1-0.02081-0.02380 0.59102 0.11792-0.80638-0.99273
  -2   5   6  798.83  136.08   1-0.06323-0.47583 0.19457 0.41264-0.97884-0.77673
   2   5  -6  561.75   94.97   1-0.78606-0.78779 0.44565-0.02740-0.42836-0.61533
   2  -5  -6  832.58  117.27   1-0.61323-0.20018 0.15162-0.06525-0.77521-0.97758
   2  -5  -6  687.17  124.93   1-0.75621-0.34230-0.59624-0.81348-0.26948-0.47018
  -2  -5   6  682.02   99.04   1-0.71911-0.71833-0.47354-0.00069 0.50855 0.69569
   2   5  -6  676.52  105.14   1-0.29508-0.29602-0.10376-0.57623 0.94982 0.76178
  -2   5   6  771.69  181.54   1 0.09544-0.31808-0.86825-0.65160 0.48685 0.68864
  -2  -5   6  704.14  119.52   1 0.06715 0.06828-0.59018-0.11717 0.80447 0.99076
   2  -5  -5 5754.20  397.18   1 0.06039 0.43823 0.98782 0.82527-0.14334-0.35620
   2   5  -5 5944.30  355.88   1-0.01633-0.05371 0.62474 0.20694-0.78065-0.97687
  -2   5   5 6118.95  353.48   1-0.04061-0.41880 0.42501 0.58783-0.90427-0.69213
   2   5  -5 6189.17  434.38   1-0.79816-0.83448 0.49018 0.07172-0.35021-0.54634
   2  -5  -5 6173.03  301.94   1-0.63160-0.25294 0.17538 0.01374-0.75519-0.96738
  -2  -5   5 6000.03  295.24   1-0.62007-0.58383 0.16037 0.57772-0.76797-0.57041
  -2  -5   5 6547.07  296.89   1-0.70181-0.66661-0.45591-0.03822 0.54735 0.74442
   2   5  -5 6252.04  345.81   1-0.35349-0.38882-0.15052-0.56782 0.92324 0.72552
  -2   5   5 5229.55  463.09   1 0.10057-0.27853-0.92109-0.75956 0.37611 0.58777
  -2  -5   5 5846.17  317.21   1 0.07095 0.10663-0.62689-0.20902 0.77586 0.97207
   2  -5  -4 2742.57  234.95   1 0.07547 0.41896 0.99636 0.88932 0.03960-0.18321
  -2   5   4 2357.56  219.44   1-0.01009-0.35374 0.66947 0.77708-0.74277-0.52057
   2   5  -4 2374.47  238.88   1-0.00993-0.08161 0.67061 0.30808-0.74173-0.94785
   2   5  -4 2702.28  209.59   1-0.80406-0.87484 0.54216 0.17903-0.24401-0.45009
  -2  -5   4 2732.08  213.56   1-0.69714-0.62629 0.26864 0.63099-0.66469-0.45782
   2  -5  -4 2597.07  195.43   1-0.65938-0.31525 0.21307 0.10647-0.72098-0.94301
  -2   5   4 2606.00  212.50   1-0.36932-0.71356-0.11126-0.00515-0.92261-0.70056
  -2  -5   4 2529.28  194.52   1-0.68855-0.61892-0.44274-0.08021 0.57434 0.78134
   2   5  -4 2878.50  218.92   1-0.40090-0.47068-0.18912-0.55128 0.89638 0.68887
  -2   5   4 2760.09  242.57   1 0.10496-0.23961-0.96887-0.86247 0.22420 0.44578
  -2  -5   4 2542.70  227.25   1 0.07614 0.14637-0.67731-0.31458 0.73174 0.93787
   2  -5  -4 2555.51  226.49   1 0.06835 0.41231-0.60178-0.70794 0.79572 0.57342
   2  -5  -317927.08  634.17   1 0.08849 0.39758 0.96939 0.91755 0.22899-0.00357
  -2   5   317892.57  588.14   1 0.02445-0.28468 0.87095 0.92315-0.49075-0.25832
   2   5  -317416.58  555.59   1-0.00114-0.10718 0.72916 0.42189-0.68433-0.90028
  -2  -5   317107.11  577.12   1-0.04243 0.06334 0.40820 0.71553-0.91190-0.69569
   2   5  -318128.34  580.83   1-0.79591-0.90096 0.59547 0.28738-0.10924-0.32508
  -2  -5   316181.08  486.49   1-0.76065-0.65554 0.38228 0.68948-0.52465-0.30799
   2  -5  -318092.93  538.43   1-0.69782-0.38808 0.26970 0.21821-0.66354-0.89541
  -2   5   317414.97  556.00   1-0.43470-0.74459-0.04799 0.00293-0.89929-0.66750
  -2  -5   316026.29  474.27   1-0.68005-0.57600-0.43442-0.12706 0.59058 0.80750
   2   5  -317607.18  546.69   1-0.43823-0.54246-0.21996-0.52697 0.87153 0.65423
  -2   5   318208.66  678.91   1 0.10671-0.20329-0.99370-0.94242 0.03397 0.26554
   2  -5  -316567.65  651.65   1 0.08691 0.39629-0.78296-0.83407 0.61596 0.38376
  -2  -5   317181.75  557.10   1 0.08282 0.18768-0.74260-0.43507 0.66458 0.88061
   2  -5  -2189843.1 2165.39   1 0.09781 0.37267 0.91099 0.91434 0.40064 0.15837
  -2   5   2193679.5 2057.57   1 0.05504-0.21969 0.97784 0.97473-0.20194 0.04034
   2   5  -2195028.4 2068.91   1 0.01050-0.12987 0.79903 0.54701-0.60118-0.82698
  -2  -5   2187477.7 2085.15   1-0.03003 0.11017 0.51731 0.76933-0.85526-0.62927
   2   5  -2179479.9 1917.74   1-0.76509-0.90457 0.64187 0.38896 0.05122-0.17449
  -2  -5   2178540.6 2100.33   1-0.79809-0.65836 0.48982 0.74225-0.35089-0.12493
   2  -5  -2178894.0 1847.98   1-0.74542-0.46999 0.35138 0.35513-0.56645-0.80807
  -2   5   2186379.7 1983.10   1-0.51037-0.78587 0.03097 0.02668-0.85939-0.61781
  -2  -5   2191668.9 1836.21   1-0.67677-0.53829-0.43123-0.17903 0.59667 0.82351
   2   5  -2190888.7 1876.69   1-0.46636-0.60505-0.24350-0.49535 0.85041 0.62332
  -2   5   2191699.9 2091.45   1 0.10413-0.17133-0.97904-0.98296-0.17499 0.06650
   2  -5  -2185092.4 2213.68   1 0.10054 0.37598-0.92074-0.91666 0.37700 0.13551
  -2  -5   2187628.2 2060.12   1 0.09072 0.23001-0.82078-0.56836 0.56398 0.78997
   2   5  -2190570.9 2189.37   1 0.06055-0.07876-0.52663-0.77908 0.84793 0.62195
   2  -5  -195402.02 1337.80   1 0.10334 0.34374 0.83517 0.89377 0.54018 0.28809
  -2   5   194399.72 1309.10   1 0.07677-0.16346 0.99542 0.93688 0.05690 0.30907
   2   5  -193658.89 1418.75   1 0.02519-0.14950 0.87441 0.67759-0.48452-0.72007
  -2  -5   194684.97 1258.15   1-0.01579 0.15880 0.62873 0.82545-0.77745-0.54166
   2   5  -191902.71 1186.02   1-0.70670-0.88061 0.67124 0.47368 0.22361-0.01214
  -2  -5   198301.39 1154.38   1-0.80069-0.62653 0.57817 0.77538-0.15687 0.07897
   2  -5  -191363.39 1101.04   1-0.79099-0.54996 0.46149 0.52050-0.40168-0.65315
  -2   5   192110.92 1272.76   1-0.59807-0.83914 0.13260 0.07326-0.79039-0.53895
  -2  -5   191725.75 1060.00   1-0.67887-0.50597-0.43327-0.23623 0.59279 0.82956
   2   5  -196416.77 1361.99   1-0.48592-0.65906-0.26002-0.45670 0.83442 0.59753
   2  -5  -194329.42 1506.60   1 0.10642 0.34735-0.98730-0.92817 0.11792-0.13352
  -2  -5   195809.28 1253.41   1 0.09886 0.27235-0.90324-0.70603 0.41756 0.65370
   2   5  -195035.55 1542.27   1 0.07348-0.10038-0.65138-0.84868 0.75518 0.51928
   2  -5   018091.08  598.92   1 0.10598 0.31203 0.75423 0.86805 0.64798 0.38616
  -2   5   019640.92  596.25   1 0.08991-0.11591 0.96341 0.84967 0.25247 0.51441
   2   5   020535.24  640.19   1 0.04254-0.16648 0.94352 0.80184-0.32856-0.57387
  -2  -5   019274.81  522.49   1-0.00001 0.20894 0.73630 0.87778-0.67664-0.43108
   2   5   020457.69  605.85   1-0.62372-0.83219 0.67777 0.53553 0.38935 0.14370
  -2  -5   020188.61  521.33   1-0.76992-0.56133 0.63731 0.77959 0.03219 0.27773
   2  -5   019596.81  563.81   1-0.79906-0.59273 0.58514 0.69904-0.13821-0.39999
  -2   5   019552.20  578.20   1-0.69374-0.90031 0.26339 0.14913-0.67032-0.40888
  -2  -5   019320.75  476.92   1-0.68626-0.47894-0.44049-0.29861 0.57879 0.82549
   2   5   019260.78  578.22   1-0.49733-0.70493-0.26972-0.41124 0.82456 0.57787
   2  -5   018834.76  552.14   1 0.10540 0.31179-0.98812-0.87379-0.11180-0.37318
  -2  -5   019189.29  549.14   1 0.10505 0.31293-0.96994-0.82781 0.21949 0.46561
   2   5   020000.77  707.25   1 0.08605-0.12244-0.77440-0.91640 0.62681 0.38106
   2  -5   1454243.5 3450.13   1 0.10671 0.27823 0.67501 0.84405 0.73004 0.45842
  -2   5  -1440812.8 3513.85   1 0.09724-0.07429 0.91624 0.74730 0.38862 0.66031
   2   5   1439479.2 3562.43   1 0.06110-0.18229 0.98890 0.90238-0.13540-0.39048
  -2  -5  -1445035.0 3301.60   1 0.01652 0.25986 0.83169 0.91795-0.55498-0.29973
  -2  -5  -1445563.5 3321.86   1-0.71747-0.47443 0.66814 0.75505 0.19700 0.45254
   2  -5   1468218.0 3528.20   1-0.71221-0.54054 0.66974 0.83906 0.21020-0.06143
  -2  -5  -1448236.4 3119.10   1-0.69855-0.45681-0.45265-0.36594 0.55418 0.81080
   2   5   1441600.4 3216.45   1-0.50082-0.74288-0.27270-0.35905 0.82146 0.56498
  -2  -5  -1451889.2 3431.43   1 0.10648 0.34893-0.99409-0.90718-0.02094 0.23508
   2   5   1447928.6 3772.63   1 0.09662-0.14600-0.88024-0.96705 0.46457 0.20851
   2  -5   253379.50 1057.24   1 0.10623 0.24330 0.59974 0.82397 0.79310 0.51173
  -2   5  -255702.19 1089.10   1 0.10121-0.03587 0.87142 0.64722 0.47998 0.76145
   2   5   254242.59 1122.57   1 0.07842-0.19937 0.99376 0.96221 0.07926-0.18547
  -2  -5  -254379.05 1038.45   1 0.03261 0.31032 0.90675 0.93783-0.42039-0.15542
  -2  -5  -253869.70  898.12   1-0.65794-0.38033 0.67804 0.70963 0.32766 0.59309
  -2   5  -254355.65  975.54   1-0.80366-0.94102 0.55579 0.33123-0.21261 0.06904
  -2  -5  -254168.06  868.02   1-0.71501-0.43885-0.46931-0.43776 0.51816 0.78471
   2   5   257131.38  966.31   1-0.49633-0.77285-0.26887-0.30005 0.82543 0.55916
   2  -5   256877.73  993.90   1 0.06965 0.20590 0.61427 0.83855 0.78601 0.50441
   2   5   254424.59 1035.45   1 0.10355-0.17345-0.95299-0.98466 0.28475 0.01871
   2  -5   360005.86 1084.07   1 0.10496 0.20758 0.52878 0.80819 0.84224 0.55111
   2   5   359280.31 1128.25   1 0.09222-0.21990 0.95182 0.97536 0.29245 0.01769
  -2  -5  -354762.58  994.51   1 0.04695 0.35904 0.95727 0.93326-0.28533-0.01058
  -2   5  -358302.07 1040.03   1-0.76593-0.86840 0.64112 0.36128 0.04801 0.33962
  -2  -5  -357883.57  948.84   1-0.73453-0.42396-0.48979-0.51330 0.46963 0.74617
   2   5   353152.05  976.76   1-0.48352-0.79449-0.25799-0.23400 0.83644 0.56037
  -2   5  -353501.20  935.53   1-0.04725-0.15149-0.54417-0.82340-0.83764-0.54685
   2  -5   355959.57  969.86   1 0.06208 0.16381 0.54132 0.82075 0.83851 0.54729
   2   5   355698.51 1190.91   1 0.10648-0.20504-0.98816-0.96466 0.11043-0.16547
   2   5   473114.09 1364.96   1 0.10128-0.24516 0.87041 0.94922 0.48178 0.19716
  -2  -5  -463830.17 1145.59   1 0.05874 0.40523 0.98508 0.90593-0.16174 0.12277
  -2   5  -467423.92 1097.73   1-0.10317-0.17278-0.46208-0.79637-0.88081-0.57959
  -2   5  -470484.92 1271.35   1-0.69641-0.76438 0.67357 0.33828 0.24757 0.54888
  -2  -5  -466357.67  998.60   1-0.75559-0.41059-0.51310-0.59178 0.40718 0.69368
   2   5   465522.08 1062.66   1-0.46166-0.80708-0.23954-0.16039 0.85409 0.56823
  -2   5  -466575.16 1075.86   1-0.07615-0.14610-0.46639-0.80089-0.88129-0.58071
   2  -5   465593.64 1007.45   1 0.05477 0.12198 0.47125 0.80583 0.88029 0.57943
   2   5   460179.10 1084.19   1 0.10634-0.23972-0.99356-0.91485-0.03906-0.32491
   2   5   524435.75  758.53   1 0.10576-0.27500 0.76503 0.89902 0.63524 0.34077
  -2  -5  -521992.51  672.35   1 0.06775 0.44866 0.99602 0.86185-0.05781 0.23643
  -2   5  -525436.79  721.57   1-0.10098-0.13625-0.39840-0.78792-0.91163-0.60051
  -2   5  -522382.66  652.42   1-0.62858-0.66199 0.67801 0.28739 0.38102 0.69222
  -2  -5  -524184.49  579.88   1-0.77613-0.39675-0.53797-0.67182 0.32892 0.62549
   2   5   522439.28  674.48   1-0.42950-0.80940-0.21271-0.07838 0.87765 0.58200
  -2   5  -523883.28  578.31   1-0.10015-0.13580-0.39720-0.78695-0.91224-0.60187
   2   5   520524.57  646.75   1 0.10455-0.27604-0.98218-0.84827-0.15613-0.45191
   2   5   6  169.62   78.88   1 0.10666-0.30861 0.64965 0.83872 0.75270 0.44866
  -2  -5  -6  116.90   70.58   1 0.07431 0.48976 0.99693 0.80772 0.02431 0.32819
  -2   5  -6  247.49  130.58   1-0.09849-0.09941-0.33734-0.78208-0.93621-0.61519
  -2   5  -6  148.33   73.28   1-0.10192-0.10252-0.33405-0.78000-0.93702-0.61732
  -2  -5  -6   71.14   55.85   1-0.79328-0.37944-0.56245-0.75147 0.23310 0.53972
   2   5   6  159.76   75.76   1-0.38527-0.79962-0.17632 0.01318 0.90580 0.60035
  -2   5  -6  216.61  115.91   1-0.25547-0.25739-0.31957-0.76454-0.91247-0.59094
   2   5   6  195.31   74.27   1 0.06993-0.34584 0.61703 0.80582 0.78382 0.48067
   2   5   7213226.8 2173.14   1 0.10507-0.34465 0.53374 0.77799 0.83909 0.52530
  -2   5  -7202406.0 2021.79   1-0.09575-0.06232-0.27840-0.77833-0.95568-0.62474
  -2   5  -7188135.6 2281.66   1-0.18127-0.14750-0.27325-0.77442-0.94470-0.61523
  -2  -5  -7205771.2 2019.20   1-0.80324-0.35501-0.58406-0.82827 0.11688 0.43349
  -2   5  -7202272.3 2887.96   1-0.19122-0.15883-0.27575-0.77599-0.94201-0.61040
  -2  -5  -7215308.8 1805.80   1-0.06514 0.38292-0.49673-0.74197-0.86545-0.55031
   2   5   7203116.3 2011.49   1 0.05618-0.39411 0.48476 0.72870 0.87283 0.56005
  -2   5  -8107249.4 1562.54   1-0.09278-0.02501-0.22102-0.77618-0.97084-0.63000
  -2  -5  -8103139.6 1572.32   1-0.10196 0.38090-0.42528-0.72504-0.89929-0.57377
  -2  -5  -898133.93 1376.82   1-0.80033-0.31773-0.59908-0.89848-0.02375 0.30293
  -2   5  -891751.64 1873.32   1-0.11490-0.04821-0.22245-0.77795-0.96814-0.62646
  -2   5  -9  -36.28  103.23   1-0.08960 0.01250-0.16489-0.77527-0.98223-0.63149
  -2  -5  -9   56.31   87.70   1-0.09772 0.41949-0.32005-0.67503-0.94234-0.60692
  -2   5  -9   82.27  106.08   1-0.30277-0.20010-0.17172-0.78343-0.93746-0.58837
  -2  -5  -9  108.04   75.59   1-0.10872 0.40867-0.32899-0.68483-0.93805-0.60331
  -2   5  -9   42.46  134.04   1-0.02441 0.07657-0.15757-0.76834-0.98720-0.63544
  -2  -5  -9   55.34   65.76   1-0.11893 0.39772-0.33995-0.69570-0.93289-0.59817
  -2   5 -10 1349.93  167.66   1-0.08623 0.04984-0.10983-0.77541-0.99020-0.62947
  -2  -5 -10 1232.34  164.37   1-0.09276 0.45880-0.22074-0.63094-0.97091-0.62562
  -2   5 -10 1409.51  188.90   1-0.35200-0.21482-0.12735-0.79434-0.92729-0.56821
  -2  -5 -10 1363.45  149.67   1-0.16211 0.38965-0.28831-0.69936-0.94371-0.59920
  -2   5 -11 7429.50  387.38   1-0.08266 0.08772-0.05535-0.77616-0.99503-0.62439
  -2  -5 -11 8178.94  405.93   1-0.08731 0.49834-0.12697-0.59260-0.98805-0.63283
  -2   5 -11 8616.96  440.80   1-0.39660-0.22503-0.08536-0.80757-0.91401-0.54514
  -2  -5 -11 8436.06  358.73   1-0.21206 0.37409-0.24852-0.71480-0.94512-0.59085
  -2   5 -12  440.09  156.59   1-0.07888 0.12580-0.00125-0.77742-0.99688-0.61626
  -2   5 -12  680.82  149.17   1-0.43756-0.23143-0.04512-0.82260-0.89805-0.51937
  -2  -5 -12  940.04  201.12   1-0.25917 0.36149-0.20939-0.73099-0.94285-0.57876
   2   6 -13  768.34  141.69   1-0.02308 0.17254 0.57347-0.31200-0.81889-0.93428
   2   6 -13  732.24  123.39   1-0.75675-0.55929 0.37404-0.51122-0.53611-0.65256
   2  -6 -13  921.66  132.98   1-0.61872 0.07658 0.15863-0.41939-0.76942-0.90456
  -2  -6  13  715.47  169.14   1 0.06453-0.13474-0.56489 0.31977 0.82263 0.93786
   2   6 -12 3432.41  261.57   1-0.02474 0.13657 0.56036-0.26983-0.82787-0.95317
   2   6 -12 3688.71  250.83   1-0.75658-0.59352 0.37367-0.45633-0.53661-0.66293
   2  -6 -12 4017.62  274.92   1-0.60872 0.05218 0.14591-0.37686-0.77984-0.92479
  -2  -6  12 3621.49  536.76   1 0.06332-0.10140-0.55329 0.27623 0.83057 0.95572
   2   6 -11 2702.28  209.49   1-0.02592 0.10109 0.55095-0.22397-0.83413-0.96933
   2   6 -11 2651.00  193.85   1-0.75840-0.62976 0.37750-0.39726-0.53133-0.66752
   2  -6 -11 2831.08  187.73   1-0.60040 0.02611 0.13549-0.33204-0.78813-0.94290
  -2   6  11 2609.76  271.53   1 0.08590-0.54124-0.77297-0.30607 0.62859 0.78317
  -2  -6  11 3031.38  261.83   1 0.06248-0.06770-0.54521 0.22916 0.83596 0.97103
   2   6 -1042700.91  971.79   1-0.02655 0.06615 0.54588-0.17378-0.83744-0.98255
   2   6 -1041320.21  849.80   1-0.76248-0.66824 0.38625-0.33326-0.51906-0.66512
   2  -6 -1043810.45  892.26   1-0.59419-0.00207 0.12781-0.28447-0.79410-0.95868
  -2  -6  1040690.76  939.12   1-0.78160-0.87666-0.54519 0.17422 0.30308 0.44844
  -2   6  1045168.60 1173.68   1 0.08711-0.50549-0.78490-0.37318 0.61346 0.77794
  -2  -6  1047971.72 1269.30   1 0.06208-0.03355-0.54136 0.17787 0.83849 0.98348
   2  -6  -9  444.71   97.64   1 0.03322 0.58989 0.90922 0.55105-0.41498-0.59022
   2   6  -9  389.37  130.52   1-0.02654 0.03185 0.54591-0.11848-0.83741-0.99244
   2   6  -9  325.58   99.47   1-0.76893-0.70909 0.40079-0.26347-0.49810-0.65403
   2  -6  -9  453.78   99.56   1-0.59068-0.03295 0.12351-0.23353-0.79739-0.97179
  -2  -6   9  435.56   89.91   1-0.75816-0.81913-0.51607 0.14801 0.39856 0.55417
   2  -6  -9  433.64  104.91   1-0.06030 0.49791 0.07667-0.27959 0.99523 0.82091
  -2   6   9  422.10  160.02   1 0.04758-0.51046-0.10468 0.25376-0.99336-0.82160
  -2   6   9  430.95  134.91   1 0.08912-0.46915-0.80483-0.44808 0.58677 0.76099
  -2  -6   9  449.58  126.40   1 0.06221 0.00112-0.54260 0.12149 0.83768 0.99259
   2  -6  -8  668.70  127.26   1 0.04110 0.56350 0.93868 0.63589-0.34231-0.52735
   2   6  -8  545.94  109.38   1-0.02578-0.00169 0.55202-0.05710-0.83342-0.99836
  -2   6   8  487.76  117.32   1-0.09341-0.61666-0.23272 0.07016-0.96804-0.78409
   2   6  -8  557.94   98.77   1-0.77750-0.75186 0.42181-0.18734-0.46642-0.63213
   2  -6  -8  615.09   97.74   1-0.59061-0.06728 0.12343-0.17836-0.79745-0.98166
   2  -6  -8  552.04  126.60   1-0.78255-0.25836-0.60222-0.90424-0.15789-0.33998
  -2  -6   8 1237.42  141.59   1-0.73310-0.75965-0.48825 0.12067 0.47345 0.63902
  -2   6   8  561.98  203.18   1-0.06856-0.59229-0.18945 0.11373-0.97949-0.79765
  -2   6   8  611.62  134.66   1 0.09205-0.43166-0.83406-0.53251 0.54393 0.72807
  -2  -6   8  458.41  124.71   1 0.06298 0.03644-0.55003 0.05892 0.83276 0.99759
   2  -6  -7 1727.59  184.11   1 0.05174 0.53981 0.97020 0.72273-0.23668-0.43158
   2   6  -7 1295.07  160.95   1-0.02411-0.03432 0.56535 0.01149-0.82449-0.99934
  -2   6   7 1305.50  185.11   1-0.08362-0.57230-0.06961 0.17819-0.99406-0.80045
   2   6  -7 1605.78  145.04   1-0.78765-0.79644 0.45055-0.10333-0.42023-0.59581
   2  -6  -7 1383.29  136.06   1-0.59499-0.10605 0.12880-0.11775-0.79334-0.98736
   2  -6  -7 1119.33  188.44   1-0.75380-0.26398-0.59546-0.84229-0.27785-0.46995
  -2  -6   7 1383.92  152.74   1-0.70928-0.70146-0.46346 0.09017 0.53115 0.70697
  -2   6   7 1308.57  256.03   1-0.15696-0.64639-0.25199-0.00407-0.95491-0.76299
  -2   6   7 1675.03  187.04   1 0.09582-0.39369-0.87209-0.62590 0.47986 0.67324
  -2  -6   7 1364.30  170.28   1 0.06454 0.07254-0.56502-0.01120 0.82254 0.99730
   2  -6  -6 5005.50  364.75   1 0.06480 0.51859 0.99356 0.80154-0.09286-0.29762
   2   6  -6 4925.80  279.73   1-0.02131-0.06582 0.58724 0.08865-0.80912-0.99388
  -2   6   6 4278.51  305.41   1-0.06745-0.52158 0.14547 0.33803-0.98706-0.78338
   2   6  -6 4878.75  262.22   1-0.79743-0.84078 0.48674-0.01262-0.35662-0.54121
   2  -6  -6 5010.89  282.28   1-0.60509-0.15055 0.14135-0.04995-0.78350-0.98733
  -2  -6   6 5055.05  275.99   1-0.68775-0.64551-0.44195 0.05651 0.57590 0.76165
  -2   6   6 4335.45  494.36   1-0.22496-0.68008-0.29889-0.10623-0.92739-0.72539
  -2   6   6 4705.76  308.17   1 0.10019-0.35488-0.91716-0.72608 0.38570 0.58894
  -2  -6   6 5063.63  309.54   1 0.06706 0.10960-0.58924-0.09057 0.80516 0.98983
   2  -6  -5 3113.66  281.69   1 0.07859 0.49797 0.99356 0.85690 0.08153-0.13317
   2   6  -5 3190.99  221.97   1-0.01709-0.09601 0.61910 0.17582-0.78511-0.97972
  -2   6   5 2828.14  242.38   1-0.04204-0.46177 0.41177 0.54909-0.91031-0.69659
   2   6  -5 3459.57  260.02   1-0.80368-0.88150 0.53045 0.08642-0.26966-0.46420
  -2  -6   5 2779.31  193.08   1-0.63045-0.55272 0.17387 0.61680-0.75649-0.56039
   2  -6  -5 3380.57  216.06   1-0.62258-0.20243 0.16361 0.02754-0.76525-0.97890
  -2  -6   5 3123.19  199.66   1-0.67008-0.59343-0.42478 0.01840 0.60872 0.80467
  -2   6   5 2842.94  369.03   1-0.27683-0.69764-0.33390-0.19651-0.90103-0.68896
  -2   6   5 2831.88  252.32   1 0.10431-0.31623-0.96149-0.82555 0.25424 0.46739
  -2  -6   5 3210.09  263.06   1 0.07072 0.14781-0.62465-0.18112 0.77769 0.97228
   2  -6  -415432.78  613.82   1 0.09059 0.47559 0.96023 0.87877 0.26407 0.03960
  -2   6   414695.67  546.13   1-0.00711-0.39229 0.68991 0.77204-0.72385-0.50005
   2   6  -414946.33  520.38   1-0.01110-0.12431 0.66243 0.27441-0.74903-0.95354
   2   6  -415940.26  506.29   1-0.80071-0.91290 0.57804 0.18926-0.15720-0.36163
  -2  -6   414061.87  424.74   1-0.70646-0.59412 0.28336 0.67127-0.64854-0.44318
   2  -6  -414819.70  475.62   1-0.64951-0.26389 0.19942 0.11838-0.73373-0.95726
  -2   6   414506.70  538.62   1-0.31065-0.69643-0.16475-0.08418-0.93613-0.71266
  -2  -6   414356.27  432.88   1-0.65648-0.54540-0.41180-0.02378 0.63201 0.83783
  -2   6   415337.78  557.89   1 0.10663-0.27934-0.99079-0.90994 0.08338 0.30654
  -2  -6   414451.30  526.71   1 0.07572 0.18736-0.67319-0.28480 0.73557 0.94009
   2  -6  -413022.61  516.08   1 0.06865 0.45403-0.60461-0.68510 0.79355 0.56963
   2  -6  -3170144.5 2146.09   1 0.09910 0.44986 0.89783 0.87156 0.42904 0.19492
  -2   6   3170042.0 2053.71   1 0.03064-0.32001 0.89856 0.92525-0.43777-0.20369
   2   6  -3161799.0 2033.92   1-0.00290-0.15047 0.71783 0.38506-0.69620-0.91053
   2   6  -3179539.4 1831.34   1-0.78149-0.92802 0.62360 0.28990-0.01970-0.23392
  -2  -6   3162078.5 1596.77   1-0.76689-0.62029 0.39609 0.72886-0.50495-0.28980
   2  -6  -3169333.5 1692.48   1-0.68747-0.33623 0.25383 0.22790-0.68040-0.91378
  -2   6   3169646.8 1859.13   1-0.36713-0.71847-0.11331-0.08800-0.92323-0.68996
  -2  -6   3162141.9 1618.88   1-0.64780-0.50227-0.40361-0.07076 0.64610 0.86180
   2   6  -3162992.5 1798.83   1-0.36959-0.51526-0.16356-0.49616 0.91468 0.69879
  -2   6   3168700.1 1950.04   1 0.10534-0.24608-0.98771-0.96207-0.11539 0.11769
   2  -6  -3167902.1 2239.18   1 0.08808 0.43902-0.79448-0.82003 0.60086 0.36715
  -2  -6   3170168.2 2019.07   1 0.08216 0.22845-0.73613-0.40294 0.67183 0.88625
   2  -6  -2337281.1 3088.53   1 0.10397 0.42028 0.82115 0.85013 0.56115 0.31721
  -2   6   2346337.0 2994.93   1 0.06131-0.25492 0.98921 0.96057-0.13299 0.11096
   2   6  -2333119.6 2858.92   1 0.00796-0.17390 0.78458 0.50708-0.61996-0.84416
  -2  -6   2337498.6 3038.53   1-0.03728 0.14437 0.45500 0.73255-0.88970-0.66522
  -2  -6   2362050.0 2996.81   1-0.80008-0.61885 0.50021 0.77821-0.33114-0.10676
   2  -6  -2325008.1 2578.06   1-0.73607-0.41922 0.33387 0.36319-0.58883-0.83206
  -2   6   2345133.4 2969.01   1-0.43243-0.74940-0.05026-0.08014-0.90026-0.65724
  -2  -6   2346860.0 2625.09   1-0.64438-0.46443-0.40041-0.12272 0.65148 0.87706
   2   6  -2342800.3 2771.91   1-0.39620-0.57633-0.18526-0.46272 0.89927 0.67359
   2  -6  -2344499.0 3086.42   1 0.10159 0.41845-0.93183-0.90210 0.34836 0.10535
  -2  -6   2328296.5 2923.94   1 0.08984 0.27055-0.81202-0.53395 0.57666 0.80105
   2   6  -2330453.5 3091.67   1 0.05371-0.12701-0.46115-0.73926 0.88568 0.66133
   2  -6  -168137.89 1235.86   1 0.10619 0.38814 0.74208 0.82627 0.66184 0.40817
  -2   6   169388.15 1202.19   1 0.08139-0.20033 0.98931 0.90521 0.12092 0.37477
   2   6  -168329.45 1123.08   1 0.02177-0.19444 0.85818 0.63592-0.51288-0.74685
  -2  -6   163997.01 1072.65   1-0.02496 0.19108 0.55864 0.78089-0.82902-0.59471
   2   6  -169513.31 1121.18   1-0.67353-0.88891 0.67694 0.45376 0.29680 0.06265
  -2  -6   167323.95 1044.90   1-0.79939-0.58373 0.58386 0.80664-0.14169 0.09255
   2  -6  -168898.47 1047.48   1-0.78565-0.50314 0.44441 0.52899-0.43040-0.68338
  -2   6   162322.18 1078.58   1-0.51089-0.79346 0.03153-0.05356-0.85906-0.60624
  -2  -6   167868.85  996.20   1-0.64641-0.43201-0.40231-0.17978 0.64830 0.88376
   2   6  -164046.03 1091.08   1-0.41470-0.62928-0.20047-0.42276 0.88759 0.65212
   2  -6  -167218.30 1292.68   1 0.10662 0.38898-0.99063-0.90586 0.08532-0.16764
  -2  -6   170465.27 1203.13   1 0.09793 0.31285-0.89374-0.67087 0.43775 0.67234
   2   6  -166419.58 1239.14   1 0.06600-0.14927-0.57908-0.80204 0.81259 0.57831
   2  -6   0279136.9 2583.63   1 0.10671 0.35413 0.66656 0.80601 0.73776 0.47426
  -2   6   0267341.3 2498.83   1 0.09286-0.15448 0.94821 0.80884 0.30374 0.56737
   2   6   0271242.5 2482.22   1 0.03829-0.21224 0.92874 0.76154-0.36872-0.61237
  -2  -6   0269325.7 2420.70   1-0.01112 0.23931 0.66227 0.82921-0.74917-0.50510
  -2  -6   0272898.6 2425.24   1-0.76808-0.51801 0.63912 0.80701 0.03961 0.28352
   2  -6   0272928.5 2390.84   1-0.80122-0.55340 0.57546 0.71494-0.16394-0.42731
  -2   6   0265831.4 2669.27   1-0.60618-0.85434 0.14271 0.00254-0.78241-0.51970
  -2  -6   0286629.1 2318.18   1-0.65382-0.40499-0.40929-0.24192 0.63638 0.88173
   2   6   0254797.2 2530.61   1-0.42534-0.67439-0.20926-0.37639 0.88050 0.63523
   2  -6   0258690.9 2546.57   1 0.10489 0.35271-0.98460-0.84462-0.13982-0.40273
  -2  -6   0269044.6 2563.43   1 0.10447 0.35377-0.96327-0.79549 0.24737 0.49197
   2   6   0274400.3 3088.70   1 0.07860-0.17131-0.70121-0.86885 0.70860 0.46447
   2  -6   1 7219.88  343.94   1 0.10618 0.31915 0.59580 0.79044 0.79607 0.52282
  -2   6  -1 6923.02  363.98   1 0.09904-0.11396 0.89847 0.70394 0.42771 0.70104
   2   6   1 7789.18  363.86   1 0.05655-0.22834 0.98097 0.86892-0.18571-0.43912
  -2  -6  -1 7243.70  338.82   1 0.00380 0.28860 0.75992 0.87163-0.64999-0.39618
  -2  -6  -1 7205.78  324.26   1-0.71761-0.43310 0.66809 0.78063 0.19665 0.45058
   2  -6   1 7435.72  365.81   1-0.71129-0.49815 0.67001 0.86495 0.21246-0.06078
  -2   6  -1 6837.68  354.61   1-0.71198-0.92565 0.29231 0.09724-0.63845-0.36565
  -2  -6  -1 6808.94  285.75   1-0.66635-0.38308-0.42120-0.30900 0.61527 0.87049
   2   6   1 7367.14  353.69   1-0.42822-0.71172-0.21165-0.32361 0.87853 0.62347
   2  -6   1 7369.21  352.78   1 0.07007 0.28224 0.61839 0.81313 0.78273 0.50907
  -2  -6  -1 7300.72  332.76   1 0.10665 0.39053-0.99424-0.88168 0.01028 0.26478
   2   6   1 7349.48  407.94   1 0.09023-0.19414-0.81586-0.92833 0.57115 0.31703
   2  -6   247326.62  980.91   1 0.10498 0.28350 0.52955 0.77937 0.84175 0.55874
  -2   6  -246981.30  961.21   1 0.10232-0.07622 0.85407 0.60430 0.50998 0.79310
   2   6   250037.91  980.33   1 0.07434-0.24492 0.99692 0.93980 0.02477-0.23828
  -2  -6  -246695.80  906.27   1 0.01901 0.33818 0.84446 0.90096-0.53527-0.27184
  -2  -6  -244113.88  835.96   1-0.66112-0.34204 0.67789 0.73510 0.32151 0.58533
  -2   6  -246545.19  927.42   1-0.79094-0.97017 0.46133 0.21097-0.40196-0.11935
  -2  -6  -251398.53  879.85   1-0.68347-0.36585-0.43776-0.38058 0.58414 0.84929
   2   6   243506.46  853.80   1-0.42321-0.74117-0.20750-0.26430 0.88194 0.61708
   2  -6   249721.64  945.20   1 0.06302 0.24066 0.55036 0.80025 0.83254 0.54924
   2   6   249448.40 1276.53   1 0.09930-0.21912-0.90785-0.96518 0.40735 0.14284
   2   6   314014.31  509.38   1 0.08934-0.26430 0.96590 0.96397 0.24299-0.02989
  -2  -6  -312446.19  458.56   1 0.03342 0.38699 0.91003 0.91138-0.41317-0.14004
  -2   6  -312823.78  517.72   1-0.10332-0.24879-0.46709-0.77169-0.87815-0.58530
  -2   6  -312056.44  496.47   1-0.79649-0.94061 0.59377 0.28835-0.11413 0.17913
  -2  -6  -314277.66  425.53   1-0.70434-0.35229-0.45846-0.45644 0.54195 0.81703
   2   6   312257.05  449.24   1-0.40997-0.76239-0.19657-0.19821 0.89066 0.61601
  -2   6  -312895.90  396.08   1-0.07204-0.21779-0.47782-0.78256-0.87549-0.58322
   2  -6   313493.49  448.70   1 0.05620 0.19933 0.48495 0.78999 0.87273 0.57980
   2   6   312078.80  529.17   1 0.10469-0.24825-0.96580-0.96797 0.23720-0.03723
   2   6   4329420.7 2728.53   1 0.09971-0.28818 0.89091 0.94409 0.44309 0.16009
  -2  -6  -4316453.5 3135.30   1 0.04604 0.43399 0.95456 0.90084-0.29440-0.01150
  -2   6  -4335683.8 2643.46   1-0.10133-0.21245-0.40776-0.76759-0.90744-0.60470
  -2   6  -4331954.6 2495.68   1-0.74202-0.85140 0.65782 0.29705 0.12912 0.43228
  -2  -6  -4326328.0 2870.38   1-0.72777-0.34130-0.48259-0.53565 0.48728 0.77239
  -2   6  -4339563.6 3281.70   1-0.28580-0.39786-0.33989-0.69986-0.89598-0.59320
   2  -6   4339358.8 2307.15   1 0.04960 0.15820 0.42191 0.78211 0.90527 0.60271
   2   6   5165307.7 2045.61   1 0.10524-0.31699 0.78544 0.89385 0.60991 0.31706
  -2  -6  -5160062.1 1734.80   1 0.05634 0.47870 0.98055 0.87171-0.18796 0.10469
  -2   6  -5166246.7 1602.91   1-0.09907-0.17584-0.35074-0.76580-0.93121-0.61856
  -2   6  -5169480.8 1843.11   1-0.67326-0.74813 0.67697 0.26073 0.29736 0.61016
  -2   6  -5152401.5 1479.09   1-0.07767-0.15414-0.35180-0.76811-0.93284-0.62147
  -2  -6  -5167707.2 1381.79   1-0.75209-0.33120-0.50911-0.61733 0.41850 0.71357
   2   6   5160510.6 1804.54   1-0.35580-0.77713-0.15238-0.04367 0.92205 0.62781
  -2   6  -5177871.0 2250.82   1-0.24529-0.32305-0.31269-0.72793-0.91763-0.60477
  -2   6  -5164683.4 1478.09   1-0.11713-0.19429-0.34555-0.76081-0.93105-0.61920
   2   6   6 3485.44  257.65   1 0.10671-0.35001 0.66539 0.82886 0.73882 0.43642
  -2  -6  -6 2918.03  254.18   1 0.06422 0.52101 0.99294 0.82912-0.09966 0.20271
  -2   6  -6 3514.95  264.92   1-0.09657-0.13901-0.29550-0.76578-0.95044-0.62789
  -2   6  -6 3411.47  311.89   1-0.61474-0.65504 0.67718 0.20562 0.40437 0.72706
  -2   6  -6 3493.91  254.32   1-0.17174-0.21384-0.28077-0.75230-0.94428-0.62314
  -2  -6  -6 3391.47  231.82   1-0.77518-0.31990-0.53674-0.70015 0.33315 0.63830
   2   6   6 3013.20  285.51   1-0.31252-0.76829-0.11764 0.04636 0.94259 0.63841
  -2   6  -6 3369.00  340.42   1-0.19599-0.23944-0.27905-0.74954-0.94006-0.61712
   2   6   6 3416.09  261.88   1 0.07117-0.38600 0.62903 0.79221 0.77411 0.47265
   2   6   6 2834.31  238.72   1 0.10475-0.35182-0.98355-0.82008-0.14711-0.45130
   2   6   7141712.9 3108.29   1 0.10526-0.38591 0.54246 0.76112 0.83345 0.52130
  -2   6  -7148182.3 3109.40   1-0.09388-0.10196-0.24164-0.76712-0.96581-0.63334
  -2   6  -7140439.0 2915.27   1-0.24413-0.25172-0.22205-0.74891-0.94397-0.61299
  -2  -6  -7148257.7 3115.44   1-0.79385-0.30411-0.56339-0.78199 0.22885 0.54406
   2   6   7129174.8 2883.10   1-0.25522-0.74543-0.07231 0.14686 0.96417 0.65019
  -2   6  -7156054.3 3604.08   1-0.13722-0.14637-0.23818-0.76394-0.96147-0.62846
  -2  -6  -7159903.4 3184.66   1-0.06448 0.42509-0.49852-0.71825-0.86447-0.55081
   2   6   7141501.1 2942.11   1 0.05624-0.43544 0.48538 0.70371 0.87248 0.56140
  -2   6  -8 2844.63  246.91   1-0.09098-0.06472-0.18873-0.76943-0.97780-0.63543
  -2  -6  -8 2417.02  226.24   1-0.10201 0.42236-0.42684-0.70106-0.89854-0.57455
  -2   6  -8 2443.99  217.82   1-0.30322-0.27642-0.17132-0.75339-0.93739-0.59663
  -2  -6  -8 2561.02  204.61   1-0.05476 0.46975-0.36824-0.64329-0.92811-0.60456
  -2  -6  -8 2494.11  212.10   1-0.80371-0.27958-0.58629-0.86003 0.10150 0.42682
  -2   6  -8 2308.69  286.80   1-0.06799-0.04283-0.18904-0.77007-0.97961-0.63651
  -2  -6  -8 2674.94  197.02   1-0.09381 0.43006-0.41592-0.69092-0.90454-0.58109
  -2   6  -9 3397.93  259.88   1-0.08791-0.02766-0.13666-0.77253-0.98670-0.63436
  -2  -6  -9 3298.38  247.53   1-0.09747 0.46125-0.31457-0.64401-0.94421-0.61031
  -2   6  -9 3211.91  353.51   1-0.35352-0.29220-0.12596-0.76330-0.92690-0.57617
  -2  -6  -9 3225.89  259.55   1-0.11047 0.44841-0.32769-0.65795-0.93830-0.60499
  -2   6  -9 3021.93  410.12   1 0.01314 0.07261-0.13011-0.76640-0.99141-0.63823
  -2  -6  -9 3014.44  201.54   1-0.11936 0.43880-0.33858-0.66883-0.93333-0.60009
  -2   6 -1011356.87  481.95   1-0.08464 0.00991-0.08501-0.77611-0.99277-0.63051
  -2  -6 -1011590.47  541.12   1-0.09212 0.50096-0.20892-0.59359-0.97358-0.62983
  -2   6 -1011641.58  507.71   1-0.39823-0.30252-0.08379-0.77636-0.91344-0.55292
  -2  -6 -1011476.90  423.52   1-0.16247 0.43079-0.28803-0.67351-0.94373-0.60065
  -2   6 -11 1421.49  330.38   1-0.08117 0.04768-0.03368-0.78001-0.99612-0.62394
  -2   6 -11 1218.27  223.82   1-0.43877-0.30852-0.04391-0.79175-0.89752-0.52719
  -2  -6 -11 2052.45  215.23   1-0.21131 0.41632-0.24913-0.68983-0.94513-0.59228
  -2   6 -12 7827.94  527.28   1-0.07751 0.08564 0.01756-0.78412-0.99683-0.61466
  -2  -6 -12 8771.91  436.36   1-0.25757 0.40458-0.21074-0.70677-0.94299-0.58033
   2   7 -12 5790.64  314.24   1-0.02462 0.09515 0.56131-0.29438-0.82723-0.95093
   2   7 -12 5495.88  306.00   1-0.77163-0.65008 0.40718-0.44840-0.48864-0.61345
   2  -7 -12 5892.91  317.92   1-0.60538 0.09701 0.14171-0.35549-0.78321-0.92962
  -2  -7  12 7548.69  477.82   1 0.06360-0.05971-0.55594 0.29923 0.82877 0.95231
   2   7 -1162008.07 1004.34   1-0.02575 0.05971 0.55227-0.24815-0.83326-0.96687
   2   7 -1165345.74 1126.25   1-0.77393-0.68678 0.41278-0.38755-0.48023-0.61491
   2  -7 -1158385.86  930.05   1-0.59686 0.07114 0.13110-0.31085-0.79156-0.94779
   2   7 -1031067.92  838.78   1-0.02635 0.02481 0.54745-0.19771-0.83642-0.97994
   2   7 -1032416.43  830.16   1-0.77802-0.72502 0.42316-0.32208-0.46432-0.60877
   2  -7 -1033881.54  836.37   1-0.59041 0.04319 0.12319-0.26352-0.79764-0.96368
  -2  -7  1023773.29 1151.68   1-0.76063-0.81454-0.51895 0.22593 0.39003 0.53429
  -2   7  1024903.15 1331.36   1 0.09193-0.54231-0.83290-0.44659 0.54573 0.71165
  -2  -7  1038350.51 1039.05   1 0.06242 0.00820-0.54464 0.20024 0.83633 0.97971
   2   7  -9 4596.58  278.25   1-0.02634-0.00947 0.54757-0.14231-0.83634-0.98977
   2   7  -9 4806.71  297.97   1-0.78397-0.76539 0.43946-0.25052-0.43848-0.59279
   2  -7  -9 4775.46  261.85   1-0.58662 0.01259 0.11856-0.21290-0.80113-0.97699
  -2  -7   9 3632.61  314.80   1-0.73353-0.75303-0.48871 0.20100 0.47231 0.62652
   2  -7  -9 4775.50  368.90   1-0.09931 0.50035 0.04745-0.28319 0.99392 0.81819
  -2   7   9 4329.68  344.36   1 0.09412-0.50594-0.85489-0.52395 0.51019 0.68519
  -2  -7   9 5133.45  336.60   1 0.06257 0.04290-0.54606 0.14368 0.83539 0.98869
   2  -7  -8   21.75   63.00   1 0.06136 0.62531 0.98929 0.71212-0.13242-0.31917
   2   7  -8   18.07   69.66   1-0.02560-0.04304 0.55353-0.08108-0.83243-0.99577
   2   7  -8   22.54   60.87   1-0.79118-0.80703 0.46216-0.17256-0.40053-0.56472
   2  -7  -8   68.95   80.41   1-0.58620-0.02138 0.11806-0.15816-0.80151-0.98718
  -2  -7   8   35.83   57.37   1-0.70702-0.69217-0.46117 0.17324 0.53612 0.70062
  -2   7   8   51.72  154.76   1-0.01346-0.57872-0.14960 0.12805-0.98865-0.80540
  -2   7   8   54.78  112.06   1 0.09712-0.46836-0.88544-0.60971 0.45447 0.63944
  -2  -7   8  -57.96  123.13   1 0.06335 0.07822-0.55352 0.08108 0.83041 0.99363
   2  -7  -743652.74  969.76   1 0.07316 0.60283 0.99727 0.77560 0.00945-0.18717
   2   7  -743298.55  893.95   1-0.02398-0.07573 0.56639-0.01296-0.82378-0.99704
  -2   7   737733.92 1140.58   1-0.09088-0.62130-0.18689 0.03523-0.97816-0.78277
   2   7  -747098.41  926.22   1-0.79839-0.84878 0.49129-0.08898-0.34813-0.52120
   2  -7  -742730.18  804.99   1-0.59014-0.05971 0.12285-0.09812-0.79789-0.99338
  -2  -7   742181.75  990.99   1-0.68224-0.63296-0.43655 0.14270 0.58648 0.76091
  -2   7   746694.64 1460.71   1-0.09431-0.62527-0.20785 0.01454-0.97360-0.78027
  -2   7   745856.76 1026.49   1 0.10069-0.43036-0.92238-0.70176 0.37291 0.56772
  -2  -7   739432.20 1040.56   1 0.06488 0.11430-0.56831 0.01115 0.82024 0.99338
   2  -7  -665986.64 1493.20   1 0.08537 0.58069 0.97997 0.81368 0.17990-0.02665
   2   7  -664546.17 1446.35   1-0.02129-0.10734 0.58736 0.06328-0.80903-0.99220
  -2   7   660192.12 1540.79   1-0.07463-0.57043 0.05589 0.22295-0.99564-0.79050
   2   7  -657317.55 1315.59   1-0.80348-0.88833 0.52739 0.00245-0.27617-0.45918
   2  -7  -664782.69 1296.28   1-0.59969-0.10366 0.13461-0.03112-0.78882-0.99412
  -2  -7   665427.28 1311.40   1-0.66079-0.57713-0.41590 0.10806 0.62479 0.80946
  -2   7   667395.78 1972.77   1-0.15787-0.65452-0.25263-0.08550-0.95459-0.75118
  -2   7   668115.91 1631.37   1 0.10423-0.39229-0.96053-0.79504 0.25787 0.46261
  -2  -7   663651.10 1362.25   1 0.06734 0.15131-0.59201-0.06768 0.80310 0.98616
   2  -7  -512065.54  526.48   1 0.09554 0.55664 0.93029 0.81920 0.35415 0.13801
   2   7  -511527.55  438.96   1-0.01728-0.13773 0.61772 0.14894-0.78620-0.97920
  -2   7   511325.54  478.15   1-0.04567-0.50694 0.37763 0.48945-0.92482-0.70953
   2   7  -511285.24  390.70   1-0.80241-0.92161 0.56817 0.09847-0.18251-0.37540
  -2  -7   510232.82  392.23   1-0.63731-0.51789 0.18294 0.65152-0.74857-0.55434
   2  -7  -512231.74  410.36   1-0.61650-0.15487 0.15579 0.04529-0.77178-0.98689
  -2  -7   510924.04  489.33   1-0.64289-0.52479-0.39901 0.06978 0.65381 0.84836
  -2   7   511063.95  682.66   1-0.20727-0.66961-0.28679-0.17492-0.93529-0.72181
  -2   7   511987.91  530.81   1 0.10652-0.35542-0.98876-0.87835 0.10490 0.31964
  -2  -7   512676.68  524.23   1 0.07090 0.18941-0.62643-0.15724 0.77624 0.96922
   2  -7  -415620.82  578.53   1 0.10208 0.52874 0.85801 0.80217 0.50337 0.27738
  -2   7   415810.66  635.17   1-0.00492-0.43156 0.70456 0.76120-0.70961-0.48405
   2   7  -416175.16  515.94   1-0.01160-0.16635 0.65888 0.24537-0.75215-0.95504
   2   7  -414730.92  587.46   1-0.78979-0.94329 0.60982 0.19520-0.06583-0.26850
  -2  -7   414687.20  459.36   1-0.71278-0.55894 0.29363 0.70710-0.63695-0.43310
   2  -7  -415587.77  514.97   1-0.64271-0.21560 0.19019 0.13471-0.74211-0.96714
  -2  -7   416853.62  471.32   1-0.62942-0.47689-0.38650 0.02713 0.67411 0.87854
  -2   7   416373.19  765.25   1-0.24460-0.67264-0.31222-0.25562-0.91797-0.69441
  -2   7   415405.61  574.12   1 0.10587-0.32152-0.99109-0.93589-0.08072 0.14395
  -2  -7   414981.73  552.79   1 0.07574 0.22880-0.67339-0.25935 0.73538 0.93828
   2  -7  -414832.04  653.94   1 0.06808 0.49487-0.59911-0.65394 0.79776 0.57222
   2  -7  -312375.42  501.84   1 0.10541 0.49769 0.77934 0.77872 0.61766 0.38194
  -2   7   312684.31  529.55   1 0.03614-0.35603 0.92070 0.92188-0.38859-0.15286
   2   7  -312779.60  493.19   1-0.00388-0.19298 0.71145 0.35319-0.70271-0.91542
   2   7  -313605.93  529.25   1-0.75962-0.94748 0.64642 0.28696 0.07143-0.14110
  -2  -7   313216.63  436.04   1-0.77087-0.58278 0.40535 0.76370-0.49136-0.27772
   2  -7  -313777.80  448.28   1-0.68012-0.28739 0.24287 0.24264-0.69169-0.92656
  -2   7   311560.71  434.94   1-0.29411-0.68700-0.17931-0.17954-0.93879-0.70411
  -2  -7   312781.49  408.16   1-0.62084-0.43387-0.37861-0.02013 0.68644 0.90074
  -2   7   314587.91  714.08   1-0.27139-0.66512-0.33026-0.32891-0.90403-0.67038
   2  -7  -311234.09  586.05   1 0.08871 0.48108-0.80075-0.80065 0.59238 0.35707
  -2  -7   313310.86  524.57   1 0.08196 0.26967-0.73419-0.37536 0.67397 0.88677
   2  -7  -2151242.7 1925.47   1 0.10661 0.46439 0.70458 0.75925 0.70156 0.45592
  -2   7   2159034.3 1948.92   1 0.06655-0.29117 0.99516 0.94081-0.07218 0.17344
   2   7  -2144314.5 1969.89   1 0.00634-0.21706 0.77508 0.47208-0.63183-0.85440
   2   7  -2161508.7 1871.63   1-0.70802-0.93030 0.67090 0.36677 0.22043-0.00221
  -2  -7   2156060.2 1791.84   1-0.80111-0.57837 0.50652 0.81009-0.31882-0.09603
   2  -7  -2153129.7 1657.58   1-0.72900-0.37065 0.32120 0.37608-0.60446-0.84921
  -2   7   2142917.8 1690.04   1-0.34608-0.70451-0.13280-0.18829-0.92875-0.68425
  -2  -7   2153881.5 1710.28   1-0.61744-0.39603-0.37549-0.07217 0.69120 0.91539
  -2   7   2146848.5 2822.83   1-0.28874-0.64816-0.34184-0.39576-0.89429-0.65057
   2  -7  -2152886.2 2032.75   1 0.10227 0.46055-0.93906-0.88368 0.32816 0.08363
  -2  -7   2159285.1 1853.80   1 0.08941 0.31154-0.80769-0.50398 0.58277 0.80556
   2  -7  -1167832.6 1897.95   1 0.10658 0.42991 0.63582 0.74567 0.76443 0.50905
  -2   7   1167667.0 2019.35   1 0.08492-0.23827 0.98125 0.87156 0.17297 0.42847
   2   7  -1159449.4 2105.28   1 0.01934-0.23839 0.84617 0.59840-0.53256-0.76490
  -2  -7   1161850.7 1870.85   1-0.03355 0.22394 0.48756 0.73534-0.87244-0.63962
   2   7  -1165250.1 1767.75   1-0.63601-0.89287 0.67825 0.42944 0.36804 0.13549
  -2  -7   1164029.2 1602.94   1-0.79868-0.54153 0.58654 0.83491-0.13437 0.09827
   2  -7  -1163067.2 1704.53   1-0.78133-0.45733 0.43203 0.54219-0.45039-0.70488
  -2  -7   1166763.9 1689.09   1-0.61935-0.36351-0.37724-0.12909 0.68853 0.92260
  -2   7   1175397.5 2430.77   1-0.29744-0.62256-0.34762-0.45680-0.88920-0.63540
   2  -7  -1166040.2 1761.93   1 0.07545 0.39804 0.67053 0.78057 0.73802 0.48193
   2  -7  -1168964.0 2011.16   1 0.10670 0.43048-0.99233-0.88191 0.06239-0.19209
  -2  -7   1166657.3 1838.52   1 0.09736 0.35369-0.88784-0.63931 0.44972 0.68276
   2   7  -1161991.3 1920.53   1 0.05796-0.19873-0.50180-0.75042 0.86303 0.63037
   2  -7   0 8276.02  423.02   1 0.10583 0.39471 0.57255 0.73759 0.81300 0.54786
  -2   7   0 7692.12  372.76   1 0.09498-0.19383 0.93441 0.76945 0.34329 0.60857
   2   7   0 8230.27  393.92   1 0.03511-0.25696 0.91674 0.72415-0.39791-0.63998
  -2  -7   0 7349.16  354.27   1-0.02164 0.27024 0.58465 0.77713-0.81099-0.56836
  -2  -7   0 8067.31  350.41   1-0.76802-0.47648 0.63918 0.83268 0.03984 0.28212
   2  -7   0 7617.96  321.42   1-0.80224-0.51291 0.56940 0.73446-0.17940-0.44437
  -2   7   0 7606.70  395.17   1-0.48680-0.77646 0.00563-0.16027-0.87349-0.60943
  -2  -7   0 8524.86  339.64   1-0.62657-0.33629-0.38387-0.19089 0.67826 0.92220
  -2   7   0 7969.50  466.18   1-0.29807-0.58889-0.34804-0.51248-0.88882-0.62494
   2  -7   0 8373.16  398.67   1 0.06885 0.35692 0.60654 0.77173 0.79206 0.52633
   2  -7   0 7281.12  411.87   1 0.10451 0.39376-0.98183-0.81621-0.15834-0.42278
  -2  -7   0 8370.72  396.65   1 0.10404 0.39476-0.95837-0.76494 0.26586 0.50893
   2   7   0 7702.03  393.67   1 0.07010-0.22114-0.61865-0.81213 0.78252 0.53994
   2  -7   118510.23  587.83   1 0.10460 0.35903 0.51356 0.73378 0.85165 0.57676
  -2   7  -116821.19  555.98   1 0.10029-0.15418 0.88383 0.66373 0.45692 0.73190
   2   7   119403.31  628.93   1 0.05284-0.27355 0.97289 0.83530-0.22515-0.47689
  -2  -7  -116449.85  590.54   1-0.00854 0.31772 0.68017 0.81733-0.73300-0.48064
   2  -7   118389.15  644.79   1-0.70329-0.44868 0.67208 0.89264 0.23169-0.04315
  -2  -7  -117007.28  486.56   1-0.72007-0.39408 0.66728 0.80544 0.19034 0.44266
  -2   7  -113835.01  643.69   1-0.59262-0.84788 0.12589-0.09508-0.79557-0.52158
  -2  -7  -118608.44  490.79   1-0.63890-0.31418-0.39529-0.25747 0.65995 0.91377
  -2   7  -117903.26  737.63   1-0.29100-0.54751-0.34334-0.56305-0.89298-0.61903
   2  -7   118507.49  529.13   1 0.06245 0.31601 0.54492 0.76527 0.83615 0.56079
  -2  -7  -119149.51  613.25   1 0.10670 0.43202-0.99376-0.85556 0.03227 0.28525
   2   7   117256.77  713.94   1 0.08221-0.24366-0.73664-0.87475 0.67126 0.41883
   2   7   221983.65  718.88   1 0.07083-0.28989 0.99728 0.91474-0.01993-0.28144
  -2  -7  -219718.61  557.45   1 0.00526 0.36590 0.76871 0.85064-0.63957-0.37751
  -2   7  -218532.31  604.69   1-0.10302-0.32435-0.45732-0.73224-0.88331-0.59884
  -2   7  -217722.33  687.08   1-0.71877-0.93954 0.30358 0.02769-0.62546-0.34129
  -2  -7  -219819.12  494.06   1-0.65594-0.29679-0.41129-0.32863 0.63290 0.89661
  -2   7  -218627.16  864.11   1-0.27642-0.49862-0.33363-0.60860-0.90126-0.61723
  -2   7  -218946.00  534.45   1-0.07355-0.29511-0.47365-0.74863-0.87763-0.59367
   2  -7   219888.21  539.05   1 0.05626 0.27530 0.48551 0.76101 0.87241 0.58742
   2   7   218894.44  809.42   1 0.09290-0.26744-0.84266-0.92557 0.53035 0.26792
   2   7   318305.53  626.02   1 0.08665-0.30847 0.97603 0.94853 0.19962-0.07159
  -2  -7  -316773.73  532.11   1 0.01902 0.41404 0.84452 0.87126-0.53518-0.26356
  -2   7  -320127.46  693.28   1-0.10119-0.28817-0.40404-0.73419-0.90912-0.61475
  -2   7  -317051.78  688.02   1-0.79931-0.98529 0.49600 0.16495-0.33921-0.04445
  -2  -7  -319462.48  497.55   1-0.67712-0.28362-0.43158-0.40394 0.59601 0.86970
  -2   7  -318042.50  732.33   1-0.25441-0.44231-0.31885-0.64908-0.91301-0.61890
  -2   7  -319498.91  532.96   1-0.09767-0.28494-0.40455-0.73479-0.90928-0.61553
   2  -7   319517.54  537.40   1 0.05023 0.23475 0.42796 0.75861 0.90240 0.60777
   2   7   316116.70  682.32   1 0.10076-0.29365-0.92306-0.95084 0.37120 0.09827
   2   7   418380.22  586.90   1 0.09819-0.33116 0.90731 0.93492 0.40882 0.12747
  -2  -7  -415561.77  571.18   1 0.03183 0.46125 0.90355 0.87517-0.42727-0.14599
  -2   7  -416475.46  512.85   1-0.09914-0.25177-0.35244-0.73781-0.93056-0.62629
  -2   7  -415710.85  686.04   1-0.78571-0.93680 0.61716 0.23082-0.04190 0.26291
  -2   7  -414736.46  679.03   1-0.06408-0.21642-0.36159-0.74826-0.93012-0.62710
  -2  -7  -416989.20  473.76   1-0.70143-0.27350-0.45553-0.48305 0.54816 0.83177
  -2   7  -415748.48  758.35   1-0.22490-0.37849-0.29885-0.68434-0.92741-0.62322
  -2   7  -416815.01  459.85   1-0.11756-0.27053-0.34421-0.72970-0.93150-0.62796
   2   7   416014.72  638.87   1 0.10515-0.32378-0.97103-0.94366 0.21456-0.06830
   2   7   515450.03  614.46   1 0.10471-0.35898 0.80208 0.88491 0.58796 0.29673
  -2  -7  -513787.02  591.24   1 0.04295 0.50676 0.94486 0.86143-0.32462-0.03356
  -2   7  -516054.23  562.88   1-0.09688-0.21517-0.30204-0.74264-0.94835-0.63417
  -2   7  -511920.65  577.47   1-0.72478-0.84113 0.66559 0.22373 0.17796 0.49237
  -2   7  -513868.69  613.88   1-0.18185-0.29981-0.27279-0.71468-0.94472-0.63193
  -2  -7  -515271.23  500.48   1-0.72767-0.26531-0.48249-0.56509 0.48752 0.78120
  -2   7  -515370.54  698.88   1-0.18769-0.30698-0.27332-0.71408-0.94343-0.62916
   2   7   513865.96  630.85   1 0.10666-0.35680-0.99136-0.90874 0.07623-0.21649
   2   7   642453.73  991.04   1 0.10671-0.39147 0.67701 0.81489 0.72818 0.42742
  -2  -7  -633694.99  838.71   1 0.05200 0.55023 0.97086 0.83232-0.23391 0.06689
  -2   7  -642517.19  901.98   1-0.09445-0.17838-0.25256-0.74835-0.96295-0.63885
  -2   7  -635920.94  943.61   1-0.66271-0.74449 0.67780 0.18061 0.31842 0.64273
  -2   7  -634848.48  901.60   1-0.26137-0.34483-0.20752-0.70474-0.94266-0.62002
  -2  -7  -639867.12  774.22   1-0.75405-0.25727-0.51133-0.64910 0.41224 0.71587
  -2   7  -636848.16 1269.37   1-0.14247-0.22745-0.24186-0.73788-0.95979-0.63544
   2   7   636003.20  952.50   1 0.07189-0.42668 0.63597 0.77353 0.76835 0.46860
   2   7   632378.10  959.25   1 0.10637-0.39163-0.99370-0.85587-0.03512-0.33778
   2   7   741648.66 1164.45   1 0.10534-0.42729 0.54619 0.73926 0.83100 0.52048
  -2   7  -744512.50 1244.24   1-0.09182-0.14142-0.20361-0.75462-0.97473-0.64073
  -2   7  -732209.98 1050.48   1-0.61401-0.66123 0.67712 0.12462 0.40556 0.73975
  -2   7  -733996.51 1000.52   1-0.32144-0.37051-0.15513-0.70756-0.93413-0.60172
  -2  -7  -741185.25 1037.03   1-0.77827-0.24710-0.54075-0.73373 0.31916 0.63291
  -2   7  -739722.17 1379.09   1-0.08873-0.13941-0.20388-0.75516-0.97496-0.64053
  -2  -7  -743185.54 1079.87   1-0.06536 0.46572-0.49614-0.69037-0.86577-0.55360
   2   7   736582.05 1076.56   1 0.05552-0.47756 0.47846 0.67118 0.87635 0.56696
  -2   7  -880090.03 1587.94   1-0.08902-0.10427-0.15503-0.76128-0.98388-0.63998
  -2  -7  -883554.82 1365.79   1-0.10186 0.46402-0.42242-0.67109-0.90065-0.57819
  -2  -7  -892252.84 1223.20   1-0.06101 0.50499-0.36379-0.61326-0.92947-0.60736
  -2  -7  -883661.70 1178.35   1-0.79674-0.23109-0.56844-0.81661 0.20509 0.52890
  -2   7  -884743.24 1758.25   1-0.02579-0.04215-0.15857-0.76512-0.98701-0.64250
  -2  -7  -890849.38 1171.84   1-0.09515 0.47022-0.41198-0.66147-0.90621-0.58424
  -2   7  -9 5854.11  366.22   1-0.08604-0.06732-0.10680-0.76819-0.99054-0.63666
  -2  -7  -9 5570.83  347.97   1-0.09689 0.50334-0.30208-0.60598-0.94834-0.61597
  -2   7  -9 5492.00  372.58   1-0.41300-0.39317-0.06945-0.73238-0.90807-0.55590
  -2  -7  -9 6586.42  333.71   1-0.11485 0.48552-0.32442-0.62911-0.93891-0.60702
  -2   7  -9 6025.00  450.40   1 0.04742 0.06536-0.10479-0.76660-0.99336-0.63877
  -2   7 -10  148.49  113.57   1-0.08288-0.02985-0.05856-0.77518-0.99483-0.63102
  -2  -7 -10  192.19  106.67   1-0.16534 0.46941-0.28579-0.64569-0.94391-0.60226
  -2   7 -11 1235.39  176.75   1-0.07952 0.00780-0.01023-0.78219-0.99677-0.62298
  -2  -7 -11 1375.63  169.43   1-0.21297 0.45615-0.24778-0.66290-0.94511-0.59369
   2   8 -12 3886.30  256.85   1-0.02419 0.05404 0.56470-0.31649-0.82494-0.94705
   2   8 -12 3925.63  262.38   1-0.78486-0.70449 0.44206-0.43927-0.43425-0.55742
   2  -8 -12 4473.50  260.45   1-0.60368 0.14020 0.13958-0.33205-0.78490-0.93278
  -2  -8  12 4590.98  340.02   1 0.06412-0.01777-0.56093 0.31990 0.82537 0.94728
   2   8 -11 9404.31  477.72   1-0.02527 0.01866 0.55612-0.26980-0.83071-0.96273
   2   8 -1110650.45  432.48   1-0.78724-0.74130 0.44927-0.37680-0.42236-0.55541
   2  -8 -1111772.19  398.29   1-0.59509 0.11440 0.12893-0.28746-0.79324-0.95093
  -2  -8  11 9814.31  647.43   1 0.06336 0.01601-0.55367 0.27202 0.83032 0.96215
   2   8 -10  840.75  136.15   1-0.02583-0.01619 0.55167-0.21898-0.83366-0.97559
   2   8 -10  542.99   95.85   1-0.79097-0.77945 0.46143-0.30938-0.40179-0.54472
   2  -8 -10  673.16  129.36   1-0.58856 0.08653 0.12093-0.24021-0.79935-0.96685
  -2  -8  10  407.61  125.67   1-0.73946-0.75191-0.49511 0.27539 0.45613 0.59898
  -2  -8  10  663.15  185.25   1 0.06303 0.05023-0.55051 0.22003 0.83244 0.97419
   2   8  -959673.53 1193.13   1-0.02578-0.05046 0.55202-0.16336-0.83342-0.98527
  -2  -8   963776.62 1227.60   1-0.71120-0.68931-0.46541 0.24978 0.52685 0.68003
   2  -8  -960054.85 1263.07   1-0.13358 0.50753 0.02154-0.28348 0.99080 0.81366
  -2   8   947033.72 1902.95   1 0.09917-0.54242-0.90647-0.60110 0.41045 0.58690
  -2  -8   963926.03 1387.97   1 0.06322 0.08496-0.55227 0.16313 0.83126 0.98293
   2   8  -8  671.49  141.34   1-0.02504-0.08402 0.55800-0.10212-0.82946-0.99121
   2   8  -8  559.06  100.59   1-0.80043-0.85785 0.50226-0.15892-0.32716-0.48870
   2  -8  -8  641.98  111.93   1-0.58407 0.02223 0.11548-0.13517-0.80343-0.99057
  -2  -8   8  719.55  113.03   1-0.68403-0.62772-0.43830 0.22173 0.58308 0.74619
   2  -8  -8  469.85  115.92   1-0.03889 0.56778 0.09258-0.15725 0.99494 0.80801
  -2   8   8  498.27  186.97   1 0.03408-0.57270-0.11468 0.13745-0.99281-0.80815
  -2   8   8  491.92  154.80   1 0.10194-0.50509-0.93556-0.68539 0.33811 0.52450
  -2  -8   8  668.36  143.38   1 0.06401 0.12030-0.55994 0.10033 0.82605 0.98765
   2  -8  -7163281.1 3522.28   1 0.09789 0.66935 0.91028 0.71437 0.40224 0.20405
   2   8  -7157844.1 3262.13   1-0.02345-0.11673 0.57058-0.03427-0.82090-0.99257
   2  -8  -7164865.1 3314.62   1-0.58777-0.01586 0.11997-0.07544-0.80007-0.99702
  -2  -8   7159534.3 3385.14   1-0.65965-0.56898-0.41481 0.18994 0.62672 0.80011
  -2  -8   7164104.1 3386.14   1 0.06555 0.15639-0.57473 0.03039 0.81570 0.98722
   2  -8  -6  221.39   89.00   1 0.10376 0.64077 0.82602 0.68536 0.55400 0.34595
   2   8  -6  100.62   88.53   1-0.02083-0.14842 0.59088 0.04130-0.80648-0.98806
  -2   8   6  177.89   97.57   1-0.08776-0.62519-0.13421 0.00732-0.98705-0.78043
   2   8  -6  225.37   82.34   1-0.80273-0.92894 0.56573 0.01513-0.18855-0.36991
   2  -8  -6  166.63  104.97   1-0.59699-0.05947 0.13127-0.00889-0.79143-0.99818
  -2  -8   6  218.05   74.77   1-0.63826-0.51315-0.39469 0.15489 0.66093 0.84420
  -2   8   6  113.75  184.92   1-0.09894-0.63713-0.21114-0.06953-0.97243-0.76761
  -2   8   6  238.45   83.83   1 0.10656-0.43134-0.98953-0.84956 0.09728 0.30361
  -2  -8   6  211.68  126.54   1 0.06798 0.19336-0.59813-0.04815 0.79850 0.97994
   2  -8  -5   28.32   61.75   1 0.10614 0.60877 0.74522 0.65979 0.65830 0.44053
  -2   8   5   28.30   53.38   1-0.05340-0.55623 0.30091 0.38720-0.95215-0.73530
   2   8  -5   12.79   55.15   1-0.79336-0.95381 0.60209 0.10656-0.08972-0.28084
   2  -8  -5   28.87   56.31   1-0.61336-0.11023 0.15178 0.06686-0.77508-0.99165
  -2  -8   5   55.85   55.62   1-0.62078-0.46124-0.37855 0.11587 0.68652 0.87967
  -2   8   5   97.78  152.55   1-0.14556-0.64944-0.24403-0.15768-0.95877-0.74388
  -2   8   5   77.62   85.39   1 0.10594-0.39742-0.99151-0.90674-0.07534 0.14092
  -2  -8   5  -16.85   82.69   1 0.07146 0.23139-0.63182-0.13698 0.77180 0.96316
   2  -8  -4 4501.97  340.76   1 0.10671 0.57485 0.67876 0.64865 0.72656 0.49879
  -2   8   4 4880.66  346.89   1-0.00405-0.47222 0.71032 0.74146-0.70386-0.47668
   2   8  -4 5040.37  280.64   1-0.01153-0.20782 0.65936 0.22036-0.75173-0.95302
   2   8  -4 5278.93  285.42   1-0.77063-0.96541 0.63660 0.19621 0.02931-0.17168
  -2  -8   4 4378.86  270.21   1-0.71636-0.52102 0.29955 0.73858-0.63015-0.42781
   2  -8  -4 5092.40  266.25   1-0.63904-0.17043 0.18526 0.15534-0.74652-0.97304
  -2  -8   4 5127.48  274.18   1-0.60780-0.41370-0.36671 0.07240 0.70433 0.90752
  -2   8   4 5017.90  567.11   1-0.18130-0.65087-0.26891-0.23782-0.94594-0.72096
  -2  -8   4 5264.25  331.82   1 0.07616 0.27064-0.67750-0.23780 0.73156 0.93284
   2  -8  -4 4148.96  321.71   1 0.06641 0.53462-0.58297-0.61215 0.80977 0.58261
   2  -8  -395855.34 1493.31   1 0.10647 0.54016 0.62161 0.64668 0.77605 0.53853
  -2   8   394145.02 1520.42   1 0.04082-0.39283 0.93771 0.91329-0.34499-0.10757
   2   8  -397420.40 1451.13   1-0.00419-0.23482 0.70942 0.32567-0.70477-0.91585
   2   8  -390435.36 1370.09   1-0.73009-0.95928 0.66348 0.27840 0.16356-0.04758
  -2  -8   389839.05 1384.13   1-0.77296-0.54337 0.41038 0.79430-0.48384-0.27171
   2  -8  -396383.50 1268.21   1-0.67591-0.24168 0.23669 0.26202-0.69793-0.93430
  -2   8   385567.93 1340.02   1-0.21692-0.65138-0.24455-0.27027-0.94505-0.70897
  -2  -8   395325.39 1282.56   1-0.59942-0.37087-0.35912 0.02482 0.71534 0.92835
  -2   8   3101579.7 2143.27   1-0.20736-0.64262-0.28685-0.31103-0.93526-0.70020
   2  -8  -387580.28 1594.49   1 0.08870 0.52250-0.80071-0.77497 0.59243 0.35552
  -2  -8   399364.77 1558.12   1 0.08219 0.31132-0.73637-0.35190 0.67155 0.88274
   2  -8  -2 8117.91  398.55   1 0.10579 0.50502 0.57002 0.65028 0.81478 0.56751
  -2   8   2 7353.30  403.94   1 0.07062-0.32859 0.99724 0.91734-0.02256 0.22473
   2   8  -2 7104.68  374.43   1 0.00549-0.25944 0.77007 0.44158-0.63793-0.85888
   2   8  -2 7470.77  345.78   1-0.67030-0.93406 0.67724 0.34749 0.30335 0.08231
  -2  -8   2 7239.63  320.02   1-0.80151-0.53727 0.50920 0.83834-0.31350-0.09231
   2  -8  -2 7694.91  329.55   1-0.72476-0.32492 0.31380 0.39425-0.61338-0.85964
  -2   8   2 6559.75  384.39   1-0.25259-0.65259-0.21495-0.29598-0.94339-0.69750
  -2  -8   2 6726.03  306.19   1-0.59603-0.33302-0.35606-0.02728 0.71969 0.94252
  -2   8   2 6756.78  527.98   1-0.22462-0.62557-0.29865-0.37809-0.92754-0.68241
   2  -8  -2 8194.65  381.79   1 0.07107 0.46957 0.62802 0.70851 0.77494 0.52678
   2  -8  -2 7113.13  398.24   1 0.10261 0.50232-0.94278-0.86174 0.31721 0.07115
  -2  -8   2 7114.17  357.78   1 0.08939 0.35295-0.80750-0.47814 0.58305 0.80423
  -2   8   1280677.8 2866.19   1 0.08750-0.27716 0.97308 0.83783 0.21316 0.47033
   2   8  -1288462.1 3053.77   1 0.01781-0.28145 0.83836 0.56509-0.54482-0.77552
  -2  -8   1274589.1 2410.16   1-0.79866-0.50001 0.58663 0.86057-0.13414 0.09690
   2  -8  -1283243.0 2544.94   1-0.77871-0.41322 0.42495 0.56069-0.46154-0.71754
  -2   8   1282884.5 2804.24   1-0.29145-0.65707-0.18163-0.31788-0.93918-0.68352
  -2  -8   1275003.8 2643.89   1-0.59775-0.30030-0.35761-0.08400 0.71749 0.95013
   2  -8  -1293582.2 2637.60   1 0.06549 0.42948 0.57414 0.70978 0.81613 0.55834
   2  -8  -1281684.6 3019.92   1 0.10671 0.47193-0.99307-0.85701 0.04913-0.20688
  -2  -8   1290803.5 2876.02   1 0.09713 0.39489-0.88554-0.61136 0.45428 0.68578
  -2   8   069838.25 1235.81   1 0.09646-0.23391 0.92303 0.73254 0.37243 0.63925
   2   8   075780.86 1193.24   1 0.03283-0.30075 0.90766 0.68955-0.41841-0.65883
  -2  -8   071775.91 1164.05   1-0.03152 0.30190 0.50485 0.72282-0.86262-0.62158
  -2   8   067996.53 1201.52   1-0.10352-0.43505-0.47381-0.66383-0.87451-0.60832
  -2  -8   069872.35 1051.14   1-0.76954-0.43653 0.63770 0.85682 0.03374 0.27439
   2  -8   074997.89 1201.98   1-0.80243-0.47161 0.56801 0.75865-0.18288-0.44946
  -2   8   063079.68 1212.08   1-0.33761-0.66876-0.14053-0.33204-0.93073-0.66521
  -2  -8   070123.18  970.07   1-0.60459-0.27270-0.36379-0.14535 0.70860 0.95105
  -2   8   070080.53 1950.00   1-0.23523-0.56757-0.30587-0.49584-0.92255-0.65726
  -2   8   069658.03 1122.00   1-0.05529-0.38696-0.52311-0.71308-0.85046-0.58460
   2  -8   078441.32 1204.52   1 0.06004 0.38951 0.52175 0.71256 0.85097 0.58355
   2  -8   064802.34 1184.06   1 0.10429 0.43497-0.98026-0.78899-0.16794-0.43391
  -2  -8   076537.22 1230.81   1 0.10380 0.43597-0.95571-0.73667 0.27537 0.51695
   2   8   070954.00 1306.18   1 0.06076-0.27189-0.52868-0.74781 0.84663 0.60567
  -2   8  -1 4528.58  302.42   1 0.10112-0.19480 0.87268 0.62694 0.47770 0.75431
   2   8   1 5117.82  310.29   1 0.05000-0.31790 0.96575 0.80263-0.25460-0.50468
  -2  -8  -1 4401.54  258.13   1-0.02031 0.34741 0.59487 0.75757-0.80356-0.55261
  -2   8  -1 5300.78  310.93   1-0.10208-0.39926-0.42876-0.67400-0.89762-0.62152
   2  -8   1 5350.30  358.20   1-0.68333-0.38725 0.67578 0.92197 0.27634-0.00011
  -2   8  -1 4685.03  386.59   1-0.39990-0.69666-0.08218-0.32891-0.91286-0.63755
  -2  -8  -1 5149.58  250.43   1-0.61660-0.25044-0.37472-0.21127 0.69237 0.94479
  -2   8  -1 5470.57  396.75   1-0.22940-0.52744-0.30191-0.54714-0.92532-0.64995
  -2   8  -1 4983.79  264.83   1-0.08443-0.38180-0.44301-0.68824-0.89252-0.61687
   2  -8   1 4893.17  267.16   1 0.05469 0.34965 0.47055 0.71651 0.88067 0.60361
  -2  -8  -1 4897.09  291.04   1 0.10671 0.47345-0.99326-0.82942 0.04502 0.29647
   2   8   1 4576.70  339.65   1 0.07266-0.29454-0.64346-0.80746 0.76201 0.51112
   2   8   246962.93 1074.21   1 0.06791-0.33430 0.99612 0.88802-0.05582-0.31566
  -2  -8  -241509.80  967.15   1-0.00823 0.39387 0.68230 0.78968-0.73102-0.47037
  -2   8  -242408.33  933.92   1-0.10044-0.36328-0.38435-0.68482-0.91770-0.63170
  -2   8  -234602.46 1160.38   1-0.50884-0.77117 0.02929-0.27265-0.86036-0.57527
  -2  -8  -244440.53  844.65   1-0.63317-0.23257-0.38997-0.28169 0.66858 0.93089
  -2   8  -244350.76 1181.95   1-0.21646-0.48019-0.29308-0.59358-0.93125-0.64581
  -2   8  -243113.56  903.58   1-0.10614-0.36921-0.37925-0.67973-0.91918-0.63374
   2   8   239603.32 1132.23   1 0.08428-0.31756-0.75696-0.86553 0.64799 0.38728
   2   8   319822.49  692.72   1 0.08429-0.35229 0.98293 0.92986 0.16352-0.10602
  -2  -8  -317416.01  542.49   1 0.00427 0.44075 0.76275 0.81490-0.64667-0.37637
  -2   8  -319985.22  624.65   1-0.09862-0.32711-0.34028-0.69597-0.93513-0.63923
  -2   8  -314702.84  771.56   1-0.69799-0.92588 0.26997-0.08673-0.66325-0.36771
  -2  -8  -319393.95  482.06   1-0.65395-0.21891-0.40941-0.35629 0.63618 0.90836
  -2   8  -318331.76  800.83   1-0.19650-0.42593-0.27940-0.63515-0.93985-0.64432
   2   8   315887.95  709.99   1 0.09423-0.34178-0.85605-0.90943 0.50822 0.23687
   2   8   420719.42  706.40   1 0.09682-0.37400 0.91997 0.92200 0.37982 0.10012
  -2  -8  -417727.30  615.52   1 0.01652 0.48739 0.83170 0.82869-0.55497-0.27517
  -2   8  -420874.89  679.40   1-0.09662-0.29076-0.29636-0.70728-0.95017-0.64436
  -2   8  -414821.71  765.56   1-0.80193-0.99495 0.51230 0.10034-0.30731-0.00101
  -2   8  -416331.62  719.85   1-0.25586-0.44957-0.21219-0.62454-0.94313-0.63861
  -2  -8  -421713.71  597.66   1-0.67832-0.20893-0.43274-0.43464 0.59381 0.87603
  -2   8  -421167.56  896.32   1-0.16952-0.36464-0.26074-0.67175-0.95040-0.64480
   2   8   418380.70  923.70   1 0.10121-0.36917-0.92788-0.92612 0.35885 0.07749
   2   8   572359.60 1266.42   1 0.10424-0.40091 0.81479 0.87204 0.57030 0.28070
  -2  -8  -559873.74 1083.30   1 0.02783 0.53310 0.88635 0.82822-0.46217-0.17273
  -2  -8  -568487.85  989.59   1-0.70513-0.20132-0.45925-0.51632 0.54024 0.83239
   2   8   557090.26 1378.62   1 0.10510-0.39980-0.97050-0.91358 0.21697-0.07431
   2   8   6 3942.69  303.97   1 0.10670-0.43293 0.68397 0.79626 0.72166 0.42252
  -2  -8  -6 3499.52  321.31   1 0.03759 0.57726 0.92615 0.81300-0.37526-0.07605
  -2   8  -6 3721.70  303.69   1-0.09210-0.21755-0.20855-0.72988-0.97366-0.64802
  -2   8  -6 3315.69  303.46   1-0.71877-0.84202 0.66771 0.14490 0.19369 0.51960
  -2   8  -6 3407.86  333.34   1-0.37726-0.50208-0.10379-0.62663-0.92026-0.59601
  -2  -8  -6 4150.12  264.34   1-0.73316-0.19491-0.48832-0.60046 0.47329 0.77553
  -2   8  -6 4612.68  387.53   1-0.09389-0.22040-0.20755-0.72909-0.97370-0.64794
   2   8   6 3923.83  305.64   1 0.07194-0.46802 0.63651 0.74846 0.76790 0.46984
   2   8   6 3491.46  319.84   1 0.10658-0.43285-0.98975-0.87757 0.09498-0.20615
   2   8   7 4019.60  322.54   1 0.10529-0.46879 0.54387 0.71135 0.83253 0.52364
  -2   8  -7 4796.49  316.50   1-0.08957-0.18068-0.16441-0.74096-0.98231-0.64677
  -2   8  -7 4003.46  356.54   1-0.41623-0.50666-0.06629-0.64435-0.90683-0.57279
  -2  -8  -7 4417.39  254.11   1-0.76043-0.18776-0.51871-0.68602 0.39072 0.70292
  -2   8  -7 3633.66  427.82   1-0.04467-0.13688-0.17225-0.74906-0.98403-0.64820
  -2  -8  -7 4255.88  249.66   1-0.06786 0.50473-0.48931-0.65804-0.86946-0.55877
   2   8   7 4164.05  321.40   1 0.05371-0.52077 0.46114 0.62825 0.88569 0.57800
  -2   8  -8 4946.63  326.83   1-0.08688-0.14400-0.12015-0.75183-0.98894-0.64343
  -2  -8  -8 3519.71  296.18   1-0.10143 0.50596-0.41045-0.63358-0.90622-0.58528
  -2   8  -8 2984.72  310.49   1-0.45038-0.50630-0.03218-0.66549-0.89225-0.54841
  -2  -8  -8 4139.24  300.57   1-0.06978 0.53770-0.35750-0.58140-0.93129-0.61060
  -2  -8  -8 3797.44  243.63   1-0.78439-0.17732-0.54904-0.77158 0.28857 0.61090
  -2   8  -8 3998.16  426.35   1 0.01278-0.04511-0.13038-0.76245-0.99138-0.64546
  -2  -8  -8 4141.74  261.57   1-0.09799 0.50890-0.40361-0.62760-0.90966-0.58917
  -2   8  -9 4566.98  301.96   1-0.08401-0.10682-0.07554-0.76245-0.99359-0.63816
  -2  -8  -9 5281.69  297.67   1-0.12167 0.52018-0.31929-0.59840-0.93980-0.60935
   2  -8   9 4680.62  337.76   1-0.05915-0.03799 0.07752 0.76580 0.99523 0.64195
  -2   8 -10 3848.80  270.24   1-0.08096-0.06946-0.03061-0.77275-0.99624-0.63089
  -2  -8 -10 3400.56  238.97   1-0.17057 0.50567-0.28169-0.61602-0.94422-0.60399
  -2   8 -1122455.80  773.17   1-0.07772-0.03192 0.01472-0.78274-0.99686-0.62151
  -2  -8 -1126859.68  685.06   1-0.21689 0.49372-0.24458-0.63413-0.94505-0.59506
   2   9 -12 5637.80  372.40   1-0.02348 0.01322 0.57029-0.33640-0.82110-0.94162
   2  -9 -12 7604.87  326.29   1-0.60360 0.18177 0.13948-0.30658-0.78498-0.93432
  -2  -9  12 5574.56  630.50   1 0.06486 0.02438-0.56810 0.33838 0.82039 0.94068
   2   9 -11  125.46   92.44   1-0.02450-0.02210 0.56226-0.28916-0.82659-0.95702
   2   9 -11   73.91   71.72   1-0.79740-0.79291 0.48659-0.36618-0.35690-0.48701
   2  -9 -11  130.21   93.22   1-0.59507 0.15590 0.12890-0.26191-0.79326-0.95241
  -2  -9  11   84.08  135.09   1 0.06417 0.05823-0.56140 0.28995 0.82505 0.95526
   2   9 -1013729.41  639.20   1-0.02500-0.05691 0.55827-0.23788-0.82928-0.96962
   2   9 -1014782.79  615.09   1-0.80003-0.83001 0.49992-0.29751-0.33170-0.47175
   2  -9 -1013869.47  673.63   1-0.58860 0.12798 0.12098-0.21459-0.79931-0.96828
  -2  -9  1012355.17  464.33   1-0.72052-0.69160-0.47501 0.32097 0.50517 0.64704
  -2  -9  1016324.50  605.81   1 0.06389 0.09251-0.55878 0.23743 0.82685 0.96698
   2   9  -9 2518.33  221.91   1-0.02492-0.09113 0.55895-0.18193-0.82882-0.97907
   2   9  -9 2101.69  201.02   1-0.80266-0.86712 0.51835-0.22373-0.29502-0.44502
   2  -9  -9 2547.57  194.00   1-0.58473 0.09745 0.11628-0.16405-0.80284-0.98162
  -2  -9   9 2485.13  185.75   1-0.69175-0.62840-0.44589 0.29492 0.56801 0.71980
   2  -9  -9 2201.37  220.51   1-0.16469 0.51786-0.00217-0.28158 0.98634 0.80778
  -2  -9   9 2600.06  245.68   1 0.06412 0.12728-0.56100 0.18006 0.82532 0.97538
   2   9  -8 3862.75  259.80   1-0.02415-0.12466 0.56507-0.12054-0.82468-0.98484
   2   9  -8 3001.83  265.04   1-0.80406-0.90298 0.54191-0.14484-0.24457-0.40451
   2  -9  -8 4000.13  248.14   1-0.58417 0.06362 0.11559-0.10948-0.80335-0.99194
  -2  -9   8 3335.57  226.63   1-0.66518-0.56750-0.42009 0.26545 0.61728 0.77940
   2  -9  -8 4075.21  304.72   1-0.07955 0.56856 0.06228-0.16193 0.99488 0.80654
  -2   9   8 2697.40  348.46   1 0.10564-0.54283-0.97700-0.75241 0.18522 0.37310
  -2  -9   8 4315.83  305.03   1 0.06496 0.16266-0.56902 0.11690 0.81974 0.97973
   2   9  -7 8884.30  406.92   1-0.02256-0.15738 0.57753-0.05281-0.81605-0.98612
   2   9  -7 9128.11  453.90   1-0.80217-0.93539 0.56981-0.06169-0.17836-0.34818
   2  -9  -7 9654.75  399.58   1-0.58783 0.02556 0.12004-0.04979-0.80002-0.99843
  -2  -9   7 8978.94  396.99   1-0.64105-0.50893-0.39730 0.23308 0.65665 0.82864
  -2   9   710514.39  677.13   1 0.00837-0.60563-0.13362 0.03772-0.99099-0.79484
  -2   9   7 9138.59  521.70   1 0.10670-0.50717-0.99261-0.82308 0.05761 0.25553
  -2  -9   710118.40  463.71   1 0.06651 0.19876-0.58399 0.04679 0.80902 0.97892
   2   9  -615086.57  602.33   1-0.01999-0.18911 0.59736 0.02228-0.80171-0.98170
   2   9  -611337.28  714.89   1-0.79401-0.96142 0.60051 0.02406-0.09444-0.27401
   2  -9  -615843.54  547.49   1-0.59694-0.01793 0.13121 0.01661-0.79148-0.99970
  -2  -9   614936.51  519.44   1-0.62032-0.45376-0.37812 0.19709 0.68717 0.86905
  -2   9   614952.71  893.37   1-0.04655-0.62626-0.17361-0.05752-0.98371-0.77748
  -2   9   610045.39  565.90   1-0.07252-0.65147-0.47651-0.36044-0.87616-0.66757
   2  -9  -611023.10  795.09   1 0.06990 0.64788 0.61670 0.50219 0.78408 0.57274
  -2   9   614159.66  656.47   1 0.10552-0.47382-0.98888-0.87456-0.10472 0.10313
  -2  -9   614277.35  602.18   1 0.06893 0.23573-0.60729-0.03165 0.79147 0.97130
   2   9  -511833.18  477.99   1-0.01622-0.21974 0.62554 0.10578-0.78002-0.96980
   2   9  -513069.05  476.90   1-0.77541-0.97735 0.63138 0.11025 0.00886-0.18063
   2  -9  -512952.05  427.21   1-0.61309-0.06848 0.15144 0.09209-0.77535-0.99339
  -2  -9   512028.97  396.01   1-0.60361-0.40251-0.36291 0.15700 0.70988 0.90185
  -2   9   512590.66  660.00   1-0.09039-0.63580-0.20506-0.14423-0.97456-0.75825
  -2   9   5 8280.93  500.73   1-0.08868-0.63333-0.43084-0.37002-0.89806-0.67967
   2  -9  -5 9373.54  507.09   1 0.06869 0.61215 0.60506 0.54571 0.79320 0.57224
  -2  -9   513015.46  484.85   1 0.07235 0.27370-0.64048-0.11998 0.76455 0.95430
  -2   9   433907.75 1126.85   1-0.00514-0.51485 0.70313 0.70879-0.71103-0.48222
   2   9  -438005.91  936.01   1-0.01097-0.24879 0.66332 0.19883-0.74824-0.94792
  -2   9   429567.83 1307.15   1-0.10168-0.61211-0.41756-0.41223-0.90293-0.67481
   2   9  -439643.16  966.29   1-0.74259-0.97884 0.65751 0.19151 0.12739-0.07197
  -2  -9   429860.18  834.76   1-0.71734-0.48050 0.30118 0.76577-0.62825-0.42743
   2  -9  -439627.34  928.70   1-0.63846-0.12835 0.18448 0.18013-0.74721-0.97523
  -2  -9   438833.13  879.91   1-0.59100-0.35545-0.35154 0.11319 0.72603 0.92781
  -2   9   441130.84 1383.68   1-0.12439-0.63549-0.22915-0.22359-0.96540-0.73902
   2  -9  -437480.51 1104.45   1 0.06606 0.57500 0.57961 0.57541 0.81221 0.58161
  -2  -9   437179.00  943.22   1 0.07695 0.31297-0.68518-0.21989 0.72429 0.92395
   2  -9  -433107.75 1134.02   1 0.06320 0.57283-0.55211-0.55563 0.83136 0.60259
  -2   9   3 2020.90  216.12   1 0.04443-0.43073 0.94960 0.89966-0.31027-0.07119
   2   9  -3 2189.19  195.90   1-0.00392-0.27608 0.71116 0.30192-0.70301-0.91248
  -2   9   3 1780.12  236.50   1-0.10222-0.57830-0.43300-0.48288-0.89557-0.65755
   2   9  -3 2155.32  186.53   1-0.69288-0.96354 0.67425 0.26354 0.25551 0.04597
  -2  -9   3 2182.18  216.11   1-0.77338-0.50230 0.41142 0.82090-0.48228-0.27166
   2  -9  -3 2282.44  207.85   1-0.67491-0.19920 0.23524 0.28613-0.69938-0.93725
  -2   9   3 1852.51  201.85   1-0.13666-0.61261-0.30794-0.35923-0.94153-0.70402
  -2  -9   3 2185.74  163.48   1-0.58295-0.31295-0.34433 0.06523 0.73593 0.94752
  -2   9   3 2454.86  287.92   1-0.14950-0.62629-0.24679-0.29649-0.95746-0.72100
   2  -9  -3 2080.26  204.76   1 0.06277 0.53719 0.54793 0.59888 0.83416 0.59393
   2  -9  -3 2035.51  252.69   1 0.08795 0.56317-0.79320-0.74181 0.60256 0.36406
  -2  -9   3 2321.12  211.30   1 0.08279 0.35334-0.74226-0.33215 0.66497 0.87453
  -2   9   231030.92  850.87   1 0.07366-0.36705 0.99715 0.89170 0.01586 0.26483
   2   9  -231453.36  788.20   1 0.00532-0.30114 0.76904 0.41507-0.63916-0.85850
  -2   9   232227.73  999.78   1-0.10187-0.54360-0.42274-0.52785-0.90050-0.65258
   2   9  -234696.73  843.13   1-0.62692-0.93215 0.67793 0.32255 0.38387 0.16444
  -2  -9   230861.05  733.16   1-0.80142-0.49567 0.50857 0.86327-0.31475-0.09515
   2  -9  -234388.41  674.75   1-0.72357-0.28223 0.31175 0.41775-0.61583-0.86361
  -2   9   230130.66  782.61   1-0.15427-0.59584-0.29440-0.40092-0.94314-0.69586
  -2  -9   231280.26  637.57   1-0.57966-0.27522-0.34140 0.01299 0.73988 0.96129
  -2   9   234166.39 1088.69   1-0.16645-0.60893-0.25860-0.36356-0.95153-0.70499
   2  -9  -229214.43  808.20   1 0.05910 0.49900 0.51273 0.61884 0.85650 0.60664
   2  -9  -230959.20  854.07   1 0.10264 0.54378-0.94311-0.83641 0.31623 0.06865
  -2  -9   232341.85  789.20   1 0.08974 0.39473-0.81106-0.45606 0.57802 0.79761
  -2   9   177691.98 1206.12   1 0.08930-0.31683 0.96607 0.80524 0.24234 0.50119
   2   9  -186245.82 1273.15   1 0.01705-0.32374 0.83444 0.53568-0.55082-0.77989
  -2   9   194197.44 1461.04   1-0.10110-0.50849-0.40168-0.56202-0.91017-0.65235
  -2  -9   179188.17 1108.46   1-0.79926-0.45911 0.58437 0.88389-0.14031 0.08913
   2  -9  -188706.80 1144.58   1-0.77819-0.37122 0.42360 0.58492-0.46363-0.72114
  -2   9   178599.99 1355.98   1-0.16557-0.57277-0.28561-0.44734-0.94393-0.68688
  -2  -9   192168.54 1117.50   1-0.58125-0.24236-0.34281-0.04358 0.73798 0.96920
  -2   9   188857.14 1655.84   1-0.17578-0.58396-0.26508-0.42531-0.94806-0.69144
   2  -9  -192190.09 1256.76   1 0.05519 0.46057 0.47528 0.63654 0.87809 0.61860
   2  -9  -182114.88 1317.09   1 0.10671 0.51336-0.99325-0.83154 0.04545-0.21210
  -2  -9   189604.60 1285.08   1 0.09724 0.43641-0.88665-0.58680 0.45209 0.68205
  -2   9   023610.48  648.02   1 0.09742-0.27442 0.91464 0.69858 0.39233 0.66080
   2   9   027340.95  674.81   1 0.03140-0.34370 0.90175 0.65814-0.43109-0.66986
  -2  -9   025193.61  714.77   1-0.04067 0.33416 0.42444 0.66802-0.90454-0.66489
  -2   9   028353.71  776.55   1-0.10006-0.47310-0.37477-0.59033-0.92170-0.65397
   2  -9   028484.88  683.04   1-0.80178-0.42946 0.57232 0.78854-0.17200-0.44018
  -2   9   023295.86  747.40   1-0.16308-0.53590-0.28756-0.50451-0.94377-0.67696
  -2  -9   025907.85  609.78   1-0.58773-0.21439-0.34860-0.10454 0.73009 0.97113
  -2   9   027576.20  940.21   1-0.17791-0.55179-0.26656-0.48205-0.94725-0.68055
  -2   9   023291.76  607.45   1-0.11337-0.48655-0.35719-0.57267-0.92712-0.65978
   2  -9   029658.13  688.02   1 0.05110 0.42197 0.43626 0.65267 0.89836 0.62924
   2  -9   022262.68  706.35   1 0.10426 0.47637-0.98005-0.76314-0.16916-0.43666
  -2  -9   027200.30  742.83   1 0.10376 0.47735-0.95529-0.71060 0.27683 0.51688
   2   9   1  516.53  103.31   1 0.04801-0.36140 0.96032 0.77179-0.27470-0.52319
  -2  -9  -1  555.92  102.04   1-0.03138 0.37788 0.50600 0.69420-0.86195-0.61260
  -2   9  -1  377.48  111.18   1-0.09879-0.43748-0.34419-0.61497-0.93368-0.65605
   2  -9   1  609.08  118.66   1-0.63663-0.29907 0.67826 0.95008 0.36695 0.08887
  -2   9  -1  492.33  115.52   1-0.11440-0.45284-0.32476-0.59693-0.93885-0.66226
  -2  -9  -1  524.35  104.59   1-0.59900-0.19122-0.35874-0.16985 0.71588 0.96673
  -2   9  -1  446.08  153.69   1-0.17314-0.51271-0.26325-0.53400-0.94906-0.67228
  -2  -9  -1  513.28  110.82   1 0.10671 0.51489-0.99310-0.80360 0.04858 0.29849
   2   9   1  525.75  129.62   1 0.06180-0.34681-0.53869-0.72834 0.84023 0.59095
   2   9   210511.16  470.84   1 0.06567-0.37804 0.99441 0.86075-0.08266-0.34083
  -2  -9  -2 9683.19  413.80   1-0.02119 0.42238 0.58815 0.72108-0.80846-0.54920
  -2   9  -2 9433.33  480.78   1-0.09731-0.40165-0.31109-0.63710-0.94538-0.65785
  -2  -9  -210573.31  375.24   1-0.61509-0.17304-0.37334-0.23943 0.69445 0.95536
  -2   9  -211675.05  594.02   1-0.16165-0.46692-0.25527-0.58128-0.95325-0.66640
   2   9   2 9921.99  603.10   1 0.07343-0.36974-0.65090-0.78541 0.75560 0.49640
   2   9   315704.71  607.50   1 0.08238-0.39574 0.98737 0.90874 0.13527-0.13254
  -2  -9  -313543.84  524.31   1-0.01037 0.46757 0.66749 0.74509-0.74454-0.47561
  -2   9  -313932.66  548.82   1-0.09564-0.36563-0.27623-0.65744-0.95631-0.65884
  -2  -9  -315596.65  508.37   1-0.63518-0.15869-0.39184-0.31309 0.66557 0.93636
  -2   9  -314987.77  767.47   1-0.14356-0.41452-0.24263-0.62390-0.95943-0.66250
   2   9   313181.04  790.07   1 0.08466-0.39316-0.76065-0.83969 0.64361 0.37461
   2   9   4 5560.08  355.64   1 0.09568-0.41661 0.92920 0.90565 0.35696 0.07891
  -2  -9  -4 4443.12  284.18   1 0.00065 0.51297 0.74052 0.76290-0.67202-0.39348
  -2   9  -4 5619.23  333.34   1-0.09378-0.32943-0.23982-0.67625-0.96627-0.65890
  -2  -9  -4 5330.67  276.89   1-0.65893-0.14800-0.41412-0.39054 0.62794 0.90860
  -2   9  -4 5725.51  411.34   1-0.11888-0.35553-0.22526-0.66180-0.96701-0.66000
   2   9   4 3713.17  429.10   1 0.09413-0.41787-0.85501-0.87884 0.50999 0.23023
   2   9   5  773.29  146.90   1 0.10389-0.44285 0.82316 0.85485 0.55821 0.27037
  -2  -9  -5  594.52  108.12   1 0.01134 0.55805 0.80374 0.77097-0.59487-0.30689
  -2   9  -5  790.09  128.70   1-0.09174-0.29305-0.20223-0.69388-0.97503-0.65775
  -2   9  -5  332.39  156.86   1-0.79979-0.99984 0.49857 0.00569-0.33428-0.01645
  -2   9  -5  408.19  165.24   1-0.56595-0.76661 0.09386-0.39925-0.81907-0.50289
  -2  -9  -5  790.95  112.23   1-0.68566-0.14039-0.43990-0.47135 0.57994 0.87069
  -2   9  -5  759.79  231.52   1-0.08754-0.28988-0.20302-0.69483-0.97525-0.65816
   2   9   5  360.32  152.29   1 0.10073-0.44564-0.92273-0.89142 0.37203 0.08225
   2   9   632121.71  863.52   1 0.10670-0.47439 0.68545 0.77215 0.72025 0.42275
  -2   9  -635549.27  803.46   1-0.08953-0.25649-0.16363-0.71051-0.98245-0.65527
  -2  -9  -630912.93  646.17   1-0.71411-0.13441-0.46839-0.55499 0.52024 0.82092
  -2   9  -633332.34 1042.02   1-0.04939-0.21742-0.17566-0.72272-0.98321-0.65604
   2   9   631261.26  795.30   1 0.07111-0.51024 0.62847 0.71481 0.77457 0.47821
   2   9   718554.58  611.88   1 0.10508-0.51046 0.53388 0.67576 0.83900 0.53175
  -2   9  -718836.82  636.50   1-0.08714-0.22009-0.12424-0.72621-0.98841-0.65128
  -2  -9  -716990.20  471.30   1-0.74296-0.12882-0.49893-0.64061 0.44617 0.75697
  -2   9  -716376.34  752.51   1-0.00416-0.13789-0.14281-0.74514-0.98974-0.65249
  -2  -9  -717836.66  489.00   1-0.07212 0.54199-0.47761-0.62084-0.87560-0.56639
   2   9   716381.42  587.85   1 0.05024-0.56563 0.42809 0.56958 0.90233 0.59634
  -2   9  -878844.43 1251.13   1-0.08457-0.18321-0.08398-0.74118-0.99287-0.64582
  -2  -9  -875808.94 1554.92   1-0.08090 0.56807-0.34946-0.54778-0.93344-0.61418
  -2  -9  -873873.67 1500.97   1-0.77007-0.12151-0.53031-0.72724 0.35460 0.67553
  -2   9  -872450.33 1944.23   1 0.04851-0.05090-0.10398-0.76157-0.99339-0.64606
  -2  -9  -873358.42 1538.33   1-0.10243 0.54597-0.39040-0.58888-0.91492-0.59592
  -2   9  -9  718.76  132.55   1-0.08182-0.14615-0.04298-0.75540-0.99572-0.63874
  -2  -9  -9  638.26  113.56   1-0.13079 0.55256-0.31240-0.56594-0.94090-0.61186
   2  -9   9  440.98  126.38   1-0.09034-0.02773 0.05420 0.76808 0.99443 0.63974
  -2   9 -10  790.76  197.97   1-0.07888-0.10891-0.00124-0.76899-0.99688-0.62990
  -2  -9 -10  747.24  141.73   1-0.17801 0.53971-0.27583-0.58458-0.94457-0.60578
  -2   9 -11 4935.14  325.22   1-0.07575-0.07148 0.04115-0.78183-0.99627-0.61938
  -2  -9 -11 5256.39  324.17   1-0.22293 0.52917-0.23963-0.60360-0.94492-0.59635
   2  10 -11 6708.88  428.67   1-0.02346-0.06259 0.57046-0.30645-0.82098-0.94982
   2 -10 -11 6609.65  335.27   1-0.59676 0.19571 0.13098-0.23426-0.79165-0.95226
  -2 -10  11 7494.74  397.09   1 0.06519 0.10067-0.57126 0.30574 0.81817 0.94677
   2  10 -1017642.63  576.81   1-0.02390-0.09734 0.56700-0.25465-0.82336-0.96212
   2  10 -1016859.42  595.02   1-0.80401-0.87550 0.53851-0.28448-0.25212-0.39059
   2 -10 -1018858.54  544.24   1-0.59048 0.16759 0.12327-0.18673-0.79758-0.96800
  -2 -10  1014506.13  704.65   1-0.70412-0.63374-0.45824 0.36336 0.54242 0.68289
  -2 -10  1019818.88  660.54   1 0.06498 0.13501-0.56926 0.25260 0.81958 0.95810
   2  10  -917175.71  576.39   1-0.02376-0.13151 0.56809-0.19829-0.82261-0.97127
   2 -10  -916673.91  532.29   1-0.58680 0.13687 0.11878-0.13597-0.80096-0.98121
  -2 -10   918084.16  562.02   1-0.67602-0.57133-0.43051 0.33582 0.59803 0.74886
  -2 -10   917655.51  593.80   1 0.06527 0.16985-0.57206 0.19466 0.81760 0.96605
   2  10  -829477.88  870.34   1-0.02295-0.16500 0.57446-0.13665-0.81820-0.97677
   2  10  -829775.36  869.10   1-0.80044-0.94067 0.57932-0.13309-0.15384-0.31211
   2 -10  -830271.27  824.10   1-0.58642 0.10286 0.11832-0.08119-0.80131-0.99137
  -2 -10   824335.82  790.74   1-0.64981-0.51068-0.40551 0.30566 0.64288 0.80360
   2 -10  -831891.57  906.31   1-0.11639 0.57317 0.03456-0.16404 0.99260 0.80284
  -2 -10   825763.36  821.56   1 0.06615 0.20528-0.58055 0.13102 0.81152 0.96989
   2  10  -728853.50  898.90   1-0.02135-0.19771 0.58693-0.06891-0.80935-0.97783
   2 -10  -732923.72  734.32   1-0.59023 0.06465 0.12296-0.02130-0.79781-0.99768
  -2 -10   735357.85  733.24   1-0.62649-0.45292-0.38380 0.27220 0.67838 0.84897
   2 -10  -733020.19  848.04   1-0.05246 0.60265 0.08251-0.06091 0.99520 0.79566
  -2  10   731145.22 1166.31   1 0.05175-0.60378-0.10157 0.04425-0.99348-0.79591
  -2 -10   731931.50  901.45   1 0.06774 0.24141-0.59583 0.06060 0.80024 0.96852
   2  10  -635508.45  772.76   1-0.01879-0.22945 0.60643 0.00585-0.79490-0.97330
   2  10  -637534.95  875.92   1-0.77590-0.98480 0.63081 0.02875 0.00666-0.17128
   2 -10  -636086.76  751.96   1-0.59944 0.02105 0.13430 0.04528-0.78906-0.99875
  -2 -10   634217.91  742.95   1-0.60673-0.39863-0.36573 0.23496 0.70576 0.88649
  -2  10   639915.22 1322.42   1 0.00063-0.62060-0.13929-0.04873-0.99024-0.78260
  -2 -10   635054.09  819.58   1 0.07016 0.27837-0.61919-0.01789 0.78209 0.96030
   2  10  -537197.40 1056.41   1-0.01509-0.26014 0.63383 0.08858-0.77332-0.96149
   2  10  -536920.98 1010.29   1-0.74802-0.99119 0.65440 0.10746 0.11050-0.07731
   2 -10  -536832.85 1009.53   1-0.61560-0.02950 0.15464 0.12086-0.77273-0.99223
  -2 -10   536271.67  906.23   1-0.59058-0.34803-0.35116 0.19437 0.72656 0.91711
  -2  10   538240.49 1422.08   1-0.04055-0.62748-0.16927-0.13397-0.98473-0.76701
  -2 -10   538124.33 1115.98   1 0.07355 0.31631-0.65205-0.10589 0.75459 0.94272
   2  10  -4 6129.83  351.51   1-0.00997-0.28932 0.67030 0.18031-0.74202-0.94009
  -2  10   4 4781.54  419.02   1-0.01003-0.56135 0.66991 0.65008-0.74236-0.51212
  -2  10   4 5039.69  437.40   1-0.08519-0.63706-0.09348-0.11344-0.99196-0.76242
   2  10  -4 5785.82  325.52   1-0.70573-0.98330 0.67149 0.17984 0.22592 0.02787
  -2 -10   4 4464.17  258.19   1-0.71575-0.43741 0.29853 0.78868-0.63133-0.43202
   2 -10  -4 6075.73  311.58   1-0.64088-0.08927 0.18772 0.20892-0.74433-0.97384
  -2 -10   4 6003.75  318.29   1-0.57854-0.30155-0.34040 0.14995 0.74121 0.94158
  -2  10   4 5126.20  536.27   1-0.07280-0.62543-0.19249-0.21245-0.97859-0.75079
  -2 -10   4 6162.04  327.63   1 0.07805 0.35549-0.69590-0.20496 0.71388 0.91192
   2 -10  -4 4575.72  371.68   1 0.05758 0.60864-0.49820-0.47606 0.86514 0.63475
  -2  10   3154323.7 2826.06   1 0.04689-0.46978 0.95708 0.88162-0.28597-0.04523
   2  10  -3161710.5 2829.36   1-0.00315-0.31685 0.71617 0.28143-0.69791-0.90575
  -2  10   3150594.4 2811.75   1-0.09359-0.61116-0.23619-0.31158-0.96718-0.72758
   2  10  -3172816.4 2999.62   1-0.64829-0.96043 0.67831 0.24198 0.34583 0.13789
  -2 -10   3140650.1 2422.82   1-0.77223-0.45965 0.40860 0.84366-0.48651-0.27740
   2 -10  -3150548.9 2529.93   1-0.67708-0.15987 0.23840 0.31486-0.69621-0.93557
  -2  10   3140938.6 2650.36   1-0.05414-0.57157-0.36868-0.44556-0.92797-0.68903
  -2 -10   3167174.9 2733.09   1-0.57086-0.25942-0.33358 0.10161 0.75022 0.96040
  -2  10   3175036.4 3719.96   1-0.09688-0.61521-0.20968-0.28490-0.97295-0.73508
   2 -10  -3143525.5 2674.07   1 0.08629 0.60279-0.77676-0.69965 0.62385 0.38356
  -2 -10   3162826.8 2787.12   1 0.08372 0.39570-0.75144-0.31568 0.65446 0.86241
  -2  10   289433.82 1850.93   1 0.07579-0.40626 0.99616 0.86498 0.04376 0.29454
   2  10  -299001.69 1864.24   1 0.00573-0.34226 0.77150 0.39203-0.63620-0.85391
  -2  10   286585.35 2142.20   1-0.09562-0.57884-0.27575-0.40637-0.95645-0.70695
  -2 -10   285059.54 1685.70   1-0.80085-0.45360 0.50483 0.88509-0.32214-0.10413
   2 -10  -292948.19 1658.31   1-0.72547-0.24263 0.31503 0.44659-0.61191-0.86120
  -2  10   289607.48 1789.91   1-0.05298-0.53604-0.36950-0.50160-0.92771-0.67900
  -2 -10   2101124.0 1810.97   1-0.56770-0.22181-0.33078 0.04923 0.75384 0.97384
  -2  10   297306.20 2517.10   1-0.11339-0.59740-0.22138-0.35187-0.96857-0.72061
   2 -10  -289779.96 2135.08   1 0.10233 0.58489-0.93980-0.80745 0.32602 0.07692
  -2 -10   2103604.6 1977.25   1 0.09044 0.43685-0.81799-0.43735 0.56807 0.78605
  -2  10   186775.67 1741.32   1 0.09044-0.35717 0.96096 0.77457 0.26146 0.52198
   2  10  -198275.75 1880.73   1 0.01697-0.36534 0.83403 0.50977-0.55144-0.77888
  -2  10   194367.87 1823.91   1-0.09600-0.54489-0.28354-0.46942-0.95414-0.69478
   2 -10  -191953.04 1730.32   1-0.77998-0.33152 0.42835 0.61525-0.45621-0.71523
   2 -10  -184488.51 1957.99   1 0.10671 0.55479-0.99296-0.80561 0.05127-0.20780
  -2 -10   195666.13 1947.05   1 0.09765 0.47825-0.89087-0.56537 0.44362 0.67203
  -2  10   0 8828.05  467.70   1 0.09797-0.31533 0.90944 0.66780 0.40412 0.67424
   2  10   010646.87  477.85   1 0.03073-0.38589 0.89894 0.62981-0.43699-0.67410
  -2  10   011160.62  524.86   1-0.09565-0.51019-0.27640-0.51747-0.95626-0.68696
   2 -10   010027.85  461.33   1-0.79949-0.38567 0.58345 0.82525-0.14279-0.41257
  -2 -10   010166.45  386.64   1-0.57528-0.16050-0.33750-0.06781 0.74507 0.98470
  -2  10   011051.68  708.13   1-0.12539-0.54080-0.22986-0.47087-0.96511-0.69699
   2 -10   0 8784.47  428.95   1 0.10442 0.51796-0.98117-0.73862-0.16243-0.43145
  -2 -10   010414.39  439.31   1 0.10392 0.51891-0.95705-0.68666 0.27063 0.50913
   2  10   114408.11  573.21   1 0.04678-0.40414 0.95676 0.74270-0.28707-0.53390
  -2 -10  -112776.92  503.73   1-0.04162 0.40905 0.41574 0.62957-0.90852-0.66053
  -2  10  -113800.52  567.62   1-0.09483-0.47503-0.26015-0.55645-0.96089-0.68169
  -2 -10  -113235.59  452.80   1-0.58596-0.13674-0.34703-0.13251 0.73226 0.98170
  -2  10  -115459.45  728.11   1-0.12151-0.50261-0.22712-0.52340-0.96625-0.68806
  -2 -10  -115367.05  576.59   1 0.10671 0.55632-0.99336-0.77822 0.04294 0.29133
   2  10   212211.59  549.32   1 0.06411-0.42109 0.99282 0.83362-0.10090-0.35741
  -2 -10  -2 9767.28  478.75   1-0.03338 0.45164 0.48900 0.64751-0.87164-0.61379
  -2  10  -212095.42  522.19   1-0.09369-0.43954-0.23810-0.58961-0.96671-0.67760
  -2 -10  -210819.97  399.50   1-0.60106-0.11738-0.36060-0.20125 0.71322 0.97248
  -2  10  -212414.60  711.94   1-0.11130-0.45809-0.21990-0.57144-0.96915-0.68088
   2  10   210057.20  618.92   1 0.06054-0.42404-0.52658-0.68675 0.84796 0.59038
   2  10   331186.64  936.05   1 0.08097-0.43862 0.99006 0.88586 0.11498-0.15115
  -2 -10  -326210.57  716.48   1-0.02454 0.49487 0.56195 0.66510-0.82680-0.55921
  -2  10  -329886.14  741.70   1-0.09228-0.40379-0.21197-0.61871-0.97290-0.67390
  -2 -10  -331435.83  623.73   1-0.62055-0.10261-0.37834-0.27397 0.68685 0.95624
  -2  10  -331726.80 1029.61   1-0.09486-0.40734-0.20824-0.61504-0.97346-0.67512
   2  10   326841.46 1037.67   1 0.07190-0.44724-0.63603-0.74106 0.76830 0.50080
   2  10   449676.39 1415.88   1 0.09486-0.45904 0.93522 0.88604 0.34109 0.06484
  -2 -10  -441019.41 1183.24   1-0.01528 0.53850 0.63244 0.68026-0.77445-0.49724
  -2  10  -450043.51 1293.07   1-0.09065-0.36781-0.18281-0.64478-0.97895-0.67005
  -2 -10  -450351.08 1200.72   1-0.64347-0.09110-0.39956-0.35036 0.65290 0.93217
  -2  10  -447893.87 1537.31   1-0.07224-0.35041-0.19209-0.65415-0.97871-0.67029
   2  10   5  127.10   88.98   1 0.10371-0.48450 0.82727 0.83338 0.55214 0.26594
  -2  10  -5   89.34   99.42   1-0.08880-0.33161-0.15131-0.66850-0.98448-0.66567
  -2 -10  -5   70.98   62.24   1-0.66946-0.08265-0.42419-0.43015 0.60981 0.89896
  -2  10  -5   69.06  214.37   1-0.04339-0.28726-0.17133-0.68865-0.98425-0.66575
   2  10   6 1930.74  223.32   1 0.10671-0.51583 0.68023 0.74134 0.72518 0.42931
  -2  10  -6 2848.35  251.77   1-0.08675-0.29553-0.11799-0.69024-0.98921-0.66046
  -2 -10  -6 2709.57  206.69   1-0.69780-0.07665-0.45190-0.51288 0.55574 0.85502
  -2  10  -6 2274.67  279.72   1-0.00821-0.21778-0.14577-0.71836-0.98928-0.66070
   2  10   6 2278.53  221.11   1 0.06897-0.55379 0.60769 0.66842 0.79116 0.49650
  -2  10  -7 1574.96  186.02   1-0.08451-0.25898-0.08303-0.71052-0.99295-0.65428
  -2 -10  -7 1525.49  192.75   1-0.04366 0.61242-0.37608-0.49360-0.92555-0.61748
  -2 -10  -7 1220.37  138.46   1-0.72713-0.07152-0.48192-0.59798 0.48890 0.79831
  -2  10  -7 1468.46  258.82   1 0.03348-0.14177-0.11512-0.74297-0.99278-0.65412
  -2 -10  -7 1420.60  156.26   1-0.07826 0.57735-0.46048-0.57821-0.88420-0.57647
  -2  10  -8 2194.49  209.51   1-0.08207-0.22224-0.04672-0.72943-0.99553-0.64693
  -2 -10  -8 2062.70  183.93   1-0.09422 0.59624-0.33972-0.51246-0.93579-0.61795
  -2 -10  -8 1727.58  172.15   1-0.75575-0.06572-0.51328-0.68451 0.40665 0.72602
   2 -10   8 1912.57  217.38   1-0.06518 0.07330 0.07303 0.75735 0.99519 0.64887
  -2 -10  -8 2272.17  173.89   1-0.10861 0.58130-0.37176-0.54474-0.92195-0.60442
  -2  10  -9  -18.66  105.04   1-0.07945-0.18532-0.00921-0.74724-0.99679-0.63819
  -2 -10  -9   97.47  128.36   1-0.14206 0.58278-0.30381-0.53177-0.94208-0.61447
  -2  10 -1017101.56  633.43   1-0.07663-0.14820 0.02937-0.76388-0.99662-0.62809
  -2 -10 -1015578.26  512.34   1-0.18754 0.57167-0.26826-0.55144-0.94491-0.60754
   2 -11 -1131066.24  750.03   1-0.60010 0.23386 0.13512-0.20455-0.78842-0.95050
  -2 -11  1130572.16  857.21   1 0.06642 0.14332-0.58310 0.31956 0.80967 0.93666
   2  11 -10   10.48  111.60   1-0.02254-0.13752 0.57765-0.26950-0.81597-0.95313
   2 -11 -10  143.44   93.60   1-0.59413 0.20543 0.12774-0.15668-0.79415-0.96604
  -2 -11  10 -117.40  154.68   1 0.06628 0.17773-0.58181 0.26571 0.81061 0.94752
   2  11  -9 7869.56  357.96   1-0.02234-0.17163 0.57922-0.21266-0.81486-0.96193
   2 -11  -9 7512.00  334.99   1-0.59078 0.17438 0.12364-0.10554-0.79729-0.97900
  -2 -11   9 6689.53  313.93   1-0.66327-0.51713-0.41826 0.37369 0.62057 0.77001
  -2 -11   9 7994.53  427.15   1 0.06664 0.21264-0.58526 0.20712 0.80809 0.95492
   2  11  -8 1875.67  197.74   1-0.02148-0.20507 0.58590-0.15070-0.81009-0.96707
   2  11  -8 1500.56  183.98   1-0.78801-0.96934 0.61319-0.12509-0.05501-0.21148
   2 -11  -8 1679.99  173.62   1-0.59073 0.14004 0.12358-0.05036-0.79734-0.98886
  -2 -11   8 1782.60  161.39   1-0.63795-0.45737-0.39441 0.34238 0.66140 0.82072
   2 -11  -8 1791.83  199.30   1-0.15037 0.58064 0.00877-0.16422 0.98859 0.79742
  -2 -11   8 1218.62  193.42   1 0.06758 0.24812-0.59432 0.14291 0.80137 0.95812
   2  11  -7 8307.23  412.61   1-0.01984-0.23774 0.59847-0.08287-0.80089-0.96778
   2  11  -7 6495.94  546.18   1-0.77244-0.98830 0.63470-0.04826 0.02172-0.14467
   2 -11  -7 8835.09  372.11   1-0.59487 0.10150 0.12866 0.00996-0.79345-0.99478
  -2 -11   7 9022.79  383.90   1-0.61556-0.40054-0.37377 0.30786 0.69381 0.86300
   2 -11  -7 9165.69  446.28   1-0.09132 0.60524 0.05346-0.06434 0.99438 0.79343
  -2 -11   7 8698.15  505.27   1 0.06921 0.28430-0.61002 0.07207 0.78935 0.95602
   2  11  -614887.26  508.72   1-0.01729-0.26956 0.61764-0.00836-0.78626-0.96294
   2  11  -612886.17  513.89   1-0.74749-0.99758 0.65472 0.02685 0.11218-0.06408
   2 -11  -615458.34  484.22   1-0.60437 0.05760 0.14045 0.07700-0.78421-0.99536
  -2 -11   613600.12  447.60   1-0.59667-0.34712-0.35663 0.26969 0.71888 0.89820
   2 -11  -616771.78  651.27   1-0.04235 0.61977 0.09002 0.02739 0.99503 0.78430
  -2  11   616878.07  926.00   1 0.04370-0.61906-0.10756-0.04251-0.99323-0.78418
  -2 -11   616152.67  566.81   1 0.07164 0.32128-0.63355-0.00659 0.77037 0.94696
   2  11  -569086.37 1147.35   1-0.01361-0.30019 0.64454 0.07379-0.76444-0.95101
   2  11  -568486.09 1322.44   1-0.71034-0.99481 0.67027 0.09767 0.21480 0.02825
   2 -11  -570831.96 1110.30   1-0.62076 0.00682 0.16126 0.15305-0.76723-0.98819
  -2 -11   569376.64 1015.74   1-0.58128-0.29728-0.34284 0.22831 0.73795 0.92708
  -2  11   572286.78 1664.78   1 0.00496-0.62349-0.13612-0.12634-0.99067-0.77154
  -2 -11   570019.21 1170.73   1 0.07501 0.35919-0.66623-0.09441 0.74196 0.92847
   2  11  -4 4689.37  323.81   1-0.00858-0.32947 0.67987 0.16439-0.73328-0.92974
   2  11  -4 4679.30  340.03   1-0.65963-0.97867 0.67796 0.16069 0.32441 0.12797
   2 -11  -4 4596.55  267.17   1-0.64616-0.05306 0.19484 0.24161-0.73790-0.96891
  -2 -11   4 5025.11  294.28   1-0.56983-0.25139-0.33267 0.18332 0.75141 0.95036
  -2  11   4 5216.00  504.27   1-0.02561-0.61976-0.15844-0.20392-0.98703-0.75782
  -2 -11   4 4832.27  310.24   1 0.07943 0.39829-0.70937-0.19280 0.70033 0.89676
  -2  11   3 2783.51  296.77   1 0.04808-0.51009 0.96052 0.85953-0.27400-0.03160
   2  11  -3 3559.54  262.16   1-0.00194-0.35717 0.72399 0.26376-0.68980-0.89602
  -2 -11   3 2605.65  244.89   1-0.76944-0.41537 0.40198 0.86260-0.49635-0.28874
   2 -11  -3 3460.32  259.82   1-0.68229-0.12358 0.24608 0.34810-0.68841-0.92927
  -2 -11   3 3399.80  218.56   1-0.56252-0.20964-0.32621 0.13460 0.75970 0.96846
  -2  11   3 3792.14  374.08   1-0.04865-0.60850-0.17512-0.27587-0.98334-0.74405
  -2 -11   3 3343.28  253.03   1 0.08495 0.43835-0.76352-0.30212 0.64016 0.84649
   2 -11  -3 2555.60  315.44   1 0.08312 0.64105-0.74558-0.64283 0.66120 0.41929
  -2  11   2 2883.62  281.33   1 0.07699-0.44654 0.99523 0.83848 0.05986 0.31232
   2  11  -2 3087.58  258.37   1 0.00666-0.38286 0.77697 0.37200-0.62950-0.84558
  -2  11   2 2498.95  261.78   1-0.08758-0.61235-0.13137-0.28731-0.98745-0.73652
   2 -11  -2 2819.60  195.81   1-0.73038-0.20604 0.32364 0.48076-0.60148-0.85229
  -2 -11   2 3042.50  205.70   1-0.55951-0.17217-0.32356 0.08209 0.76305 0.98163
  -2  11   2 2709.80  323.58   1-0.06464-0.59019-0.18664-0.34265-0.98029-0.73093
   2 -11  -2 2225.18  271.01   1 0.10161 0.62559-0.93209-0.77408 0.34767 0.09704
  -2 -11   2 2857.29  233.37   1 0.09143 0.47927-0.82788-0.42159 0.55339 0.76977
  -2  11   1 1377.24  177.21   1 0.09102-0.39806 0.95814 0.74617 0.27144 0.53363
   2  11  -1 1431.80  205.95   1 0.01749-0.40634 0.83672 0.48696-0.54734-0.77314
  -2  11   1 1494.45  195.99   1-0.08978-0.58018-0.16794-0.37933-0.98169-0.72076
   2 -11  -1 1547.26  148.77   1-0.78400-0.29405 0.43956 0.65204-0.43830-0.69883
  -2 -11   1 1425.31  166.78   1-0.56087-0.13909-0.32475 0.02572 0.76154 0.98994
  -2  11   1 1248.38  223.07   1-0.07398-0.56522-0.19334-0.40461-0.97833-0.71889
   2 -11  -1 1311.57  186.22   1 0.10669 0.59620-0.99205-0.77905 0.06667-0.19393
  -2 -11   1 1738.24  204.31   1 0.09833 0.52034-0.89786-0.54670 0.42914 0.65600
  -2  11   0 9474.89  450.13   1 0.09819-0.35658 0.90736 0.64014 0.40871 0.68048
   2  11   011433.14  472.35   1 0.03074-0.42740 0.89897 0.60433-0.43691-0.67238
  -2  11   011038.68  475.06   1-0.09045-0.54650-0.17947-0.44608-0.97959-0.70875
   2 -11   011564.30  558.38   1-0.79269-0.33756 0.60366 0.87115-0.08496-0.35657
  -2 -11   011203.28  406.57   1-0.56663-0.11040-0.32983-0.03452 0.75507 0.99328
  -2  11   011481.12  636.98   1-0.07697-0.53390-0.19547-0.46201-0.97768-0.70816
   2 -11   0 9289.97  460.71   1 0.10473 0.55970-0.98342-0.71522-0.14800-0.41855
  -2 -11   012494.80  519.01   1 0.10426 0.56068-0.96087-0.66482 0.25662 0.49360
   2  11   160483.78 1145.25   1 0.04626-0.44617 0.95523 0.71565-0.29220-0.53737
  -2  11  -156330.96 1216.60   1-0.09031-0.51201-0.17693-0.49877-0.98006-0.69932
  -2 -11  -153639.99  933.16   1-0.57673-0.08606-0.33879-0.09865 0.74336 0.99139
  -2  11  -154898.40 1473.31   1-0.07382-0.49645-0.19322-0.51502-0.97837-0.69877
  -2 -11  -155216.42 1070.31   1 0.10670 0.59773-0.99389-0.75311 0.02796 0.27482
   2  11   2 1907.06  221.45   1 0.06324-0.46346 0.99180 0.80704-0.11104-0.36588
  -2 -11  -2 1368.74  163.04   1-0.04470 0.48180 0.38691 0.57098-0.92103-0.66470
  -2  11  -2 1765.16  194.93   1-0.08963-0.47700-0.16543-0.54249-0.98213-0.69149
  -2 -11  -2 1968.68  158.77   1-0.59105-0.06593-0.35159-0.16661 0.72597 0.98381
  -2  11  -2 2288.81  273.57   1-0.06471-0.45303-0.18669-0.56375-0.98028-0.69060
   2  11   3 3951.35  302.34   1 0.08011-0.48096 0.99146 0.86170 0.10280-0.16165
  -2 -11  -3 3037.19  241.45   1-0.03791 0.52295 0.44932 0.57807-0.89256-0.62637
  -2  11  -3 3937.35  282.90   1-0.08858-0.44160-0.14774-0.58003-0.98505-0.68450
  -2 -11  -3 3777.79  221.30   1-0.60936-0.04980-0.36812-0.23831 0.70225 0.96990
  -2  11  -3 3662.53  349.84   1-0.04974-0.40375-0.17591-0.60824-0.98314-0.68339
   2  11   3 2687.10  387.65   1 0.05581-0.50474-0.48122-0.61190 0.87481 0.60893
   2  11   4 1888.82  219.96   1 0.09442-0.50095 0.93828 0.86351 0.33271 0.05812
  -2  11  -4 2448.47  317.40   1-0.08722-0.40614-0.12558-0.61290-0.98824-0.67778
  -2 -11  -4 2385.98  195.87   1-0.63161-0.03779-0.38853-0.31370 0.67089 0.94876
  -2  11  -4 1927.96  306.95   1-0.02894-0.34865-0.16086-0.64845-0.98655-0.67671
   2  11   5 3380.57  392.76   1 0.10375-0.52593 0.82634 0.80687 0.55351 0.26896
  -2  11  -5 4441.54  309.19   1-0.08560-0.37022-0.09994-0.64248-0.99130-0.67093
  -2 -11  -5 4062.66  239.62   1-0.65672-0.02846-0.41203-0.39237 0.63161 0.91936
  -2  11  -5 3867.33  404.58   1-0.00231-0.28771-0.14146-0.68430-0.98994-0.67002
  -2  11  -6 1613.05  201.67   1-0.08375-0.33406-0.07156-0.66933-0.99391-0.66361
  -2 -11  -6 1984.00  162.19   1-0.68442-0.02180-0.43868-0.47405 0.58233 0.88022
  -2  11  -6 2431.00  314.58   1 0.03022-0.22087-0.11753-0.71564-0.99260-0.66261
  -2 -11  -6 1663.01  165.88   1-0.05111 0.61172-0.53411-0.57108-0.84386-0.54740
  -2  11  -758673.95 1381.26   1-0.08168-0.29767-0.04094-0.69395-0.99581-0.65560
  -2 -11  -767422.28 1462.05   1-0.06152 0.63605-0.36343-0.45537-0.92958-0.62294
  -2 -11  -756344.53 1218.00   1-0.71348-0.01644-0.46774-0.55827 0.52167 0.82949
   2 -11   753352.64 1358.02   1-0.05372 0.16066 0.08157 0.73633 0.99521 0.65726
  -2 -11  -757021.50 1297.56   1-0.08649 0.61064-0.43713-0.52935-0.89522-0.58897
  -2  11  -8  163.09  102.57   1-0.07940-0.26110-0.00848-0.71677-0.99680-0.64657
  -2 -11  -8  301.16  108.65   1-0.10961 0.62233-0.32833-0.47549-0.93817-0.62177
  -2 -11  -8  148.77   64.74   1-0.74279-0.01128-0.49874-0.64434 0.44667 0.76464
   2 -11   8  262.16  145.52   1-0.09766 0.08228 0.04870 0.75863 0.99402 0.64629
  -2 -11  -8  209.04   82.32   1-0.11670 0.61473-0.34689-0.49437-0.93061-0.61457
  -2  11  -910369.90  483.85   1-0.07691-0.22431 0.02564-0.73789-0.99670-0.63655
  -2 -11  -912316.73  561.36   1-0.15536 0.61096-0.29356-0.49594-0.94322-0.61705
   2 -11   911112.54  559.48   1-0.14829-0.00279 0.01035 0.77547 0.98888 0.63136
  -2  11 -10 9577.75  495.63   1-0.07422-0.18732 0.06119-0.75757-0.99536-0.62528
  -2 -11 -10 8353.80  437.11   1-0.19906 0.60164-0.25904-0.51664-0.94512-0.60918
   2  12 -10 1108.21  144.21   1-0.02094-0.17746 0.59003-0.28261-0.80710-0.94267
   2 -12 -10  904.43  138.19   1-0.59950 0.24155 0.13437-0.12448-0.78901-0.96236
  -2 -12  10  922.58  204.31   1 0.06778 0.22065-0.59626 0.27692 0.79992 0.93521
   2  12  -9  119.03   90.89   1-0.02067-0.21149 0.59211-0.22526-0.80558-0.95106
  -2 -12   9   65.27   74.01   1-0.65358-0.46598-0.40906 0.40852 0.63678 0.78483
  -2 -12   9   88.88  148.54   1 0.06822 0.25563-0.60043 0.21760 0.79675 0.94196
   2  12  -836350.28  860.38   1-0.01975-0.24487 0.59917-0.16294-0.80037-0.95576
   2 -12  -839476.83  893.66   1-0.59703 0.17523 0.13131-0.01705-0.79139-0.98437
  -2 -12   840586.68  797.42   1-0.62924-0.40720-0.38633 0.37608 0.67438 0.83230
   2 -12  -835651.66 1057.84   1-0.18216 0.59030-0.01557-0.16294 0.98314 0.79056
  -2 -12   833446.21 1254.61   1 0.06922 0.29118-0.61014 0.15275 0.78926 0.94439
   2  12  -7 2596.44  228.27   1-0.01808-0.27758 0.61178-0.09498-0.79081-0.95599
   2  12  -7 1821.58  283.23   1-0.74117-0.99817 0.65827-0.05053 0.13168-0.03304
   2 -12  -7 3445.73  257.30   1-0.60165 0.13621 0.13705 0.04392-0.78691-0.98970
  -2 -12   7 3118.78  209.36   1-0.60798-0.35144-0.36687 0.34025 0.70409 0.87219
   2 -12  -7 3354.47  301.04   1-0.12735 0.61066 0.02627-0.06591 0.99150 0.78914
  -2 -12   7 3277.24  275.38   1 0.07089 0.32740-0.62634 0.08141 0.77631 0.94136
   2  12  -6 2549.51  231.44   1-0.01549-0.30929 0.63094-0.02056-0.77567-0.95074
   2  12  -6 2507.65  236.14   1-0.70736-0.99874 0.67107 0.01753 0.22201 0.04697
   2 -12  -6 2609.29  203.08   1-0.61162 0.09185 0.14957 0.11170-0.77687-0.98948
  -2 -12   6 2808.50  207.36   1-0.58980-0.29881-0.35047 0.30148 0.72752 0.90543
   2 -12  -6 2697.85  260.73   1-0.08158 0.62199 0.06077 0.02376 0.99481 0.78266
  -2 -12   6 2352.44  243.71   1 0.07335 0.36440-0.65014 0.00247 0.75626 0.93123
   2  12  -5 5000.75  333.50   1-0.01182-0.33993 0.65734 0.06110-0.75349-0.93846
   2  12  -5 4451.73  350.72   1-0.66160-0.98755 0.67786 0.07964 0.32058 0.13565
   2 -12  -5 4373.96  249.02   1-0.62842 0.04065 0.17121 0.18857-0.75879-0.98121
  -2 -12   5 4220.61  253.30   1-0.57517-0.24973-0.33740 0.25937 0.74520 0.93292
   2 -12  -5 4309.93  319.50   1-0.04398 0.62514 0.08881 0.10698 0.99507 0.77314
  -2  12   5 4396.64  438.52   1 0.04696-0.62302-0.10513-0.12088-0.99334-0.77280
  -2 -12   5 4543.39  312.16   1 0.07670 0.40230-0.68273-0.08525 0.72663 0.91152
   2  12  -463919.66 1252.76   1-0.00685-0.36926 0.69168 0.15072-0.72216-0.91701
   2 -12  -466697.92 1107.21   1-0.65413-0.01954 0.20577 0.27810-0.72784-0.96035
  -2 -12   464808.33  999.01   1-0.56430-0.20442-0.32778 0.21383 0.75770 0.95524
  -2  12   472551.30 1784.97   1 0.01796-0.61771-0.12657-0.19757-0.99179-0.76117
  -2 -12   464614.70 1345.52   1 0.08106 0.44134-0.72529-0.18307 0.68365 0.87846
   2  12  -3  582.66  117.50   1-0.00034-0.39709 0.73423 0.24851-0.67889-0.88348
  -2  12   3  425.87  136.40   1-0.06735-0.66779 0.14667 0.02045-0.98688-0.74406
   2 -12  -3  688.80  123.98   1-0.69041-0.09018 0.25829 0.38572-0.67572-0.91819
  -2 -12   3  567.71  117.87   1-0.55737-0.16304-0.32168 0.16476 0.76540 0.97276
  -2  12   3  448.83  194.94   1-0.00405-0.60543-0.14273-0.26900-0.98975-0.74905
  -2 -12   3  716.45  133.16   1 0.08643 0.48126-0.77814-0.29110 0.62211 0.82683
   2  12  -2221478.7 2373.31   1 0.00804-0.42301 0.78503 0.35458-0.61939-0.83386
  -2  12   2197937.4 4087.27   1-0.07830-0.64455 0.00673-0.17470-0.99690-0.74433
   2 -12  -2202602.9 4018.25   1-0.73802-0.17212 0.33744 0.52019-0.58433-0.83652
  -2 -12   2217535.7 1958.20   1-0.55451-0.12573-0.31916 0.11211 0.76853 0.98570
  -2  12   2216402.0 3078.28   1-0.01952-0.58659-0.15401-0.33554-0.98787-0.73710
  -2 -12   2207772.3 4393.33   1 0.09267 0.52194-0.84034-0.40841 0.53407 0.74884
  -2  12   115782.60  664.85   1 0.09112-0.43944 0.95767 0.72013 0.27306 0.53692
   2  12  -120981.48  693.37   1 0.01854-0.44682 0.84210 0.46684-0.53899-0.76315
  -2  12   114180.41  667.97   1-0.08268-0.61466-0.05560-0.29228-0.99502-0.73263
   2 -12  -119659.26  642.57   1-0.78989-0.25845 0.45778 0.69583-0.40804-0.67008
  -2 -12   119218.12  645.23   1-0.55578-0.09255-0.32027 0.05582 0.76715 0.99414
  -2  12   119629.16 1133.87   1-0.02874-0.56151-0.16072-0.39751-0.98658-0.72572
  -2 -12   121370.26  820.84   1 0.09925 0.56256-0.90728-0.53041 0.40863 0.63417
   2  12   046705.76 1243.04   1 0.03136-0.46830 0.90157 0.58142-0.43149-0.66531
  -2  12   051149.68 1451.54   1-0.08461-0.58229-0.08466-0.37658-0.99281-0.72049
   2 -12   044993.75 1464.71   1-0.77173-0.27526 0.63546 0.92867 0.02473-0.24858
  -2 -12   049446.29 1159.24   1-0.56121-0.06354-0.32505-0.00411 0.76117 0.99797
  -2  12   042683.48 1496.60   1-0.03200-0.53046-0.16308-0.45514-0.98609-0.71516
  -2 -12   050714.06 1351.24   1 0.10474 0.60259-0.96633-0.64463 0.23500 0.47046
   2  12   1 8419.59  442.49   1 0.04641-0.48753 0.95567 0.69056-0.29073-0.53425
  -2  12  -1 8760.21  440.24   1-0.08528-0.54865-0.09496-0.44210-0.99182-0.70958
  -2 -12  -1 8211.22  365.94   1-0.57076-0.03864-0.33349-0.06772 0.75033 0.99695
  -2  12  -1 7745.97  637.23   1-0.02947-0.49363-0.16125-0.50857-0.98647-0.70546
  -2 -12  -1 8407.97  448.36   1 0.10662 0.63909-0.99429-0.72786 0.00321 0.24854
   2  12   224282.55  799.65   1 0.06302-0.50517 0.99153 0.78122-0.11354-0.36671
  -2  12  -226757.49  789.45   1-0.08518-0.51424-0.09340-0.49577-0.99197-0.69982
  -2 -12  -223938.08  585.63   1-0.58433-0.01776-0.34556-0.13496 0.73426 0.99069
  -2  12  -226828.49  964.93   1-0.02132-0.45117-0.15532-0.55791-0.98763-0.69654
   2  12   3 9860.96  575.44   1 0.07983-0.52273 0.99190 0.83657 0.09878-0.16399
  -2  12  -311885.10  532.80   1-0.08455-0.47931-0.08371-0.54132-0.99289-0.69082
  -2 -12  -311095.13  372.28   1-0.60173-0.00072-0.36120-0.20577 0.71235 0.97859
  -2  12  -311864.81  639.78   1-0.00763-0.40318-0.14534-0.60319-0.98935-0.68818
   2  12   438714.32  999.77   1 0.09442-0.54242 0.93833 0.83797 0.33258 0.05966
  -2  12  -446585.13 1032.43   1-0.08352-0.44397-0.06813-0.58096-0.99417-0.68217
  -2 -12  -445110.33  834.39   1-0.62298 0.01228-0.38057-0.28012 0.68341 0.95988
  -2  12  -436951.72 1359.73   1 0.01153-0.34970-0.13130-0.64441-0.99127-0.68002
  -2  12  -5 4089.95  285.54   1-0.08217-0.40831-0.04807-0.61613-0.99545-0.67354
  -2 -12  -5 4288.84  256.89   1-0.64709 0.02261-0.40295-0.35766 0.64722 0.93357
  -2  12  -5 4500.37  392.15   1 0.03619-0.29073-0.11311-0.68149-0.99292-0.67159
  -2  12  -671519.60 1587.76   1-0.08053-0.37236-0.02449-0.64778-0.99645-0.66461
  -2 -12  -673568.11 1583.47   1-0.03343 0.67125-0.38324-0.39439-0.92303-0.62759
  -2 -12  -673073.00 1558.40   1-0.67377 0.03037-0.42833-0.43821 0.60212 0.89835
   2 -12   665768.04 1491.41   1-0.05276 0.23750 0.08228 0.70747 0.99521 0.66563
  -2 -12  -665116.66 1405.06   1-0.06187 0.64248-0.50557-0.51703-0.86056-0.56558
  -2  12  -7 3174.78  270.09   1-0.07865-0.33618 0.00188-0.67668-0.99690-0.65503
  -2 -12  -7 3727.62  277.08   1-0.08136 0.65770-0.34913-0.41550-0.93353-0.62831
  -2 -12  -7 3103.07  217.85   1-0.70239 0.03610-0.45649-0.52140 0.54612 0.85254
   2 -12   7 3507.08  316.98   1-0.08774 0.16808 0.05614 0.73652 0.99455 0.65519
  -2  12  -8 2453.56  267.74   1-0.07653-0.29977 0.03070-0.70310-0.99659-0.64481
  -2 -12  -8 2013.14  291.19   1-0.12698 0.64646-0.31529-0.43688-0.94045-0.62547
  -2 -12  -8 1806.59  181.99   1-0.73165 0.04132-0.48670-0.60668 0.47728 0.79386
   2 -12   8 2499.57  283.66   1-0.12860 0.09278 0.02532 0.76088 0.99137 0.64222
  -2  12  -9 3860.17  288.84   1-0.07420-0.26313 0.06153-0.72750-0.99534-0.63363
  -2 -12  -9 4007.11  271.03   1-0.17059 0.63722-0.28167-0.45848-0.94422-0.61947
   2 -12   9 3511.10  290.19   1-0.17564 0.01130-0.01056 0.78017 0.98439 0.62546
   2  13  -9 2173.84  211.79   1-0.01877-0.25112 0.60659-0.23627-0.79478-0.93867
   2 -13  -9 2098.24  183.77   1-0.60418 0.24397 0.14020-0.03783-0.78441-0.96904
  -2 -13   9 2255.91  184.15   1-0.64662-0.41757-0.40251 0.44070 0.64796 0.79461
  -2 -13   9 2381.09  232.73   1 0.06997 0.29881-0.61742 0.22627 0.78350 0.92710
   2  13  -813595.87  715.41   1-0.01779-0.28452 0.61394-0.17358-0.78914-0.94282
   2 -13  -814664.71  579.60   1-0.60521 0.20854 0.14149 0.01869-0.78338-0.97783
  -2 -13   814872.20  555.18   1-0.62330-0.35982-0.38086 0.40718 0.68295 0.83948
   2 -13  -817265.73  667.03   1-0.21234 0.60154-0.03888-0.16049 0.97641 0.78254
  -2 -13   816435.84  640.28   1 0.07105 0.33443-0.62783 0.16072 0.77509 0.92861
   2  13  -7   60.27  144.76   1-0.01604-0.31708 0.62687-0.10539-0.77895-0.94252
   2 -13  -7   79.13   78.86   1-0.61045 0.16890 0.14810 0.08054-0.77807-0.98233
  -2 -13   7  185.83   79.12   1-0.60300-0.30502-0.36236 0.37039 0.71068 0.87736
   2 -13  -7  192.08  120.60   1-0.16114 0.61831 0.00054-0.06603 0.98693 0.78315
  -2 -13   7  223.13  110.58   1 0.07278 0.37070-0.64458 0.08882 0.76105 0.92449
   2  13  -6  462.43  108.67   1-0.01341-0.34875 0.64597-0.03101-0.76323-0.93669
   2 -13  -6  462.57   94.37   1-0.62105 0.12391 0.16163 0.14932-0.76692-0.98099
  -2 -13   6  531.70  109.73   1-0.58570-0.25326-0.34679 0.33078 0.73258 0.90908
   2 -13  -6  455.36  129.41   1-0.11821 0.62680 0.03319 0.02180 0.99243 0.77886
  -2 -13   6  448.21  114.17   1 0.07526 0.40773-0.66872 0.00955 0.73969 0.91304
   2  13  -517279.77  621.18   1-0.00973-0.37938 0.67196 0.05023-0.74052-0.92387
   2 -13  -517255.42  572.44   1-0.63864 0.07182 0.18472 0.22736-0.74699-0.97115
  -2 -13   516958.02  543.16   1-0.57180-0.20492-0.33441 0.28799 0.74913 0.93544
   2 -13  -517168.87  722.80   1-0.08275 0.62782 0.05989 0.10368 0.99476 0.77141
  -2 -13   516298.25  738.07   1 0.07861 0.44578-0.70140-0.07836 0.70841 0.89170
   2  13  -4 6994.22  444.99   1-0.00481-0.40879 0.70529 0.13881-0.70890-0.90200
   2 -13  -4 6930.65  324.03   1-0.66463 0.01144 0.22047 0.31836-0.71389-0.94789
  -2 -13   4 7411.61  322.25   1-0.56149-0.16016-0.32530 0.24193 0.76085 0.95698
   2 -13  -4 6728.24  390.78   1-0.05423 0.62190 0.08119 0.18017 0.99522 0.76208
  -2  13   4 7362.62  634.49   1 0.05856-0.61865-0.09651-0.19304-0.99360-0.76157
  -2 -13   4 6634.82  381.55   1 0.08290 0.48461-0.74334-0.17547 0.66375 0.85694
   2  13  -3 1765.29  192.99   1 0.00162-0.43666 0.74655 0.23534-0.66532-0.86829
   2 -13  -3 1717.05  173.19   1-0.70114-0.05941 0.27490 0.42789-0.65789-0.90187
  -2 -13   3 1535.24  145.51   1-0.55492-0.11915-0.31952 0.19254 0.76808 0.97402
   2 -13  -3 1692.09  206.60   1-0.03221 0.60947 0.09753 0.25169 0.99471 0.75178
  -2  13   3 2335.98  302.20   1 0.03750-0.60540-0.11215-0.26394-0.99298-0.75087
  -2 -13   3 1587.47  182.07   1 0.08813 0.52426-0.79501-0.28223 0.60015 0.80342
   2  13  -2  450.72  115.25   1 0.00981-0.46276 0.79514 0.33912-0.60634-0.81905
  -2  13   2  539.36  128.52   1-0.06810-0.67578 0.13762-0.06934-0.98813-0.73382
   2 -13  -2  574.65   93.12   1-0.74834-0.14095 0.35706 0.56537-0.55900-0.81269
  -2 -13   2  704.08  104.80   1-0.55220-0.08198-0.31714 0.13975 0.77102 0.98678
  -2  13   2  428.46  223.02   1 0.02257-0.58603-0.12318-0.33023-0.99212-0.73994
  -2 -13   2  548.13  123.02   1 0.09415 0.56443-0.85522-0.39755 0.50962 0.72343
   2  13  -125246.62  660.20   1 0.02007-0.48682 0.84979 0.44903-0.52672-0.74924
  -2  13   125784.52  867.51   1-0.07491-0.64839 0.05221-0.20997-0.99582-0.73177
  -2 -13   125886.36  610.97   1-0.55340-0.04873-0.31819 0.08354 0.76974 0.99531
  -2  13   127412.89 1286.18   1 0.01349-0.56080-0.12986-0.39218-0.99144-0.72917
  -2 -13   125685.05  713.15   1 0.10033 0.60507-0.91859-0.51607 0.38224 0.60626
   2  13   071505.07 1148.39   1 0.03252-0.50865 0.90640 0.56074-0.42115-0.65332
  -2  13   074344.78 1264.40   1-0.07825-0.61743 0.00737-0.31005-0.99690-0.72294
  -2 -13   070746.57 1080.87   1-0.55853-0.01941-0.32269 0.02386 0.76414 0.99952
  -2  13   065330.72 1588.87   1 0.01004-0.52994-0.13239-0.44997-0.99114-0.71880
  -2 -13   074781.73 1234.08   1 0.10531 0.64458-0.97297-0.62561 0.20552 0.43945
   2  13   1    2.44   76.12   1 0.04717-0.52828 0.95790 0.66727-0.28317-0.52503
  -2  13  -1   69.45   96.06   1-0.07984-0.58471-0.01464-0.38730-0.99669-0.71281
  -2 -13  -1   -5.73   87.05   1-0.56756 0.00599-0.33066-0.03926 0.75400 0.99921
  -2  13  -1  231.81  215.17   1 0.01204-0.49363-0.13092-0.50377-0.99131-0.70889
  -2 -13  -1   68.98   72.28   1 0.10640 0.68029-0.99380-0.70172-0.03220 0.21159
   2  13   235699.49 1263.30   1 0.06343-0.54625 0.99204 0.75618-0.10875-0.36025
  -2  13  -238246.63  929.24   1-0.08036-0.55095-0.02208-0.44998-0.99652-0.70282
  -2 -13  -242162.56  802.41   1-0.58042 0.02758-0.34207-0.10585 0.73898 0.99399
  -2  13  -244814.91 1287.75   1 0.01936-0.45201-0.12554-0.55364-0.99189-0.69940
   2  13   3  -16.23   87.81   1 0.08013-0.56391 0.99145 0.81055 0.10298-0.15812
  -2  13  -3   47.35  102.96   1-0.08022-0.51649-0.02005-0.50318-0.99657-0.69284
  -2 -13  -3  -13.99   86.48   1-0.59694 0.04551-0.35688-0.17582 0.71853 0.98336
  -2  13  -3  127.58  231.69   1 0.03192-0.40515-0.11628-0.59965-0.99270-0.69012
  -2  13  -4  362.85  113.75   1-0.07955-0.48152-0.01069-0.54906-0.99677-0.68312
  -2 -13  -4  518.20   99.71   1-0.61720 0.05952-0.37527-0.24919 0.69154 0.96662
   2 -13   4  251.89  132.70   1-0.03813 0.36247 0.09315 0.63359 0.99492 0.68350
  -2  13  -4  261.42  199.47   1 0.04966-0.35310-0.10313-0.64176-0.99342-0.68077
  -2  13  -5  102.62  130.61   1-0.07849-0.44616 0.00407-0.58953-0.99690-0.67333
  -2 -13  -5   25.50   94.84   1-0.64026 0.07089-0.39656-0.32565 0.65787 0.94282
   2 -13   5   -5.91  106.66   1-0.06020 0.30595 0.07674 0.67237 0.99523 0.67402
  -2  13  -634852.55  865.59   1-0.07710-0.41047 0.02307-0.62577-0.99675-0.66326
  -2 -13  -637458.01  973.69   1-0.05808 0.68809-0.36588-0.35146-0.92884-0.63482
  -2 -13  -632200.76  776.19   1-0.66594 0.07964-0.42081-0.40506 0.61597 0.91081
   2 -13   633481.26  909.89   1-0.08752 0.24419 0.05632 0.70712 0.99456 0.66357
  -2  13  -7 5178.04  335.10   1-0.07542-0.37449 0.04549-0.65858-0.99611-0.65270
  -2 -13  -7 5800.88  326.02   1-0.10311 0.67744-0.33316-0.37395-0.93721-0.63342
  -2 -13  -7 4597.41  261.62   1-0.69374 0.08620-0.44787-0.48715 0.56402 0.86905
   2 -13   7 5079.38  388.33   1-0.12016 0.17711 0.03171 0.73771 0.99224 0.65147
  -2  13  -8 4565.81  449.18   1-0.07348-0.33825 0.07075-0.68857-0.99478-0.64144
  -2 -13  -8 4996.19  328.20   1-0.14623 0.66869-0.30061-0.39662-0.94246-0.62891
   2 -13   8 5263.59  346.60   1-0.15830 0.10453 0.00271 0.76389 0.98738 0.63682
  -2  13  -9  719.44  150.07   1-0.07131-0.30169 0.09831-0.71634-0.99259-0.62915
  -2 -13  -9  857.91  140.25   1-0.18768 0.66161-0.26815-0.41938-0.94491-0.62159
   2 -13   9  706.24  149.83   1-0.20213 0.02613-0.03097 0.78539 0.97886 0.61844
   2  14  -923977.41  705.74   1-0.01665-0.29061 0.62239-0.24590-0.78252-0.92470
   2 -14  -925296.79  738.36   1-0.61343 0.27620 0.15187-0.00059-0.77500-0.96109
  -2 -14   921595.88  672.96   1-0.64209-0.37160-0.39827 0.47056 0.65505 0.80030
  -2 -14   924216.99  859.90   1 0.07190 0.34215-0.63609 0.23326 0.76825 0.91022
   2  14  -8   51.92  152.60   1-0.01558-0.32384 0.63026-0.18275-0.77622-0.92828
   2 -14  -8  -15.34  104.87   1-0.61517 0.24006 0.15409 0.05687-0.77318-0.96908
   2 -14  -8   78.15  105.42   1-0.24108 0.61425-0.06124-0.15723 0.96856 0.77328
   2  14  -739712.24 1167.00   1-0.01377-0.35633 0.64343-0.11432-0.76537-0.92733
   2 -14  -741392.65 1088.95   1-0.62117 0.19967 0.16179 0.11981-0.76678-0.97250
  -2 -14   738775.12  986.45   1-0.60042-0.26099-0.36002 0.39835 0.71404 0.87931
   2 -14  -739843.25 1200.87   1-0.19314 0.62776-0.02403-0.06498 0.98087 0.77568
  -2 -14   739469.97 1195.83   1 0.07484 0.41418-0.66458 0.09449 0.74345 0.90527
   2  14  -6   83.61   89.40   1-0.01108-0.38796 0.66252-0.03996-0.74895-0.92080
   2 -14  -6  216.11  110.95   1-0.63252 0.15392 0.17660 0.18986-0.75413-0.96966
  -2 -14   6  190.12   85.03   1-0.58396-0.21008-0.34523 0.35797 0.73470 0.90979
   2 -14  -6   83.68  139.54   1-0.15273 0.63372 0.00696 0.02119 0.98824 0.77326
  -2 -14   6  195.47  136.89   1 0.07736 0.45141-0.68919 0.01466 0.72042 0.89219
   2  14  -5  -10.65   83.81   1-0.00737-0.41855 0.68815 0.04094-0.72552-0.90726
   2 -14  -5   50.96   95.55   1-0.65086 0.10111 0.20126 0.26946-0.73203-0.95768
  -2 -14   5  119.38   87.47   1-0.57076-0.16243-0.33349 0.31454 0.75034 0.93524
   2 -14  -5   40.25  111.96   1-0.11921 0.63281 0.03244 0.10185 0.99233 0.76757
  -2 -14   5   18.67  125.42   1 0.08070 0.48929-0.72180-0.07311 0.68737 0.86904
   2  14  -414675.60  584.50   1-0.00246-0.44797 0.72069 0.12872-0.69325-0.88473
   2 -14  -414244.84  498.53   1-0.67746 0.04011 0.23896 0.36241-0.69565-0.93115
  -2 -14   415128.32  487.72   1-0.56098-0.11821-0.32485 0.26801 0.76142 0.95613
   2 -14  -415903.31  618.74   1-0.09211 0.62547 0.05287 0.17746 0.99434 0.75979
  -2 -14   414766.59  559.95   1 0.08492 0.52805-0.76325-0.16974 0.64049 0.83206
   2  14  -3 2551.13  233.61   1 0.00392-0.47589 0.76063 0.22393-0.64916-0.85051
  -2 -14   3 2551.78  189.41   1-0.55476-0.07754-0.31938 0.21831 0.76826 0.97279
   2 -14  -3 2860.33  295.26   1-0.07107 0.61207 0.06863 0.24841 0.99510 0.75077
  -2 -14   3 2656.14  256.30   1 0.09001 0.56757-0.81369-0.27527 0.57427 0.77594
   2  14  -223382.81  933.56   1 0.01198-0.50211 0.80729 0.32578-0.59002-0.80109
  -2 -14   227487.33  681.72   1-0.55218-0.04052-0.31712 0.16540 0.77105 0.98539
   2 -14  -229414.08  913.46   1-0.05579 0.59290 0.08003 0.31499 0.99522 0.74110
  -2  14   230432.76 1179.84   1 0.06211-0.58801-0.09386-0.32644-0.99364-0.74004
  -2 -14   227225.93  832.70   1 0.09577 0.60747-0.87164-0.38831 0.48068 0.69295
   2  14  -1 9965.59  445.28   1 0.02204-0.52638 0.85945 0.43319-0.51073-0.73161
  -2  14   1 8484.79  552.91   1-0.06660-0.68151 0.15558-0.13213-0.98557-0.71978
  -2 -14   1 8691.83  372.85   1-0.55331-0.00720-0.31811 0.10924 0.76983 0.99398
   2 -14  -1 9666.75  435.75   1-0.04603 0.56822 0.08728 0.37742 0.99511 0.73121
  -2  14   1 8297.58  716.87   1 0.05321-0.56261-0.10049-0.38833-0.99351-0.72983
  -2 -14   1 9469.12  487.98   1 0.10155 0.64770-0.93139-0.50321 0.34955 0.57205
   2  14   0 7411.56  425.94   1 0.03420-0.54850 0.91314 0.54197-0.40619-0.63672
  -2  14   0 6491.07  365.06   1-0.07140-0.65210 0.09718-0.24575-0.99270-0.71718
  -2 -14   0 7663.53  391.44   1-0.55817 0.02238-0.32238 0.04980 0.76453 0.99850
   2 -14   0 7888.17  463.76   1-0.04160 0.53821 0.09057 0.43590 0.99501 0.72132
  -2  14   0 7377.19  528.25   1 0.04962-0.53189-0.10316-0.44626-0.99342-0.71967
  -2 -14   0 6966.91  382.59   1 0.10590 0.68659-0.98016-0.60715 0.16753 0.39993
   2  14   1  835.84  139.87   1 0.04850-0.56846 0.96168 0.64552-0.26984-0.51003
  -2  14  -1  974.66  146.87   1-0.07397-0.62038 0.06441-0.33375-0.99517-0.70974
  -2 -14  -1  965.76  134.60   1-0.56672 0.04827-0.32992-0.01290 0.75496 0.99875
   2 -14   1  677.50  170.54   1-0.04233 0.50303 0.09003 0.49054 0.99503 0.71156
  -2  14  -1  912.21  244.95   1 0.05118-0.49603-0.10200-0.50037-0.99346-0.70963
   2  14   2  439.04  129.89   1 0.06446-0.58672 0.99320 0.73179-0.09689-0.34672
  -2  14  -2  633.46  135.01   1-0.07521-0.58732 0.04825-0.40516-0.99599-0.70064
  -2 -14  -2  778.32  129.45   1-0.57891 0.07053-0.34073-0.07888 0.74078 0.99438
   2 -14   2  708.55  138.29   1-0.04812 0.46281 0.08574 0.54143 0.99515 0.70189
  -2  14  -2  389.53  268.92   1 0.05778-0.45512-0.09709-0.55072-0.99359-0.69968
  -2  14  -334974.85 1032.03   1-0.07558-0.55338 0.04345-0.46519-0.99619-0.69091
  -2 -14  -333446.92  837.29   1-0.59460 0.08929-0.35477-0.14809 0.72151 0.98493
   2 -14   336100.79 1040.02   1-0.05887 0.41762 0.07774 0.58861 0.99523 0.69218
  -2  14  -4  957.60  145.68   1-0.07532-0.51881 0.04691-0.51697-0.99605-0.68085
  -2 -14  -4  711.85  112.28   1-0.61359 0.10475-0.37197-0.22046 0.69651 0.96975
   2 -14   4  977.44  153.14   1-0.07454 0.36750 0.06604 0.63209 0.99502 0.68219
  -2  14  -5  -13.31  134.87   1-0.07457-0.48377 0.05662-0.56250-0.99560-0.67048
  -2 -14  -5    5.95  110.28   1-0.04071 0.71257-0.37815-0.28293-0.92484-0.64201
  -2 -14  -5  -37.03   65.54   1-0.63591 0.11668-0.39252-0.29598 0.66447 0.94803
   2 -14   5  143.87  134.61   1-0.09513 0.31247 0.05059 0.67184 0.99417 0.67155
  -2  14  -6 3991.98  310.55   1-0.07345-0.44834 0.07122-0.60313-0.99475-0.65970
  -2 -14  -6 3222.76  352.79   1-0.08458 0.70308-0.34678-0.30678-0.93412-0.64152
  -2 -14  -6 3722.40  246.67   1-0.66055 0.12648-0.41567-0.37430 0.62520 0.91864
   2 -14   6 3409.65  268.92   1-0.12067 0.25249 0.03133 0.70775 0.99219 0.65979
  -2  14  -715523.17  609.86   1-0.07199-0.41258 0.08978-0.63981-0.99335-0.64839
  -2 -14  -713961.33  632.13   1-0.12670 0.69533-0.31550-0.33072-0.94042-0.63806
  -2 -14  -713635.83  479.17   1-0.68741 0.13400-0.44161-0.45527 0.57657 0.88020
   2 -14   714399.16  564.42   1-0.15124 0.18748 0.00810 0.73971 0.98846 0.64627
  -2  14  -8 6879.31  384.86   1-0.07025-0.37646 0.11147-0.67344-0.99128-0.63619
  -2 -14  -8 6388.81  426.49   1-0.16730 0.68911-0.28426-0.35469-0.94403-0.63190
   2 -14   8 6726.69  377.26   1-0.18696 0.11731-0.01927 0.76751 0.98217 0.63020
   2  15  -8 3074.75  250.72   1-0.01315-0.36295 0.64787-0.19064-0.76163-0.91209
   2 -15  -8 3451.55  270.35   1-0.62683 0.26989 0.16913 0.09748-0.76057-0.95794
  -2 -15   8 3633.49  285.67   1-0.61838-0.27201-0.37635 0.46294 0.68989 0.84362
  -2 -15   8 3604.98  296.44   1 0.07521 0.42142-0.66818 0.17168 0.74018 0.89046
   2  15  -7 2866.36  246.16   1-0.01126-0.39536 0.66129-0.12195-0.75004-0.91039
   2 -15  -7 2665.74  229.52   1-0.63385 0.22838 0.17835 0.16162-0.75260-0.96006
  -2 -15   7 2852.89  226.17   1-0.59991-0.21904-0.35956 0.42443 0.71471 0.87856
   2 -15  -7 3077.33  261.74   1-0.22375 0.63857-0.04773-0.06292 0.97347 0.76697
  -2 -15   7 2896.85  283.38   1 0.07706 0.45799-0.68627 0.09840 0.72324 0.88349
   2  15  -6  320.19  165.97   1-0.00851-0.42691 0.68039-0.04757-0.73279-0.90303
  -2 -15   6  279.48   86.79   1-0.58425-0.16892-0.34549 0.38333 0.73435 0.90802
   2 -15  -6  401.59  135.82   1-0.18553 0.64238-0.01816 0.02167 0.98246 0.76607
  -2 -15   6  305.34  130.44   1 0.07961 0.49508-0.71116 0.01833 0.69849 0.86864
   2  15  -522769.31  964.01   1-0.00477-0.45750 0.70558 0.03285-0.70860-0.88859
  -2 -15   527828.43  621.54   1-0.57170-0.12194-0.33433 0.33932 0.74924 0.93273
   2 -15  -528990.68  913.48   1-0.15375 0.63972 0.00619 0.10122 0.98808 0.76191
  -2 -15   527874.35  795.25   1 0.08294 0.53296-0.74380-0.06947 0.66322 0.84328
   2  15  -4 2909.68  252.27   1 0.00017-0.48686 0.73751 0.12005-0.67532-0.86518
  -2 -15   4 3211.45  211.13   1-0.56243-0.07821-0.32613 0.29235 0.75980 0.95310
   2 -15  -4 3385.66  294.65   1-0.12795 0.63107 0.02582 0.17603 0.99144 0.75548
  -2 -15   4 3021.64  246.66   1 0.08710 0.57165-0.78476-0.16561 0.61364 0.80360
   2  15  -3 4723.45  323.58   1 0.00653-0.51481 0.77621 0.21402-0.63042-0.83015
  -2 -15   3 4853.87  263.95   1-0.55653-0.03787-0.32094 0.24237 0.76632 0.96944
   2 -15  -3 4960.97  339.54   1-0.10782 0.61676 0.04104 0.24643 0.99332 0.74757
  -2 -15   3 4864.98  328.80   1 0.09203 0.61102-0.83393-0.26987 0.54413 0.74418
   2  15  -2  810.20  133.79   1 0.01451-0.54111 0.82104 0.31402-0.57068-0.78011
  -2 -15   2  975.99  123.75   1-0.55410-0.00099-0.31880 0.18934 0.76898 0.98190
   2 -15  -2 1052.96  163.89   1-0.09310 0.59704 0.05212 0.31270 0.99429 0.73875
  -2 -15   2  889.00  157.68   1 0.09752 0.65064-0.88946-0.38047 0.44647 0.65719
   2  15  -1 8056.89  417.66   1 0.02435-0.56552 0.87051 0.41858-0.49154-0.71061
  -2 -15   1 9342.10  382.50   1-0.55518 0.03237-0.31975 0.13323 0.76781 0.99055
   2 -15  -1 9443.29  521.81   1-0.08359 0.57210 0.05926 0.37502 0.99473 0.72941
   2  15   0 2142.67  227.90   1 0.03634-0.58787 0.92146 0.52478-0.38675-0.61563
  -2  15   0 1774.59  210.54   1-0.06415-0.68630 0.18404-0.18442-0.98082-0.70354
  -2 -15   0 1799.58  174.12   1-0.55978 0.06221-0.32380 0.07401 0.76275 0.99531
   2 -15   0 2361.97  228.99   1-0.07911 0.54214 0.06262 0.43356 0.99489 0.71979
   2  15   1 6978.37  404.88   1 0.05032-0.60811 0.96658 0.62475-0.25134-0.48976
  -2  15  -1 8482.82  463.47   1-0.06777-0.65562 0.14159-0.28212-0.98760-0.70040
  -2 -15  -1 8279.31  381.82   1-0.56790 0.08854-0.33096 0.01168 0.75362 0.99600
   2 -15   1 9575.02  489.57   1-0.07953 0.50728 0.06230 0.48843 0.99488 0.70999
  -2  15  -223473.24  803.94   1-0.06975-0.62330 0.11761-0.36134-0.99060-0.69348
  -2 -15  -229651.06  666.31   1-0.57946 0.11143-0.34122-0.05374 0.74012 0.99231
   2 -15   228384.27  912.88   1-0.08473 0.46764 0.05840 0.53971 0.99469 0.70001
  -2  15  -3 1707.16  207.57   1-0.07067-0.58991 0.10632-0.42787-0.99181-0.68477
  -2 -15  -3 1576.31  143.37   1-0.59436 0.13097-0.35456-0.12225 0.72181 0.98381
   2 -15   3 1715.79  208.31   1-0.09466 0.42327 0.05095 0.58744 0.99420 0.68974
  -2  15  -4  203.58  126.15   1-0.07083-0.55578 0.10427-0.48517-0.99202-0.67505
  -2 -15  -4  207.36   79.71   1-0.61243 0.14735-0.37092-0.19378 0.69809 0.96991
   2 -15   4  340.63  154.40   1-0.10926 0.37423 0.03995 0.63163 0.99320 0.67896
  -2  15  -5 8644.08  453.48   1-0.07043-0.52108 0.10922-0.53547-0.99151-0.66463
  -2 -15  -5 8570.86  461.13   1-0.07241 0.72236-0.35561-0.23481-0.93182-0.65042
  -2 -15  -5 8539.60  407.01   1-0.63375 0.16030-0.39050-0.26834 0.66772 0.94989
   2 -15   510060.66  520.37   1-0.12852 0.32052 0.02538 0.67224 0.99138 0.66734
  -2  15  -611672.64  659.51   1-0.06958-0.48593 0.11966-0.58027-0.99037-0.65356
  -2 -15  -614122.76  615.16   1-0.11290 0.71625-0.32588-0.26030-0.93864-0.64747
  -2 -15  -614350.36  461.58   1-0.65734 0.17115-0.41261-0.34562 0.63059 0.92263
   2 -15   613824.35  649.86   1-0.15248 0.26212 0.00715 0.70920 0.98828 0.65446
  -2  15  -7  225.91  140.97   1-0.06836-0.45041 0.13454-0.62064-0.98854-0.64181
  -2 -15  -7  207.04  152.51   1-0.15209 0.71143-0.29609-0.28573-0.94297-0.64203
  -2 -15  -7  166.17  101.27   1-0.68318 0.17968-0.43748-0.42551 0.58469 0.88692
   2 -15   7  278.24  177.71   1-0.18119 0.19897-0.01483 0.74239 0.98333 0.63973
   2  16  -6  935.12  165.65   1-0.00571-0.46567 0.69930-0.05417-0.71479-0.88329
  -2 -16   6 1333.19  165.26   1-0.58628-0.12951-0.34731 0.40714 0.73187 0.90413
   2 -16  -6 1047.68  157.01   1-0.21695 0.65236-0.04246 0.02315 0.97525 0.75755
  -2 -16   6  958.06  177.69   1 0.08200 0.53889-0.73454 0.02060 0.67358 0.84211
   2  16  -5 1865.83  211.59   1-0.00190-0.49616 0.72431 0.02609-0.68946-0.86783
  -2 -16   5 2052.49  183.01   1-0.57436-0.08314-0.33668 0.36260 0.74615 0.92822
   2 -16  -5 2068.80  209.72   1-0.18669 0.64822-0.01906 0.10158 0.98223 0.75464
  -2 -16   5 1704.40  222.12   1 0.08532 0.57676-0.76720-0.06723 0.63570 0.81414
   2  16  -412492.96  583.23   1 0.00308-0.52548 0.75555 0.11259-0.65508-0.84331
  -2 -16   412665.51  472.16   1-0.56555-0.03989-0.32889 0.31522 0.75629 0.94817
   2 -16  -412550.60  531.89   1-0.16208 0.63839-0.00017 0.17565 0.98677 0.74940
   2  16  -3 2257.66  228.06   1 0.00944-0.55343 0.79305 0.20537-0.60907-0.80717
  -2 -16   3 2314.91  203.50   1-0.55996 0.00013-0.32396 0.26498 0.76255 0.96425
   2 -16  -3 3106.74  262.22   1-0.14279 0.62323 0.01454 0.24555 0.98964 0.74248
   2  16  -222832.68  710.73   1 0.01737-0.57977 0.83609 0.30357-0.54830-0.75610
  -2 -16   222383.89  584.47   1-0.55766 0.03688-0.32193 0.21184 0.76509 0.97660
   2 -16  -228442.11  787.15   1-0.12861 0.60297 0.02531 0.31151 0.99137 0.73442
   2  16  -1 5934.69  413.19   1 0.02711-0.60428 0.88314 0.40570-0.46832-0.68574
  -2 -16   1 5409.91  322.00   1-0.55869 0.07030-0.32284 0.15576 0.76395 0.98528
   2 -16  -1 6274.16  367.38   1-0.11935 0.57780 0.03233 0.37371 0.99232 0.72559
  -2 -16   0 8487.21  325.39   1-0.56307 0.10037-0.32669 0.09674 0.75908 0.99023
   2 -16   0 8708.59  439.72   1-0.11485 0.54785 0.03573 0.43229 0.99273 0.71622
  -2 -16  -121846.00  564.06   1-0.57078 0.12710-0.33351 0.03475 0.75031 0.99127
   2 -16   122652.76  812.66   1-0.11500 0.51326 0.03562 0.48736 0.99272 0.70642
  -2  16  -2 3109.41  285.60   1-0.06393-0.65901 0.18661-0.31785-0.98035-0.68166
  -2 -16  -2 4646.37  252.43   1-0.58177 0.15056-0.34327-0.03017 0.73736 0.98813
   2 -16   2 4294.46  290.71   1-0.11970 0.47411 0.03206 0.53899 0.99229 0.69620
  -2  16  -3 4710.38  369.86   1-0.06544-0.62622 0.16920-0.39050-0.98340-0.67479
  -2 -16  -3 5185.38  284.78   1-0.59594 0.17084-0.35597-0.09804 0.71981 0.98040
   2 -16   3 6582.56  438.27   1-0.12889 0.43048 0.02510 0.58721 0.99133 0.68546
  -2  16  -4 8482.66  425.87   1-0.06606-0.59254 0.16191-0.45304-0.98459-0.66606
  -2 -16  -4 7776.96  428.23   1-0.06791 0.73398-0.35885-0.15726-0.93091-0.66071
  -2 -16  -4 8018.18  344.67   1-0.61314 0.18808-0.37156-0.16880 0.69713 0.96753
   2 -16   410105.09  497.59   1-0.14253 0.38240 0.01473 0.63203 0.98967 0.67401
  -2  16  -5 8981.89  472.46   1-0.06603-0.55821 0.16230-0.50789-0.98452-0.65608
  -2 -16  -5 8283.36  493.44   1-0.10595 0.73031-0.33106-0.18469-0.93764-0.65766
  -2 -16  -5 9000.55  460.03   1-0.63348 0.20202-0.39026-0.24247 0.66812 0.94889
   2 -16   5 9192.83  487.27   1-0.16061 0.32988 0.00094 0.67342 0.98701 0.66157
  -2  16  -6 1878.95  211.58   1-0.06548-0.52336 0.16874-0.55670-0.98348-0.64511
  -2 -16  -6 1928.38  236.13   1-0.14302 0.72761-0.30307-0.21191-0.94217-0.65243
  -2 -16  -6 1818.04  162.28   1-0.65604 0.21389-0.41139-0.31876 0.63273 0.92338
   2 -16   6 2131.02  238.31   1-0.18314 0.27290-0.01633 0.71132 0.98294 0.64771
   2  17  -5 7453.52  463.84   1 0.00121-0.53457 0.74404 0.02033-0.66813-0.84487
  -2 -17   5 7940.14  398.43   1-0.57847-0.04582-0.34034 0.38456 0.74130 0.92195
   2 -17  -5 8303.88  478.84   1-0.21834 0.65797-0.04353 0.10287 0.97490 0.74598
   2  17  -4 2298.13  267.37   1 0.00626-0.56384 0.77460 0.10615-0.63241-0.81903
  -2 -17   4 2803.46  222.71   1-0.57011-0.00301-0.33291 0.33682 0.75108 0.94156
   2 -17  -4 2556.65  285.37   1-0.19477 0.64715-0.02529 0.17615 0.98052 0.74173
   2  17  -3 3378.69  289.66   1 0.01261-0.59174 0.81077 0.19750-0.58521-0.78156
  -2 -17   3 3513.46  237.37   1-0.56481 0.03673-0.32823 0.28634 0.75713 0.95742
   2 -17  -3 3240.20  291.59   1-0.17626 0.63121-0.01104 0.24558 0.98427 0.73570
   2  17  -2   59.77  101.44   1 0.02055-0.61811 0.85220 0.29418-0.52279-0.72896
  -2 -17   2   -7.95   83.41   1-0.56263 0.07336-0.32631 0.23309 0.75958 0.96968
   2 -17  -2  -36.31  137.76   1-0.16258 0.61045-0.00055 0.31125 0.98669 0.72833
  -2 -17   1 1005.13  129.20   1-0.56362 0.10681-0.32718 0.17705 0.75847 0.97838
   2 -17  -1 1061.68  225.75   1-0.15356 0.58503 0.00633 0.37333 0.98811 0.71997
  -2 -17   034416.24  811.65   1-0.56779 0.13709-0.33086 0.11819 0.75374 0.98348
   2 -17   037247.44  929.08   1-0.14906 0.55508 0.00976 0.43194 0.98877 0.71084
  -2 -17  -131954.29  706.59   1-0.57512 0.16420-0.33736 0.05652 0.74525 0.98480
   2 -17   124196.34  703.27   1-0.14899 0.52072 0.00982 0.48718 0.98878 0.70107
  -2 -17  -2  154.57   89.99   1-0.58558 0.18819-0.34668-0.00795 0.73273 0.98209
   2 -17   2   64.57  163.99   1-0.15325 0.48201 0.00657 0.53911 0.98816 0.69066
  -2  17  -312549.29  606.98   1-0.05990-0.66222 0.23183-0.35338-0.97091-0.66074
  -2 -17  -312667.28  525.18   1-0.59907 0.20915-0.35880-0.07524 0.71580 0.97498
   2 -17   313349.46  613.36   1-0.16179 0.43903 0.00004 0.58777 0.98682 0.67953
  -2  17  -4  239.92  122.63   1-0.06101-0.62903 0.21958-0.42087-0.97368-0.65359
  -2 -17  -4  314.51  105.62   1-0.61575 0.22676-0.37394-0.14536 0.69355 0.96303
   2 -17   4  274.10  165.49   1-0.17457 0.39181-0.00974 0.63316 0.98459 0.66752
   2 -18  -2 1290.16  227.03   1-0.19524 0.61924-0.02565 0.31177 0.98041 0.72064
  -2 -18   1  205.93  103.79   1-0.56976 0.14212-0.33261 0.19725 0.75149 0.96999
   2 -18  -1  287.54  118.45   1-0.18645 0.59359-0.01887 0.37373 0.98228 0.71272
  -2 -18   0   94.87   80.63   1-0.57374 0.17259-0.33613 0.13855 0.74687 0.97520
   2 -18   0  -36.35  125.79   1-0.18197 0.56362-0.01543 0.43236 0.98318 0.70383
  -2 -18  -1 2351.37  196.17   1-0.58073 0.20004-0.34235 0.07716 0.73860 0.97674
   3   0 -13   50.31  109.31   1 0.00509 0.44914 0.76769 0.02820-0.64079-0.89301
  -3   0  13   66.39  124.16   1 0.08152-0.36549-0.72979 0.00821 0.67879 0.93077
   3   0 -1212889.90  604.10   1 0.00458 0.41431 0.76460 0.08038-0.64448-0.90657
   3   0 -1215101.78  450.82   1-0.72524-0.31392 0.31463-0.36870-0.61239-0.87493
  -3   0  1215871.36  609.97   1 0.08135-0.33112-0.72811-0.04528 0.68061 0.94250
   3   0 -11   31.57   99.27   1 0.00483 0.38026 0.76610 0.13715-0.64269-0.91465
   3   0 -11   -6.19   69.02   1-0.72584-0.34891 0.31566-0.31241-0.61115-0.88354
  -3   0  11  -63.82  115.68   1 0.08162-0.29630-0.73078-0.10313 0.67771 0.94950
   3   0 -1018680.89  634.76   1 0.00595 0.34707 0.77279 0.19910-0.63463-0.91645
   3   0 -1018149.84  555.43   1-0.72873-0.38620 0.32072-0.25210-0.60504-0.88729
  -3   0  1019750.82  754.36   1 0.08240-0.26098-0.73843-0.16596 0.66926 0.95096
   3   0  -9   40.23  120.08   1 0.00807 0.31489 0.78522 0.26680-0.61916-0.91085
   3   0  -9  -44.09  101.34   1-0.73422-0.42607 0.33050-0.18707-0.59302-0.88513
  -3   0   9  -21.66   95.79   1 0.08375-0.22508-0.75175-0.23446 0.65410 0.94570
   3   0  -8221233.8 2248.53   1 0.01142 0.28389 0.80419 0.34114-0.59425-0.89611
   3   0  -8222605.2 2070.34   1-0.74237-0.46840 0.34556-0.11683-0.57399-0.87575
   3   0  -8189404.5 3894.65   1-0.64279-0.36751-0.39893-0.86066 0.65395 0.35240
  -3   0   8196464.7 4572.40   1 0.08574-0.18854-0.77136-0.30925 0.63058 0.93210
   3   0  -7   85.48   99.32   1 0.01602 0.25417 0.82908 0.42128-0.55889-0.87058
   3   0  -7   -0.60   67.15   1-0.75348-0.51392 0.36732-0.03982-0.54527-0.85691
  -3   0   7  -16.25   91.34   1-0.74225-0.98293-0.59141-0.18390-0.31508-0.00466
   3   0  -7   31.31   47.58   1-0.69406-0.45313-0.44818-0.85497 0.56338 0.25236
  -3   0   7    7.17   80.51   1 0.08839-0.15158-0.79758-0.39047 0.59669 0.90805
   3   0  -638637.57  775.18   1 0.02211 0.22593 0.85980 0.50726-0.51014-0.83164
   3   0  -639059.78  699.77   1-0.76702-0.56186 0.39638 0.04449-0.50453-0.82603
  -3   0   641283.68  960.30   1-0.76079-0.96709-0.59764-0.24532-0.25301 0.06742
   3   0  -636320.22  919.54   1-0.72999-0.52342-0.48494-0.83673 0.48160 0.16092
  -3   0   640326.72  884.92   1 0.09169-0.11372-0.83054-0.47863 0.54935 0.87062
   3   0  -5  -21.80   68.89   1 0.02979 0.19929 0.89493 0.59767-0.44519-0.77657
   3   0  -5  -14.76   57.09   1-0.78175-0.61088 0.43318 0.13645-0.44857-0.77986
  -3   0   5   61.12   90.69   1-0.77265-0.94458-0.60066-0.30353-0.20543 0.12501
   3   0  -5   -7.78   50.68   1-0.75482-0.58267-0.51221-0.80884 0.40972 0.07908
  -3   0   5   -8.25  116.81   1 0.09551-0.07586-0.86898-0.57239 0.48552 0.81646
   3   0  -423018.14  663.81   1 0.03900 0.17419 0.93133 0.68930-0.36207-0.70322
   3   0  -425318.74  606.00   1-0.79531-0.65915 0.47761 0.23535-0.37330-0.71423
  -3   0   424421.66  801.31   1-0.77994-0.91749-0.60193-0.35999-0.17134 0.16911
   3   0  -426202.91  652.44   1-0.77135-0.63366-0.53190-0.77355 0.34939 0.00892
  -3   0   425368.09  711.47   1 0.09955-0.03748-0.91042-0.66891 0.40152 0.74239
  -3   0   3   15.13   73.24   1 0.00448-0.09647 0.76401 0.95083-0.64518-0.29427
   3   0  -3   20.24   66.00   1-0.80354-0.70184 0.52825 0.34133-0.27434-0.62522
  -3   0   3   27.07   78.65   1-0.78400-0.88718-0.60235-0.41560-0.15002 0.20044
   3   0  -3   17.87   52.19   1-0.78220-0.67890-0.54601-0.73249 0.30002-0.05043
  -3   0   3  -15.80   84.14   1 0.10327 0.00079-0.94995-0.76365 0.29481 0.64562
   3   0  -2109915.9 1483.30   1 0.06080 0.12726 0.98844 0.85686-0.13882-0.49958
  -3   0   2108175.3 1408.55   1 0.02111-0.04543 0.85495 0.98647-0.51827-0.15749
   3   0  -2116491.6 1350.20   1-0.80015-0.73291 0.58065 0.44901-0.15030-0.51109
  -3   0   2112170.0 1344.17   1-0.76856-0.83610 0.39993 0.53083-0.49935-0.13837
  -3   0   2115683.9 1606.42   1-0.78562-0.85442-0.60244-0.47089-0.14090 0.21958
   3   0  -2111431.6 1451.05   1-0.78895-0.72004-0.55565-0.68695 0.26230-0.09814
  -3   0   2110566.5 1471.01   1 0.10592 0.03795-0.98043-0.84924 0.16591 0.52663
   3   0  -2100890.1 1572.81   1 0.09272 0.15993-0.84086-0.97196 0.53324 0.17233
   3   0  -1   75.38   95.46   1 0.07204 0.10418 0.99738 0.92103-0.00472-0.37528
  -3   0   1   21.60   76.48   1 0.03691 0.00476 0.92365 0.99993-0.38144-0.01085
   3   0  -1  217.81   65.71   1-0.77816-0.74544 0.62805 0.55153-0.00364-0.37433
  -3   0   1   64.45   63.43   1-0.79650-0.82925 0.48259 0.55882-0.36426 0.00649
  -3   0   1   28.26   73.25   1-0.78517-0.81959-0.60242-0.52606-0.14351 0.22698
   3   0  -1    5.13   52.69   1-0.79283-0.75835-0.56171-0.63790 0.23639-0.13407
  -3   0   1   27.61   87.47   1 0.10668 0.07328-0.99411-0.91806 0.01893 0.38959
   3   0  -1   74.74   98.24   1 0.09998 0.13336-0.91496-0.99085 0.39096 0.02026
   3   0   0   44.46  114.73   1 0.08239 0.08004 0.98736 0.96621 0.13534-0.24500
   3   0   0   88.72   59.68   1-0.73236-0.73405 0.66250 0.64132 0.15722-0.22332
  -3   0   0  100.38   49.97   1-0.80379-0.80206 0.55361 0.57459-0.21776 0.16291
  -3   0   0  109.34  110.62   1-0.78263-0.78268-0.60223-0.58107-0.15744 0.22306
   3   0   0   36.83   73.43   1-0.79476-0.79467-0.56493-0.58593 0.22180-0.15865
  -3   0   0  188.18   99.95   1 0.10494 0.10609-0.98496-0.96411-0.13725 0.24334
   3   0   0  123.63  104.24   1 0.10456 0.10343-0.96431-0.98510 0.24323-0.13738
   3   0   1    4.57   87.48   1 0.09113 0.05440 0.95761 0.99165 0.27326-0.11687
  -3   0  -1   20.00   70.93   1 0.06266 0.09930 0.99107 0.95701-0.11766 0.27249
   3   0   1  189.32   69.71   1-0.66234-0.69858 0.67782 0.71196 0.31915-0.07128
  -3   0  -1   17.01   47.20   1-0.79073-0.75440 0.60793 0.57382-0.07178 0.31875
  -3   0  -1  -20.67   69.30   1-0.77771-0.74338-0.60160-0.63563-0.18231 0.20820
   3   0   216832.02  698.11   1 0.09787 0.02697 0.91044 0.99963 0.40187 0.00178
  -3   0  -216087.78  470.39   1-0.76211-0.69116 0.64442 0.55508 0.06240 0.46279
  -3   0  -215936.53  595.23   1-0.76978-0.70108-0.60002-0.68924-0.21771 0.18281
   3   0   214345.16  485.33   1-0.79416-0.86286-0.56391-0.47455 0.22647-0.17398
   3   0   3  -32.85   65.45   1 0.10257-0.00278 0.84978 0.99423 0.51705 0.10717
  -3   0  -3   76.13   90.56   1-0.75798-0.65491-0.59679-0.74120-0.26323 0.14731
   3   0   4 5349.66  314.75   1 0.10538-0.03426 0.78015 0.97981 0.61663 0.19696
   3   0   5   15.07  104.88   1 0.10660-0.06759 0.70525 0.96003 0.70089 0.27158
   3   0   6212294.1 3641.15   1 0.10652-0.10212 0.62775 0.93772 0.77108 0.33202
   3   0   6214204.3 3472.45   1 0.07011-0.13953 0.61880 0.92860 0.78241 0.34384
   3   0   7   39.19   87.76   1 0.10541-0.13769 0.54953 0.91468 0.82879 0.37998
  -3   0  -7   16.58   74.79   1-0.05141 0.18930-0.53332-0.89905-0.84434-0.39479
   3   0   7   -2.99   89.85   1 0.06151-0.18265 0.53589 0.90084 0.84204 0.39384
  -3   0  -847647.02  904.75   1-0.10350 0.17208-0.47323-0.89354-0.87483-0.41467
  -3   0  -846996.83  764.27   1-0.07736 0.19765-0.46302-0.88401-0.88296-0.42362
   3   0   845050.41  874.97   1 0.05285-0.22582 0.45297 0.87307 0.88995 0.43213
  -3   0  -9   84.39  131.90   1-0.10081 0.20849-0.39524-0.87148-0.91302-0.44389
  -3   0 -1010511.98  464.51   1-0.09777 0.24651-0.32117-0.85192-0.94196-0.46200
  -3   0 -10 9513.71  406.05   1-0.11403 0.23059-0.32503-0.85735-0.93880-0.46017
  -3   0 -11   11.80   90.77   1-0.17449 0.20450-0.27861-0.86615-0.94441-0.45602
  -3   0 -1211827.04  513.64   1-0.09014 0.32284-0.17399-0.81518-0.98061-0.48087
  -3   0 -1211458.09  462.94   1-0.23089 0.18267-0.23307-0.87598-0.94464-0.44640
   3  -1 -13 7299.12  404.06   1 0.00907 0.49465 0.79093 0.07693-0.61183-0.86567
   3   1 -13 7285.50  390.82   1 0.00183 0.40435 0.74786-0.01711-0.66384-0.91444
   3   1 -13 8283.46  383.50   1-0.73625-0.33204 0.33420-0.42993-0.58841-0.83958
   3  -1 -13 6864.81  374.01   1-0.71763-0.23043 0.30168-0.41133-0.62767-0.88187
  -3   1  13 6260.41  537.97   1 0.08323-0.40520-0.74665-0.03429 0.65998 0.91358
  -3  -1  13 7077.51  489.72   1 0.08006-0.32552-0.71556 0.04808 0.69394 0.94431
   3  -1 -1219600.42  709.79   1 0.00869 0.45996 0.78874 0.13001-0.61465-0.87836
   3   1 -1219310.97  661.56   1 0.00121 0.36942 0.74401 0.03430-0.66816-0.92862
   3   1 -1220752.96  665.64   1-0.73541-0.36559 0.33267-0.37621-0.59032-0.85135
   3  -1 -1216607.73  599.70   1-0.71572-0.26291 0.29849-0.35927-0.63137-0.89543
  -3   1  1218133.99  745.07   1 0.08314-0.37074-0.74577-0.08858 0.66099 0.92449
  -3  -1  1214856.84 1149.93   1 0.07982-0.29121-0.71322-0.00475 0.69637 0.95664
   3  -1 -11  213.39   99.24   1 0.00913 0.42609 0.79127 0.18781-0.61138-0.88496
   3   1 -11  202.39   98.76   1 0.00131 0.33521 0.74462 0.09017-0.66748-0.93781
   3   1 -11  177.21   80.88   1-0.73651-0.40108 0.33466-0.31897-0.58783-0.85871
  -3   1  11  214.01  151.21   1 0.08351-0.33584-0.74932-0.14732 0.65691 0.93032
  -3  -1  11  133.73  136.81   1 0.08002-0.25647-0.71513-0.06184 0.69439 0.96456
   3  -1 -1014165.02  508.38   1 0.01059 0.39321 0.79953 0.25147-0.60052-0.88438
   3   1 -1014330.54  514.94   1 0.00222 0.30181 0.75028 0.15110-0.66111-0.94131
   3   1 -1011901.86  496.19   1-0.73967-0.43838 0.34050-0.25795-0.58046-0.86097
   3  -1 -1013863.38  443.04   1-0.71826-0.33423 0.30273-0.24453-0.62645-0.91021
  -3   1  1012649.84  637.56   1 0.08438-0.30041-0.75795-0.21112 0.64682 0.93014
  -3  -1  1012646.74  575.32   1 0.08071-0.22124-0.72192-0.12381 0.68724 0.96732
   3  -1  -9159871.4 1807.42   1 0.01303 0.36134 0.81306 0.32025-0.58202-0.87570
   3   1  -9163667.8 2556.87   1 0.00408 0.26936 0.76159 0.21768-0.64804-0.93811
   3   1  -9156795.7 1797.07   1-0.74541-0.47853 0.35137-0.19184-0.56647-0.85685
   3  -1  -9159229.5 1857.59   1-0.72341-0.37377 0.31147-0.18053-0.61616-0.90978
  -3   1   9170810.7 2815.91   1 0.08583-0.26442-0.77228-0.28064 0.62944 0.92267
  -3  -1   9169707.5 2754.98   1 0.08198-0.18543-0.73430-0.19137 0.67385 0.96384
   3  -1  -819713.46  673.33   1 0.01670 0.33069 0.83264 0.39509-0.55354-0.85705
   3   1  -821102.17  697.52   1 0.00702 0.23799 0.77907 0.29043-0.62688-0.92682
   3   1  -820516.34  636.24   1-0.75371-0.52123 0.36778-0.12018-0.54465-0.84490
   3  -1  -820049.38  648.51   1-0.73155-0.41630 0.32571-0.11104-0.59894-0.90241
  -3  -1   822724.77  875.53   1-0.75964-0.99316-0.59729-0.10898-0.25725 0.04174
   3  -1  -817598.28  681.94   1-0.69897-0.38215-0.45307-0.88940 0.55331 0.25082
   3   1  -817933.50  657.65   1-0.58045-0.34684-0.34210-0.82924 0.73894 0.43823
  -3   1   820593.08 1110.71   1 0.08790-0.22804-0.79276-0.35609 0.60315 0.90619
  -3  -1   820576.57  754.12   1 0.08387-0.14899-0.75294-0.26518 0.65272 0.95261
   3  -1  -727950.26  770.72   1 0.02177 0.30144 0.85815 0.47585-0.51293-0.82625
   3   1  -728750.16  770.07   1 0.01127 0.20789 0.80334 0.37005-0.59540-0.90545
   3   1  -727276.37  734.99   1-0.76442-0.56635 0.39054-0.04217-0.51295-0.82307
  -3  -1   727705.37  846.25   1-0.77811-0.97726-0.60166-0.16854-0.18037 0.12863
   3  -1  -723746.94  792.38   1-0.74057-0.45811-0.49631-0.87765 0.45301 0.14089
   3   1  -725526.82  744.86   1-0.63864-0.43924-0.39505-0.82725 0.66035 0.35031
  -3   1   727528.36  817.58   1 0.09063-0.19077-0.81985-0.43838 0.56535 0.87830
  -3  -1   728796.22  854.05   1 0.08645-0.11187-0.77837-0.34580 0.62181 0.93161
   3  -1  -633116.23  779.77   1 0.02837 0.27372 0.88876 0.56177-0.45747-0.78069
   3   1  -631755.56  711.11   1 0.01689 0.17919 0.83359 0.45555-0.55211-0.87198
   3   1  -627805.43  729.25   1-0.77687-0.61306 0.42016 0.04260-0.46897-0.78888
   3  -1  -633342.58  669.22   1-0.75690-0.51025 0.37436 0.04803-0.53566-0.85868
  -3  -1   634494.93 1044.76   1-0.78911-0.95388-0.60245-0.22453-0.11979 0.19922
   3  -1  -629290.95  681.07   1-0.76740-0.51941-0.52703-0.85342 0.36514 0.04324
   3   1  -628884.12  740.03   1-0.68160-0.51655-0.43593-0.81318 0.58767 0.26812
  -3   1   634086.20  866.33   1 0.09392-0.15343-0.85292-0.52678 0.51351 0.83603
  -3  -1   633927.29  826.11   1 0.08970-0.07428-0.81064-0.43309 0.57861 0.89828
   3  -1  -5  433.37   94.39   1 0.03652 0.24753 0.92215 0.65040-0.38510-0.71812
   3   1  -5  375.75   87.48   1 0.02408 0.15206 0.86921 0.54644-0.49384-0.82357
   3   1  -5  393.70   91.18   1-0.78973-0.66035 0.45726 0.13496-0.40893-0.73872
   3  -1  -5  414.89  103.40   1-0.77316-0.56091 0.41088 0.13981-0.48309-0.81597
  -3  -1   5  447.52   96.78   1-0.79541-0.92581-0.60154-0.27880-0.07383 0.25519
   3  -1  -5  349.63   92.08   1-0.78425-0.57066-0.54886-0.82007 0.28929-0.04259
   3   1  -5  332.77   77.22   1-0.71322-0.58259-0.46747-0.78956 0.52228 0.19280
  -3   1   5  307.17  101.14   1 0.09765-0.11514-0.89083-0.61989 0.44370 0.77618
  -3  -1   5  426.09  124.04   1 0.09356-0.03587-0.84928-0.52693 0.51957 0.84915
   3  -1  -4  362.36  103.07   1 0.04609 0.22279 0.95472 0.73821-0.29391-0.63671
   3   1  -4  298.81   90.79   1 0.03286 0.12651 0.90779 0.64026-0.41813-0.75766
  -3   1   4  301.48   82.54   1-0.00724-0.18414 0.68901 0.90559-0.72470-0.38208
   3   1  -4  474.12   88.66   1-0.80018-0.70553 0.50083 0.23300-0.32994-0.66927
   3  -1  -4  322.64   85.74   1-0.78929-0.61136 0.45579 0.23991-0.41141-0.75410
  -3   1   4  237.42  102.85   1-0.74643-0.92551-0.59294-0.37661-0.30207 0.03980
  -3  -1   4  247.85   85.11   1-0.79883-0.89486-0.60012-0.33258-0.04136 0.29767
   3  -1  -4  352.94   93.03   1-0.79416-0.61500-0.56391-0.78003 0.22648-0.11538
   3   1  -4  296.02  100.07   1-0.73576-0.63951-0.49111-0.75819 0.46631 0.12711
  -3   1   4  293.09   97.36   1 0.10141-0.07704-0.92996-0.71411 0.35338 0.69577
  -3  -1   4  253.94  109.10   1 0.09777 0.00237-0.89201-0.62496 0.44129 0.78064
   3  -1  -381928.34 1235.29   1 0.05671 0.19904 0.98128 0.82000-0.18401-0.53662
   3   1  -384714.44 1293.91   1 0.04310 0.10243 0.94537 0.73305-0.32310-0.67240
  -3   1   381222.55 1293.22   1 0.01029-0.13209 0.79788 0.95915-0.60272-0.25012
   3   1  -382360.07 1186.46   1-0.80398-0.74375 0.54907 0.33652-0.22830-0.57756
   3  -1  -388195.15 1246.98   1-0.80133-0.65813 0.50801 0.34665-0.31588-0.66834
  -3   1   380677.99 1296.43   1-0.75324-0.89794-0.59528-0.43414-0.27974 0.07215
  -3  -1   382163.09 1207.82   1-0.80050-0.86215-0.59894-0.38659-0.02157 0.32747
   3  -1  -374685.32 1174.82   1-0.79960-0.65483-0.57411-0.73505 0.17612-0.17574
   3   1  -380902.66 1263.54   1-0.75164-0.68980-0.50860-0.72052 0.41994 0.07077
  -3   1   385792.77 1382.95   1 0.10462-0.03932-0.96492-0.80418 0.24077 0.59307
  -3  -1   385836.76 1505.94   1 0.10185 0.04079-0.93464-0.72268 0.34068 0.68997
   3  -1  -377866.07 1543.89   1 0.08590 0.22890-0.77293-0.93350 0.62864 0.27599
   3  -1  -2  641.71  124.41   1 0.06771 0.17572 0.99599 0.88999-0.05833-0.42075
   3   1  -2  563.73  135.46   1 0.05441 0.07937 0.97647 0.81935-0.20866-0.56776
  -3   1   2  577.02  106.70   1 0.02766-0.08034 0.88560 0.99162-0.46361-0.10116
  -3  -1   2  617.74  112.32   1 0.01430-0.01071 0.81994 0.97696-0.57226-0.21311
   3   1  -2  665.91   95.89   1-0.79524-0.76948 0.59731 0.43987-0.10389-0.46302
   3  -1  -2  581.42  105.78   1-0.80294-0.69420 0.56395 0.45789-0.19294-0.55534
  -3  -1   2  594.61   99.27   1-0.77967-0.80577 0.42751 0.58403-0.45753-0.09811
  -3   1   2  951.16  108.98   1-0.75320-0.86223 0.36674 0.47207-0.54606-0.18356
  -3   1   2  969.47  155.22   1-0.75628-0.86660-0.59626-0.49032-0.26927 0.09263
  -3  -1   2  557.08  125.13   1-0.80106-0.82833-0.59842-0.44126-0.01389 0.34517
   3  -1  -2  663.54  140.54   1-0.80227-0.69188-0.58073-0.68649 0.13821-0.22365
   3   1  -2  643.46   96.87   1-0.76232-0.73491-0.52095-0.67770 0.38400 0.02487
  -3   1   2  606.26  136.91   1 0.10650-0.00285-0.98850-0.88289 0.10730 0.46955
  -3  -1   2  749.19  123.95   1 0.10510 0.07856-0.97055-0.81370 0.21674 0.57594
   3  -1  -2  411.44  105.66   1 0.09510 0.20420-0.86484-0.97017 0.49294 0.13058
   3   1  -2  739.47  148.24   1 0.08991 0.11568-0.81266-0.96941 0.57575 0.21643
   3  -1  -1222876.8 2277.46   1 0.07823 0.15178 0.99397 0.94319 0.07671-0.29552
   3   1  -1212958.4 2233.11   1 0.06608 0.05671 0.99477 0.89287-0.07784-0.44672
  -3   1   1208390.2 2133.89   1 0.04368-0.02995 0.94724 0.99805-0.31752 0.05471
   3   1  -1224603.2 2102.53   1-0.76800-0.77675 0.63919 0.53697 0.03992-0.32909
   3  -1  -1220734.9 2030.65   1-0.78609-0.71188 0.61654 0.56562-0.04395-0.41627
  -3  -1   1218056.5 1948.61   1-0.80107-0.79232 0.50626 0.60806-0.31934 0.04982
  -3   1   1209184.1 1844.71   1-0.78844-0.86308 0.45304 0.50315-0.41607-0.04375
  -3   1   1210046.8 2294.76   1-0.75601-0.83196-0.59618-0.54542-0.27020 0.10170
  -3  -1   1216212.7 2220.56   1-0.80077-0.79367-0.59869-0.49673-0.01788 0.35119
   3  -1  -1212087.7 2153.54   1-0.80339-0.72740-0.58472-0.63529 0.11247-0.25939
   3   1  -1203971.3 2099.63   1-0.76897-0.77596-0.52896-0.63069 0.35898-0.01005
  -3   1   1213719.5 2058.14   1 0.10632 0.03149-0.99348-0.94307-0.04111 0.33107
  -3  -1   1225451.1 2319.94   1 0.10667 0.11471-0.99166-0.88997 0.07220 0.44134
   3  -1  -1209425.3 2379.72   1 0.10176 0.17656-0.93362-0.98387 0.34349-0.02873
   3  -1   0 7634.75  377.66   1 0.08751 0.12667 0.97306 0.97748 0.21327-0.16875
   3   1   0 5720.81  336.89   1 0.07723 0.03340 0.99501 0.94829 0.06304-0.31562
  -3   1   0 7567.01  380.30   1 0.05745 0.01821 0.98273 0.97834-0.17586 0.20619
  -3  -1   0 7048.97  405.71   1 0.04379 0.08752 0.94759 0.99421-0.31646 0.06227
   3   1   0 7302.49  329.63   1-0.71859-0.76174 0.66777 0.62097 0.19416-0.18477
   3  -1   0 7923.38  355.31   1-0.74387-0.70424 0.65681 0.66113 0.12346-0.25872
  -3  -1   0 7361.07  313.31   1-0.80188-0.75865 0.57169 0.61825-0.17362 0.20545
  -3   1   0 7463.54  315.36   1-0.80365-0.84345 0.53010 0.52542-0.27041 0.11187
  -3   1   0 6894.15  355.35   1-0.75255-0.79412-0.59505-0.59949-0.28209 0.09983
  -3  -1   0 8591.55  406.35   1-0.79956-0.75808-0.59966-0.55289-0.03323 0.34585
   3  -1   0 6967.98  354.74   1-0.80377-0.76215-0.58667-0.58220 0.09879-0.28311
  -3  -1   0 7356.55  371.07   1 0.10581 0.14839-0.99073-0.94424-0.08516 0.29390
   3  -1   0 6751.62  385.27   1 0.10554 0.14583-0.97571-0.97085 0.19193-0.19020
   3   1   0 7580.03  429.66   1 0.10315 0.06055-0.94860-0.99495 0.29917-0.07994
   3   1   1455745.5 3856.36   1 0.08705 0.00884 0.97468 0.98316 0.20593-0.18252
   3   1   1432085.3 3223.27   1-0.64786-0.72558 0.67832 0.68683 0.34662-0.04220
   3  -1   1446586.5 3583.27   1-0.67451-0.66928 0.67684 0.73661 0.29480-0.09724
  -3  -1  -1442531.9 3212.54   1-0.78387-0.70605 0.62010 0.61159-0.03192 0.35699
  -3   1  -1432019.2 3020.13   1-0.79729-0.80256 0.59132 0.53139-0.12108 0.27112
  -3   1  -1459219.7 3945.61   1-0.74568-0.75288-0.59267-0.65230-0.30444 0.08749
  -3  -1  -1454881.4 3404.42   1-0.79701-0.72116-0.60100-0.60942-0.05967 0.32942
   3  -1   2 3778.65  279.71   1 0.10053 0.07107 0.88077 0.99560 0.46274 0.06102
   3   1   2 3577.51  264.23   1 0.09494-0.01759 0.93466 0.99828 0.34260-0.05582
  -3   1  -2 4100.89  239.85   1-0.77301-0.74364 0.63408 0.51906 0.01929 0.42139
  -3  -1  -2 3271.29  240.57   1-0.79246-0.68223-0.60216-0.66577-0.09696 0.30214
   3  -1   2 3651.27  244.48   1-0.80361-0.83076-0.58577-0.47092 0.10520-0.29673
   3   1   2 3290.57  219.55   1-0.77174-0.88192-0.53239-0.46859 0.34779-0.05121
   3  -1   324883.51  780.87   1 0.10415 0.04040 0.81693 0.98697 0.56724 0.15572
   3   1   326138.42  726.78   1 0.10071-0.04611 0.87831 0.99718 0.46735 0.05912
  -3  -1  -326120.87  676.68   1-0.78492-0.64032-0.60240-0.72121-0.14487 0.26425
   3  -1   4 2896.33  248.14   1 0.10612 0.00793 0.74662 0.97186 0.65672 0.23542
   3   1   4 2909.14  247.79   1 0.10441-0.07669 0.81028 0.98435 0.57665 0.15861
  -3  -1  -4 3267.04  277.32   1-0.77317-0.59420-0.60077-0.77477-0.20314 0.21599
   3  -1   5210523.6 1930.79   1 0.10671-0.02603 0.67286 0.95324 0.73202 0.30108
   3   1   5210510.3 2091.99   1 0.10630-0.10924 0.73482 0.96409 0.66987 0.24203
  -3  -1  -5212747.6 3578.05   1-0.75565-0.54229-0.59606-0.82525-0.27147 0.15768
   3  -1   5210678.5 1846.37   1 0.07530-0.05843 0.66910 0.94935 0.73934 0.30871
   3  -1   672096.74 1277.17   1 0.10620-0.06099 0.59771 0.93327 0.79464 0.35395
   3   1   671701.91 1346.18   1 0.10668-0.14342 0.65537 0.93975 0.74772 0.31030
   3  -1   674391.78 1147.54   1 0.06719-0.10106 0.59049 0.92590 0.80423 0.36397
   3   1   674991.47 1182.62   1 0.07282-0.17822 0.64498 0.92916 0.76072 0.32385
   3  -1   7161137.5 3319.55   1 0.10482-0.09683 0.52250 0.91325 0.84616 0.39572
   3   1   7147268.1 3121.65   1 0.10586-0.17869 0.57429 0.91385 0.81177 0.36460
  -3   1  -7154080.7 3108.94   1-0.05950 0.13970-0.51193-0.90316-0.85696-0.40593
  -3  -1  -7142356.2 2814.10   1-0.04438 0.23784-0.55156-0.89179-0.83294-0.38488
   3  -1   7145947.4 3053.98   1 0.05894-0.14382 0.51123 0.90179 0.85741 0.40752
   3   1   7153162.0 3162.88   1 0.06386-0.22170 0.55843 0.89777 0.82708 0.38059
   3   1   817356.95  556.66   1 0.10407-0.21493 0.49313 0.88788 0.86370 0.40678
  -3   1  -817345.68  596.30   1-0.10277 0.13131-0.44943-0.89528-0.88738-0.42569
  -3   1  -817065.03  477.81   1-0.08439 0.14911-0.44314-0.88963-0.89246-0.43164
  -3  -1  -817628.86  463.15   1-0.07128 0.24524-0.47992-0.87541-0.87440-0.41654
   3  -1   815987.88  533.52   1 0.05068-0.18660 0.43228 0.87800 0.90031 0.44078
   3   1   815549.06  499.78   1 0.05478-0.26529 0.47139 0.86588 0.88021 0.42409
  -3   1  -9  278.54  142.14   1-0.10012 0.16831-0.37618-0.87726-0.92111-0.44953
  -3  -1  -9  -18.04   84.37   1-0.10158 0.24986-0.41470-0.86469-0.90426-0.43574
  -3   1  -9   -7.14   84.20   1-0.06430 0.20445-0.36143-0.86411-0.93017-0.45989
  -3  -1  -9    7.05   82.51   1-0.03710 0.31463-0.38069-0.83221-0.92395-0.45652
  -3   1  -9  112.24  107.37   1-0.10690 0.16089-0.37696-0.87870-0.92003-0.44942
  -3  -1  -9   42.20  117.87   1-0.09560 0.25522-0.41068-0.86142-0.90675-0.43910
  -3   1 -1016962.71  563.54   1-0.09698 0.20579-0.30410-0.86041-0.94768-0.46619
  -3  -1 -1015935.87  563.89   1-0.09842 0.28737-0.33581-0.84103-0.93677-0.45834
  -3   1 -1016802.66  544.17   1-0.13048 0.17265-0.31264-0.87054-0.94086-0.46081
  -3  -1 -1017757.15  559.77   1-0.10140 0.28470-0.33442-0.84117-0.93694-0.45975
  -3  -1 -1016970.61  492.52   1-0.11769 0.26743-0.34382-0.84982-0.93163-0.45418
  -3  -1 -1126157.05  862.88   1-0.09474 0.32541-0.25828-0.81870-0.96141-0.47311
  -3   1 -1128468.58  870.63   1-0.09343 0.24369-0.23318-0.84469-0.96793-0.47655
  -3   1 -1125405.33  809.08   1-0.19138 0.14613-0.26520-0.87832-0.94500-0.45518
  -3  -1 -1127202.68  806.56   1-0.16118 0.25930-0.28903-0.85099-0.94365-0.45668
  -3  -1 -1251834.01 1119.79   1-0.09060 0.36389-0.18204-0.79769-0.97910-0.48090
  -3   1 -1254155.82 1108.48   1-0.08951 0.28196-0.16327-0.83000-0.98251-0.48123
  -3   1 -1253283.76 1148.20   1-0.24794 0.12413-0.21886-0.88735-0.94372-0.44405
  -3  -1 -1252101.71 1053.85   1-0.21703 0.23783-0.24447-0.86165-0.94505-0.44832
   3   2 -13 4329.86  326.66   1-0.00080 0.36018 0.73132-0.05914-0.68203-0.93100
   3   2 -13 4524.13  292.82   1-0.74622-0.38321 0.35293-0.43684-0.56443-0.81382
   3  -2 -13 3983.39  251.42   1-0.70945-0.18075 0.28819-0.39926-0.64312-0.89884
  -3   2  13 4303.83  324.87   1 0.08522-0.44464-0.76617-0.07945 0.63695 0.89217
  -3  -2  13 4125.06  323.82   1 0.07887-0.28528-0.70392 0.08536 0.70588 0.95463
   3  -2 -12  270.95  128.74   1 0.01375 0.50654 0.81697 0.18389-0.57651-0.84237
   3   2 -12  476.27  129.87   1-0.00150 0.32517 0.72686-0.00833-0.68677-0.94561
   3   2 -12  279.65  111.43   1-0.74591-0.41731 0.35233-0.38220-0.56522-0.82448
   3  -2 -12  341.86   98.31   1-0.70704-0.21273 0.28429-0.34791-0.64750-0.91307
  -3   2  12  423.42  123.68   1 0.08522-0.41009-0.76620-0.13466 0.63692 0.90204
  -3  -2  12  333.17  191.54   1 0.07858-0.25103-0.70106 0.03304 0.70875 0.96741
   3  -2 -11 7216.13  348.93   1 0.01442 0.47289 0.82059 0.24277-0.57132-0.84701
   3   2 -11 7529.37  373.24   1-0.00152 0.29084 0.72673 0.04680-0.68691-0.95562
   3   2 -11 7555.53  317.84   1-0.74745-0.45326 0.35532-0.32395-0.56129-0.83042
   3  -2 -11 7769.47  322.45   1-0.70664-0.24672 0.28366-0.29329-0.64821-0.92363
  -3   2  11 6719.96  638.49   1 0.08568-0.37509-0.77075-0.19439 0.63134 0.90637
  -3  -2  11 8262.82  467.02   1 0.07871-0.21636-0.70234-0.02341 0.70747 0.97603
   3  -2 -10  793.28  131.47   1 0.01610 0.44025 0.82949 0.30693-0.55827-0.84378
   3   2 -10  649.87  138.92   1-0.00077 0.25728 0.73150 0.10683-0.68183-0.96041
   3   2 -10  734.73  179.19   1-0.75108-0.49129 0.36248-0.26155-0.55179-0.83079
   3  -2 -10  854.28  126.53   1-0.70864-0.28311 0.28687-0.23483-0.64461-0.92989
  -3   2  10  996.45  207.04   1 0.08666-0.33956-0.78042-0.25924 0.61921 0.90415
  -3  -2  10 1017.63  159.57   1 0.07933-0.18119-0.70840-0.08465 0.70132 0.97979
   3  -2  -9 4293.88  292.73   1 0.01892 0.40876 0.84404 0.37674-0.53593-0.83125
   3   2  -9 4044.21  278.78   1 0.00085 0.22460 0.74179 0.17238-0.67063-0.95907
   3   2  -9 4038.61  234.06   1-0.75695-0.53156 0.37444-0.19433-0.53555-0.82442
   3  -2  -9 4122.84  223.78   1-0.71340-0.32226 0.29464-0.17180-0.63579-0.93092
  -3  -2   9 3926.10  308.10   1-0.77048-0.99686-0.60018-0.03107-0.21476 0.07280
  -3   2   9 4545.28  327.76   1 0.08820-0.30373-0.79569-0.32946 0.59924 0.89398
  -3  -2   9 4165.01  294.19   1 0.08051-0.14547-0.71994-0.15137 0.68934 0.97771
   3  -2  -8 4138.42  302.29   1 0.02305 0.37856 0.86431 0.45226-0.50241-0.80755
   3   2  -8 3775.66  252.76   1 0.00351 0.19295 0.75815 0.24401-0.65206-0.95038
   3   2  -8 3393.63  306.44   1-0.76504-0.57406 0.39191-0.12161-0.51098-0.80972
   3  -2  -8 3981.68  240.83   1-0.72129-0.36455 0.30786-0.10334-0.62044-0.92543
  -3  -2   8 4258.72  308.69   1-0.78862-0.98062-0.60247-0.08855-0.12285 0.17472
   3  -2  -8 2928.86  245.30   1-0.74498-0.38664-0.50116-0.91204 0.44026 0.13671
   3   2  -8 3405.95  254.81   1-0.51563-0.32347-0.28539-0.79803 0.80788 0.50843
  -3   2   8 4016.58  294.14   1 0.09036-0.26702-0.81715-0.40613 0.56928 0.87393
  -3  -2   8 4098.37  303.80   1 0.08232-0.10912-0.73767-0.22427 0.67011 0.96839
   3  -2  -7  778.72  132.40   1 0.02864 0.34984 0.88992 0.53319-0.45520-0.77026
   3   2  -7 1160.39  146.60   1 0.00735 0.16249 0.78102 0.32215-0.62445-0.93263
   3   2  -7  801.23  113.98   1-0.77498-0.61824 0.41538-0.04300-0.47628-0.78480
   3  -2  -7  890.47  124.36   1-0.73257-0.41021 0.32753-0.02841-0.59670-0.91154
  -3  -2   7  851.48  151.32   1-0.79805-0.95567-0.60054-0.14181-0.04958 0.25800
   3  -2  -7  698.63  106.39   1-0.77486-0.45097-0.53632-0.89228 0.33458 0.02127
   3   2  -7  658.59  111.70   1-0.57804-0.42032-0.33996-0.79755 0.74181 0.43271
  -3   2   7  615.69  126.85   1 0.09311-0.22971-0.84476-0.48894 0.52697 0.84152
  -3  -2   7  843.54  161.46   1 0.08481-0.07208-0.76219-0.30397 0.64176 0.94994
   3  -2  -6  191.11  111.81   1 0.03572 0.32258 0.91909 0.61760-0.39241-0.71728
   3   2  -6   56.01   77.37   1 0.01260 0.13337 0.81069 0.40714-0.58533-0.90357
   3  -2  -6   32.80   54.51   1-0.74705-0.45890 0.35453 0.05377-0.56233-0.88685
  -3  -2   6   16.96   74.76   1-0.80236-0.92572-0.59678-0.19329 0.00749 0.32507
   3  -2  -6   36.75   69.00   1-0.79186-0.50238-0.56015-0.86093 0.24325-0.08004
   3   2  -6   49.81   66.89   1-0.62578-0.50226-0.38314-0.78580 0.67940 0.36088
  -3   2   6  140.01  110.41   1 0.09636-0.19242-0.87760-0.57712 0.46959 0.79366
  -3  -2   6   -9.13  105.70   1 0.08800-0.03456-0.79372-0.39052 0.60188 0.91994
   3  -2  -5 4608.73  330.77   1 0.04428 0.29684 0.94914 0.70292-0.31171-0.64635
   3   2  -5 4395.80  305.03   1 0.01931 0.10577 0.84601 0.49772-0.53280-0.86085
  -3   2   5 4097.51  262.41   1-0.02067-0.27357 0.59213 0.83847-0.80557-0.47128
   3   2  -5 4202.56  271.25   1-0.79642-0.70880 0.48227 0.13354-0.36484-0.69265
   3  -2  -5 4570.98  252.30   1-0.76438-0.51064 0.39044 0.14493-0.51309-0.84748
  -3  -2   5 5165.66  319.27   1-0.80387-0.89285-0.59262-0.24432 0.05072 0.37831
   3  -2  -5 4484.30  263.83   1-0.80037-0.54530-0.57583-0.82152 0.16675-0.16652
   3   2  -5 4105.66  237.48   1-0.66237-0.57329-0.41740-0.76489 0.62212 0.29372
  -3   2   5 4154.41  335.82   1 0.09988-0.15456-0.91386-0.66847 0.39353 0.72749
  -3  -2   5 4311.30  311.14   1 0.09184 0.00383-0.83203-0.48403 0.54706 0.87503
   3  -2  -4 1479.73  179.21   1 0.05406 0.27226 0.97568 0.78471-0.21239-0.55686
   3   2  -4 1499.72  154.61   1 0.02765 0.07977 0.88555 0.59251-0.46371-0.80159
  -3   2   4 1574.11  173.43   1-0.00274-0.22108 0.71884 0.90994-0.69516-0.35088
   3   2  -4 1722.55  157.63   1-0.80327-0.75011 0.52474 0.23135-0.28176-0.61951
   3  -2  -4 1301.74  125.63   1-0.78255-0.56314 0.43543 0.24512-0.44496-0.78916
  -3  -2   4 1260.06  147.24   1-0.80403-0.85862-0.58904-0.29593 0.08094 0.41855
   3  -2  -4 1507.33  168.81   1-0.80364-0.58297-0.58589-0.77656 0.10433-0.23893
   3   2  -4 1571.34  160.06   1-0.68954-0.63480-0.44372-0.73626 0.57239 0.23438
  -3   2   4 1241.21  174.88   1 0.10323-0.11665-0.94950-0.75931 0.29627 0.64018
  -3  -2   4 1414.67  215.53   1 0.09614 0.04216-0.87535-0.58264 0.47382 0.81163
   3  -2  -3333026.0 3003.58   1 0.06453 0.24843 0.99328 0.85762-0.09600-0.45028
   3   2  -3343382.2 3031.46   1 0.03752 0.05533 0.92589 0.68805-0.37590-0.72354
  -3   2   3329187.4 2911.45   1 0.01587-0.16804 0.82826 0.96403-0.56011-0.20588
   3   2  -3331740.8 2643.06   1-0.80214-0.78341 0.57004 0.33191-0.17779-0.52544
   3  -2  -3312144.5 2885.32   1-0.80394-0.61765-0.59216-0.72764 0.05489-0.29837
  -3  -2   3346043.0 2871.37   1-0.80377-0.82397-0.58664-0.34871 0.09898 0.44660
   3   2  -3316782.2 2571.51   1-0.70957-0.68925-0.46375-0.70114 0.53050 0.18256
  -3   2   3314587.8 3117.84   1 0.10576-0.07961-0.97838-0.84330 0.17768 0.53151
  -3  -2   3333483.9 2969.06   1 0.10047 0.08083-0.92005-0.68243 0.37869 0.72646
   3  -2  -3320966.6 3216.46   1 0.08814 0.27275-0.79513-0.93015 0.59998 0.24578
   3  -2  -225663.07  721.76   1 0.07492 0.22436 0.99666 0.91626 0.03228-0.33185
   3   2  -225054.89  640.61   1 0.04868 0.03214 0.96217 0.77956-0.26804-0.62549
  -3   2   224839.04  662.13   1 0.03385-0.11567 0.91175 0.99225-0.40933-0.04524
   3   2  -226496.80  607.56   1-0.78776-0.80349 0.61363 0.43059-0.05356-0.41107
   3  -2  -225781.59  585.68   1-0.80401-0.65377 0.54786 0.46737-0.23109-0.59508
  -3   2   224131.67  547.53   1-0.73277-0.88316 0.32789 0.40758-0.59626-0.23215
   3  -2  -224983.49  669.00   1-0.80288-0.65098-0.59585-0.67614 0.01825-0.34503
  -3  -2   225383.11  667.10   1-0.80361-0.78943-0.58575-0.40301 0.10536 0.46300
   3   2  -224866.34  649.58   1-0.72363-0.73773-0.47824-0.66046 0.49763 0.13977
  -3   2   224866.32  692.37   1 0.10671-0.04408-0.99345-0.91349 0.04067 0.40445
  -3  -2   227146.32  699.95   1 0.10418 0.11906-0.96002-0.77752 0.25980 0.61747
   3  -2  -224060.97  743.83   1 0.09706 0.24758-0.88483-0.96450 0.45568 0.09177
   3  -2  -113853.12  524.52   1 0.08441 0.19947 0.98263 0.95742 0.16524-0.20867
   3   2  -114874.25  549.05   1 0.06052 0.00961 0.98802 0.86059-0.14194-0.50919
  -3   2   113597.74  479.42   1 0.04991-0.06519 0.96552 0.99082-0.25548 0.11842
  -3  -2   113635.96  472.49   1 0.02210 0.07292 0.85978 0.98705-0.51017-0.14284
   3   2  -113323.42  631.72   1-0.75529-0.80551 0.64964 0.52180 0.08657-0.28081
   3  -2  -115216.80  491.57   1-0.79201-0.67633 0.60519 0.57987-0.08028-0.45422
  -3  -2   113568.98  436.73   1-0.80329-0.75303 0.52493 0.65230-0.28135 0.08621
  -3   2   114691.88  427.38   1-0.77556-0.89170 0.41684 0.44137-0.47406-0.10023
   3  -2  -113118.20  476.92   1-0.80158-0.68411-0.59784-0.62299-0.00596-0.37930
  -3  -2   114916.56  489.68   1-0.80373-0.75517-0.58644-0.45888 0.10045 0.46811
   3   2  -113784.64  445.35   1-0.73273-0.78121-0.48786-0.61507 0.47442 0.10673
  -3   2   114229.99  488.11   1 0.10548-0.01077-0.98859-0.96384-0.10746 0.26626
  -3  -2   114965.04  496.57   1 0.10642 0.15588-0.98723-0.85990 0.11846 0.48607
   3  -2  -114631.04  542.11   1 0.10312 0.21934-0.94828-0.97287 0.30020-0.07353
   3   2  -113697.71  530.65   1 0.09499 0.04527-0.86373-0.99084 0.49490 0.12722
   3  -2   010145.58  477.75   1 0.09238 0.17313 0.95093 0.98091 0.29528-0.08851
   3   2   010293.14  468.61   1 0.07223-0.01301 0.99738 0.92513-0.00239-0.37941
  -3   2   0 9105.63  494.45   1 0.06326-0.01746 0.99183 0.96187-0.11076 0.27292
  -3  -2   0 9475.25  404.57   1 0.03608 0.12130 0.92049 0.99254-0.38909-0.01198
   3   2   010161.82  464.63   1-0.70248-0.78710 0.67227 0.59984 0.23360-0.14372
   3  -2   0 9962.49  369.31   1-0.75331-0.67220 0.65101 0.68095 0.09325-0.29057
  -3  -2   0 9036.65  343.58   1-0.79900-0.71427 0.58535 0.65748-0.13765 0.23982
  -3   2   0 9716.33  433.46   1-0.80002-0.88131 0.49987 0.46964-0.33178 0.05209
   3  -2   0 8982.64  447.20   1-0.80072-0.71761-0.59874-0.56870-0.01864-0.40199
  -3  -2   0 9597.80  375.76   1-0.80400-0.72105-0.58859-0.51622 0.08448 0.46215
  -3  -2   010010.49  397.88   1 0.10634 0.19034-0.99357-0.92143-0.03884 0.33870
   3  -2   0 8551.55  457.98   1 0.10616 0.18787-0.98355-0.95303 0.14612-0.23754
   3   2   0 9507.99  498.23   1 0.10119 0.01717-0.92767-0.99968 0.35940-0.01819
   3  -2   1149779.1 1839.76   1 0.09852 0.14498 0.90403 0.98918 0.41594 0.02236
   3   2   1145634.5 1790.01   1 0.08291-0.03680 0.98623 0.96914 0.14303-0.24374
   3   2   1150601.3 1730.24   1-0.63111-0.75030 0.67810 0.66100 0.37663-0.01057
   3  -2   1152888.8 1753.66   1-0.68432-0.63762 0.67564 0.76103 0.27423-0.11941
  -3   2  -1141485.6 1529.44   1-0.80231-0.84908 0.56887 0.48337-0.18073 0.21308
   3   2   1137015.2 1898.28   1 0.10500-0.01353-0.96928-0.98618 0.22239-0.16512
   3  -2   2136702.3 1825.45   1 0.10280 0.11480 0.84565 0.98606 0.52373 0.12036
   3   2   2133740.2 1858.11   1 0.09185-0.06215 0.95385 0.99188 0.28587-0.11088
  -3   2  -2135639.0 1464.45   1-0.78431-0.79642 0.61940 0.47878-0.03429 0.36942
  -3  -2  -2140427.5 1862.80   1-0.80295-0.65123-0.59571-0.63372 0.01976 0.41746
   3  -2   364059.12 1112.42   1 0.10539 0.08311 0.77984 0.97545 0.61703 0.20389
   3   2   362779.38 1328.10   1 0.09865-0.08961 0.90267 0.99590 0.41886 0.01226
  -3   2  -358562.85  927.55   1-0.75252-0.72996 0.65154 0.45565 0.09587 0.50944
  -3  -2  -360594.56 1121.53   1-0.79992-0.61380-0.59940-0.69260-0.02883 0.37887
   3  -2   4 7597.93  394.40   1 0.10657 0.04972 0.70982 0.96060 0.69627 0.27344
   3   2   4 7502.11  436.67   1 0.10325-0.11947 0.83693 0.98542 0.53748 0.12109
  -3  -2  -4 8712.02  405.24   1-0.79361-0.57311-0.60197-0.75036-0.08834 0.32938
   3  -2   5  611.67  136.62   1 0.10660 0.01530 0.63782 0.94378 0.76276 0.33019
   3   2   5  492.70  126.19   1 0.10583-0.15117 0.76155 0.96524 0.63940 0.21319
  -3  -2  -5  578.25  113.41   1-0.78240-0.52753-0.60221-0.80580-0.15866 0.26906
   3  -2   5  636.80  136.69   1 0.07186-0.02047 0.63567 0.94153 0.76860 0.33628
   3  -2   6  274.97  102.39   1 0.10571-0.02003 0.56537 0.92652 0.81803 0.37570
   3   2   6  444.48  153.86   1 0.10671-0.18485 0.68047 0.93925 0.72496 0.28917
  -3  -2  -6  461.70  124.39   1-0.76429-0.47503-0.59863-0.85740-0.23979 0.19795
   3  -2   6  482.21  105.77   1 0.06404-0.06281 0.56020 0.92122 0.82587 0.38391
   3   2   6  640.31  112.01   1 0.07528-0.21715 0.66889 0.92747 0.73953 0.30436
   3  -2   787021.75 1939.53   1 0.10408-0.05611 0.49334 0.90967 0.86358 0.41150
   3   2   790414.93 2041.30   1 0.10619-0.21981 0.59666 0.91063 0.79543 0.34989
  -3   2  -792838.85 2024.32   1-0.06859 0.08910-0.48732-0.90406-0.87052-0.41800
   3  -2   786029.37 1894.47   1 0.05616-0.10520 0.48460 0.90078 0.87292 0.42133
   3   2   788326.07 2014.74   1 0.06596-0.26099 0.57867 0.89240 0.81288 0.36808
   3   2   8  270.56  113.94   1 0.10457-0.25589 0.51217 0.88133 0.85248 0.39719
  -3   2  -8  460.48  152.67   1-0.10189 0.09067-0.42352-0.89491-0.90013-0.43692
  -3   2  -8  256.83   94.50   1-0.09232 0.09966-0.42026-0.89225-0.90269-0.44038
  -3  -2  -8  341.90   87.52   1-0.06620 0.29183-0.49384-0.86382-0.86702-0.41064
   3   2   8  495.92  102.05   1 0.05645-0.30502 0.48732 0.85621 0.87139 0.41696
  -3   2  -916565.94  580.54   1-0.09919 0.12772-0.35363-0.88024-0.93011-0.45699
  -3  -2  -916627.93  619.71   1-0.10213 0.29082-0.43031-0.85476-0.89688-0.42988
  -3   2  -915004.18  636.97   1-0.08450 0.14277-0.34684-0.87510-0.93410-0.46239
  -3   2  -915843.75  503.41   1-0.11380 0.11248-0.35585-0.88310-0.92758-0.45548
  -3  -2  -919196.02  586.06   1-0.09129 0.30104-0.42326-0.84850-0.90139-0.43522
  -3   2 -10  134.52  113.40   1-0.09606 0.16520-0.28482-0.86666-0.95375-0.47073
  -3  -2 -10   42.16   99.00   1-0.09894 0.32836-0.34783-0.82750-0.93232-0.45542
  -3   2 -10  132.80   93.00   1-0.15117 0.11047-0.29680-0.88027-0.94289-0.46141
  -3  -2 -10   65.47   90.32   1-0.09226 0.33533-0.34116-0.82233-0.93546-0.45969
  -3  -2 -10  217.60   89.90   1-0.11408 0.31255-0.35502-0.83551-0.92787-0.45191
  -3   2 -11 1208.36  188.66   1-0.09256 0.20305-0.21704-0.85408-0.97176-0.47885
  -3  -2 -11 1110.48  163.72   1-0.09517 0.36649-0.26675-0.80164-0.95905-0.47228
  -3   2 -11 1002.70  163.53   1-0.21219 0.08383-0.24841-0.88711-0.94512-0.45387
  -3  -2 -11 1459.73  198.46   1-0.15116 0.31081-0.29681-0.83319-0.94289-0.45735
  -3   2 -12  -19.36  115.74   1-0.08872 0.24124-0.15011-0.84237-0.98468-0.48187
  -3  -2 -12   15.47  144.71   1-0.09089 0.40511-0.18712-0.77722-0.97812-0.48145
  -3   2 -12   31.68  106.66   1-0.26861 0.06198-0.20136-0.89543-0.94196-0.44086
   3   3 -13  536.95  148.08   1-0.00289 0.31656 0.71790-0.09806-0.69613-0.94349
   3   3 -13  848.26  137.87   1-0.75654-0.43502 0.37359-0.44175-0.53672-0.78460
   3  -3 -13  614.11  119.15   1-0.70220-0.13199 0.27657-0.38532-0.65606-0.91329
  -3   3  13  561.45  139.91   1 0.08745-0.48412-0.78828-0.12689 0.60906 0.86574
  -3  -3  13  541.38  139.98   1 0.07794-0.24480-0.69479 0.12013 0.71496 0.96210
   3   3 -1218597.32  666.73   1-0.00364 0.28150 0.71299-0.04769-0.70115-0.95837
   3   3 -1218172.69  618.69   1-0.75672-0.46961 0.37397-0.38612-0.53620-0.79395
   3  -3 -1219647.77  617.42   1-0.69933-0.16352 0.27206-0.33458-0.66098-0.92807
  -3   3  1215400.47  823.36   1 0.08755-0.44946-0.78930-0.18311 0.60772 0.87432
  -3  -3  1219943.80  771.59   1 0.07760-0.21058-0.69154 0.06821 0.71815 0.97519
   3  -3 -1119034.96  611.09   1 0.02068 0.52067 0.85281 0.30049-0.52180-0.79912
   3   3 -1120793.79  591.26   1-0.00375 0.24708 0.71228 0.00685-0.70188-0.96897
   3   3 -1119891.37  544.35   1-0.75864-0.50594 0.37801-0.32684-0.53062-0.79824
   3  -3 -1120906.55  547.93   1-0.69849-0.19707 0.27074-0.28065-0.66242-0.93936
  -3   3  1120494.03  739.70   1 0.08812-0.41434-0.79489-0.24390 0.60031 0.87682
  -3  -3  1120199.38  716.82   1 0.07769-0.17596-0.69234 0.01223 0.71737 0.98432
   3  -3 -10   67.41  102.92   1 0.02271 0.48839 0.86271 0.36564-0.50518-0.79232
   3   3 -10  218.83  114.18   1-0.00313 0.21339 0.71631 0.06615-0.69776-0.97472
   3   3 -10   57.52   87.52   1-0.76248-0.54418 0.38625-0.26335-0.51906-0.79656
   3  -3 -10   12.11   85.48   1-0.70004-0.23301 0.27318-0.22296-0.65977-0.94656
  -3  -3  10   38.25  122.16   1-0.77593-0.99515-0.60130 0.04860-0.19069 0.08544
  -3  -3  10   41.01  109.64   1 0.07825-0.14085-0.69781-0.04841 0.71199 0.98884
   3  -3  -9  873.74  140.25   1 0.02600 0.45739 0.87813 0.43642-0.47770-0.77480
   3   3  -9  744.30  127.31   1-0.00168 0.18053 0.72570 0.13080-0.68800-0.97483
   3   3  -9  841.80  124.45   1-0.76828-0.58439 0.39928-0.19507-0.50031-0.78767
   3  -3  -9  974.50  131.98   1-0.70441-0.27178 0.28009-0.16080-0.65218-0.94883
  -3  -3   9  835.86  168.10   1-0.79429-0.97913-0.60183-0.00711-0.08307 0.20306
  -3   3   9  881.86  172.72   1 0.09083-0.34252-0.82192-0.38134 0.56229 0.85863
  -3  -3   9 1052.34  158.13   1 0.07936-0.10520-0.70864-0.11442 0.70108 0.98784
   3  -3  -841475.41 1193.40   1 0.03060 0.42766 0.89840 0.51194-0.43809-0.74499
   3   3  -842463.80 1171.60   1 0.00073 0.14864 0.74103 0.20140-0.67146-0.96816
   3   3  -842706.53 1098.04   1-0.77584-0.62615 0.41753-0.12169-0.47300-0.77013
   3  -3  -843160.88 1063.21   1-0.71201-0.31376 0.29236-0.09327-0.63840-0.94490
  -3  -3   842046.39 1301.59   1-0.80208-0.95268-0.59720-0.05772 0.00228 0.29841
   3  -3  -834468.81 1076.31   1-0.77779-0.37802-0.54012-0.92564 0.32138 0.01666
  -3   3   844261.30 1274.72   1 0.09304-0.30575-0.84407-0.45869 0.52808 0.83433
  -3  -3   839791.77 1472.29   1 0.08108-0.06893-0.72555-0.18651 0.68336 0.98003
   3  -3  -750989.56  967.09   1 0.03667 0.39939 0.92271 0.59149-0.38373-0.70044
   3   3  -753171.35 1024.05   1 0.00427 0.11788 0.76278 0.27842-0.64663-0.95319
   3   3  -752872.16  891.18   1-0.78479-0.66953 0.44186-0.04210-0.43457-0.74158
   3  -3  -752708.82  929.87   1-0.72316-0.35931 0.31105-0.01933-0.61666-0.93301
  -3  -3   751990.04 1346.33   1-0.80406-0.92028-0.59035-0.10606 0.07044 0.37659
  -3   3   754418.61 1065.58   1 0.09576-0.26900-0.87157-0.54154 0.48081 0.79646
  -3  -3   753212.97 1081.23   1 0.08349-0.03198-0.74920-0.26533 0.65705 0.96362
   3  -3  -656385.71 1074.19   1 0.04420 0.37262 0.94890 0.67297-0.31245-0.63894
   3   3  -656639.36  953.50   1 0.00911 0.08841 0.79118 0.36208-0.61151-0.92794
   3   3  -653720.45  940.90   1-0.79397-0.71314 0.47232 0.04361-0.38276-0.69965
   3  -3  -655461.60  862.61   1-0.73784-0.40819 0.33711 0.06192-0.58476-0.91079
   3  -3  -651314.73 1076.37   1-0.80298-0.47201-0.58306-0.85832 0.12349-0.20119
  -3  -3   658569.43 1071.28   1-0.80299-0.88489-0.58309-0.15414 0.12328 0.43954
  -3   3   657370.27 1070.91   1 0.09889-0.23130-0.90362-0.62879 0.41675 0.74236
  -3  -3   654617.00 1036.55   1 0.08661 0.00568-0.77998-0.35130 0.61977 0.93624
   3  -3  -532501.89  764.90   1 0.05304 0.34711 0.97334 0.75267-0.22313-0.55945
   3   3  -531518.30  778.21   1 0.01544 0.06037 0.82600 0.45222-0.56344-0.88985
  -3   3   530188.67  785.76   1-0.01774-0.31201 0.61430 0.83516-0.78886-0.45292
   3   3  -533002.19  696.84   1-0.80137-0.75525 0.50826 0.13396-0.31538-0.64159
   3  -3  -529527.43  810.00   1-0.75592-0.46068 0.37231 0.15237-0.53848-0.87438
   3  -3  -531060.06  773.75   1-0.80384-0.50727-0.59281-0.81305 0.04898-0.28566
  -3  -3   529993.02  690.69   1-0.80065-0.84816-0.57648-0.20271 0.16315 0.48940
  -3   3   534089.23  846.40   1 0.10209-0.19377-0.93714-0.71740 0.33367 0.66916
  -3  -3   527627.61  724.18   1 0.09040 0.04381-0.81764-0.44400 0.56858 0.89495
   3  -3  -463074.35 1139.75   1 0.06278 0.32256 0.99123 0.82592-0.11624-0.46239
   3   3  -460575.88 1097.62   1 0.02332 0.03393 0.86562 0.54709-0.50014-0.83638
  -3   3   457821.91 1016.79   1 0.00150-0.25836 0.74580 0.91141-0.66616-0.32025
   3   3  -458486.39  957.81   1-0.80399-0.79226 0.54869 0.22965-0.22918-0.56530
   3  -3  -462185.41  968.94   1-0.77568-0.51477 0.41713 0.25240-0.47361-0.81932
   3  -3  -454413.20 1039.25   1-0.80124-0.53912-0.59822-0.76334-0.01116-0.35588
  -3  -3   463929.71 1086.80   1-0.79824-0.81136-0.57130-0.25272 0.19082 0.52708
  -3   3   460488.19 1203.42   1 0.10485-0.15649-0.96759-0.80295 0.22972 0.57512
  -3  -3   463560.48 1167.04   1 0.09472 0.08217-0.86102-0.54265 0.49966 0.83592
   3  -3  -318927.34  592.94   1 0.07272 0.29811 0.99734 0.88723 0.00390-0.35204
   3   3  -319147.66  561.15   1 0.03279 0.00907 0.90750 0.64420-0.41875-0.76480
  -3   3   318250.45  563.94   1 0.02114-0.20429 0.85510 0.96538-0.51801-0.16214
   3   3  -318696.52  492.84   1-0.79753-0.82029 0.59054 0.32683-0.12329-0.46935
   3  -3  -319356.07  545.38   1-0.79379-0.56731 0.47162 0.36215-0.38400-0.73959
  -3  -3   319583.30  602.63   1-0.79652-0.77525-0.56804-0.30464 0.20707 0.55333
  -3   3   319464.08  685.35   1 0.10651-0.12024-0.98866-0.87914 0.10575 0.46113
  -3  -3   319684.05  598.20   1 0.09921 0.12099-0.90692-0.64365 0.40945 0.75569
   3  -3  -317339.08  672.91   1 0.09003 0.31607-0.81394-0.92332 0.57392 0.21811
   3  -3  -273661.64 1251.77   1 0.08213 0.27305 0.98789 0.93305 0.13161-0.23420
   3   3  -272297.89 1148.56   1 0.04366-0.01437 0.94718 0.73905-0.31769-0.67349
  -3   3   273390.78 1230.63   1 0.03959-0.15141 0.93343 0.98842-0.35656 0.00918
   3   3  -277113.39 1181.38   1-0.77739-0.83460 0.62901 0.42036-0.00009-0.35598
   3  -3  -272243.69 1002.12   1-0.80381-0.61207 0.53290 0.47802-0.26438-0.62996
  -3   3   270021.14 1014.20   1-0.70593-0.89782 0.28251 0.33664-0.64949-0.28386
  -3  -3   271196.34 1063.83   1-0.79591-0.74024-0.56693-0.35872 0.21238 0.56863
  -3   3   274702.64 1221.20   1 0.10639-0.08583-0.99375-0.93944-0.03352 0.33178
  -3  -3   273588.96 1181.01   1 0.10326 0.15960-0.94983-0.74177 0.29519 0.65138
   3  -3  -270657.71 1419.12   1 0.09865 0.29059-0.90114-0.95516 0.42213 0.05668
   3  -3  -152757.33 1004.32   1 0.09029 0.24683 0.96165 0.96201 0.25897-0.11661
   3   3  -149037.25 1022.78   1 0.05549-0.03691 0.97881 0.82586-0.19708-0.56266
  -3   3   147708.60  959.93   1 0.05553-0.10107 0.97889 0.97866-0.19667 0.17889
   3   3  -151291.28 1001.29   1-0.73986-0.83156 0.65895 0.50549 0.13558-0.23016
   3  -3  -150506.36  844.96   1-0.79625-0.63908 0.59447 0.59476-0.11211-0.48767
  -3   3   148211.82  846.01   1-0.75634-0.91395 0.37317 0.37211-0.53729-0.16191
  -3  -3   152636.11  958.14   1-0.79652-0.70647-0.56805-0.41502 0.20702 0.57327
  -3   3   152254.64  998.53   1 0.10402-0.05366-0.97826-0.97915-0.17935 0.19589
  -3  -3   151599.94  998.56   1 0.10602 0.19688-0.98179-0.82884 0.15759 0.52369
   3  -3  -145552.32 1068.48   1 0.10413 0.26182-0.95942-0.95845 0.26203-0.11320
   3   3  -146754.03 1059.51   1 0.09165 0.00002-0.83008-0.98291 0.55005 0.18403
   3  -3   0159636.4 1890.64   1 0.09680 0.21917 0.92014 0.97566 0.37942-0.00599
   3   3   0157879.8 1889.22   1 0.06753-0.05920 0.99588 0.89808-0.06047-0.43582
  -3   3   0147290.8 1728.35   1 0.06832-0.05389 0.99636 0.94085-0.05087 0.33448
   3   3   0152278.5 1688.24   1-0.68396-0.81005 0.67569 0.57764 0.27501-0.10070
   3  -3   0159435.8 1744.96   1-0.76076-0.63818 0.64552 0.70108 0.06733-0.31812
  -3   3   0150589.0 1520.34   1-0.79094-0.91414 0.46134 0.40504-0.40195-0.01673
  -3  -3   0155593.4 1703.54   1 0.10661 0.23205-0.99429-0.89652 0.00134 0.37735
   3   3   0147560.2 1983.51   1 0.09864-0.02706-0.90099-0.99855 0.42245 0.04635
   3  -3   1 1484.71  176.27   1 0.10153 0.18945 0.86666 0.97745 0.48845 0.09323
   3   3   1 1335.82  174.00   1 0.07888-0.08231 0.99320 0.95053 0.08559-0.29949
   3   3   1 1303.29  140.39   1-0.61212-0.77278 0.67697 0.63424 0.40866 0.02305
   3  -3   1 1161.95  136.38   1-0.69168-0.60351 0.67446 0.78547 0.25819-0.13706
  -3   3  -1 1177.37  118.23   1-0.80401-0.89234 0.53887 0.42773-0.25132 0.14408
  -3  -3  -1 1259.38  130.97   1-0.80053-0.64170-0.57620-0.53354 0.16470 0.55095
  -3  -3  -1 1372.97  155.86   1 0.10439 0.26436-0.98099-0.93842-0.16354 0.22240
   3   3   1 1159.81  171.60   1 0.10340-0.05659-0.95133-0.99379 0.29029-0.09572
   3  -3   215686.34  593.16   1 0.10460 0.15822 0.80506 0.97105 0.58389 0.17891
   3   3   215330.89  613.89   1 0.08872-0.10684 0.96845 0.98098 0.23287-0.16203
  -3   3  -215171.47  474.23   1-0.79473-0.84832 0.59869 0.43246-0.09985 0.30549
  -3  -3  -215323.39  501.92   1-0.80280-0.60957-0.58242-0.59494 0.12763 0.52388
   3  -3   322621.85  692.04   1 0.10624 0.12542 0.73866 0.95985 0.66564 0.25087
   3   3   320093.38  661.61   1 0.09647-0.13326 0.92290 0.99055 0.37273-0.03221
  -3   3  -320805.98  587.35   1-0.76830-0.78720 0.63891 0.41740 0.03874 0.45394
  -3  -3  -321770.36  583.05   1-0.80404-0.57642-0.58918-0.65676 0.07989 0.48620
   3  -3   475983.72 1432.82   1 0.10671 0.09132 0.66986 0.94623 0.73477 0.31031
   3   3   482544.54 1362.89   1 0.10195-0.16224 0.86017 0.98308 0.49970 0.08497
  -3   3  -474838.09 1157.55   1-0.73301-0.71747 0.66222 0.38524 0.15542 0.58035
  -3  -3  -482714.86 1262.26   1-0.80300-0.54100-0.59560-0.71837 0.02099 0.43731
   3  -3   480350.00 1208.15   1 0.07557 0.05915 0.67174 0.94806 0.73692 0.31253
   3  -3   5 9341.82  468.29   1 0.10624 0.05640 0.60026 0.93182 0.79270 0.35850
   3   3   5 9179.93  531.96   1 0.10524-0.19323 0.78535 0.96346 0.61003 0.18545
  -3  -3  -510304.85  460.31   1-0.79809-0.50169-0.60052-0.77850-0.04917 0.37714
   3  -3   5 9432.47  415.47   1 0.06819 0.01724 0.60017 0.93165 0.79695 0.36293
   3  -3   6381037.9 6293.67   1 0.10501 0.02072 0.53086 0.91759 0.84092 0.39696
   3   3   6369870.5 6262.61   1 0.10662-0.22639 0.70294 0.93613 0.70321 0.26905
  -3   3  -6395743.3 6321.64   1-0.05363 0.02824-0.52749-0.91447-0.84786-0.40366
   3  -3   6354467.9 5759.23   1 0.06070-0.02475 0.52806 0.91469 0.84702 0.40337
   3   3   734996.99 1070.68   1 0.10642-0.26104 0.61650 0.90488 0.78012 0.33622
  -3   3  -736276.58 1012.01   1-0.10320 0.01351-0.46319-0.90491-0.88022-0.42538
  -3  -3  -733463.01 1023.70   1-0.76809-0.40294-0.59961-0.88798-0.22470 0.22164
  -3   3  -734319.37  901.96   1-0.07863 0.03755-0.45947-0.90170-0.88470-0.43071
   3  -3   734499.32  961.52   1 0.05319-0.06678 0.45615 0.89793 0.88831 0.43502
   3   3   731813.44  959.53   1 0.06780-0.30055 0.59643 0.88455 0.79979 0.35668
   3   3   814747.93  571.47   1 0.10496-0.29695 0.52864 0.87221 0.84232 0.38867
  -3   3  -816918.66  569.52   1-0.10087 0.05018-0.39563-0.89256-0.91285-0.44810
  -3   3  -815796.53  507.13   1-0.03578 0.11562-0.38160-0.88022-0.92363-0.46025
  -3   3  -815708.18  484.94   1-0.10110 0.04937-0.39438-0.89187-0.91336-0.44958
  -3  -3  -815365.37  442.03   1-0.06216 0.33738-0.50478-0.84926-0.86100-0.40610
   3   3   815280.53  511.61   1 0.05782-0.34504 0.50050 0.84378 0.86379 0.41106
  -3   3  -9  111.73  110.54   1-0.09812 0.08728-0.32907-0.88123-0.93919-0.46454
  -3  -3  -9  137.76  105.80   1-0.10256 0.33190-0.44321-0.84211-0.89053-0.42506
  -3   3  -9   65.35  105.65   1-0.10982 0.07595-0.32817-0.88200-0.93821-0.46507
  -3  -3  -9   91.79   74.44   1-0.08795 0.34589-0.43294-0.83267-0.89711-0.43243
  -3   3 -10 9343.89  421.32   1-0.09500 0.12476-0.26350-0.87086-0.95996-0.47542
  -3  -3 -10 8270.99  444.65   1-0.09933 0.36948-0.35695-0.81108-0.92882-0.45345
  -3   3 -10 8125.27  366.13   1-0.17658 0.04357-0.27696-0.88601-0.94451-0.46160
  -3  -3 -10 9289.53  442.42   1-0.08630 0.38278-0.34553-0.80112-0.93443-0.46008
  -3  -3 -10 8551.16  360.01   1-0.11135 0.35679-0.36340-0.81839-0.92495-0.45047
  -3   3 -11 2003.19  207.10   1-0.09155 0.16255-0.19875-0.86133-0.97576-0.48131
  -3  -3 -11 1490.41  185.60   1-0.09544 0.40773-0.27213-0.78147-0.95751-0.47228
  -3   3 -11 1512.61  179.57   1-0.23745 0.01727-0.22763-0.89206-0.94435-0.45158
  -3  -3 -11 1744.62  177.58   1-0.14416 0.35929-0.30220-0.81300-0.94227-0.45816
   3   4 -13   72.37  118.02   1-0.00449 0.27342 0.70741-0.13403-0.70678-0.95250
   3  -4 -13   74.15   74.94   1-0.69555-0.08508 0.26617-0.36888-0.66735-0.92557
  -3   4  13  141.42  141.25   1 0.08993-0.52306-0.81292-0.17718 0.57538 0.83366
  -3  -4  13  105.74  164.32   1 0.07725-0.20406-0.68809 0.15247 0.72149 0.96701
   3   4 -12 6331.57  352.52   1-0.00528 0.23833 0.70221-0.08397-0.71195-0.96754
   3   4 -12 6453.94  321.42   1-0.76740-0.52178 0.39725-0.38842-0.50327-0.75951
   3  -4 -12 6792.92  345.16   1-0.69271-0.11540 0.26181-0.31928-0.67201-0.94060
  -3   4  12 5761.42  397.83   1 0.09014-0.48830-0.81501-0.23447 0.57238 0.84058
  -3  -4  12 5959.71  394.08   1 0.07689-0.16988-0.68457 0.10081 0.72487 0.98029
   3  -4 -11  308.69  110.84   1 0.02820 0.56978 0.88800 0.36130-0.45897-0.73810
   3   4 -11  404.33  136.34   1-0.00545 0.20385 0.70106-0.02986-0.71308-0.97854
   3   4 -11  532.19  122.73   1-0.76959-0.55838 0.40233-0.32808-0.49583-0.76194
   3  -4 -11  409.19  100.32   1-0.69147-0.14855 0.25990-0.26593-0.67402-0.95247
  -3   4  11  336.41  133.33   1 0.09081-0.45308-0.82168-0.29634 0.56265 0.84077
   3  -4 -10  638.31  125.46   1 0.03062 0.53787 0.89849 0.42704-0.43791-0.72685
   3   4 -10  680.11  145.77   1-0.00493 0.17006 0.70450 0.02885-0.70967-0.98501
   3   4 -10  746.84  131.30   1-0.77346-0.59666 0.41161-0.26355-0.48199-0.75797
   3  -4 -10  625.46  109.34   1-0.69263-0.18410 0.26168-0.20890-0.67214-0.96044
  -3  -4  10  660.83  153.85   1-0.79670-0.97440-0.60112 0.07439-0.06256 0.21214
  -3   4  10  616.25  182.18   1 0.09198-0.41735-0.83340-0.36326 0.54495 0.83297
  -3  -4  10  620.71  155.60   1 0.07745-0.10023-0.69003-0.01499 0.71961 0.99485
   3  -4  -9132572.8 1487.15   1 0.03433 0.50724 0.91368 0.49748-0.40496-0.70371
   3   4  -9133080.9 1527.63   1-0.00362 0.13706 0.71314 0.09275-0.70100-0.98620
   3   4  -9127691.5 1325.07   1-0.77890-0.63628 0.42545-0.19461-0.46076-0.74650
   3  -4  -9127961.6 1584.35   1-0.69663-0.22249 0.26785-0.14748-0.66555-0.96371
  -3  -4   9116936.4 2505.68   1-0.80352-0.94698-0.59421 0.02606 0.03550 0.32021
  -3   4   9115970.3 2571.85   1 0.09368-0.38110-0.85049-0.43555 0.51757 0.81550
  -3  -4   9130857.0 1818.63   1 0.07850-0.06463-0.70029-0.08043 0.70952 0.99466
   3  -4  -875354.71 1848.44   1 0.03944 0.47808 0.93289 0.57202-0.35797-0.66649
   3   4  -874633.75 1743.04   1-0.00139 0.10498 0.72755 0.16243-0.68604-0.98111
   3   4  -873925.76 1665.99   1-0.78573-0.67754 0.44467-0.12013-0.42998-0.72560
   3  -4  -875102.32 1677.70   1-0.70391-0.26417 0.27929-0.08079-0.65307-0.96108
  -3  -4   878513.13 1790.71   1-0.80335-0.91253-0.58454-0.01961 0.11367 0.40853
  -3   4   878988.24 1889.76   1 0.09588-0.34487-0.87270-0.51314 0.47873 0.78596
  -3  -4   876925.29 1832.90   1 0.08016-0.02843-0.71651-0.15182 0.69295 0.98799
   3  -4  -715943.80  570.65   1 0.04595 0.45024 0.95430 0.64867-0.29526-0.61360
   3   4  -715097.25  501.56   1 0.00189 0.07397 0.74825 0.23840-0.66340-0.96834
   3   4  -716149.28  472.45   1-0.79320-0.71944 0.46942-0.04012-0.38789-0.69339
   3  -4  -714418.32  429.02   1-0.71488-0.30953 0.29709-0.00773-0.63298-0.95085
  -3  -4   715911.88  524.90   1-0.79960-0.87439-0.57412-0.06437 0.17607 0.48093
  -3   4   715248.24  757.70   1 0.09853-0.30765-0.89984-0.59548 0.42492 0.74212
  -3  -4   716410.25  614.42   1 0.08249 0.00844-0.73935-0.22985 0.66824 0.97318
   3  -4  -6 4038.66  308.25   1 0.05379 0.42374 0.97509 0.72474-0.21514-0.54331
   3   4  -6 3893.86  324.41   1 0.00642 0.04418 0.77555 0.32096-0.63125-0.94606
  -3   4   6 3549.36  280.84   1-0.03429-0.40470 0.48113 0.73169-0.87597-0.54848
   3   4  -6 4184.64  285.93   1-0.79993-0.76085 0.49938 0.04417-0.33274-0.64741
   3  -4  -6 3802.38  235.91   1-0.72976-0.35880 0.32254 0.07296-0.60283-0.93055
  -3  -4   6 4415.51  272.69   1-0.79440-0.83479-0.56431-0.10974 0.22465 0.53951
  -3   4   6 3884.18  278.28   1 0.10139-0.27045-0.92973-0.68044 0.35399 0.68106
  -3  -4   6 3731.47  292.73   1 0.08553 0.04602-0.76930-0.31498 0.63312 0.94798
   3  -4  -510510.25  425.29   1 0.06267 0.39833 0.99109 0.79612-0.11752-0.45553
   3   4  -5 9745.54  407.70   1 0.01236 0.01577 0.80940 0.41012-0.58711-0.91189
  -3   4   5 8847.14  395.23   1-0.01519-0.35099 0.63311 0.82849-0.77390-0.43635
   3   4  -5 9994.88  364.24   1-0.80387-0.79926 0.53441 0.13455-0.26110-0.58572
   3  -4  -5 9193.49  351.03   1-0.74817-0.41144 0.35672 0.16235-0.55944-0.89685
  -3  -4   5 9600.25  430.27   1-0.78921-0.79532-0.55605-0.15676 0.26066 0.58555
  -3   4   5 8926.75  469.86   1 0.10409-0.23322-0.95901-0.76482 0.26355 0.60053
  -3  -4   510013.40  438.28   1 0.08926 0.08410-0.80625-0.40697 0.58479 0.90956
   3  -4  -415758.34  581.21   1 0.07194 0.37321 0.99738 0.85762-0.00599-0.35380
   3   4  -416071.38  544.05   1 0.01982-0.01108 0.84856 0.50452-0.52872-0.86332
  -3   4   415486.13  502.67   1 0.00543-0.29595 0.76973 0.90985-0.63834-0.29081
   3   4  -416048.58  470.48   1-0.80178-0.83156 0.57228 0.22767-0.17210-0.50662
   3  -4  -416040.53  591.91   1-0.76917-0.46684 0.40134 0.26223-0.49728-0.84456
  -3  -4   415496.80  481.39   1-0.78490-0.75662-0.54977-0.20566 0.28578 0.62066
  -3   4   416271.07  556.34   1 0.10608-0.19668-0.98255-0.84356 0.15277 0.49970
  -3  -4   417077.10  561.01   1 0.09357 0.12296-0.84934-0.50525 0.51948 0.85416
   3  -4  -414546.58  550.91   1 0.08047 0.38228-0.71952-0.85834 0.68978 0.34218
   3  -4  -334783.39  859.14   1 0.08097 0.34779 0.99006 0.90560 0.11495-0.24275
   3   4  -335569.02  869.56   1 0.02887-0.03636 0.89095 0.60214-0.45316-0.79755
  -3   4   333832.17  831.94   1 0.02607-0.24081 0.87845 0.96318-0.47711-0.11953
   3   4  -335524.21  812.48   1-0.78978-0.85395 0.60984 0.32028-0.06575-0.41009
   3  -4  -333421.96  753.07   1-0.78943-0.52146 0.45625 0.37235-0.41064-0.76773
  -3  -4   333060.05  695.39   1-0.78213-0.71945-0.54592-0.25699 0.30036 0.64524
  -3   4   334536.82  783.78   1 0.10669-0.16150-0.99398-0.91010 0.02470 0.38161
  -3  -4   335918.20  822.98   1 0.09814 0.16157-0.89583-0.60701 0.43342 0.77809
   3  -4  -332033.00  825.31   1 0.09156 0.35902-0.82921-0.91294 0.55137 0.19396
   3  -4  -2 2112.78  209.82   1 0.08902 0.32145 0.96725 0.93798 0.23769-0.12978
  -3   4   2 1800.36  186.02   1 0.04482-0.18769 0.95085 0.98032-0.30636 0.06103
   3   4  -2 2135.31  206.25   1 0.03940-0.06014 0.93275 0.69909-0.35835-0.71249
   3   4  -2 1867.37  205.11   1-0.76393-0.86254 0.64289 0.40850 0.05565-0.29855
   3  -4  -2 2004.05  161.51   1-0.80278-0.56954 0.51953 0.49021-0.29260-0.65977
  -3   4   2 1890.72  170.61   1-0.67187-0.90528 0.23082 0.25918-0.70377-0.33658
  -3  -4   2 1709.60  150.76   1-0.78124-0.68417-0.54471-0.31096 0.30484 0.65970
  -3   4   2 1754.45  188.55   1 0.10536-0.12829-0.98780-0.95913-0.11463 0.25220
  -3  -4   2 2294.38  229.25   1 0.10241 0.20017-0.94057-0.70684 0.32379 0.67845
   3  -4  -2 1747.20  208.64   1 0.09988 0.33351-0.91389-0.94237 0.39348 0.02663
   3  -4  -1 5384.61  331.58   1 0.09562 0.29389 0.92969 0.95559 0.35571-0.02154
  -3   4   1 5054.52  326.04   1 0.06049-0.13762 0.98797 0.96221-0.14227 0.23496
   3   4  -1 5254.85  338.62   1 0.05108-0.08282 0.96856 0.79007-0.24347-0.60738
   3   4  -1 5387.30  333.56   1-0.72165-0.85465 0.66673 0.48773 0.18622-0.17799
   3  -4  -1 5248.00  257.74   1-0.79913-0.60039 0.58486 0.61086-0.13897-0.51610
  -3  -4   1 4251.81  247.22   1-0.78232-0.65084-0.54618-0.36760 0.29943 0.66428
  -3  -4   1 4350.41  300.62   1 0.10557 0.23785-0.97611-0.79751 0.18986 0.55443
   3  -4  -1 4594.43  330.63   1 0.10486 0.30398-0.96776-0.94114 0.22897-0.14779
   3  -4   051373.56 1061.44   1 0.10057 0.26439 0.88018 0.96135 0.46385 0.07679
  -3   4   049317.73 1015.19   1 0.07265-0.09105 0.99735 0.91629 0.00299 0.39001
   3   4   049594.79 1047.63   1 0.06326-0.10496 0.99182 0.86847-0.11080-0.48449
   3   4   049399.28  885.84   1-0.66298-0.83054 0.67778 0.55410 0.31790-0.05620
   3  -4   052996.32  884.04   1-0.76635-0.60229 0.64074 0.72191 0.04640-0.34069
  -3   4   051875.92  896.53   1-0.77419-0.93889 0.41341 0.33152-0.47928-0.09252
  -3  -4   052668.46  843.65   1-0.78520-0.61932-0.55018-0.42678 0.28416 0.65900
  -3  -4   054684.78 1043.58   1 0.10671 0.27357-0.99366-0.87024 0.03517 0.40966
   3  -4   043698.46 1075.58   1 0.10667 0.27125-0.99162-0.90988 0.07281-0.31389
   3   4   047955.62 1150.79   1 0.09539-0.07173-0.86776-0.99098 0.48773 0.11317
   3  -4   110904.57  452.58   1 0.10392 0.23330 0.82235 0.95872 0.55940 0.16254
   3   4   110856.54  475.06   1 0.07507-0.12760 0.99658 0.92835 0.03431-0.34909
   3  -4   111425.98  472.00   1-0.69643-0.56679 0.67357 0.81020 0.24754-0.14933
  -3   4  -111388.26  409.96   1-0.79991-0.92975 0.49928 0.36256-0.33294 0.06406
  -3  -4  -111039.89  393.57   1-0.78948-0.58922-0.55646-0.48824 0.25894 0.64376
  -3  -4  -111193.62  430.09   1 0.10506 0.30646-0.98578-0.91756-0.13114 0.25328
   3   4   110256.27  523.19   1 0.10109-0.10032-0.92658-0.99470 0.36223-0.02225
   3  -4   2  129.26   74.65   1 0.10588 0.20096 0.75930 0.95088 0.64206 0.23545
   3   4   2   81.24   89.99   1 0.08565-0.15139 0.97915 0.96611 0.18418-0.20904
  -3   4  -2  178.81   63.12   1-0.80221-0.89749 0.56955 0.37756-0.17902 0.22792
  -3  -4  -2  156.95   90.57   1-0.79453-0.55979-0.56453-0.55143 0.22365 0.61850
   3  -4   3 1391.74  181.18   1 0.10667 0.16718 0.69366 0.94043 0.71235 0.29601
   3   4   3 1167.28  151.18   1 0.09426-0.17712 0.93937 0.98143 0.32967-0.07356
  -3   4  -3 1263.15  153.82   1-0.78396-0.84451 0.61995 0.37280-0.03243 0.38445
  -3  -4  -3 1525.64  152.80   1-0.79946-0.53033-0.57381-0.61590 0.17773 0.58258
   3  -4   445364.57  987.94   1 0.10652 0.13258 0.62700 0.92896 0.77169 0.34560
   3   4   446380.82 1059.48   1 0.10058-0.20508 0.88008 0.97741 0.46404 0.05094
  -3   4  -439496.01  768.91   1-0.75287-0.77870 0.65131 0.34886 0.09470 0.52144
  -3  -4  -447738.21  904.94   1-0.80308-0.49957-0.58346-0.68073 0.12090 0.53574
   3  -4   445906.48  999.56   1 0.07140 0.09637 0.63126 0.93320 0.77226 0.34618
   3  -4   5   15.00  109.25   1 0.10561 0.09723 0.56036 0.91751 0.82148 0.38564
   3   4   5  119.18  107.06   1 0.10456-0.23537 0.80622 0.95875 0.58229 0.15934
  -3  -4  -5  117.26  104.58   1-0.80391-0.46601-0.59240-0.74475 0.05275 0.47768
   3  -4   5  -42.46   73.60   1 0.06431 0.05476 0.56278 0.91987 0.82409 0.38838
   3  -4   6  -84.34   74.12   1 0.10410 0.06126 0.49430 0.90663 0.86303 0.41743
   3   4   6   50.26   95.12   1 0.10645-0.26801 0.72270 0.93030 0.68291 0.25039
  -3  -4  -6   29.66   79.49   1-0.80003-0.42773-0.59932-0.80688-0.02750 0.40740
  -3   4  -6   66.89   71.18   1-0.06610-0.02572-0.49412-0.90660-0.86687-0.42119
   3  -4   6  -19.00  103.47   1 0.05717 0.01310 0.49420 0.90644 0.86746 0.42211
   3   4   744379.49  937.02   1 0.10657-0.30235 0.63366 0.89645 0.76622 0.32395
  -3   4  -745255.07  930.91   1-0.10212-0.02691-0.43001-0.89727-0.89702-0.44065
  -3  -4  -744983.63 1037.96   1-0.78899-0.38231-0.60246-0.86522-0.12053 0.32438
  -3   4  -749716.16  934.06   1-0.08955-0.01488-0.42830-0.89604-0.89918-0.44370
   3  -4   743549.98  834.71   1 0.05003-0.02855 0.42600 0.89340 0.90333 0.44835
   3   4   737620.60  974.76   1 0.06936-0.34038 0.61148 0.87399 0.78821 0.34680
   3   4   811865.14  584.90   1 0.10526-0.33811 0.54232 0.86030 0.83354 0.38152
  -3   4  -813787.23  497.00   1-0.09970 0.00985-0.36588-0.88836-0.92530-0.45903
  -3   4  -812163.42  462.38   1-0.06688 0.04303-0.35959-0.88378-0.93070-0.46590
  -3  -4  -812909.18  526.54   1-0.76745-0.32640-0.59945-0.91741-0.22729 0.22763
  -3   4  -812270.55  411.12   1-0.11068-0.00171-0.36546-0.88845-0.92422-0.45895
  -3  -4  -814020.70  431.66   1-0.05921 0.38185-0.51270-0.83168-0.85652-0.40310
   3   4   811639.99  459.62   1 0.05888-0.38538 0.51059 0.82826 0.85780 0.40676
  -3   4  -941510.02 1044.48   1-0.09691 0.04698-0.30264-0.88035-0.94816-0.47198
  -3  -4  -939404.73 1147.14   1-0.10289 0.37308-0.45313-0.82649-0.88548-0.42154
  -3   4  -935791.07 1202.22   1-0.14100 0.00329-0.30462-0.88403-0.94197-0.46741
  -3   4  -939281.30 1301.31   1-0.24735-0.10488-0.31409-0.89222-0.91660-0.43925
  -3  -4  -942788.65 1013.64   1-0.08560 0.38975-0.43967-0.81391-0.89406-0.43086
  -3   4 -10 7815.88  516.83   1-0.09380 0.08444-0.24024-0.87314-0.96616-0.48009
  -3  -4 -10 9812.27  439.68   1-0.09957 0.41074-0.36284-0.79143-0.92651-0.45267
  -3   4 -10 9308.98  422.40   1-0.20728-0.02861-0.25240-0.88702-0.94515-0.46082
  -3  -4 -10 9959.95  459.87   1-0.08326 0.42731-0.34774-0.77776-0.93388-0.46096
  -3  -4 -1010968.72  372.11   1-0.10955 0.40010-0.36889-0.79838-0.92299-0.44999
  -3   4 -11 1589.34  190.57   1-0.09040 0.12220-0.17847-0.86660-0.97978-0.48380
  -3  -4 -11  866.42  176.66   1-0.09553 0.44915-0.27400-0.75780-0.95697-0.47327
  -3   4 -11 1448.61  170.49   1-0.26734-0.05410-0.20244-0.89244-0.94209-0.44789
  -3  -4 -11 1178.85  196.49   1-0.13996 0.40498-0.30541-0.79065-0.94187-0.45919
   3   5 -12   15.58  121.02   1-0.00568 0.23076 0.69955-0.16740-0.71455-0.95850
   3   5 -12   87.25   88.01   1-0.77752-0.57311 0.42185-0.38956-0.46635-0.72095
   3  -5 -12   14.37   79.43   1-0.68726-0.06845 0.25352-0.30201-0.68073-0.95084
  -3   5  12  -90.37  130.60   1 0.09294-0.52693-0.84303-0.28813 0.52977 0.79957
  -3  -5  12  -51.07  121.49   1 0.07642-0.12907-0.67996 0.13083 0.72925 0.98296
   3   5 -1141766.73  985.28   1-0.00669 0.16113 0.69274-0.06366-0.72114-0.98487
   3  -5 -1144185.82  767.04   1-0.68568-0.10127 0.25115-0.24912-0.68319-0.96316
  -3   5  1136673.91 1412.00   1 0.09370-0.49161-0.85070-0.35100 0.51722 0.79693
  -3  -5  1144252.23  907.11   1 0.07644-0.09450-0.68020 0.07545 0.72902 0.99266
   3  -5 -1030241.95  871.05   1 0.03996 0.58882 0.93474 0.48893-0.35305-0.64360
   3   5 -1032379.27  872.19   1-0.00624 0.12728 0.69577-0.00536-0.71823-0.99185
   3   5 -1025654.13 1044.70   1-0.78352-0.64796 0.43817-0.26272-0.44056-0.71492
   3  -5 -1031303.02  797.08   1-0.68650-0.13648 0.25238-0.19263-0.68191-0.97173
  -3  -5  1031860.39  965.12   1-0.80386-0.94019-0.59273 0.10833 0.04967 0.32295
  -3   5  1034369.57 1027.31   1 0.09491-0.45638-0.86295-0.41864 0.49628 0.78514
  -3  -5  1030269.64  921.98   1 0.07693-0.05932-0.68496 0.01571 0.72449 0.99811
   3  -5  -9 9170.28  456.02   1 0.04412 0.55862 0.94865 0.55807-0.31321-0.61358
   3   5  -910318.56  460.11   1-0.00502 0.09412 0.70389 0.05801-0.71028-0.99386
   3   5  -9 9533.12  382.39   1-0.78842-0.68729 0.45300-0.19263-0.41613-0.70036
   3  -5  -9 9862.14  396.02   1-0.69017-0.17454 0.25793-0.13183-0.67611-0.97578
  -3  -5   910729.29  462.61   1-0.80225-0.90431-0.58070 0.06503 0.13842 0.42188
  -3   5   9 9226.48  671.68   1-0.28017-0.79673-0.33613 0.05494-0.89917-0.60182
  -3   5   910355.72  469.85   1 0.09664-0.42009-0.88048-0.49137 0.46411 0.76293
  -3  -5   9 9204.74  437.60   1 0.07794-0.02377-0.69478-0.04928 0.71498 0.99850
   3  -5  -811920.86  522.37   1 0.04964 0.52979 0.96480 0.62945-0.25824-0.56841
   3   5  -811866.29  500.49   1-0.00295 0.06189 0.71751 0.12690-0.69653-0.98998
   3   5  -812108.91  441.92   1-0.79409-0.72738 0.47277-0.11760-0.38195-0.67607
   3  -5  -812297.75  452.91   1-0.69716-0.21592 0.26868-0.06584-0.66465-0.97418
  -3  -5   811542.70  562.22   1-0.79622-0.86388-0.56749 0.02305 0.20970 0.50316
  -3   5   812550.60  524.46   1 0.09879-0.38337-0.90261-0.56870 0.41895 0.72773
  -3  -5   812265.62  530.36   1 0.07954 0.01237-0.71043-0.12010 0.69925 0.99268
   3  -5  -743900.63 1186.06   1 0.05647 0.50228 0.98081 0.70076-0.18657-0.50659
   3   5  -745566.56 1171.68   1 0.00013 0.03067 0.73726 0.20191-0.67560-0.97892
   3   5  -743092.95 1220.88   1-0.79956-0.76751 0.49731-0.03879-0.33671-0.63985
   3  -5  -745923.57 1122.67   1-0.70792-0.26107 0.28572 0.00645-0.64591-0.96529
  -3  -5   744233.61 1131.07   1-0.78835-0.82176-0.55475-0.01950 0.26597 0.56949
  -3   5   748827.39 1365.52   1 0.10123-0.34658-0.92807-0.64923 0.35838 0.67703
  -3  -5   746888.95 1254.37   1 0.08180 0.04917-0.73257-0.19742 0.67575 0.97908
   3  -5  -610470.75  498.19   1 0.06438 0.47592 0.99312 0.76850-0.09778-0.42766
   3   5  -610654.48  485.11   1 0.00439 0.00062 0.76348 0.28339-0.64581-0.95900
  -3   5   6 9429.34  462.24   1-0.03380-0.44575 0.48540 0.71046-0.87363-0.54456
   3   5  -610706.91  419.72   1-0.80344-0.80586 0.52690 0.04613-0.27721-0.59030
   3  -5  -610731.58  422.14   1-0.72277-0.31031 0.31038 0.08636-0.61746-0.94670
  -3  -5   610816.40  499.90   1-0.78018-0.77920-0.54329-0.06321 0.31006 0.62357
  -3   5   6 9755.18  506.09   1 0.10368-0.30958-0.95446-0.73083 0.27971 0.60830
  -3  -5   610634.09  487.03   1 0.08476 0.08668-0.76173-0.28176 0.64232 0.95556
   3  -5  -562147.29 1118.16   1 0.07280 0.44995 0.99733 0.82792 0.00488-0.33479
   3   5  -560180.70 1024.46   1 0.01000-0.02810 0.79625 0.37146-0.60487-0.92802
   3   5  -563087.50  958.85   1-0.80334-0.84012 0.56004 0.13451-0.20246-0.52545
   3  -5  -559129.71  933.90   1-0.74146-0.36324 0.34385 0.17506-0.57618-0.91509
  -3  -5   561293.66 1082.46   1-0.77290-0.73751-0.53384-0.10893 0.34298 0.66648
  -3   5   558196.09 1017.08   1 0.10569-0.27305-0.97762-0.80909 0.18189 0.52039
  -3  -5   566378.35 1080.94   1 0.08842 0.12468-0.79790-0.37298 0.59625 0.91942
   3  -5  -4 3674.93  285.42   1 0.08119 0.42389 0.98968 0.87559 0.11800-0.23159
   3   5  -4 4029.92  270.42   1 0.01708-0.05534 0.83461 0.46507-0.55057-0.88353
  -3   5   4 3658.37  238.72   1 0.00898-0.33394 0.79043 0.90506-0.61247-0.26332
   3   5  -4 2943.64  294.68   1-0.79619-0.86732 0.59465 0.22417-0.11161-0.44440
   3  -5  -4 3737.31  215.28   1-0.76332-0.41950 0.38809 0.27454-0.51645-0.86524
  -3  -5   4 3689.49  215.64   1-0.76726-0.69748-0.52686-0.15714 0.36567 0.69915
  -3   5   4 4267.37  293.39   1 0.10669-0.23747-0.99212-0.87867 0.06566 0.41416
  -3  -5   4 3914.45  269.84   1 0.09268 0.16350-0.84043-0.47070 0.53392 0.86700
   3  -5  -4 3447.26  286.88   1 0.08155 0.42479-0.73013-0.84331 0.67842 0.32920
   3  -5  -3 5788.82  336.92   1 0.08881 0.39714 0.96808 0.90920 0.23434-0.12502
  -3   5   3 4881.38  362.73   1 0.03053-0.27787 0.89810 0.95732-0.43871-0.07948
   3   5  -3 5005.91  305.65   1 0.02573-0.08103 0.87686 0.56254-0.48004-0.82278
   3   5  -3 4991.46  280.55   1-0.77840-0.88405 0.62774 0.31258-0.00475-0.34747
   3  -5  -3 5211.33  249.11   1-0.78528-0.47583 0.44332 0.38500-0.43218-0.79079
  -3  -5   3 4683.13  251.77   1-0.76389-0.65983-0.52280-0.20839 0.37834 0.72192
  -3   5   3 4923.03  322.98   1 0.10607-0.20354-0.99224-0.93400-0.06483 0.29359
  -3  -5   3 5351.86  301.38   1 0.09727 0.20212-0.88696-0.57248 0.45148 0.79461
   3  -5  -3 4191.50  326.82   1 0.09274 0.40163-0.84103-0.89912 0.53296 0.17395
   3  -5  -2 6120.33  350.49   1 0.09521 0.36925 0.93273 0.92908 0.34775-0.02141
  -3   5   2 5427.00  335.47   1 0.04948-0.22454 0.96437 0.96832-0.25986 0.10919
   3   5  -2 5153.82  331.65   1 0.03591-0.10518 0.91984 0.66076-0.39063-0.74318
   3   5  -2 6220.99  318.66   1-0.74699-0.88708 0.65502 0.39501 0.11375-0.23882
   3  -5  -2 6299.58  278.89   1-0.80136-0.52662 0.50821 0.50446-0.31547-0.68423
  -3   5   2 5359.16  281.71   1-0.62931-0.90439 0.17238 0.17491-0.75778-0.38919
  -3  -5   2 5619.35  279.12   1-0.76281-0.62434-0.52153-0.26228 0.38224 0.73579
  -3  -5   2 5950.89  351.86   1 0.10168 0.24086-0.93278-0.67340 0.34579 0.69893
   3  -5  -2 5077.68  338.54   1 0.10083 0.37588-0.92384-0.92666 0.36925 0.00088
   3  -5  -1107534.4 1538.46   1 0.10011 0.33985 0.88611 0.93759 0.45252 0.07362
  -3   5   198689.76 1473.30   1 0.06480-0.17479 0.99356 0.94215-0.09291 0.28597
   3   5  -1103963.4 1529.60   1 0.04734-0.12806 0.95841 0.75446-0.28143-0.64372
   3   5  -1106524.3 1427.94   1-0.70042-0.87489 0.67273 0.46811 0.23839-0.12421
   3  -5  -1108718.4 1397.93   1-0.80096-0.56073 0.57680 0.62838-0.16044-0.53917
  -3   5   197537.71 1286.42   1-0.69210-0.93260 0.26087 0.20863-0.67300-0.29449
  -3  -5   1103471.7 1389.36   1-0.76423-0.59135-0.52322-0.31914 0.37706 0.74057
  -3  -5   1106443.0 1452.86   1 0.10513 0.27883-0.97085-0.76659 0.21538 0.57843
   3  -5  -198711.17 1508.74   1 0.10538 0.34592-0.97376-0.92149 0.20167-0.17661
   3  -5   026751.33  716.49   1 0.10352 0.30881 0.83124 0.93799 0.54617 0.15746
   3   5   025373.82  699.48   1 0.05952-0.15026 0.98641 0.83762-0.15311-0.52517
   3   5   025527.09  639.26   1-0.63950-0.84854 0.67831 0.52901 0.36182-0.01067
   3  -5   027034.95  666.29   1-0.77017-0.56464 0.63706 0.74385 0.03117-0.35755
  -3   5   022362.03  611.53   1-0.74703-0.95323 0.35450 0.24704-0.56237-0.17410
  -3  -5   022661.51  536.46   1-0.76795-0.56058-0.52771-0.37869 0.36299 0.73643
  -3  -5   026775.93  692.96   1 0.10670 0.31499-0.99231-0.84325 0.06258 0.43554
   3  -5   182948.72 1295.42   1 0.10561 0.27659 0.77129 0.93325 0.62766 0.22920
   3   5   186379.31 1364.91   1 0.07162-0.17248 0.99738 0.90368-0.01010-0.39192
   3  -5   188873.16 1344.54   1-0.69830-0.52719 0.67319 0.83545 0.24328-0.15520
  -3   5  -181062.29 1286.88   1-0.78654-0.95829 0.44712 0.28441-0.42592-0.02781
  -3  -5  -186750.49 1209.66   1-0.77375-0.53198-0.53491-0.44107 0.33937 0.72280
  -3  -5  -186711.07 1337.08   1 0.10552 0.34836-0.98891-0.89505-0.10446 0.27843
   3  -5   2  128.27   89.13   1 0.10658 0.24300 0.70875 0.92593 0.69735 0.28913
   3   5   2  137.04   77.23   1 0.08275-0.19582 0.98659 0.94799 0.14061-0.25091
  -3   5  -2   58.10   62.14   1-0.80359-0.94046 0.52910 0.31149-0.27253 0.13600
  -3  -5  -2  101.81   70.19   1-0.78097-0.50481-0.54435-0.50569 0.30618 0.69959
   3  -5   315134.67  518.06   1 0.10664 0.20861 0.64514 0.91751 0.75658 0.33860
   3   5   315432.07  622.78   1 0.09210-0.22075 0.95248 0.96896 0.29031-0.11126
  -3   5  -313374.21  472.18   1-0.79712-0.89941 0.59185 0.31894-0.11960 0.29888
  -3  -5  -314587.57  457.82   1-0.78884-0.47828-0.55549-0.57200 0.26296 0.66636
   3  -5   315110.66  520.15   1 0.07369 0.17457 0.65342 0.92581 0.75339 0.33524
   3  -5   4 5290.69  318.15   1 0.10597 0.17349 0.58147 0.90902 0.80663 0.37890
   3   5   4 5084.90  365.72   1 0.09918-0.24791 0.89689 0.96858 0.43097 0.01951
  -3   5  -4 4009.54  279.79   1-0.77323-0.84074 0.63385 0.30578 0.01837 0.44681
  -3  -5  -4 4830.32  272.03   1-0.79627-0.45124-0.56759-0.63924 0.20924 0.62268
   3  -5   4 4926.60  281.71   1 0.06700 0.13336 0.58868 0.91623 0.80557 0.37779
   3  -5   5 3618.78  257.41   1 0.10472 0.13778 0.51829 0.90103 0.84876 0.41128
   3   5   5 3770.11  271.64   1 0.10385-0.27771 0.82408 0.95104 0.55686 0.13561
  -3   5  -5 3319.67  259.91   1-0.74088-0.77362 0.65842 0.27505 0.13254 0.57083
  -3  -5  -5 3679.31  244.14   1-0.80193-0.42251-0.57975-0.70659 0.14419 0.56763
  -3   5  -5 3827.55  229.90   1-0.05512-0.09055-0.52357-0.90629-0.85019-0.41282
   3  -5   5 3645.65  250.28   1 0.06024 0.09208 0.52364 0.90634 0.84980 0.41238
   3   5   611355.16  478.33   1 0.10623-0.30960 0.73960 0.92175 0.66460 0.23349
  -3   5  -611029.43  485.68   1-0.10299-0.10364-0.45651-0.89408-0.88373-0.43573
  -3  -5  -611075.94  497.63   1-0.80405-0.39025-0.59074-0.77267 0.06715 0.50067
  -3   5  -611090.13  429.80   1-0.07950-0.08064-0.45700-0.89498-0.88590-0.43873
   3  -5   611667.65  428.34   1 0.05346 0.05079 0.45875 0.89660 0.88695 0.43990
   3   5   734528.61  846.84   1 0.10665-0.34371 0.64799 0.88519 0.75413 0.31350
  -3   5  -736853.19  827.85   1-0.10085-0.06715-0.39505-0.88785-0.91310-0.45520
  -3  -5  -732179.72  747.68   1-0.80038-0.35218-0.59904-0.83619-0.02309 0.42041
  -3   5  -736371.34  781.56   1-0.10130-0.06814-0.39379-0.88703-0.91359-0.45664
   3   5   730758.20  847.97   1 0.07060-0.38053 0.62353 0.86043 0.77860 0.33889
   3   5   813204.03  521.44   1 0.10547-0.37935 0.55297 0.84536 0.82649 0.37610
  -3   5  -814172.42  517.00   1-0.09836-0.03031-0.33439-0.88242-0.93728-0.46948
  -3   5  -812306.45  459.23   1-0.10549-0.03706-0.33140-0.88116-0.93757-0.47134
  -3  -5  -811762.75  471.48   1-0.78783-0.30525-0.60248-0.89482-0.12779 0.32572
  -3   5  -812480.41  660.91   1-0.26825-0.20161-0.32815-0.87655-0.90573-0.43704
  -3  -5  -813122.16  438.19   1-0.05739 0.42518-0.51756-0.81103-0.85371-0.40178
   3   5   812161.54  460.82   1 0.05956-0.42609 0.51717 0.80922 0.85380 0.40446
  -3   5  -9  141.76  131.71   1-0.09555 0.00684-0.27451-0.87772-0.95682-0.47911
  -3  -5  -9  182.10   91.15   1-0.10309 0.41439-0.45976-0.80758-0.88203-0.41963
  -3   5  -9  114.25   84.85   1-0.17890-0.07609-0.27513-0.88011-0.94461-0.46862
  -3   5  -9  209.23  195.12   1-0.19502-0.09408-0.27837-0.88203-0.94046-0.46170
  -3  -5  -9  216.19   95.64   1-0.08431 0.43256-0.44338-0.79211-0.89235-0.43063
  -3   5 -10 4501.96  277.25   1-0.09246 0.04428-0.21518-0.87362-0.97218-0.48457
  -3  -5 -10 4094.75  303.43   1-0.09967 0.45216-0.36510-0.76815-0.92561-0.45330
  -3   5 -10 3987.02  285.56   1-0.24409-0.10671-0.22209-0.88246-0.94397-0.45812
  -3  -5 -10 4282.93  314.26   1-0.08292 0.46913-0.34799-0.75243-0.93382-0.46233
  -3  -5 -10 4274.56  245.64   1-0.10873 0.44243-0.37141-0.77539-0.92207-0.45056
  -3   5 -1148704.17 1130.49   1-0.08910 0.08198-0.15634-0.87001-0.98367-0.48616
  -3   5 -1133381.06 1142.56   1-0.30255-0.13080-0.17190-0.88749-0.93750-0.44187
  -3  -5 -1140792.68 1059.21   1-0.13836 0.44807-0.30664-0.76629-0.94171-0.46045
   3   6 -12  607.67  129.57   1-0.00725 0.15334 0.68895-0.14821-0.72476-0.97699
   3   6 -12  447.05  131.43   1-0.78679-0.62387 0.44788-0.38911-0.42467-0.67777
   3  -6 -12  535.93  129.71   1-0.68304-0.02276 0.24720-0.28252-0.68726-0.95898
  -3  -6  12  641.77  164.32   1 0.07619-0.08787-0.67777 0.15868 0.73131 0.98341
   3   6 -11 6253.38  343.63   1-0.00749 0.11880 0.68734-0.09455-0.72628-0.98840
   3   6 -11 4650.21  334.56   1-0.78901-0.66051 0.45488-0.32685-0.41296-0.67593
   3  -6 -11 6065.55  356.02   1-0.68121-0.05532 0.24449-0.22999-0.69004-0.97161
  -3   6  11 5364.43  381.48   1 0.09670-0.53059-0.88109-0.40723 0.46294 0.74339
  -3  -6  11 6903.17  400.62   1 0.07621-0.05331-0.67790 0.10341 0.73118 0.99320
   3   6 -1010348.18  445.27   1-0.00709 0.08490 0.69006-0.03656-0.72370-0.99571
   3   6 -10 9922.25  416.55   1-0.79225-0.69818 0.46594-0.26052-0.39398-0.66682
   3  -6 -10 9954.67  385.63   1-0.68177-0.09027 0.24532-0.17391-0.68919-0.98061
  -3  -6  10 7492.76  436.28   1-0.80186-0.89680-0.57957 0.14695 0.14526 0.41731
  -3   6  10 9746.90  482.32   1 0.09797-0.49475-0.89408-0.47543 0.43704 0.72744
  -3  -6  1010354.16  461.40   1 0.07667-0.01830-0.68241 0.04376 0.72693 0.99887
   3  -6  -9  755.89  166.79   1 0.05548 0.61153 0.97879 0.61382-0.19718-0.49924
   3   6  -9  878.26  149.70   1-0.00596 0.05172 0.69765 0.02628-0.71641-0.99831
   3   6  -9  530.20  117.54   1-0.79615-0.73667 0.48110-0.19125-0.36697-0.64864
   3  -6  -9 1056.05  143.36   1-0.68515-0.12802 0.25035-0.11386-0.68402-0.98521
  -3  -6   9  682.17  166.94   1-0.79427-0.85481-0.56409 0.10725 0.22567 0.50772
  -3   6   9 1062.83  246.15   1-0.21050-0.76860-0.28901 0.07654-0.93389-0.63512
  -3   6   9  830.93  154.98   1 0.09964-0.45871-0.91135-0.54777 0.39937 0.69966
  -3  -6   9 1244.50  162.20   1 0.07765 0.01736-0.69198-0.02083 0.71772 0.99963
   3  -6  -866265.07 1159.83   1 0.06124 0.58292 0.98910 0.67936-0.13384-0.44571
   3   6  -866817.73 1049.74   1-0.00399 0.01931 0.71068 0.09457-0.70350-0.99532
   3   6  -870137.22 1073.62   1-0.80024-0.77522 0.50113-0.11588-0.32934-0.62096
   3  -6  -868892.68  953.56   1-0.69188-0.16914 0.26054-0.04842-0.67335-0.98439
  -3  -6   870446.00 1089.55   1-0.78417-0.81048-0.54874 0.06730 0.28974 0.58188
  -3   6   872061.14 1760.44   1-0.28473-0.80852-0.33917-0.02888-0.89659-0.58775
  -3  -6   867969.10 1137.35   1 0.07921 0.05346-0.70717-0.09120 0.70258 0.99439
   3  -6  -7 2803.77  258.88   1 0.06810 0.55552 0.99623 0.74196-0.05359-0.37533
   3   6  -7 2581.07  242.66   1-0.00107-0.01206 0.72958 0.16874-0.68389-0.98558
  -3   6   7 2172.35  232.13   1-0.05347-0.54133 0.30019 0.55502-0.95237-0.63158
   3   6  -7 2554.79  196.45   1-0.80334-0.81280 0.52564-0.03603-0.27986-0.58142
   3  -6  -7 2621.52  194.86   1-0.70244-0.21409 0.27696 0.02325-0.65563-0.97653
  -3  -6   7 3208.55  232.10   1-0.77336-0.76527-0.53442 0.02645 0.34103 0.64315
  -3   6   7 2597.97  294.76   1 0.10369-0.38554-0.95458-0.70140 0.27931 0.59948
  -3  -6   7 2838.40  231.78   1 0.08141 0.09020-0.72872-0.16793 0.67994 0.98166
   3  -6  -6 1173.25  162.03   1 0.07555 0.52857 0.99631 0.79740 0.04058-0.29112
   3   6  -6 1246.68  162.67   1 0.00296-0.04233 0.75479 0.24921-0.65595-0.96752
  -3   6   6  903.86  146.25   1-0.03406-0.48754 0.48320 0.68275-0.87484-0.54419
   3   6  -6 1188.83  129.00   1-0.80378-0.84757 0.55389 0.04745-0.21710-0.52855
   3  -6  -6 1267.47  144.59   1-0.71720-0.26325 0.30096 0.10251-0.62851-0.95926
  -3  -6   6 1044.63  126.10   1-0.76334-0.72107-0.52215-0.01662 0.38035 0.69265
  -3   6   6  801.01  177.30   1 0.10552-0.34920-0.97549-0.77741 0.19306 0.52314
  -3  -6   6 1212.12  176.54   1 0.08430 0.12764-0.75715-0.25154 0.64777 0.95939
   3  -6  -5   -1.52   71.25   1 0.08300 0.50160 0.98604 0.84232 0.14433-0.19716
  -3   6   5   76.36   67.99   1-0.01156-0.43043 0.65914 0.80353-0.75192-0.41115
   3  -6  -5   72.25   58.77   1-0.73620-0.31664 0.33411 0.19091-0.58852-0.92913
  -3   6   5    8.71   93.76   1 0.10661-0.31352-0.99035-0.84734 0.08852 0.42860
  -3  -6   5  197.46  171.79   1 0.08788 0.16557-0.79254-0.34197 0.60344 0.92500
   3  -6  -5    7.49   71.78   1 0.06851 0.48777-0.60327-0.74584 0.79458 0.45363
   3  -6  -4143525.2 1850.20   1 0.08991 0.47413 0.96341 0.87489 0.25250-0.09874
   3   6  -4139275.2 1607.74   1 0.01503-0.09892 0.82382 0.42879-0.56664-0.89797
   3   6  -4134212.4 1659.63   1-0.78665-0.89927 0.61558 0.21950-0.04716-0.37832
   3  -6  -4135909.7 1335.59   1-0.75849-0.37318 0.37769 0.28972-0.53106-0.88136
  -3  -6   4133885.7 1300.90   1-0.74815-0.63704-0.50467-0.10947 0.43077 0.76301
  -3   6   4137232.6 1704.09   1 0.10640-0.27919-0.99381-0.90601-0.03191 0.31810
  -3  -6   4139705.1 1614.04   1 0.09208 0.20431-0.83435-0.43898 0.54347 0.87495
   3  -6  -331348.40  808.77   1 0.09578 0.44587 0.92843 0.89509 0.35893-0.00200
  -3   6   327504.97  716.91   1 0.03448-0.31544 0.91427 0.94798-0.40362-0.04274
   3   6  -330652.90  789.84   1 0.02331-0.12496 0.86557 0.52579-0.50023-0.84137
   3   6  -331412.34  713.39   1-0.76322-0.91022 0.64349 0.30256 0.05829-0.28273
   3  -6  -330024.26  621.15   1-0.78173-0.43079 0.43313 0.40039-0.44865-0.80876
  -3  -6   326908.43  596.42   1-0.74418-0.59866-0.50027-0.16024 0.44261 0.78480
  -3   6   330944.61  749.73   1 0.10443-0.24662-0.98125-0.94866-0.16195 0.19800
  -3  -6   331547.01  755.05   1 0.09665 0.24291-0.88055-0.54041 0.46398 0.80556
   3  -6  -326615.59  794.45   1 0.09358 0.44389-0.84947-0.88192 0.51925 0.15864
   3  -6  -230761.73  793.75   1 0.10033 0.41597 0.88332 0.90518 0.45788 0.08714
  -3   6   225911.51  693.79   1 0.05353-0.26195 0.97450 0.95289-0.21790 0.15285
   3   6  -228660.46  735.27   1 0.03311-0.14949 0.90880 0.62421-0.41591-0.76681
   3   6  -227415.49  656.74   1-0.72660-0.90797 0.66489 0.37932 0.17309-0.17801
   3  -6  -233439.62  745.73   1-0.79992-0.48367 0.49934 0.52116-0.33281-0.70317
  -3   6   227113.78  812.01   1-0.57797-0.89454 0.10814 0.08510-0.80885-0.43879
  -3  -6   227032.95  625.06   1-0.74301-0.56307-0.49898-0.21411 0.44603 0.79818
   3  -6  -225996.51  772.88   1 0.10152 0.41799-0.93107-0.90824 0.35042-0.01947
  -3  -6   228934.64  749.47   1 0.10111 0.28172-0.92681-0.64178 0.36164 0.71326
   3  -6  -129857.18  785.21   1 0.10355 0.38473 0.83078 0.90791 0.54686 0.16631
  -3   6   127278.42  725.38   1 0.06841-0.21268 0.99641 0.91945-0.04984 0.33070
   3   6  -129307.07  868.55   1 0.04425-0.17266 0.94906 0.71960-0.31194-0.67257
   3   6  -127326.35  688.35   1-0.67616-0.89210 0.67667 0.44642 0.29139-0.06960
   3  -6  -129296.92  731.61   1-0.80203-0.52029 0.57076 0.64791-0.17598-0.55632
  -3   6   129553.69  835.16   1-0.64365-0.92566 0.19145 0.11344-0.74098-0.36094
  -3  -6   126964.07  651.19   1-0.74468-0.53032-0.50082-0.27112 0.44115 0.80327
   3  -6  -124754.59  715.65   1 0.10572 0.38768-0.97789-0.89996 0.18040-0.19941
  -3  -6   129963.58  733.21   1 0.10475 0.31988-0.96647-0.73656 0.23442 0.59594
   3  -6   0 4944.60  351.14   1 0.10555 0.35243 0.77363 0.90598 0.62477 0.23447
   3   6   0 4763.92  290.24   1 0.05632-0.19496 0.98051 0.80618-0.18821-0.55861
   3   6   0 4238.27  292.97   1-0.61353-0.86404 0.67708 0.50216 0.40635 0.03546
   3  -6   0 5065.68  275.05   1-0.77226-0.52526 0.63489 0.76730 0.02248-0.36788
  -3   6   0 4076.44  246.75   1-0.70663-0.95424 0.28364 0.15059-0.64823-0.25835
  -3  -6   0 4439.75  231.80   1-0.74908-0.50030-0.50571-0.33118 0.42793 0.80001
  -3  -6   0 5167.76  294.25   1 0.10663 0.35635-0.99077-0.81606 0.08358 0.45501
   3  -6   1 5626.82  323.59   1 0.10653 0.31886 0.71422 0.90181 0.69175 0.29165
   3   6   1 5960.61  348.93   1 0.06856-0.21704 0.99649 0.87723-0.04803-0.42818
   3  -6   1 6364.09  352.89   1-0.69681-0.48423 0.67349 0.86137 0.24667-0.15342
  -3   6  -1 5131.08  324.41   1-0.75974-0.97303 0.38034 0.19207-0.52737-0.12772
  -3  -6  -1 5984.52  311.30   1-0.75590-0.47271-0.51346-0.39409 0.40614 0.78818
  -3  -6  -1 5691.35  324.26   1 0.10583 0.39010-0.99085-0.87134-0.08374 0.29762
   3  -6   217036.50  614.88   1 0.10668 0.28455 0.65388 0.89665 0.74903 0.33918
   3   6   217514.57  633.31   1 0.08010-0.23995 0.99149 0.92731 0.10261-0.28723
  -3   6  -215265.61  533.88   1-0.79413-0.97294 0.47292 0.22937-0.38170 0.02779
  -3  -6  -218205.18  506.29   1-0.76467-0.44706-0.52375-0.45954 0.37543 0.76743
   3  -6   218209.83  571.05   1 0.07501 0.25181 0.66632 0.90916 0.74188 0.33166
   3  -6   3 4976.76  300.05   1 0.10615 0.24957 0.59349 0.89144 0.79781 0.37820
   3   6   3 5113.41  364.08   1 0.09009-0.26432 0.96258 0.95360 0.25556-0.14411
  -3   6  -3 3577.64  282.16   1-0.80392-0.94771 0.55069 0.25221-0.22456 0.19552
  -3  -6  -3 4683.25  254.08   1-0.77469-0.42263-0.53611-0.52701 0.33531 0.73731
   3  -6   3 4528.83  271.42   1 0.06874 0.21102 0.60550 0.90350 0.79286 0.37301
   3  -6   4 7127.08  377.59   1 0.10507 0.21404 0.53353 0.88667 0.83922 0.40986
   3   6   4 7925.09  451.91   1 0.09785-0.29072 0.91065 0.95677 0.40140-0.00841
  -3   6  -4 6050.67  386.49   1-0.79137-0.90037 0.60658 0.25291-0.07600 0.35406
  -3  -6  -4 7514.32  331.35   1-0.78504-0.39859-0.54996-0.59604 0.28504 0.69703
  -3   6  -4 6900.67  300.15   1-0.04622-0.15746-0.54682-0.89979-0.83597-0.40690
   3  -6   4 7470.32  361.87   1 0.06238 0.17014 0.54422 0.89737 0.83661 0.40713
   3   6   5  746.66  134.34   1 0.10314-0.31989 0.83914 0.94051 0.53404 0.11444
  -3   6  -5  954.73  150.50   1-0.10354-0.18005-0.47462-0.88251-0.87407-0.43445
  -3   6  -5  613.02  119.12   1-0.76506-0.83927 0.64190 0.23291 0.05136 0.49128
  -3  -6  -5  896.39  123.87   1-0.79449-0.37356-0.56446-0.66569 0.22395 0.64599
  -3   6  -5  968.61  120.99   1-0.07143-0.14837-0.47951-0.88774-0.87462-0.43576
   3  -6   5  580.53  118.85   1 0.05599 0.12923 0.48291 0.89122 0.87387 0.43476
   3   6   6 7304.12  420.55   1 0.10599-0.35130 0.75368 0.91025 0.64863 0.21915
  -3   6  -6 8361.61  435.31   1-0.10163-0.14379-0.41617-0.87929-0.90358-0.45405
  -3  -6  -6 7251.65  345.89   1-0.80150-0.34618-0.57861-0.73501 0.15097 0.58300
  -3   6  -6 8362.07  363.54   1-0.09376-0.13641-0.41605-0.87954-0.90449-0.45584
   3  -6   6 6448.73  319.90   1 0.04959 0.08831 0.42182 0.88529 0.90531 0.45657
   3   6   7 8396.56  420.22   1 0.10670-0.38513 0.65930 0.87090 0.74427 0.30526
  -3   6  -7 8283.11  396.17   1-0.09939-0.10720-0.35842-0.87676-0.92825-0.46882
  -3   6  -7 7512.96  421.07   1-0.07013-0.07757-0.35725-0.87738-0.93137-0.47348
  -3  -6  -7 8083.00  370.33   1-0.80404-0.31433-0.59100-0.80250 0.06499 0.50712
  -3   6  -7 8855.26  523.65   1-0.27423-0.28343-0.33217-0.85082-0.90247-0.44245
  -3   6  -7 8319.21  338.41   1-0.11379-0.12214-0.35589-0.87463-0.92757-0.46913
   3   6   7 8335.00  408.85   1 0.07150-0.42103 0.63223 0.84352 0.77146 0.33345
   3   6   810987.85  534.38   1 0.10561-0.42066 0.56029 0.82708 0.82153 0.37277
  -3   6  -812674.18  502.48   1-0.09685-0.07031-0.30127-0.87484-0.94860-0.47927
  -3   6  -810952.77  551.64   1-0.15307-0.12612-0.29533-0.87068-0.94305-0.47539
  -3  -6  -812566.69  511.35   1-0.79934-0.27523-0.59981-0.86655-0.03576 0.41633
  -3   6  -812482.49  695.17   1-0.21561-0.19050-0.29250-0.86642-0.93163-0.46154
  -3  -6  -812779.72  454.91   1-0.05674 0.46734-0.51928-0.78725-0.85271-0.40226
   3   6   811616.74  534.29   1 0.05982-0.46723 0.51966 0.78610 0.85227 0.40463
  -3   6  -9  638.75  179.28   1-0.09404-0.03315-0.24469-0.87345-0.96502-0.48578
  -3  -6  -9  376.84  111.95   1-0.10319 0.45581-0.46267-0.78495-0.88050-0.41962
  -3   6  -9  383.28  106.35   1-0.22463-0.16331-0.23824-0.86880-0.94487-0.46745
  -3   6  -9  353.07  160.20   1-0.14651-0.08709-0.24469-0.87387-0.95846-0.47829
  -3  -6  -9  249.40   88.00   1-0.08411 0.47427-0.44395-0.76718-0.89209-0.43184
  -3   6 -1024837.72  796.95   1-0.09097 0.00426-0.18845-0.87243-0.97785-0.48871
  -3  -6 -1021887.39  781.67   1-0.09959 0.49375-0.36319-0.74070-0.92637-0.45559
  -3  -6 -1018720.71 1105.46   1-0.08509 0.50846-0.34641-0.72527-0.93421-0.46415
  -3  -6 -1024111.28  699.05   1-0.10893 0.48375-0.37080-0.74929-0.92229-0.45226
  -3   6 -11 1714.16  195.03   1-0.08765 0.04152-0.13256-0.87174-0.98729-0.48820
  -3  -6 -11 1735.25  208.36   1-0.13919 0.48873-0.30600-0.74008-0.94179-0.46196
   3   7 -1251043.96 1040.59   1-0.00766 0.11141 0.68620-0.17645-0.72736-0.97798
   3   7 -1248002.12 1475.43   1-0.79464-0.67321 0.47493-0.38763-0.37811-0.62969
   3  -7 -1249177.80  915.91   1-0.68007 0.02170 0.24279-0.26137-0.69177-0.96499
  -3  -7  1247491.52 1519.03   1 0.07619-0.04645-0.67780 0.18431 0.73128 0.98176
   3   7 -1113571.87  521.80   1-0.00790 0.07685 0.68453-0.12285-0.72893-0.98944
   3   7 -1111734.04  544.96   1-0.79648-0.70955 0.48249-0.32611-0.36444-0.62463
   3  -7 -1112183.45  454.08   1-0.67806-0.01067 0.23983-0.20908-0.69477-0.97784
  -3  -7  1111945.54  584.48   1 0.07621-0.01189-0.67793 0.12904 0.73116 0.99156
   3   7 -10 5354.95  310.18   1-0.00753 0.04292 0.68706-0.06505-0.72655-0.99695
   3   7 -10 5551.28  312.60   1-0.79896-0.74651 0.49416-0.25910-0.34270-0.61284
   3  -7 -10 4766.36  249.84   1-0.67843-0.04543 0.24038-0.15329-0.69422-0.98713
  -3  -7  10 4488.00  424.07   1-0.79431-0.84773-0.56416 0.18798 0.22533 0.49598
  -3   7  10 4114.70  393.46   1 0.10096-0.53336-0.92524-0.53211 0.36569 0.65755
  -3  -7  10 4918.38  306.72   1 0.07666 0.02310-0.68235 0.06948 0.72699 0.99731
   3   7  -9  372.05  153.90   1-0.00646 0.00969 0.69430-0.00255-0.71965-0.99994
   3  -7  -9  383.88  113.17   1-0.68164-0.08302 0.24511-0.09330-0.68940-0.99216
  -3  -7   9  266.70  101.50   1-0.78269-0.80190-0.54668 0.15015 0.29752 0.57827
  -3   7   9  294.83  158.86   1-0.14742-0.74704-0.24533 0.09470-0.95816-0.65798
  -3   7   9  231.01  120.83   1 0.10248-0.49730-0.94132-0.60339 0.32157 0.62338
  -3  -7   9  276.65  115.35   1 0.07762 0.05875-0.69173 0.00506 0.71797 0.99825
   3  -7  -8 6111.20  385.97   1 0.07417 0.63750 0.99699 0.71326 0.02254-0.29127
   3   7  -8 6802.06  374.09   1-0.00459-0.02280 0.70678 0.06519-0.70740-0.99761
   3   7  -8 6141.28  343.58   1-0.80364-0.82013 0.52985-0.11272-0.27093-0.56095
   3  -7  -8 6080.00  333.32   1-0.68815-0.12391 0.25486-0.02853-0.67932-0.99188
  -3  -7   8 7634.42  378.32   1-0.76975-0.75456-0.52991 0.11174 0.35589 0.64663
  -3   7   8 7348.19  566.88   1-0.21950-0.78481-0.29516-0.01039-0.92989-0.61963
  -3   7   8 5847.88  444.39   1 0.10412-0.46113-0.95928-0.67646 0.26253 0.57424
  -3  -7   8 6460.70  364.82   1 0.07915 0.09482-0.70659-0.06498 0.70317 0.99337
   3  -7  -7 7747.36  392.63   1 0.08035 0.60926 0.99109 0.76256 0.10615-0.21745
   3   7  -7 8330.99  380.18   1-0.00179-0.05431 0.72496 0.13863-0.68878-0.98885
   3   7  -7 8241.58  337.19   1-0.80380-0.85460 0.55340-0.03394-0.21825-0.51816
   3  -7  -7 9131.54  365.81   1-0.69854-0.16870 0.27083 0.04268-0.66233-0.98474
  -3  -7   7 8205.74  369.25   1-0.75722-0.70790-0.51498 0.07133 0.40174 0.70269
  -3   7   7 7577.61  652.35   1-0.27617-0.80718-0.33346-0.10395-0.90140-0.58107
  -3   7   7 7619.89  397.21   1 0.10563-0.42506-0.97678-0.74916 0.18634 0.50800
  -3  -7   7 8390.34  419.15   1 0.08130 0.13152-0.72765-0.14122 0.68110 0.98120
   3  -7  -6136553.7 3125.28   1 0.08665 0.58119 0.97603 0.80269 0.19961-0.13373
   3   7  -6135965.7 2908.51   1 0.00206-0.08476 0.74925 0.21819-0.66227-0.97221
  -3   7   6112284.1 2520.67   1-0.03529-0.53030 0.47251 0.64656-0.88061-0.54838
   3   7  -6138428.7 2820.78   1-0.80030-0.88559 0.57996 0.04795-0.15212-0.46197
   3  -7  -6142251.4 2854.92   1-0.71321-0.21776 0.29433 0.12144-0.63615-0.96841
  -3  -7   6130985.9 2800.13   1-0.74574-0.66200-0.50200 0.02915 0.43801 0.74893
  -3  -7   6135447.5 2862.54   1 0.08413 0.16889-0.75543-0.22418 0.64979 0.95980
   3  -7  -511740.60  538.38   1 0.09253 0.55284 0.95012 0.83205 0.29782-0.04525
   3   7  -511535.39  452.13   1 0.00714-0.11399 0.77976 0.30396-0.62602-0.94583
  -3   7   5 9739.76  462.59   1-0.01073-0.47113 0.66499 0.78390-0.74676-0.40438
   3   7  -512443.24  451.98   1-0.79089-0.91046 0.60760 0.13060-0.07281-0.39242
   3  -7  -511130.02  372.48   1-0.73228-0.27122 0.32701 0.20937-0.59735-0.93946
  -3  -7   511888.05  415.83   1-0.73621-0.61805-0.49159-0.01560 0.46510 0.78597
  -3   7   511606.51  506.40   1 0.10651-0.35505-0.99416-0.87680-0.01733 0.32427
  -3  -7   511757.29  486.13   1 0.08763 0.20674-0.79006-0.31384 0.60672 0.92669
   3  -7  -5 8695.94  497.66   1 0.06814 0.52882-0.59970-0.71662 0.79731 0.45474
   3  -7  -480135.06 1682.35   1 0.09749 0.52348 0.91400 0.85104 0.39381 0.04103
   3   7  -477922.95 1625.15   1 0.01360-0.14188 0.81613 0.39559-0.57770-0.90739
  -3   7   469062.54 1498.53   1 0.01465-0.41120 0.82180 0.88534-0.56957-0.21698
   3   7  -469748.53 1669.50   1-0.77279-0.92688 0.63433 0.21265 0.02025-0.30928
   3  -7  -478619.58 1506.14   1-0.75494-0.32813 0.37029 0.30789-0.54123-0.89304
  -3  -7   471585.96 1614.61   1-0.72915-0.57658-0.48405-0.06323 0.48375 0.81458
  -3   7   484674.66 1726.25   1 0.10491-0.32211-0.98470-0.92255-0.13909 0.21245
  -3  -7   483830.42 1698.32   1 0.09175 0.24541-0.83107-0.41005 0.54854 0.87842
   3  -7  -467288.90 1770.78   1 0.08245 0.50854-0.73897-0.80086 0.66867 0.31621
   3  -7  -3 5825.81  339.14   1 0.10136 0.49289 0.86930 0.86161 0.48377 0.12116
  -3   7   3 4825.51  304.98   1 0.03788-0.35351 0.92723 0.93537-0.37255-0.00999
   3   7  -3 5711.16  348.48   1 0.02154-0.16826 0.85703 0.49175-0.51481-0.85432
   3   7  -3 5697.31  314.24   1-0.74382-0.93229 0.65684 0.29029 0.12364-0.21575
   3  -7  -3 5911.63  275.62   1-0.77907-0.38664 0.42590 0.41874-0.46005-0.82168
  -3  -7   3 5646.94  278.57   1-0.72491-0.53792-0.47958-0.11393 0.49446 0.83526
  -3  -7   3 5866.48  352.85   1 0.09626 0.28395-0.87666-0.51087 0.47136 0.81140
   3  -7  -3 4878.89  346.48   1 0.09406 0.48624-0.85435-0.86095 0.51109 0.14942
   3  -7  -266582.49 1187.98   1 0.10408 0.46117 0.81871 0.86622 0.56468 0.19227
  -3   7   258880.26 1065.35   1 0.05694-0.30005 0.98174 0.93461-0.18146 0.19095
   3   7  -266113.89 1084.73   1 0.03098-0.19314 0.90000 0.58990-0.43477-0.78403
   3   7  -266270.81 1196.93   1-0.70246-0.92530 0.67227 0.36108 0.23364-0.11585
   3  -7  -271308.17  974.41   1-0.79878-0.44103 0.49325 0.54063-0.34444-0.71638
  -3   7   264772.26 1223.35   1-0.51711-0.87521 0.03835-0.01051-0.85505-0.48361
  -3  -7   266544.02  964.54   1-0.72378-0.50238-0.47840-0.16807 0.49726 0.84815
   3  -7  -257198.10 1138.88   1 0.10196 0.45986-0.93582-0.88733 0.33739-0.03402
  -3  -7   262740.08 1032.06   1 0.10074 0.32277-0.92284-0.61215 0.37176 0.72186
   3  -7  -1  601.37  128.53   1 0.10577 0.42855 0.76437 0.86711 0.63603 0.25389
  -3   7   1  629.95  119.85   1 0.07137-0.25121 0.99736 0.89485-0.01326 0.36895
   3   7  -1  675.18  114.27   1 0.04181-0.21661 0.94110 0.68611-0.33552-0.69449
   3   7  -1  874.12  124.33   1-0.64886-0.90627 0.67830 0.42243 0.34478-0.01460
   3  -7  -1  608.41   88.44   1-0.80255-0.47932 0.56713 0.66986-0.18510-0.56703
  -3   7   1  523.19  104.16   1-0.58194-0.90561 0.11291 0.00905-0.80534-0.42401
  -3  -7   1  613.18  106.21   1-0.72550-0.46967-0.48020-0.22487 0.49300 0.85372
   3  -7  -1  622.95  115.11   1 0.10593 0.42932-0.98052-0.87694 0.16535-0.21598
  -3  -7   1  603.81  129.31   1 0.10447 0.36102-0.96329-0.70773 0.24726 0.60726
   3  -7   0  156.02   87.45   1 0.10658 0.39481 0.70841 0.86640 0.69770 0.30571
   3   7   0  254.35  105.76   1 0.05369-0.23909 0.97486 0.77500-0.21624-0.58497
   3  -7   0  333.10   91.66   1-0.77261-0.48402 0.63453 0.79253 0.02103-0.37094
  -3   7   0  171.79   83.59   1-0.64962-0.93873 0.19957 0.04075-0.73359-0.34221
  -3  -7   0  153.06   75.54   1-0.73028-0.44003-0.48525-0.28509 0.48083 0.85152
  -3  -7   0  216.43   91.01   1 0.10656 0.39771-0.98944-0.78908 0.09825 0.46815
   3  -7   1 1518.83  177.03   1 0.10667 0.36045 0.65180 0.86498 0.75084 0.34910
   3   7   1 1313.59  180.32   1 0.06596-0.26113 0.99466 0.84986-0.07925-0.45774
   3  -7   1 1518.63  197.24   1-0.69116-0.43711 0.67455 0.88806 0.25933-0.14237
  -3   7  -1 1297.77  160.03   1-0.71432-0.96903 0.29617 0.08230-0.63405-0.23280
  -3  -7  -1 1412.12  129.75   1-0.73778-0.41312-0.49329-0.34829 0.46079 0.84144
   3  -7   1 1433.03  155.53   1 0.07531 0.32802 0.66922 0.88253 0.73922 0.33694
  -3  -7  -1 1320.79  156.27   1 0.10602 0.43171-0.99195-0.84680-0.06913 0.31070
   3  -7   2  308.31   92.07   1 0.10617 0.32550 0.59524 0.86360 0.79649 0.38500
   3   7   2  527.41  109.92   1 0.07778-0.28375 0.99447 0.90473 0.07047-0.31769
  -3   7  -2  255.32   70.82   1-0.76707-0.98744 0.39650 0.12740-0.50436-0.09333
  -3  -7  -2  280.16   74.37   1-0.74758-0.38850-0.50404-0.41421 0.43249 0.82309
   3  -7   2  357.28  107.68   1 0.06948 0.28767 0.61263 0.88109 0.78730 0.37539
   3  -7   3  -24.27   78.59   1 0.10519 0.29007 0.53907 0.86262 0.83566 0.41442
   3   7   3   65.50   80.07   1 0.08826-0.30762 0.97026 0.93571 0.22537-0.17262
  -3   7  -3   50.06   60.16   1-0.79814-0.98355 0.49007 0.16598-0.35042 0.07124
  -3  -7  -3  -20.22   55.27   1-0.75909-0.36558-0.51714-0.48248 0.39539 0.79596
   3   7   417542.90  593.89   1 0.09662-0.33341 0.92168 0.94221 0.37571-0.03245
  -3   7  -413938.83  553.10   1-0.80299-0.95379 0.56346 0.18407-0.19415 0.23747
  -3  -7  -417653.30  497.29   1-0.77151-0.34356-0.53209-0.55255 0.34877 0.75936
  -3   7  -417973.15  499.36   1-0.06600-0.21876-0.49438-0.87285-0.86673-0.43618
   3  -7   417407.44  538.07   1 0.05757 0.20673 0.49809 0.87685 0.86521 0.43403
   3   7   520734.01  741.53   1 0.10248-0.36201 0.85136 0.92716 0.51446 0.09650
  -3   7  -519180.41  707.37   1-0.10207-0.22009-0.42861-0.86204-0.89770-0.45654
  -3   7  -514652.45  629.98   1-0.78758-0.90353 0.61397 0.17938-0.05245 0.38916
  -3  -7  -521077.49  698.54   1-0.78378-0.32144-0.54820-0.62384 0.29180 0.71238
  -3   7  -519464.50  618.71   1-0.08865-0.20710-0.43092-0.86465-0.89802-0.45768
   3  -7   519497.18  672.72   1 0.05157 0.16621 0.44074 0.87466 0.89614 0.45533
   3   7   620303.81  710.46   1 0.10576-0.39300 0.76479 0.89577 0.63553 0.20768
  -3   7  -621720.50  697.29   1-0.10004-0.18370-0.37419-0.86286-0.92193-0.47087
  -3   7  -618993.76  563.40   1-0.03509-0.11839-0.38209-0.87257-0.92345-0.47391
  -3  -7  -621287.05  595.01   1-0.79455-0.29772-0.56457-0.69537 0.22344 0.65407
  -3   7  -622020.89  869.03   1-0.26910-0.35414-0.32873-0.81764-0.90527-0.45392
  -3   7  -621574.75  558.93   1-0.10879-0.19295-0.37122-0.86021-0.92214-0.47202
   3   7   714569.44  614.52   1 0.10671-0.42657 0.66733 0.85335 0.73707 0.29970
  -3   7  -715688.54  572.37   1-0.09773-0.14705-0.32023-0.86412-0.94228-0.48132
  -3   7  -714524.47  513.09   1-0.13148-0.18040-0.31188-0.85758-0.94097-0.48166
  -3  -7  -715002.78  593.88   1-0.80204-0.27081-0.58006-0.76604 0.14233 0.58295
  -3   7  -714503.85  984.55   1-0.22189-0.27262-0.29680-0.84097-0.92880-0.46737
   3   7   713676.41  568.93   1 0.07201-0.46192 0.63713 0.82280 0.76738 0.33107
   3   7   8 2423.18  224.03   1 0.10568-0.46205 0.56388 0.80508 0.81906 0.37194
  -3   7  -8 2048.91  194.60   1-0.09516-0.11013-0.26668-0.86575-0.95907-0.48819
  -3   7  -8 1783.85  205.24   1-0.21156-0.22610-0.24893-0.84985-0.94513-0.47605
  -3  -7  -8 2027.13  188.97   1-0.80380-0.23819-0.59305-0.83413 0.04675 0.49748
  -3   7  -8 1905.43  266.95   1-0.16636-0.18278-0.25854-0.85798-0.95156-0.48006
  -3  -7  -8 2134.80  183.15   1-0.05732 0.50827-0.51774-0.76020-0.85361-0.40464
   3   7   8 2155.17  207.82   1 0.05957-0.50887 0.51729 0.75812 0.85373 0.40778
  -3   7  -9    4.31  105.78   1-0.09236-0.07298-0.21333-0.86763-0.97260-0.49182
  -3  -7  -9   75.82   82.25   1-0.10314 0.49736-0.46132-0.75806-0.88121-0.42186
  -3  -7  -9  102.79   90.43   1-0.03419 0.56647-0.38272-0.68079-0.92322-0.46436
  -3   7  -9   77.54  150.04   1-0.10140-0.08351-0.21289-0.86759-0.97180-0.49021
  -3  -7  -9   14.76   98.00   1-0.08505 0.51484-0.44124-0.73896-0.89334-0.43458
  -3   7 -1017054.54  593.79   1-0.08932-0.03560-0.16013-0.86966-0.98304-0.49236
  -3  -7 -1018604.35  613.70   1-0.08959 0.54544-0.34312-0.69641-0.93500-0.46637
  -3  -7 -1016569.64  549.17   1-0.11020 0.52399-0.36693-0.71991-0.92369-0.45514
   3   8 -11   12.20   92.74   1-0.00797 0.03526 0.68410-0.14878-0.72934-0.98824
   3   8 -11  -61.57   70.91   1-0.80174-0.75633 0.51090-0.32327-0.31012-0.56872
   3  -8 -11  188.28  107.19   1-0.67627 0.03261 0.23721-0.18614-0.69741-0.98198
  -3  -8  11 -122.52  111.67   1 0.07644 0.02974-0.68015 0.15248 0.72907 0.98785
   3   8 -10   93.99  102.80   1-0.00761 0.00131 0.68654-0.09107-0.72704-0.99584
   3   8 -10   68.71   90.23   1-0.80312-0.79217 0.52295-0.25588-0.28551-0.55406
   3  -8 -10    9.05   89.43   1-0.67653-0.00203 0.23759-0.13051-0.69703-0.99144
  -3  -8  10   64.11   95.68   1-0.78398-0.79609-0.54848 0.22915 0.29073 0.56010
  -3  -8  10  145.22  142.29   1 0.07690 0.06491-0.68466 0.09294 0.72478 0.99355
   3   8  -951235.11 1267.69   1-0.00657-0.03195 0.69353-0.02880-0.72038-0.99907
   3   8  -948796.56  880.48   1-0.80401-0.82753 0.53873-0.18476-0.25164-0.53013
   3  -8  -952921.22  880.25   1-0.67961-0.03951 0.24212-0.07073-0.69245-0.99671
  -3  -8   956196.47 1112.65   1-0.76958-0.74730-0.52971 0.19274 0.35655 0.63591
  -3   8   946695.52 1430.49   1-0.09034-0.73150-0.20502 0.10948-0.97457-0.67299
  -3   8   943871.85 1498.18   1 0.10488-0.53634-0.96792-0.65555 0.22829 0.53158
  -3  -8   951750.58 1070.03   1 0.07784 0.10040-0.69388 0.02855 0.71586 0.99453
   3   8  -8 2354.38  246.30   1-0.00477-0.06451 0.70560 0.03851-0.70859-0.99717
   3   8  -8 2536.24  221.48   1-0.80351-0.86132 0.55792-0.11033-0.20756-0.49592
   3  -8  -8 2436.16  181.71   1-0.68601-0.08028 0.25164-0.00619-0.68268-0.99675
  -3  -8   8 1847.52  215.85   1-0.75506-0.69869-0.51250 0.15460 0.40891 0.69851
  -3   8   8 2434.60  324.01   1-0.15955-0.76639-0.25380 0.00544-0.95400-0.64234
  -3   8   8 1713.23  227.73   1 0.10598-0.50069-0.98121-0.72404 0.16117 0.47440
  -3  -8   8 2403.71  237.06   1 0.07934 0.13644-0.70852-0.04126 0.70121 0.98978
   3  -8  -7  591.25  120.24   1 0.09240 0.66308 0.95084 0.74796 0.29557-0.02956
   3   8  -7  478.58  116.70   1-0.00207-0.09613 0.72316 0.11134-0.69067-0.98912
   3   8  -7  470.13   89.67   1-0.80025-0.89254 0.58022-0.03270-0.15145-0.44976
   3  -8  -7  644.36  120.72   1-0.69628-0.12494 0.26731 0.06472-0.66612-0.99005
  -3  -8   7  594.17  112.51   1-0.74117-0.65038-0.49697 0.11496 0.45129 0.75085
  -3   8   7  581.59  179.47   1-0.21474-0.78728-0.29191-0.08793-0.93202-0.61028
  -3   8   7  623.15  136.71   1 0.10665-0.46541-0.99126-0.78914 0.07754 0.40080
  -3  -8   7  511.73  123.48   1 0.08146 0.17310-0.72920-0.11712 0.67943 0.97791
   3  -8  -615393.88  650.43   1 0.09674 0.63307 0.92064 0.77287 0.37821 0.04339
   3   8  -616622.43  642.42   1 0.00163-0.12672 0.74662 0.19007-0.66523-0.97355
   3   8  -614561.22  587.63   1-0.79247-0.91900 0.60416 0.04624-0.08345-0.39151
   3  -8  -616803.78  566.97   1-0.71087-0.17392 0.29050 0.14316-0.64051-0.97429
  -3  -8   615795.02  650.14   1-0.72893-0.60372-0.48381 0.07295 0.48433 0.79384
  -3   8   618815.02  848.22   1-0.25848-0.79672-0.32159-0.17287-0.91091-0.57909
  -3   8   616301.23  621.64   1 0.10647-0.43105-0.99406-0.84714-0.02249 0.31070
  -3  -8   616375.01  622.00   1 0.08422 0.21041-0.75641-0.19951 0.64865 0.95703
   3  -8  -533053.70 1067.79   1 0.10039 0.60227 0.88249 0.78999 0.45947 0.11480
   3   8  -533682.39 1051.77   1 0.00652-0.15614 0.77613 0.27483-0.63054-0.94872
  -3   8   527038.30  919.50   1-0.01079-0.51272 0.66461 0.75803-0.74710-0.40311
   3   8  -532346.99  934.60   1-0.77787-0.93892 0.62841 0.12581-0.00229-0.32029
   3  -8  -533922.62  906.77   1-0.72995-0.22739 0.32287 0.23079-0.60242-0.94605
  -3  -8   533982.38  885.57   1-0.71907-0.55948-0.47350 0.02793 0.50865 0.82836
  -3   8   528645.44 1114.47   1-0.29251-0.79644-0.34435-0.25089-0.89210-0.55020
  -3   8   532227.16 1012.28   1 0.10498-0.39800-0.98523-0.89351-0.13526 0.20787
  -3  -8   535208.06 1048.31   1 0.08766 0.24819-0.79030-0.28844 0.60640 0.92476
   3  -8  -427442.58  839.42   1 0.10318 0.57061 0.83838 0.80107 0.53522 0.18076
  -3   8   423299.14  684.36   1 0.01652-0.45086 0.83169 0.86972-0.55499-0.20076
   3   8  -427680.99  684.67   1 0.01272-0.18428 0.81136 0.36533-0.58439-0.91245
   3   8  -428994.70  787.26   1-0.75440-0.94979 0.65027 0.20278 0.08959-0.23825
   3  -8  -427570.60  616.95   1-0.75283-0.28453 0.36599 0.32916-0.54706-0.90038
  -3  -8   429407.42  671.84   1-0.71172-0.51770-0.46594-0.01966 0.52568 0.85532
  -3  -8   427697.30  751.62   1 0.09169 0.28678-0.83045-0.38380 0.54948 0.87775
   3  -8  -366631.82 1505.67   1 0.10510 0.53821 0.79006 0.80798 0.60394 0.23975
  -3   8   359993.62 1468.73   1 0.04063-0.39227 0.93706 0.91968-0.34677 0.01744
   3   8  -369840.47 1418.65   1 0.02036-0.21096 0.85124 0.46046-0.52436-0.86224
   3   8  -367540.41 1386.24   1-0.72020-0.94995 0.66723 0.27509 0.19000-0.14799
   3  -8  -368387.27 1366.66   1-0.77751-0.34360 0.42183 0.44024-0.46639-0.82953
  -3  -8   367063.63 1283.91   1-0.70732-0.47888-0.46147-0.07035 0.53548 0.87505
  -3  -8   372113.08 1542.09   1 0.09613 0.32523-0.87525-0.48380 0.47400 0.81249
   3  -8  -357149.41 1395.90   1 0.09422 0.52781-0.85591-0.83684 0.50846 0.14524
   3  -8  -218308.23  682.49   1 0.10623 0.50491 0.73969 0.81280 0.66450 0.29052
  -3   8   215754.13  601.13   1 0.05970-0.33879 0.98671 0.91405-0.15109 0.22299
   3   8  -216925.68  596.09   1 0.02948-0.23617 0.89357 0.55796-0.44794-0.79554
   3   8  -216802.37  640.55   1-0.67459-0.93890 0.67683 0.34002 0.29464-0.05324
   3  -8  -217823.46  616.96   1-0.79817-0.39891 0.49022 0.56316-0.35014-0.72368
  -3   8   214201.78  608.75   1-0.44680-0.84638-0.03581-0.11027-0.89391-0.52103
  -3  -8   218071.94  541.54   1-0.70603-0.44317-0.46017-0.12421 0.53828 0.88778
   3  -8  -214634.55  650.16   1 0.10219 0.50151-0.93825-0.86410 0.33051-0.04242
  -3  -8   216570.07  604.25   1 0.10055 0.36401-0.92093-0.58459 0.37651 0.72508
   3  -8  -1   64.03   70.71   1 0.10669 0.47082 0.68829 0.81669 0.71754 0.33367
   3   8  -1  156.45   83.26   1 0.03999-0.25995 0.93483 0.65432-0.35281-0.71013
   3   8  -1  119.36   72.48   1-0.61849-0.91737 0.67745 0.39596 0.39814 0.04036
   3  -8  -1   99.34   60.09   1-0.80266-0.43793 0.56628 0.69459-0.18721-0.57074
  -3   8   1  115.56   79.01   1-0.50649-0.87167 0.02675-0.10293-0.86182-0.47915
  -3  -8   1  156.21   91.82   1 0.10432 0.40229-0.96151-0.68029 0.25419 0.61266
   3  -8   040552.00 1000.92   1 0.10659 0.43627 0.63653 0.82012 0.76384 0.37021
   3   8   041631.23 1063.24   1 0.05164-0.28264 0.96997 0.74458-0.23766-0.60472
   3  -8   042071.98 1003.20   1-0.77075-0.44080 0.63648 0.82012 0.02881-0.36481
  -3  -8   039354.96  870.31   1-0.71288-0.38117-0.46713-0.24150 0.52305 0.89240
   3  -8   041062.15 1048.22   1 0.07445 0.40307 0.66078 0.84454 0.74687 0.35252
  -3  -8   041281.41 1027.20   1 0.10651 0.43909-0.98857-0.76257 0.10668 0.47505
   3  -8   1 9931.78  479.20   1 0.10602 0.40126 0.58484 0.82361 0.80418 0.40081
   3   8   110172.23  478.93   1 0.06385-0.30474 0.99252 0.82217-0.10397-0.48079
   3  -8   1 8934.37  446.11   1-0.67993-0.38441 0.67623 0.91535 0.28354-0.11976
  -3   8  -1 8223.61  521.05   1-0.64354-0.93976 0.19130-0.04832-0.74111-0.33839
  -3  -8  -1 9410.36  368.39   1-0.72073-0.35460-0.47522-0.30475 0.50467 0.88395
   3  -8   1 9505.72  448.79   1 0.06910 0.36321 0.60898 0.84790 0.79016 0.38618
  -3  -8  -1 9972.41  429.13   1 0.10612 0.47324-0.99249-0.82169-0.06075 0.31756
   3  -8   2 2082.50  192.07   1 0.10507 0.36585 0.53340 0.82735 0.83930 0.42618
   3   8   2 1969.25  222.97   1 0.07583-0.32718 0.99613 0.88082 0.04430-0.34218
  -3   8  -2 1513.43  196.72   1-0.71262-0.97444 0.29337-0.00131-0.63725-0.22464
  -3  -8  -2 1929.04  154.69   1-0.73109-0.33053-0.48610-0.37065 0.47875 0.86796
   3  -8   2 1999.86  193.54   1 0.06366 0.32324 0.55649 0.85056 0.82841 0.41479
   3   8   3121490.4 1960.29   1 0.08669-0.35066 0.97588 0.91576 0.20034-0.19598
  -3  -8  -3117662.2 1263.81   1-0.74352-0.30855-0.49955-0.43926 0.44453 0.84370
  -3   8  -3119167.2 1672.97   1-0.06421-0.29277-0.49925-0.84797-0.86407-0.44183
   3  -8   3125990.5 1491.14   1 0.05815 0.28322 0.50359 0.85281 0.86198 0.43873
   3   8   4 7743.36  453.73   1 0.09555-0.37595 0.93021 0.92516 0.35436-0.05216
  -3   8  -4 8379.58  420.33   1-0.10217-0.29604-0.43138-0.83513-0.89636-0.46357
  -3   8  -4 5100.35  381.26   1-0.79917-0.99161 0.49523 0.09023-0.34069 0.09250
  -3  -8  -4 7229.94  320.67   1-0.75731-0.28792-0.51508-0.50996 0.40144 0.81057
  -3   8  -4 8639.63  568.50   1-0.28629-0.48147-0.34021-0.74412-0.89570-0.46310
  -3   8  -4 8193.27  367.41   1-0.08677-0.28103-0.43633-0.84031-0.89558-0.46356
   3  -8   4 7145.22  394.14   1 0.05259 0.24314 0.45048 0.85486 0.89123 0.45835
   3   8   536014.85  918.63   1 0.10191-0.40405 0.86080 0.91102 0.49862 0.08230
  -3   8  -535365.55  845.85   1-0.10030-0.25983-0.38095-0.83993-0.91913-0.47645
  -3  -8  -533120.11  710.02   1-0.77157-0.26773-0.53217-0.58220 0.34851 0.76769
  -3   8  -535030.39 1030.28   1-0.25512-0.41599-0.31933-0.77850-0.91265-0.46997
  -3   8  -534192.06  884.48   1-0.10665-0.26662-0.37771-0.83695-0.91975-0.47794
   3   8   611151.33  521.70   1 0.10557-0.43465 0.77280 0.87820 0.62580 0.19958
  -3   8  -611306.27  451.72   1-0.09820-0.22337-0.33071-0.84491-0.93860-0.48601
  -3   8  -6 9404.74  453.69   1-0.11784-0.24262-0.32218-0.83824-0.93931-0.48834
  -3  -8  -611365.00  408.54   1-0.78508-0.24685-0.55002-0.65523 0.28478 0.71395
  -3   8  -612494.30  633.28   1-0.21740-0.34396-0.29373-0.80816-0.93083-0.47807
   3   8   7 8943.28  467.81   1 0.10671-0.46802 0.67177 0.83220 0.73302 0.29728
  -3   8  -7 9476.61  429.84   1-0.09585-0.18669-0.28060-0.85003-0.95502-0.49253
  -3   8  -7 6785.78  481.41   1-0.20963-0.30004-0.25050-0.82178-0.94514-0.48440
  -3  -8  -7 8205.41  426.64   1-0.79632-0.22358-0.56768-0.72804 0.20882 0.64804
  -3   8  -7 8102.21  534.82   1-0.17264-0.26490-0.26290-0.83260-0.94924-0.48640
   3   8   7 7813.60  460.55   1 0.07205-0.50327 0.63756 0.79763 0.76701 0.33240
   3   8   8  137.93   87.19   1 0.10567-0.50352 0.56320 0.77881 0.81953 0.37404
  -3   8  -8   36.45  107.40   1-0.09329-0.14977-0.23060-0.85522-0.96856-0.49614
  -3  -8  -8  305.10  103.81   1-0.80317-0.19604-0.58378-0.79933 0.11879 0.56801
  -3   8  -8  170.52  154.51   1-0.12022-0.17817-0.22621-0.85117-0.96662-0.49371
  -3  -8  -8  219.03  103.37   1-0.05919 0.54792-0.51275-0.72972-0.85648-0.40899
  -3   8  -918490.85  582.75   1-0.09051-0.11264-0.18052-0.86036-0.97939-0.49707
  -3  -8  -921856.44  665.27   1-0.04259 0.59956-0.37684-0.64933-0.92529-0.46785
  -3   8  -918607.16  999.80   1-0.05925-0.08289-0.18276-0.86298-0.98136-0.49837
  -3  -8  -921729.64  570.33   1-0.08721 0.55419-0.43505-0.70727-0.89616-0.43888
  -3   8 -1013993.59  548.01   1-0.08752-0.07570-0.13040-0.86539-0.98758-0.49533
  -3  -8 -1012772.65  495.46   1-0.09629 0.58023-0.33820-0.66591-0.93613-0.46892
  -3  -8 -1012273.60  475.01   1-0.11260 0.56310-0.35956-0.68704-0.92630-0.45923
   3   9 -11  906.92  159.85   1-0.00771-0.00601 0.68585-0.17252-0.72769-0.98498
   3   9 -11  997.14  137.10   1-0.80403-0.80011 0.53941-0.32032-0.25013-0.50714
   3  -9 -11 1300.55  156.32   1-0.67584 0.07453 0.23659-0.16121-0.69804-0.98410
  -3  -9  11 1145.99  175.74   1 0.07689 0.07178-0.68454 0.17388 0.72490 0.98214
   3   9 -10  347.52  118.88   1-0.00735-0.03995 0.68829-0.11481-0.72539-0.99258
   3   9 -10  215.85  102.43   1-0.80390-0.83423 0.55137-0.25312-0.22299-0.48988
   3  -9 -10  161.84  109.42   1-0.67607 0.03991 0.23693-0.10562-0.69769-0.99360
  -3  -9  10  229.23   95.86   1-0.77259-0.74320-0.53345 0.26979 0.34428 0.61225
  -3  -9  10   54.79  148.04   1 0.07735 0.10679-0.68906 0.11418 0.72055 0.98770
   3   9  -9 5616.75  376.73   1-0.00633-0.07324 0.69514-0.05269-0.71884-0.99592
   3   9  -9 5884.40  314.02   1-0.80260-0.86742 0.56673-0.18243-0.18608-0.46291
   3  -9  -9 5997.43  283.16   1-0.67912 0.00247 0.24140-0.04589-0.69318-0.99894
  -3  -9   9 5394.42  304.05   1-0.75668-0.69325-0.51435 0.23353 0.40356 0.68180
  -3   9   9 5326.21  531.55   1-0.03848-0.72116-0.16777 0.12120-0.98507-0.68207
  -3  -9   9 5888.13  343.86   1 0.07830 0.14227-0.69828 0.04978 0.71152 0.98857
   3   9  -8 1804.22  210.17   1-0.00457-0.10585 0.70687 0.01429-0.70732-0.99427
   3   9  -8 1718.69  173.49   1-0.79910-0.89841 0.58497-0.10885-0.13867-0.42544
   3  -9  -8 1604.29  153.35   1-0.68548-0.03825 0.25084 0.01856-0.68351-0.99909
  -3  -9   8 1467.89  252.48   1-0.74089-0.64305-0.49666 0.19606 0.45210 0.74030
  -3   9   8 1552.89  254.18   1-0.10448-0.75285-0.21507 0.01864-0.97099-0.65791
  -3   9   8  915.26  230.54   1 0.10671-0.54132-0.99343-0.76175 0.04109 0.35594
  -3  -9   8 1552.86  218.39   1 0.07978 0.17830-0.71279-0.01990 0.69681 0.98377
   3   9  -7  725.36  126.76   1-0.00196-0.13754 0.72392 0.08660-0.68987-0.98670
   3   9  -7  310.41  109.67   1-0.79206-0.92554 0.60509-0.03374-0.08060-0.37711
   3  -9  -7  641.99  117.62   1-0.69569-0.08285 0.26640 0.08937-0.66710-0.99254
  -3  -9   7  540.86  101.11   1-0.72635-0.59408-0.48109 0.15646 0.49087 0.78903
  -3   9   7  714.53  210.92   1-0.15777-0.77184-0.25256-0.07410-0.95463-0.63147
  -3   9   7  444.12  139.30   1 0.10624-0.50726-0.99310-0.81662-0.04946 0.27532
  -3  -9   7  719.72  168.25   1 0.08186 0.21493-0.73317-0.09546 0.67508 0.97195
   3  -9  -6 2361.72  244.62   1 0.10423 0.68212 0.81506 0.69297 0.56991 0.23345
   3   9  -6 2678.12  225.15   1 0.00163-0.16825 0.74665 0.16460-0.66520-0.97190
   3   9  -6 2739.14  232.66   1-0.77955-0.94756 0.62624 0.04272-0.01024-0.31668
   3  -9  -6 2595.41  213.63   1-0.71023-0.13178 0.28946 0.16768-0.64170-0.97699
  -3  -9   6 2132.18  169.51   1-0.71389-0.54726-0.46816 0.11405 0.52075 0.82915
  -3   9   6 2158.99  303.58   1-0.20046-0.78022-0.28212-0.15892-0.93820-0.60497
  -3   9   6 2104.60  233.04   1 0.10462-0.47434-0.98266-0.86138-0.15305 0.18167
  -3  -9   6 2441.33  242.38   1 0.08458 0.25219-0.75989-0.17735 0.64451 0.95128
   3  -9  -5  814.78  148.48   1 0.10549 0.64894 0.77611 0.70921 0.62170 0.27546
   3   9  -5  925.67  156.15   1 0.00636-0.19783 0.77521 0.24842-0.63166-0.94823
   3   9  -5  800.24  170.05   1-0.75985-0.96216 0.64624 0.11782 0.07062-0.24568
   3  -9  -5 1100.35  145.42   1-0.72930-0.18524 0.32172 0.25520-0.60382-0.94897
  -3  -9   5  746.49  129.85   1-0.70366-0.50261-0.45778 0.06927 0.54340 0.86172
  -3   9   5 1051.51  240.88   1-0.23401-0.77947-0.30504-0.23711-0.92313-0.57982
  -3  -9   5 1077.49  195.66   1 0.08794 0.28990-0.79310-0.26560 0.60270 0.91946
   3  -9  -4 5791.47  388.94   1 0.10630 0.61532 0.73479 0.72309 0.66991 0.31388
  -3   9   4 5052.55  391.23   1 0.01762-0.49129 0.83738 0.84991-0.54632-0.19046
   3   9  -4 6044.26  378.98   1 0.01235-0.22618 0.80933 0.33780-0.58721-0.91363
   3   9  -4 6399.48  362.87   1-0.73106-0.96771 0.66307 0.18998 0.16088-0.16561
   3  -9  -4 6104.49  306.42   1-0.75227-0.24247 0.36486 0.35360-0.54859-0.90342
  -3  -9   4 5796.03  313.10   1-0.69621-0.46073-0.45031 0.02158 0.55902 0.88727
  -3   9   4 6124.39  494.68   1-0.25949-0.77064-0.32227-0.30960-0.91038-0.55699
  -3  -9   4 6688.49  376.08   1 0.09188 0.32839-0.83237-0.36007 0.54654 0.87321
   3  -9  -4 4976.81  400.65   1 0.08138 0.59031-0.72842-0.73903 0.68027 0.32459
   3  -9  -3 4307.79  328.52   1 0.10667 0.58117 0.69203 0.73564 0.71394 0.34793
  -3   9   3 3226.14  291.06   1 0.04271-0.43171 0.94408 0.90117-0.32693 0.03894
   3   9  -3 3869.78  269.28   1 0.01973-0.25312 0.84809 0.43181-0.52947-0.86571
   3   9  -3 3599.23  248.21   1-0.69204-0.96327 0.67440 0.25663 0.25738-0.07900
   3  -9  -3 3916.42  242.08   1-0.77721-0.30180 0.42104 0.46503-0.46760-0.83225
  -3  -9   3 3778.30  218.75   1-0.69176-0.42186-0.44590-0.02916 0.56801 0.90618
  -3   9   3 3271.77  439.25   1-0.27770-0.75455-0.33448-0.37707-0.90055-0.53708
  -3  -9   3 4090.25  300.02   1 0.09622 0.36674-0.87622-0.45912 0.47219 0.80913
   3  -9  -3 3056.10  310.96   1 0.09400 0.56902-0.85372-0.80900 0.51216 0.14739
   3  -9  -2  699.32  118.73   1 0.10666 0.54670 0.64827 0.74707 0.75389 0.37814
  -3   9   2  680.00  135.45   1 0.06182-0.37817 0.98994 0.89174-0.12723 0.24852
   3   9  -2  795.92  151.99   1 0.02854-0.27862 0.88950 0.52838-0.45602-0.80198
   3   9  -2  755.13  143.39   1-0.64295-0.94874 0.67834 0.31590 0.35561 0.00932
   3  -9  -2  901.56  131.22   1-0.79822-0.35746 0.49048 0.58899-0.34966-0.72478
  -3   9   2  658.57  142.99   1-0.36721-0.80825-0.11323-0.21332-0.92321-0.54883
  -3  -9   2  725.22  118.44   1-0.69046-0.38614-0.44462-0.08304 0.57058 0.91869
  -3   9   2  641.18  213.79   1-0.28922-0.73176-0.34217-0.44002-0.89401-0.52047
   3  -9  -2  778.82  157.41   1 0.10220 0.54294-0.93839-0.83859 0.33011-0.04434
  -3  -9   2  857.02  169.17   1 0.10057 0.40545-0.92107-0.55907 0.37617 0.72321
   3  -9  -1232593.9 2384.00   1 0.10628 0.51187 0.60392 0.75791 0.78992 0.40441
   3   9  -1227201.6 2416.90   1 0.03875-0.30269 0.93042 0.62439-0.36441-0.72007
   3  -9  -1233580.5 2114.15   1-0.80236-0.39613 0.56853 0.72242-0.18159-0.56672
  -3   9   1243877.0 2956.13   1-0.29449-0.70273-0.34567-0.49878-0.89094-0.50732
   3  -9  -1237683.6 2423.03   1 0.07216 0.47670 0.63859 0.79281 0.76615 0.37973
  -3  -9   1231120.7 2173.53   1 0.10429 0.44369-0.96118-0.65431 0.25543 0.61238
   3  -9   0138524.7 1814.02   1 0.10559 0.47673 0.55917 0.76835 0.82229 0.42703
   3   9   0140586.5 1760.90   1 0.05016-0.32563 0.96617 0.71526-0.25295-0.61835
   3  -9   0135621.0 1724.89   1-0.76626-0.39484 0.64082 0.85007 0.04674-0.34852
  -3  -9   0143077.3 1469.49   1-0.69739-0.32423-0.45149-0.20024 0.55658 0.92453
   3  -9   0144176.9 1727.81   1 0.06742 0.43744 0.59274 0.80211 0.80256 0.40652
  -3  -9   0145703.8 1802.43   1 0.10649 0.48051-0.98832-0.73667 0.10899 0.47583
   3  -9   164850.50 1166.57   1 0.10461 0.44130 0.51415 0.77850 0.85129 0.44628
   3   9   168629.33 1265.45   1 0.06229-0.34787 0.99058 0.79489-0.12190-0.49711
   3  -9   162727.70 1173.06   1-0.66044-0.32345 0.67792 0.94267 0.32284-0.08207
  -3  -9  -164578.12  933.70   1-0.70539-0.29780-0.45952-0.26343 0.53967 0.91755
  -3   9  -170177.30 1588.73   1-0.28736-0.62698-0.34092-0.60456-0.89509-0.49131
   3  -9   169750.07 1097.48   1 0.06255 0.39806 0.54589 0.81042 0.83551 0.42983
  -3  -9  -167086.86 1138.79   1 0.10614 0.51470-0.99261-0.79617-0.05868 0.31809
   3   9   220284.18  646.69   1 0.07429-0.37019 0.99694 0.85607 0.02412-0.36068
  -3   9  -218021.38  758.57   1-0.10336-0.40743-0.46833-0.78717-0.87748-0.46297
  -3  -9  -220026.94  545.57   1-0.71607-0.27406-0.47040-0.32948 0.51570 0.90350
  -3   9  -219978.26 1056.81   1-0.27522-0.58054-0.33283-0.65173-0.90192-0.48807
  -3   9  -219815.96  554.19   1-0.06760-0.37197-0.49002-0.80899-0.86908-0.45515
   3  -9   220958.78  589.17   1 0.05760 0.35858 0.49832 0.81800 0.86507 0.44976
   3   9   3 3378.84  304.14   1 0.08543-0.39340 0.97981 0.89412 0.18072-0.21392
  -3   9  -3 4026.31  308.83   1-0.10188-0.37160-0.42303-0.79710-0.90036-0.47595
  -3   9  -3 2268.06  254.92   1-0.69376-0.96269 0.26343-0.11206-0.67028-0.24630
  -3  -9  -3 3548.82  229.89   1-0.72899-0.25254-0.48388-0.39797 0.48417 0.88195
  -3   9  -3 3512.90  338.89   1-0.25740-0.52841-0.32087-0.69503-0.91147-0.48753
  -3   9  -3 3818.25  256.86   1-0.08935-0.35942-0.42888-0.80311-0.89892-0.47521
   3  -9   3 3399.79  288.86   1 0.05256 0.31903 0.45017 0.82501 0.89139 0.46644
   3   9   4 2460.37  259.01   1 0.09469-0.41847 0.93642 0.90576 0.33784-0.06689
  -3   9  -4 2351.96  240.68   1-0.10017-0.33555-0.37752-0.80682-0.92056-0.48624
  -3  -9  -4 2162.55  167.10   1-0.74360-0.23274-0.49964-0.46889 0.44430 0.85203
  -3   9  -4 2414.12  324.34   1-0.23382-0.47053-0.30492-0.73435-0.92322-0.48921
  -3   9  -4 2236.27  168.09   1-0.10835-0.34412-0.37257-0.80205-0.92165-0.48814
   3   9   5 2322.39  222.49   1 0.10148-0.44595 0.86749 0.89213 0.48699 0.07232
  -3   9  -5 2112.16  199.95   1-0.09824-0.29928-0.33181-0.81633-0.93821-0.49399
  -3   9  -5 1799.01  225.21   1-0.12228-0.32293-0.31884-0.80526-0.93988-0.49725
  -3  -9  -5 1797.57  156.50   1-0.75912-0.21383-0.51718-0.54160 0.39527 0.81297
  -3   9  -5 2615.54  306.96   1-0.20430-0.40669-0.28475-0.76945-0.93657-0.49248
   3   9   613730.38  604.81   1 0.10545-0.47623 0.77751 0.85734 0.61995 0.19536
  -3   9  -616509.41  584.08   1-0.09611-0.26280-0.28585-0.82559-0.95344-0.49932
  -3  -9  -615189.61  483.49   1-0.77456-0.19483-0.53594-0.61553 0.33587 0.76364
  -3   9  -615539.83  862.36   1-0.16857-0.33666-0.26007-0.80003-0.95075-0.49658
   3   9   7  148.21   89.03   1 0.10671-0.50948 0.67219 0.80703 0.73264 0.29854
  -3  -9  -7   77.35   73.59   1-0.78852-0.17439-0.55501-0.68977 0.26494 0.70270
  -3   9  -7  -16.73  212.98   1-0.12626-0.26005-0.23047-0.82569-0.96485-0.50060
  -3   9  -8   94.97  142.50   1-0.09124-0.18922-0.19318-0.84334-0.97691-0.50295
  -3  -9  -8   72.24   78.91   1-0.79921-0.15057-0.57329-0.76322 0.18052 0.62834
  -3   9  -8   75.61  177.87   1-0.07685-0.17634-0.19539-0.84587-0.97770-0.50338
  -3  -9  -8  219.19   88.07   1-0.06241 0.58621-0.50410-0.69557-0.86138-0.41537
  -3   9  -914402.97  575.26   1-0.08850-0.15214-0.14634-0.85172-0.98526-0.50141
  -3  -9  -914951.01  613.12   1-0.05309 0.63054-0.36943-0.61634-0.92773-0.47172
  -3   9  -911602.66  664.54   1-0.01964-0.08481-0.15410-0.85984-0.98785-0.50345
  -3  -9  -915187.26  628.95   1-0.09065 0.59227-0.42513-0.67185-0.90058-0.44478
  -3   9 -10  279.50  145.20   1-0.08556-0.11526-0.09921-0.85972-0.99138-0.49758
  -3  -9 -10  138.54  123.61   1-0.10506 0.61295-0.33171-0.63384-0.93751-0.47172
  -3  -9 -10   65.81   99.33   1-0.11621 0.60100-0.34841-0.65039-0.93010-0.46451
   3 -10 -11 5770.36  295.68   1-0.67677 0.11510 0.23794-0.13429-0.69667-0.98423
   3  10 -10 4127.35  306.24   1-0.00678-0.08092 0.69211-0.13648-0.72175-0.98733
   3  10 -10 3995.58  289.16   1-0.80049-0.87231 0.57913-0.25094-0.15434-0.41962
   3 -10 -10 4924.66  253.42   1-0.67706 0.08042 0.23837-0.07861-0.69625-0.99365
  -3 -10  10 5200.42  328.78   1 0.07801 0.14887-0.69549 0.13340 0.71428 0.97981
   3  10  -9 3566.48  263.34   1-0.00577-0.11427 0.69890-0.07443-0.71518-0.99065
   3  10  -9 2038.38  247.32   1-0.79655-0.90287 0.59359-0.18115-0.11465-0.38987
   3 -10  -9 3207.79  215.66   1-0.68015 0.04294 0.24291-0.01882-0.69164-0.99890
  -3 -10   9 2403.26  189.39   1-0.74446-0.63956-0.50058 0.27293 0.44181 0.71865
  -3  10   9 3356.94  372.76   1 0.00899-0.71522-0.13317 0.13029-0.99105-0.68664
  -3 -10   9 3159.54  252.39   1 0.07896 0.18437-0.70479 0.06892 0.70500 0.98043
   3  10  -8 1518.00  165.86   1-0.00404-0.14684 0.71039-0.00768-0.70379-0.98912
   3  10  -8  926.07  188.65   1-0.78972-0.93016 0.60996-0.10978-0.06537-0.35033
   3 -10  -8 1619.10  156.55   1-0.68654 0.00218 0.25244 0.04572-0.68185-0.99895
  -3 -10   8 1133.39  162.53   1-0.72810-0.58878-0.48294 0.23540 0.48644 0.77324
  -3  10   8 1577.96  312.05   1-0.05373-0.74364-0.17879 0.02940-0.98241-0.66793
  -3 -10   8 1110.33  165.84   1 0.08044 0.22039-0.71925-0.00071 0.69006 0.97541
   3  10  -727528.10  827.78   1-0.00147-0.17859 0.72701 0.06420-0.68662-0.98182
   3  10  -727464.87  816.21   1-0.77838-0.95336 0.62776-0.03667-0.00470-0.29959
   3 -10  -727428.82  923.04   1-0.69677-0.04243 0.26806 0.11659-0.66532-0.99227
  -3 -10   727956.92  727.99   1-0.71345-0.53978-0.46771 0.19529 0.52175 0.81883
  -3  10   729851.47 1191.57   1-0.10491-0.76051-0.21538-0.06244-0.97087-0.64631
  -3 -10   729415.40  899.24   1 0.08250 0.25699-0.73942-0.07605 0.66816 0.96341
   3  10  -6 1246.44  162.01   1 0.00203-0.20938 0.74909 0.14155-0.66246-0.96753
   3  10  -6  837.65  147.19   1-0.76116-0.97038 0.64520 0.03585 0.06589-0.23886
   3 -10  -6 1345.96  155.54   1-0.71129-0.09135 0.29119 0.19497-0.63973-0.97654
  -3 -10   6 1264.56  134.06   1-0.70071-0.49262-0.45481 0.15302 0.54967 0.85667
  -3  10   6 1363.72  234.99   1-0.14628-0.76758-0.24453-0.14686-0.95854-0.62389
  -3 -10   6 1506.04  171.20   1 0.08517 0.29420-0.76571-0.15752 0.63751 0.94266
   3 -10  -5  299.98  124.39   1 0.10651 0.69136 0.62576 0.58460 0.77270 0.42456
   3  10  -5  537.70  152.35   1 0.00662-0.23910 0.77677 0.22449-0.62974-0.94468
   3  10  -5  399.93   94.94   1-0.73627-0.97983 0.66071 0.10668 0.14608-0.16891
   3 -10  -5  428.46   99.52   1-0.73034-0.14478 0.32356 0.28259-0.60158-0.94824
  -3 -10   5  377.63  109.36   1-0.69047-0.44796-0.44463 0.10804 0.57056 0.88749
  -3  10   5  458.91  215.56   1-0.17909-0.76608-0.26738-0.22496-0.94679-0.60207
  -3 -10   5  406.69  125.76   1 0.08846 0.33184-0.79826-0.24511 0.59577 0.91092
   3 -10  -410932.34  496.76   1 0.10629 0.65669 0.60434 0.61837 0.78959 0.43170
   3  10  -412932.57  485.78   1 0.01244-0.26761 0.80980 0.31277-0.58656-0.91134
   3  10  -412565.61  561.01   1-0.70245-0.98058 0.67227 0.17356 0.23365-0.09123
   3 -10  -412291.33  399.85   1-0.75329-0.20200 0.36693 0.38124-0.54579-0.90213
  -3 -10   413491.43  425.84   1-0.68303-0.40610-0.43732 0.06019 0.58498 0.91184
  -3  10   413001.69  662.12   1-0.20426-0.75694-0.28472-0.29758-0.93659-0.58179
   3 -10  -4 9251.83  531.06   1 0.07504 0.62453 0.66659 0.68096 0.74162 0.38241
  -3 -10   412787.31  484.40   1 0.09230 0.37024-0.83664-0.33869 0.53991 0.86498
   3 -10  -345879.60 1246.88   1 0.10591 0.62185 0.57723 0.64644 0.80967 0.44203
  -3  10   339211.77 1305.84   1 0.04406-0.47186 0.94846 0.88003-0.31380 0.05373
   3  10  -349227.32 1304.80   1 0.01959-0.29478 0.84739 0.40561-0.53060-0.86520
   3  10  -349085.99 1336.00   1-0.65934-0.97204 0.67798 0.23459 0.32495-0.00982
   3 -10  -345504.15 1130.94   1-0.77821-0.26132 0.42365 0.49322-0.46356-0.82972
  -3 -10   349450.30 1177.69   1-0.67860-0.36724-0.43301 0.00934 0.59329 0.93007
  -3  10   350239.74 1756.48   1-0.22246-0.74083-0.29718-0.36529-0.92854-0.56366
   3 -10  -350219.83 1412.47   1 0.07168 0.58665 0.63395 0.70347 0.77003 0.40119
  -3 -10   349010.78 1266.51   1 0.09654 0.40848-0.87942-0.43666 0.46614 0.80154
   3 -10  -224343.13  819.22   1 0.10534 0.58684 0.54640 0.67080 0.83086 0.45347
  -3  10   220839.00  904.25   1 0.06337-0.41808 0.99196 0.86800-0.10951 0.26790
   3  10  -225344.95  849.20   1 0.02813-0.32054 0.88771 0.50108-0.45953-0.80384
   3 -10  -227852.42  814.83   1-0.79898-0.31671 0.49423 0.61831-0.34258-0.71929
  -3 -10   226516.25  748.25   1-0.67730-0.33153-0.43175-0.04456 0.59568 0.94239
  -3  10   227212.88 1097.61   1-0.23421-0.71828-0.30518-0.42856-0.92303-0.54808
   3 -10  -223434.62  881.16   1 0.06802 0.54847 0.59850 0.72318 0.79822 0.41974
   3 -10  -220855.36  821.02   1 0.10199 0.58416-0.93613-0.81067 0.33653-0.03945
  -3 -10   224829.69  792.76   1 0.10077 0.44707-0.92316-0.53550 0.37096 0.71649
   3 -10  -1  864.12  187.26   1 0.10458 0.55163 0.51293 0.69251 0.85203 0.46489
   3  10  -1 1046.78  149.50   1 0.03806-0.34489 0.92791 0.59635-0.37085-0.72485
   3 -10  -1 1176.91  130.10   1-0.80146-0.35373 0.57418 0.75365-0.16723-0.55395
  -3  10   1  893.32  148.91   1-0.31266-0.76093-0.16296-0.34378-0.93577-0.55026
  -3 -10   1  977.68  132.30   1-0.67919-0.29898-0.43358-0.10155 0.59220 0.94883
  -3  10   1 1140.62  237.72   1-0.23991-0.68968-0.30905-0.48769-0.92028-0.53525
   3 -10  -1 1178.80  150.54   1 0.06411 0.51004 0.56084 0.74067 0.82543 0.43732
  -3 -10   1 1135.43  155.01   1 0.10439 0.48521-0.96229-0.62977 0.25116 0.60659
   3  10   0 1712.72  244.08   1 0.04924-0.36806 0.96373 0.68740-0.26228-0.62609
  -3  10   0 1936.54  197.53   1-0.10359-0.51787-0.47620-0.71014-0.87321-0.47697
   3 -10   0 2278.38  217.01   1-0.75788-0.34498 0.64775 0.88263 0.07760-0.31929
  -3  10   0 1483.20  180.94   1-0.34964-0.76339-0.12953-0.36563-0.92788-0.53248
  -3 -10   0 2085.87  167.23   1-0.68420-0.26957-0.43847-0.16159 0.58276 0.94932
  -3  10   0 2123.71  276.72   1-0.23983-0.65529-0.30899-0.54290-0.92032-0.52521
  -3  10   0 1710.38  162.93   1-0.05562-0.47009-0.52225-0.75620-0.85097-0.45515
   3 -10   0 2303.40  202.51   1 0.06001 0.47142 0.52142 0.75640 0.85118 0.45344
  -3 -10   0 2409.53  237.24   1 0.10652 0.52196-0.98872-0.71143 0.10522 0.47054
   3  10   113908.80  602.95   1 0.06119-0.39047 0.98903 0.76781-0.13437-0.50792
  -3  10  -110532.05  530.67   1-0.10244-0.48237-0.43942-0.72859-0.89241-0.48627
   3 -10   112628.99  606.74   1-0.62711-0.24864 0.67794 0.96832 0.38356-0.02297
  -3  10  -1 9634.14  602.92   1-0.39043-0.76979-0.09128-0.38261-0.91609-0.51090
  -3 -10  -114194.83  503.60   1-0.69220-0.24315-0.44633-0.22462 0.56713 0.94362
  -3  10  -115487.87  823.22   1-0.23415-0.61530-0.30514-0.59430-0.92307-0.51788
  -3  10  -110719.35  512.33   1-0.07891-0.45908-0.45868-0.74789-0.88508-0.47947
   3 -10   112716.25  528.13   1 0.05574 0.43264 0.48055 0.77069 0.87518 0.46781
  -3 -10  -113199.33  592.65   1 0.10609 0.55608-0.99235-0.77026-0.06307 0.31218
   3  10   252922.92 1649.62   1 0.07323-0.41273 0.99726 0.83100 0.01036-0.37292
  -3  10  -268526.96 1663.45   1-0.10109-0.44667-0.40137-0.74576-0.91031-0.49427
  -3 -10  -259145.94 1389.84   1-0.70294-0.21947-0.45705-0.29050 0.54495 0.93136
  -3  10  -263244.38 1957.70   1-0.22296-0.56980-0.29752-0.64195-0.92831-0.51304
  -3  10  -267092.00 1548.39   1-0.09840-0.44428-0.40242-0.74688-0.91015-0.49474
   3 -10   260142.64 1450.33   1 0.05134 0.39372 0.43850 0.78379 0.89725 0.48025
   3  10   328462.97  904.54   1 0.08450-0.43580 0.98238 0.87112 0.16667-0.22630
  -3  10  -331098.44  805.35   1-0.09955-0.41078-0.36225-0.76187-0.92674-0.50080
  -3 -10  -331223.09  692.75   1-0.71607-0.19818-0.47040-0.35901 0.51570 0.91204
  -3  10  -334547.43 1078.56   1-0.20628-0.51882-0.28611-0.68580-0.93572-0.51038
  -3  10  -328058.09  672.77   1-0.11536-0.42694-0.35106-0.75078-0.92921-0.50402
   3  10   428332.00  768.55   1 0.09409-0.46055 0.94055 0.88430 0.32634-0.07673
  -3  10  -428252.01  809.14   1-0.09781-0.37470-0.32221-0.77704-0.94160-0.50575
  -3 -10  -427887.65  615.96   1-0.73109-0.17876-0.48611-0.42974 0.47873 0.88507
  -3  10  -423984.08  985.25   1-0.18406-0.46230-0.27081-0.72577-0.94486-0.50944
   3  10   523476.81  785.64   1 0.10121-0.48768 0.87138 0.87044 0.48004 0.06702
  -3  10  -522376.15  699.25   1-0.09589-0.33843-0.28134-0.79140-0.95480-0.50905
  -3 -10  -521390.58  566.80   1-0.74736-0.16060-0.50379-0.50259 0.43316 0.84947
  -3  10  -519738.85  963.95   1-0.15617-0.40010-0.25145-0.76166-0.95518-0.50968
   3  10   6    2.15   95.84   1 0.10542-0.51772 0.77864 0.83289 0.61854 0.19557
  -3  10  -6  101.56  132.67   1-0.09378-0.30197-0.23980-0.80504-0.96628-0.51059
  -3 -10  -6  -56.27   80.18   1-0.76398-0.14281-0.52292-0.57688 0.37797 0.80423
  -3  10  -6   91.50  173.98   1-0.12241-0.33203-0.22776-0.79324-0.96599-0.51041
  -3  10  -7  -30.31  106.70   1-0.09148-0.26532-0.19748-0.81795-0.97602-0.51044
  -3 -10  -7  -36.63   81.28   1-0.77987-0.12425-0.54287-0.65202 0.31158 0.74795
  -3  10  -7   64.48  228.77   1-0.08247-0.25778-0.19940-0.82015-0.97644-0.51077
  -3  10  -811304.75  461.82   1-0.08899-0.22848-0.15450-0.83020-0.98397-0.50848
  -3 -10  -8 8765.58  359.12   1-0.79336-0.10321-0.56258-0.72689 0.23253 0.67894
  -3  10  -810735.11  607.01   1-0.03592-0.17693-0.16592-0.84193-0.98548-0.50974
  -3 -10  -810686.58  399.99   1-0.06708 0.62305-0.49146-0.65742-0.86831-0.42378
  -3  10  -910816.45  485.98   1-0.08630-0.19184-0.11094-0.84173-0.99007-0.50465
  -3 -10  -911205.67  462.72   1-0.06558 0.65954-0.36052-0.58186-0.93044-0.47585
  -3  10  -912091.63  656.05   1 0.01780-0.08889-0.12669-0.85795-0.99178-0.50596
  -3 -10  -910165.61  470.79   1-0.09545 0.62898-0.41111-0.63233-0.90657-0.45225
   3  11 -10   71.34  115.20   1-0.00593-0.12165 0.69784-0.15625-0.71622-0.98019
   3 -11 -10  209.16   79.98   1-0.67945 0.11952 0.24189-0.04953-0.69269-0.99159
  -3 -11  10  103.99  143.23   1 0.07886 0.19114-0.70380 0.15073 0.70600 0.96991
   3  11  -9 3372.40  269.41   1-0.00491-0.15494 0.70461-0.09422-0.70957-0.98341
   3  11  -9 3268.25  301.36   1-0.78507-0.93247 0.61821-0.18245-0.03835-0.31176
   3 -11  -9 3451.10  233.43   1-0.68267 0.08191 0.24665 0.01047-0.68783-0.99658
  -3 -11   9 2937.68  289.47   1-0.73361-0.58724-0.48880 0.31033 0.47210 0.74755
  -3 -11   9 3317.47  338.14   1 0.07983 0.22665-0.71325 0.08610 0.69634 0.97016
   3  11  -8   84.31  128.02   1-0.00319-0.18753 0.71593-0.02762-0.69815-0.98187
   3  11  -8  821.59  134.00   1-0.77435-0.95628 0.63260-0.11275 0.01351-0.26982
   3 -11  -8  173.31  118.94   1-0.68917 0.04105 0.25641 0.07525-0.67770-0.99631
  -3 -11   8  120.43   84.04   1-0.71722-0.53652-0.47159 0.27219 0.51301 0.79878
  -3  11   8  -17.30  167.97   1-0.00672-0.73815-0.14467 0.03799-0.98945-0.67355
  -3 -11   8  221.56  152.18   1 0.08131 0.26268-0.72773 0.01644 0.68101 0.96474
   3  11  -729799.97  735.20   1-0.00066-0.21930 0.73220 0.04390-0.68108-0.97466
   3  11  -729558.34  786.08   1-0.75872-0.97486 0.64712-0.04316 0.07464-0.21857
   3 -11  -732201.06  741.44   1-0.69947-0.00363 0.27228 0.14637-0.66075-0.98922
  -3 -11   724433.22  652.22   1-0.70238-0.48725-0.45648 0.23214 0.54615 0.84183
  -3  11   727797.67 1578.64   1-0.05571-0.75284-0.18022-0.05280-0.98204-0.65607
  -3 -11   729033.77  804.18   1 0.08334 0.29926-0.74774-0.05874 0.65873 0.95235
   3  11  -6 6699.26  379.13   1 0.00278-0.25016 0.75370 0.12067-0.65720-0.96065
   3  11  -6 6592.63  386.87   1-0.73659-0.98705 0.66057 0.02558 0.14518-0.15831
   3 -11  -6 7574.15  352.74   1-0.71402-0.05258 0.29568 0.22502-0.63461-0.97293
  -3 -11   6 5865.22  365.92   1-0.68971-0.44017-0.44388 0.18957 0.57206 0.87767
  -3  11   6 7890.06  658.45   1-0.09565-0.75847-0.20880-0.13665-0.97326-0.63721
  -3 -11   6 6555.99  375.41   1 0.08597 0.33643-0.77366-0.13984 0.62773 0.93126
   3  11  -573551.39 1391.97   1 0.00727-0.27998 0.78057 0.20280-0.62502-0.93833
   3  11  -571421.35 1366.92   1-0.70670-0.99173 0.67124 0.09158 0.22359-0.08979
   3 -11  -573012.17 1342.29   1-0.73304-0.10599 0.32839 0.31299-0.59564-0.94382
  -3 -11   570103.22 1205.67   1-0.67958-0.39561-0.43397 0.14433 0.59146 0.90700
  -3  11   573947.66 2000.22   1-0.12756-0.75607-0.23139-0.21450-0.96446-0.61833
  -3 -11   571414.97 1357.05   1 0.08920 0.37401-0.80559-0.22680 0.58570 0.89926
   3  11  -412009.66  472.60   1 0.01294-0.30864 0.81255 0.29002-0.58273-0.90588
  -3  11   4 9015.79  564.50   1-0.10259-0.69577-0.44403-0.48262-0.89011-0.53195
   3  11  -411758.19  489.29   1-0.66848-0.98808 0.67739 0.15306 0.30702-0.01626
   3 -11  -411821.98  494.98   1-0.75589-0.16310 0.37225 0.41213-0.53856-0.89640
  -3 -11   411190.86  369.11   1-0.67239-0.35399-0.42700 0.09594 0.60461 0.93031
  -3  11   412974.83  768.03   1-0.15224-0.74645-0.24869-0.28707-0.95654-0.60033
   3 -11  -4 9113.21  647.50   1 0.06324 0.65412 0.55249 0.59247 0.83111 0.47019
  -3 -11   412646.33  493.36   1 0.09294 0.41231-0.84306-0.31947 0.52972 0.85319
   3  11  -312743.49  506.15   1 0.01990-0.33599 0.84895 0.38167-0.52809-0.86106
  -3  11   310026.35  495.34   1-0.10263-0.66146-0.44521-0.53902-0.88952-0.52146
   3  11  -314341.22  531.08   1-0.62203-0.97620 0.67767 0.20866 0.39219 0.05902
   3 -11  -312029.91  531.79   1-0.78050-0.22212 0.42976 0.52491-0.45399-0.82166
  -3 -11   313523.19  422.48   1-0.66800-0.31516-0.42278 0.04499 0.61238 0.94796
  -3  11   311387.24  717.29   1-0.17028-0.73018-0.26126-0.35490-0.95012-0.58384
   3 -11  -312007.02  465.27   1 0.06121 0.61757 0.53297 0.62810 0.84391 0.47336
  -3 -11   313119.15  563.96   1 0.09705 0.45041-0.88467-0.41625 0.45599 0.78984
   3  11  -240260.67  989.49   1 0.02821-0.36199 0.88804 0.47590-0.45888-0.80154
  -3  11   239795.79 1031.63   1-0.10225-0.62673-0.43378-0.58281-0.89519-0.51723
   3 -11  -244554.71  892.49   1-0.80033-0.27656 0.50167 0.65131-0.32830-0.70661
  -3 -11   239653.01  799.00   1-0.66670-0.27943-0.42153-0.00891 0.61466 0.96012
  -3  11   239884.25 1478.94   1-0.18214-0.70774-0.26948-0.41838-0.94562-0.56925
   3 -11  -241608.44  960.64   1 0.05862 0.58047 0.50812 0.65841 0.85928 0.47910
  -3 -11   242450.55  977.43   1 0.10114 0.48886-0.92704-0.51373 0.36104 0.70504
   3  11  -138510.59  866.85   1 0.03788-0.38659 0.92723 0.57015-0.37255-0.72489
  -3  11   138807.66  967.89   1-0.10158-0.59172-0.41480-0.61906-0.90422-0.51635
   3 -11  -137975.44  816.82   1-0.79947-0.31025 0.58352 0.78857-0.14261-0.53094
  -3 -11   137481.25  832.51   1-0.66851-0.24681-0.42327-0.06582 0.61148 0.96682
  -3  11   135357.20 1158.03   1-0.18816-0.67946-0.27365-0.47781-0.94324-0.55679
   3 -11  -131175.11  978.57   1 0.05562 0.54294 0.47937 0.68481 0.87584 0.48603
  -3 -11   138296.47  868.46   1 0.10460 0.52685-0.96474-0.60656 0.24149 0.59540
   3  11   0  112.24   91.72   1 0.04882-0.41000 0.96256 0.66071-0.26661-0.62876
  -3  11   0   98.77  105.71   1-0.10069-0.55647-0.39077-0.65026-0.91496-0.51719
   3 -11   0   33.49   52.33   1-0.74313-0.28876 0.65721 0.91770 0.12572-0.27281
  -3 -11   0   74.76   80.11   1-0.67341-0.21727-0.42799-0.12570 0.60276 0.96798
  -3  11   0  106.31  163.23   1-0.18860-0.64559-0.27395-0.53338-0.94306-0.54654
  -3  11   0   45.45   51.10   1-0.10377-0.55975-0.38640-0.64586-0.91647-0.51916
  -3 -11   0   77.01   97.44   1 0.10657 0.56345-0.98971-0.68677 0.09539 0.45918
   3  11   116937.79  626.78   1 0.06059-0.43258 0.98812 0.74137-0.14118-0.51306
  -3  11  -114854.44  582.93   1-0.09958-0.52102-0.36311-0.67782-0.92640-0.51873
  -3 -11  -114970.56  510.57   1-0.68126-0.19076-0.43560-0.18827 0.58831 0.96341
  -3  11  -113505.41  797.12   1-0.18363-0.60631-0.27051-0.58520-0.94503-0.53843
  -3  11  -114745.84  558.88   1-0.11755-0.53924-0.34424-0.65895-0.93149-0.52439
  -3 -11  -116413.80  565.60   1 0.10596 0.59737-0.99160-0.74387-0.07408 0.29964
   3  11   2 1212.86  161.80   1 0.07257-0.45488 0.99736 0.80555 0.00194-0.37967
  -3  11  -2 1316.19  173.18   1-0.09828-0.48537-0.33267-0.70260-0.93790-0.52033
  -3 -11  -2 1195.83  130.58   1-0.69192-0.16699-0.44606-0.25389 0.56768 0.95270
  -3  11  -2 1214.16  241.03   1-0.17334-0.56171-0.26339-0.63334-0.94898-0.53230
   3  11   3 4285.49  320.33   1 0.08395-0.47783 0.98381 0.84698 0.15831-0.23299
  -3  11  -3 4527.12  302.68   1-0.09679-0.44954-0.30004-0.72520-0.94900-0.52152
  -3 -11  -3 4433.31  243.53   1-0.70503-0.14567-0.45915-0.32214 0.54046 0.93541
  -3  11  -3 3958.38  389.20   1-0.15776-0.51183-0.25255-0.67777-0.95463-0.52787
   3  11   418909.69 1008.14   1 0.09376-0.50234 0.94268 0.86084 0.32025-0.08115
  -3  11  -423612.37  728.55   1-0.09512-0.41350-0.26571-0.74605-0.95934-0.52192
  -3 -11  -422224.79  580.09   1-0.72017-0.12639-0.47464-0.39279 0.50602 0.91089
  -3  11  -425472.82  956.12   1-0.13687-0.45663-0.23793-0.71841-0.96158-0.52475
   3  11   537897.72 1182.82   1 0.10114-0.52921 0.87236 0.84584 0.47828 0.06689
  -3  11  -540191.14 1093.05   1-0.09325-0.37729-0.22977-0.76533-0.96876-0.52144
  -3 -11  -540535.68  932.69   1-0.73680-0.10857-0.49222-0.46539 0.46351 0.87841
  -3  11  -541187.01 1381.66   1-0.11057-0.39602-0.21939-0.75512-0.96935-0.52243
  -3  11  -6 5422.07  355.77   1-0.09120-0.34090-0.19251-0.78330-0.97704-0.51982
  -3 -11  -6 5464.17  263.32   1-0.75414-0.09149-0.51143-0.53977 0.41195 0.83682
  -3  11  -6 6143.79  475.86   1-0.07868-0.32984-0.19670-0.78770-0.97729-0.52030
  -3  11  -7 7618.58  416.93   1-0.08896-0.30432-0.15410-0.80011-0.98404-0.51691
  -3 -11  -7 6891.79  311.50   1-0.77125-0.07413-0.53177-0.61531 0.34982 0.78478
  -3  11  -7 7476.77  538.07   1-0.04098-0.25783-0.16959-0.81585-0.98466-0.51759
  -3  11  -810994.11  509.84   1-0.08654-0.26791-0.11468-0.81576-0.98962-0.51258
  -3  11  -810744.60  678.51   1 0.00288-0.17965-0.13764-0.83917-0.99047-0.51332
  -3 -11  -8 8586.42  417.72   1-0.07329 0.65835-0.47437-0.61482-0.87726-0.43422
  -3  11  -915101.47  609.30   1-0.08393-0.23099-0.07426-0.83057-0.99370-0.50674
  -3 -11  -916600.12  597.66   1-0.07997 0.68664-0.35014-0.54590-0.93327-0.48011
   3 -11   913310.52  592.41   1-0.03626 0.10902 0.09453 0.85300 0.99485 0.51039
   3  12  -912237.85  560.40   1-0.00378-0.19534 0.71209-0.11222-0.70207-0.97429
   3 -12  -911701.54  468.10   1-0.68665 0.11946 0.25260 0.04174-0.68169-0.99195
  -3 -12   911591.23  534.39   1-0.72439-0.53655-0.47904 0.34571 0.49574 0.76979
  -3 -12   912441.59  652.47   1 0.08088 0.26913-0.72352 0.10147 0.68554 0.95774
   3  12  -8 8368.51  421.63   1-0.00205-0.22792 0.72331-0.04574-0.69051-0.97260
   3 -12  -8 8181.36  369.14   1-0.69332 0.07840 0.26274 0.10714-0.67102-0.99114
  -3 -12   8 6675.61  328.41   1-0.70804-0.48588-0.46220 0.30720 0.53388 0.81825
   3 -12  -8 8010.84  448.45   1-0.03722 0.73502 0.09382-0.06020 0.99489 0.67536
  -3  12   8 6917.45  576.59   1 0.03710-0.73585-0.11244 0.04470-0.99296-0.67565
  -3 -12   8 7813.45  423.37   1 0.08236 0.30516-0.73808 0.03174 0.66966 0.95177
   3  12  -7 2761.76  256.29   1 0.00045-0.25971 0.73928 0.02549-0.67338-0.96534
   3  12  -7 2991.98  279.14   1-0.73215-0.98952 0.66260-0.05332 0.15783-0.13416
   3 -12  -7 2806.65  247.61   1-0.70375 0.03358 0.27903 0.17868-0.65335-0.98333
  -3 -12   7 3024.10  194.46   1-0.69335-0.43677-0.44748 0.26676 0.56481 0.85910
  -3  12   7 3414.65  389.73   1-0.00974-0.74839-0.14688-0.04499-0.98910-0.66171
  -3 -12   7 3050.51  262.82   1 0.08439 0.34172-0.75798-0.04333 0.64678 0.93879
   3  12  -613834.95  497.55   1 0.00386-0.29062 0.76027 0.10175-0.64958-0.95141
   3  12  -612513.10  533.34   1-0.70520-0.99714 0.67162 0.01101 0.22717-0.07471
   3 -12  -613655.50  457.10   1-0.71837-0.01543 0.30292 0.25783-0.62623-0.96606
  -3 -12   612233.65  450.87   1-0.68089-0.38988-0.43524 0.22384 0.58902 0.89324
  -3  12   614080.04  753.61   1-0.04818-0.75253-0.17478-0.12816-0.98342-0.64596
  -3 -12   614812.76  572.01   1 0.08698 0.37886-0.78357-0.12410 0.61517 0.91709
   3  12  -5 4907.39  355.50   1 0.00828-0.32051 0.78638 0.18312-0.61767-0.92937
   3  12  -5 4663.89  330.48   1-0.67086-0.99736 0.67719 0.07191 0.30224-0.00954
   3 -12  -5 4808.14  282.72   1-0.73736-0.06881 0.33622 0.34638-0.58587-0.93556
  -3 -12   5 4594.39  244.39   1-0.67111-0.34570-0.42577 0.17796 0.60688 0.92131
  -3  12   5 5104.22  446.01   1-0.07911-0.74915-0.19700-0.20564-0.97720-0.62966
  -3 -12   5 5342.44  345.39   1 0.09013 0.41637-0.81490-0.21046 0.57254 0.88450
   3  12  -425256.93  865.44   1 0.01382-0.34928 0.81735 0.26932-0.57596-0.89747
   3  12  -426553.05  803.90   1-0.62895-0.99002 0.67802 0.12806 0.38038 0.05871
   3 -12  -426597.01  698.09   1-0.75998-0.12570 0.38086 0.44631-0.52665-0.88600
  -3 -12   426187.63  627.24   1-0.66391-0.30407-0.41887 0.12969 0.61947 0.94377
  -3  12   427573.30 1128.07   1-0.10320-0.73894-0.21416-0.27806-0.97132-0.61370
  -3 -12   429077.55  857.75   1 0.09377 0.45456-0.85143-0.30219 0.51601 0.83788
   3  12  -3  489.49  116.91   1 0.02062-0.37680 0.85254 0.35976-0.52224-0.85357
  -3  12   3  369.22  110.85   1-0.09700-0.69734-0.30452-0.42388-0.94755-0.57795
   3 -12  -3  487.84  101.14   1-0.78397-0.18410 0.43947 0.56019-0.43846-0.80764
  -3 -12   3  709.07  114.29   1-0.65963-0.26534-0.41479 0.07861 0.62676 0.96094
  -3  12   3  356.84  182.31   1-0.12098-0.72241-0.22675-0.34591-0.96640-0.59871
   3 -12  -3  329.40   86.66   1 0.04993 0.64770 0.42513 0.54587 0.90375 0.53151
  -3 -12   3  396.17  161.33   1 0.09774 0.49252-0.89176-0.39768 0.44181 0.77412
   3  12  -2145070.8 1858.13   1 0.02873-0.40298 0.89033 0.45267-0.45440-0.79541
   3 -12  -2140881.9 1731.64   1-0.80202-0.23674 0.51300 0.68821-0.30589-0.68579
  -3 -12   2140048.4 1407.91   1-0.65835-0.22963-0.41358 0.02466 0.62890 0.97296
  -3  12   2155719.9 2498.72   1-0.13285-0.69998-0.23511-0.40953-0.96284-0.58506
  -3 -12   2147284.7 1847.78   1 0.10165 0.53080-0.93254-0.49357 0.34645 0.68893
   3  12  -1  200.04   89.46   1 0.03817-0.42781 0.92830 0.54569-0.36986-0.72055
  -3  12   1  138.61   88.02   1-0.09747-0.62911-0.31463-0.54443-0.94419-0.55479
   3 -12  -1  246.91   70.87   1-0.79530-0.26476 0.59716 0.82786-0.10433-0.49450
  -3 -12   1  195.52  102.22   1-0.66012-0.19696-0.41525-0.03217 0.62594 0.97988
  -3  12   1  -67.74  240.66   1-0.13911-0.67193-0.23951-0.46919-0.96087-0.57301
  -3 -12   1  149.83  110.43   1 0.10492 0.56859-0.96835-0.58452 0.22644 0.57882
   3  12   022877.80  738.79   1 0.04888-0.45145 0.96273 0.63535-0.26600-0.62650
  -3  12   026725.81  740.49   1-0.09693-0.59422-0.30298-0.58801-0.94805-0.54875
  -3 -12   022367.02  543.69   1-0.66489-0.16730-0.41981-0.09189 0.61779 0.98161
  -3  12   026371.95 1250.66   1-0.14000-0.63851-0.24013-0.52508-0.96059-0.56265
  -3 -12   025443.94  736.66   1 0.10665 0.60495-0.99112-0.66253 0.07940 0.44166
   3  12   1 4369.56  337.46   1 0.06046-0.47421 0.98793 0.71564-0.14258-0.51280
  -3  12  -1 4355.97  315.78   1-0.09607-0.55902-0.28507-0.62532-0.95367-0.54447
  -3 -12  -1 4128.73  231.10   1-0.67259-0.14056-0.42719-0.15444 0.60425 0.97795
  -3  12  -1 5079.39  423.71   1-0.13566-0.59987-0.23709-0.57730-0.96196-0.55395
  -3 -12  -1 4012.69  267.27   1 0.10572 0.63856-0.99012-0.71675-0.09202 0.28017
   3  12   241560.80 1135.30   1 0.07236-0.49659 0.99737 0.78002-0.00077-0.38073
  -3  12  -238182.18 1035.35   1-0.09496-0.52355-0.26272-0.65815-0.96018-0.54103
  -3 -12  -243007.66  881.97   1-0.68303-0.11664-0.43733-0.21954 0.58498 0.96860
  -3  12  -241288.73 1537.83   1-0.12621-0.55611-0.23043-0.62591-0.96486-0.54677
   3  12   3 1422.34  195.51   1 0.08377-0.51947 0.98424 0.82184 0.15573-0.23390
  -3  12  -3 1545.68  178.94   1-0.09362-0.48786-0.23676-0.68742-0.96704-0.53799
  -3 -12  -3 1357.98  145.99   1-0.69597-0.09516-0.45008-0.28745 0.55950 0.95305
  -3  12  -3 1133.14  342.67   1-0.11167-0.50727-0.22017-0.67091-0.96904-0.54087
   3  12   422127.77 1035.50   1 0.09374-0.54383 0.94280 0.83538 0.31990-0.07984
  -3  12  -423629.10  985.00   1-0.09207-0.45197-0.20804-0.71392-0.97377-0.53482
  -3 -12  -426217.88  695.60   1-0.71102-0.07579-0.46523-0.35776 0.52725 0.93072
  -3  12  -426797.26 1038.60   1-0.09204-0.45333-0.20623-0.71223-0.97416-0.53591
  -3  12  -5 1139.38  182.54   1-0.09031-0.41587-0.17705-0.73816-0.98004-0.53119
  -3 -12  -5 1035.88  128.16   1-0.72772-0.05802-0.48254-0.43009 0.48740 0.90091
  -3  12  -5 1408.52  315.17   1-0.06724-0.39422-0.18850-0.74976-0.97976-0.53144
  -3  12  -6   57.49  112.94   1-0.08837-0.37988-0.14419-0.76033-0.98559-0.52685
  -3 -12  -6    7.62   91.57   1-0.74539-0.04127-0.50161-0.50433 0.43904 0.86252
  -3  12  -6    8.73  151.33   1-0.03713-0.32982-0.16680-0.78333-0.98528-0.52688
  -3  12  -7 4687.59  340.83   1-0.08622-0.34343-0.10967-0.78104-0.99022-0.52156
  -3 -12  -7 4006.59  250.68   1-0.76318-0.02464-0.52196-0.57985 0.38091 0.81434
  -3  12  -7 3680.68  428.61   1-0.00153-0.25990-0.14088-0.81267-0.99002-0.52154
  -3  12  -8 1669.52  222.49   1-0.08389-0.30679-0.07370-0.80030-0.99374-0.51516
  -3 -12  -8 1708.93  191.50   1-0.04783 0.72589-0.37315-0.48812-0.92653-0.48456
  -3  12  -8 1493.15  327.65   1 0.03986-0.18420-0.11040-0.83745-0.99308-0.51452
   3 -13  -9  770.11  119.97   1-0.69201 0.15560 0.26073 0.07544-0.67315-0.98493
  -3 -13   9  463.39  151.25   1-0.71705-0.48785-0.47141 0.37877 0.51341 0.78646
  -3 -13   9  848.40  199.44   1 0.08209 0.31177-0.73547 0.11517 0.67256 0.94314
   3  13  -820327.15  624.81   1-0.00064-0.26804 0.73234-0.06220-0.68093-0.96139
   3 -13  -822002.77  623.12   1-0.69892 0.11430 0.27141 0.14137-0.66169-0.98333
  -3 -13   820904.55  573.69   1-0.70074-0.43712-0.45484 0.34018 0.54961 0.83258
   3 -13  -822052.29  794.17   1-0.07780 0.73588 0.06360-0.06481 0.99493 0.67399
  -3 -13   822043.11  700.11   1 0.08359 0.34781-0.75013 0.04533 0.65597 0.93646
   3  13  -7 1641.64  190.26   1 0.00186-0.29983 0.74807 0.00878-0.66361-0.95394
   3 -13  -7 1495.69  182.41   1-0.70953 0.06929 0.28832 0.21354-0.64298-0.97447
  -3 -13   7 1412.24  162.13   1-0.68632-0.38828-0.44055 0.29931 0.57867 0.87157
  -3 -13   7 1502.60  209.52   1 0.08560 0.38436-0.76997-0.02968 0.63230 0.92270
   3  13  -6 4551.30  291.75   1 0.00524-0.33076 0.76859 0.08458-0.63971-0.93991
   3  13  -6 3664.02  394.19   1-0.66649-0.99990 0.67755-0.00867 0.31097 0.01069
   3 -13  -6 4458.34  280.31   1-0.72425 0.02018 0.31292 0.29339-0.61443-0.95577
  -3 -13   6 4388.80  290.52   1-0.67431-0.34189-0.42886 0.25566 0.60114 0.90429
  -3  13   6 4822.21  520.54   1-0.00350-0.74938-0.14233-0.12122-0.98981-0.65093
  -3 -13   6 4877.79  375.78   1 0.08816 0.42126-0.79527-0.10999 0.59980 0.90024
   3  13  -5  238.32  124.66   1 0.00961-0.36071 0.79399 0.16524-0.60784-0.91792
   3  13  -5  186.04   95.31   1-0.62837-0.99634 0.67800 0.04709 0.38139 0.07122
   3 -13  -5  317.76   90.12   1-0.74305-0.03287 0.34685 0.38262-0.57232-0.92331
  -3 -13   5  422.18   90.29   1-0.66461-0.29776-0.41954 0.20981 0.61827 0.93129
  -3  13   5  613.37  203.21   1-0.03342-0.74499-0.16411-0.19826-0.98587-0.63692
  -3 -13   5  367.11  127.03   1 0.09124 0.45890-0.82597-0.19589 0.55626 0.86662
   3  13  -4  267.08  109.24   1 0.01506-0.38957 0.82398 0.25044-0.56641-0.88628
   3 -13  -4  199.96   95.12   1-0.76544-0.08966 0.39281 0.48383-0.50968-0.87055
  -3 -13   4  112.30   90.64   1-0.65762-0.25632-0.41288 0.16131 0.63012 0.95303
  -3  13   4  234.92  237.61   1-0.05687-0.73414-0.18105-0.27047-0.98182-0.62279
  -3 -13   4   62.00  116.03   1 0.09479 0.49642-0.86165-0.28671 0.49856 0.81936
   3  13  -3  415.89  174.02   1 0.02173-0.41722 0.85797 0.33969-0.51323-0.84293
   3 -13  -3  369.76   88.98   1-0.78840-0.14704 0.45292 0.59922-0.41626-0.78696
  -3 -13   3  338.74   86.97   1-0.65345-0.21772-0.40893 0.11009 0.63699 0.96978
  -3  13   3  276.23  207.92   1-0.07432-0.71729-0.19358-0.33826-0.97826-0.60915
  -3 -13   3  454.26  135.32   1 0.09859 0.53478-0.90047-0.38073 0.42358 0.75434
   3  13  -244675.02 1158.85   1 0.02966-0.44357 0.89438 0.43121-0.44631-0.78568
  -3  13   239837.41 1224.79   1-0.09143-0.69891-0.19659-0.39666-0.97621-0.59513
  -3 -13   248101.28 1086.49   1-0.65220-0.18203-0.40776 0.05610 0.63902 0.98168
  -3  13   237293.59 1340.12   1-0.08613-0.69478-0.20202-0.40196-0.97558-0.59639
  -3 -13   245415.01 1351.10   1 0.10230 0.57287-0.93941-0.47478 0.32717 0.66812
   3  13  -125006.80  825.31   1 0.03890-0.46859 0.93094 0.52282-0.36306-0.71209
  -3  13   122206.25  777.56   1-0.09230-0.66543-0.21228-0.46758-0.97283-0.58185
  -3 -13   127180.73  656.14   1-0.65391-0.14930-0.40937-0.00066 0.63624 0.98879
  -3  13   128425.61 1047.16   1-0.09256-0.66691-0.20660-0.46181-0.97403-0.58477
  -3 -13   128439.50  843.20   1 0.10530 0.61040-0.97288-0.56339 0.20590 0.55676
   3  13   091378.50 1445.98   1 0.04940-0.49244 0.96414 0.61124-0.26073-0.61957
  -3  13   078517.08 1533.93   1-0.09238-0.63117-0.21375-0.52427-0.97250-0.57162
  -3 -13   087833.64 1456.75   1-0.65854-0.11950-0.41376-0.06022 0.62858 0.99100
  -3  13   096067.55 1858.14   1-0.09382-0.63386-0.20750-0.51797-0.97372-0.57438
  -3 -13   094391.26 1500.56   1 0.10670 0.64644-0.99265-0.63842 0.05702 0.41775
   3  13   112783.55  567.69   1 0.06080-0.51538 0.98845 0.69063-0.13880-0.50735
  -3  13  -110559.74  692.01   1-0.09195-0.59639-0.20594-0.57169-0.97423-0.56344
  -3 -13  -113411.66  479.37   1-0.66602-0.09254-0.42089-0.12251 0.61584 0.98814
  -3  13  -114320.66  736.62   1-0.09006-0.59580-0.20482-0.57055-0.97464-0.56522
  -3 -13  -112748.95  617.25   1 0.10531 0.67959-0.98749-0.68846-0.11735 0.25331
   3  13   2 2334.23  232.90   1 0.07258-0.53785 0.99735 0.75445 0.00211-0.37617
  -3  13  -2 2404.48  271.43   1-0.09115-0.56124-0.19161-0.61258-0.97722-0.55654
  -3 -13  -2 2493.27  175.39   1-0.67620-0.06828-0.43068-0.18747 0.59771 0.97989
  -3  13  -2 2526.64  320.60   1-0.08138-0.55281-0.19862-0.61962-0.97668-0.55719
   3  13   3 9271.76  459.22   1 0.08399-0.56073 0.98369 0.79572 0.15905-0.22890
  -3  13  -3 8706.72  729.05   1-0.09004-0.52580-0.17240-0.64860-0.98090-0.55031
  -3 -13  -3 9528.58  375.19   1-0.68887-0.04660-0.44306-0.25480 0.57371 0.96586
  -3  13  -311668.85  677.16   1-0.06781-0.50493-0.18891-0.66517-0.97964-0.55006
  -3  13  -4  392.57  120.25   1-0.08868-0.49009-0.14942-0.68084-0.98478-0.54430
  -3 -13  -4  537.36  111.18   1-0.70369-0.02700-0.45781-0.32472 0.54334 0.94542
  -3  13  -4  343.86  217.66   1-0.04935-0.45218-0.17563-0.70716-0.98321-0.54356
  -3  13  -5  821.34  180.10   1-0.08709-0.45444-0.12340-0.70983-0.98852-0.53816
  -3 -13  -5 1075.47  130.94   1-0.72024-0.00912-0.47471-0.39678 0.50585 0.91786
  -3  13  -5 1424.63  275.95   1-0.02596-0.39447-0.15870-0.74548-0.98698-0.53724
  -3  13  -630646.87  951.67   1-0.08528-0.41832-0.09486-0.73652-0.99183-0.53154
  -3 -13  -628782.38  820.31   1-0.73799 0.00759-0.49351-0.47060 0.46023 0.88231
  -3  13  -630889.72 1220.21   1 0.00247-0.33173-0.13794-0.77999-0.99043-0.53062
  -3  13  -7  458.53  155.62   1-0.08326-0.38199-0.06418-0.76107-0.99445-0.52425
  -3 -13  -7  185.28  100.20   1-0.75612 0.02388-0.51371-0.54597 0.40541 0.83745
  -3  13  -7  364.60  213.44   1 0.03613-0.26376-0.11316-0.81047-0.99291-0.52302
   3  14  -8  628.90  157.23   1 0.00103-0.30789 0.74286-0.07717-0.66943-0.94828
   3 -14  -8  406.99  106.67   1-0.70589 0.14882 0.28245 0.17797-0.64956-0.97271
  -3 -14   8  607.44  113.95   1-0.69524-0.39017-0.44936 0.37129 0.56098 0.84256
   3 -14  -8  660.07  147.28   1-0.11614 0.73899 0.03476-0.06803 0.99262 0.67026
  -3 -14   8  477.37  152.02   1 0.08497 0.39061-0.76375 0.05736 0.63989 0.91876
   3  14  -714087.80  520.36   1 0.00355-0.33968 0.75838-0.00639-0.65180-0.94051
   3 -14  -712771.36  528.55   1-0.71673 0.10359 0.30017 0.25094-0.62943-0.96244
  -3 -14   710715.07  471.95   1-0.68118-0.34167-0.43552 0.32997 0.58848 0.87998
   3 -14  -715100.87  650.32   1-0.07229 0.74840 0.06772 0.02011 0.99508 0.66293
  -3 -14   713956.24  559.58   1 0.08697 0.42716-0.78354-0.01760 0.61522 0.90400
   3  14  -6   68.38  163.75   1 0.00691-0.37062 0.77847 0.06896-0.62763-0.92621
   3 -14  -6  -12.93   73.87   1-0.73155 0.05437 0.32572 0.33175-0.59893-0.94179
  -3 -14   6   -0.26   68.04   1-0.66949-0.29562-0.42422 0.28593 0.60975 0.91150
   3 -14  -6   55.45  117.53   1-0.03578 0.75046 0.09489 0.10246 0.99484 0.65291
  -3  14   6   80.30  284.32   1 0.03872-0.74868-0.11125-0.11566-0.99303-0.65275
  -3 -14   6  -19.46  109.61   1 0.08949 0.46402-0.80854-0.09762 0.58158 0.88042
   3  14  -512908.78  486.55   1 0.01123-0.40060 0.80316 0.14887-0.59565-0.90407
  -3 -14   512822.67  413.47   1-0.66009-0.25178-0.41523 0.23975 0.62598 0.93761
  -3  14   513257.95  860.22   1 0.00982-0.74328-0.13256-0.19224-0.99112-0.64076
  -3 -14   512938.17  516.26   1 0.09250 0.50159-0.83862-0.18290 0.53680 0.84554
   3  14  -4 1074.78  153.83   1 0.01662-0.42953 0.83222 0.23319-0.55418-0.87242
  -3 -14   4 1124.76  131.27   1-0.65331-0.21056-0.40880 0.19101 0.63722 0.95873
  -3  14   4 1186.49  317.54   1-0.01296-0.73176-0.14923-0.26418-0.98871-0.62827
  -3 -14   4 1098.47  164.98   1 0.09593 0.53898-0.87326-0.27267 0.47770 0.79696
   3  14  -342372.19  983.65   1 0.02319-0.45728 0.86500 0.32123-0.50122-0.82927
  -3 -14   344197.28  827.24   1-0.64927-0.17209-0.40500 0.13965 0.64374 0.97513
  -3  14   335706.12 1321.28   1-0.03004-0.71454-0.16166-0.33187-0.98638-0.61586
  -3 -14   342871.20 1020.45   1 0.09957 0.57701-0.91061-0.36513 0.40108 0.73057
   3  14  -2  288.64  117.77   1 0.03098-0.48377 0.89999 0.41131-0.43480-0.77251
  -3 -14   2  160.11   89.48   1-0.64806-0.13645-0.40386 0.08562 0.64567 0.98694
  -3  14   2  164.16  264.98   1-0.04173-0.69192-0.17013-0.39560-0.98453-0.60393
  -3 -14   2  391.10  119.23   1 0.10304 0.61503-0.94738-0.45710 0.30304 0.64248
   3  14  -1 1919.92  197.77   1 0.04004-0.50895 0.93501 0.50136-0.35234-0.69971
  -3 -14   1 2417.65  214.74   1-0.64971-0.10365-0.40541 0.02891 0.64304 0.99419
  -3  14   1 2652.65  348.74   1-0.04827-0.66415-0.17485-0.45559-0.98340-0.59273
  -3 -14   1 2384.73  221.06   1 0.10573 0.65225-0.97802-0.54288 0.17966 0.52899
   3  14   0  860.11  147.75   1 0.05032-0.53299 0.96659 0.58802-0.25131-0.60838
  -3  14   0  899.64  166.88   1-0.08708-0.66749-0.12329-0.45909-0.98854-0.58624
  -3 -14   0  873.02  121.62   1-0.65419-0.07369-0.40963-0.03047 0.63578 0.99681
  -3  14   0 1052.76  261.56   1-0.04985-0.63143-0.17599-0.51199-0.98312-0.58237
   3  14   120888.50  764.86   1 0.06158-0.55610 0.98960 0.66625-0.12995-0.49684
  -3  14  -121978.96  731.15   1-0.08724-0.63334-0.12579-0.51682-0.98821-0.57599
  -3 -14  -124373.06  598.15   1-0.66143-0.04650-0.41650-0.09250 0.62372 0.99462
  -3  14  -124556.84  948.72   1-0.04661-0.59388-0.17365-0.56491-0.98370-0.57287
   3  14   2 8013.84  455.95   1 0.07325-0.57869 0.99725 0.72880 0.01060-0.36601
  -3  14  -2 9797.79  504.94   1-0.08685-0.59865-0.11966-0.56592-0.98900-0.56686
  -3 -14  -2 8346.48  331.63   1-0.67130-0.02194-0.42596-0.15712 0.60655 0.98733
  -3  14  -2 9454.70  621.90   1-0.03862-0.55159-0.16788-0.61440-0.98504-0.56413
  -3  14  -338441.99 1073.48   1-0.08607-0.56356-0.10723-0.60872-0.99050-0.55843
  -3 -14  -347432.46  811.46   1-0.68365 0.00008-0.43793-0.22405 0.58381 0.97457
  -3  14  -350142.28 1452.77   1-0.02595-0.50461-0.15869-0.66047-0.98698-0.55599
  -3  14  -4  123.51  119.13   1-0.08496-0.52814-0.08996-0.64668-0.99231-0.55033
  -3 -14  -4   66.35   98.68   1-0.69813 0.02001-0.45223-0.29352 0.55505 0.95574
  -3  14  -4  -36.02  183.71   1-0.00859-0.45294-0.14605-0.70309-0.98923-0.54817
  -3  14  -5 2061.12  380.79   1-0.08357-0.49244-0.06885-0.68080-0.99412-0.54221
  -3 -14  -5 2227.60  198.06   1-0.71441 0.03816-0.46869-0.36515 0.51955 0.93016
  -3  14  -5 2305.84  411.72   1 0.01348-0.39655-0.12986-0.74217-0.99144-0.54029
  -3  14  -6  287.79  135.24   1-0.08193-0.45649-0.04461-0.71179-0.99563-0.53381
  -3 -14  -6  304.91   85.50   1-0.73201 0.05504-0.48709-0.43856 0.47632 0.89701
  -3  14  -6  146.36  294.20   1 0.04039-0.33534-0.11001-0.77758-0.99310-0.53188
   3  15  -6 9123.99  486.01   1 0.00886-0.41021 0.78973 0.05473-0.61338-0.91034
  -3 -15   6 8385.38  408.77   1-0.66645-0.25113-0.42130 0.31447 0.61509 0.91544
   3 -15  -6 9942.90  537.86   1-0.07560 0.75209 0.06525 0.09843 0.99500 0.65165
  -3 -15   6 6957.89  453.19   1 0.09096 0.50692-0.82321-0.08665 0.56038 0.85762
   3  15  -5  749.00  140.82   1 0.01316-0.44020 0.81375 0.13396-0.58106-0.88784
  -3 -15   5  906.83  127.77   1-0.65736-0.20760-0.41263 0.26797 0.63056 0.94079
   3 -15  -5  898.84  171.24   1-0.04681 0.74644 0.08671 0.17507 0.99513 0.64200
  -3  15   5  795.59  235.92   1 0.05091-0.74371-0.10220-0.18740-0.99345-0.64168
  -3 -15   5  644.63  179.22   1 0.09391 0.54381-0.85276-0.17130 0.51378 0.82153
   3  15  -4   26.58   91.55   1 0.01850-0.46918 0.84188 0.21735-0.53933-0.85593
  -3 -15   4  116.78  111.68   1-0.65081-0.16661-0.40644 0.21899 0.64128 0.96139
  -3  15   4  459.50  412.70   1 0.02879-0.73153-0.11859-0.25905-0.99252-0.63067
  -3 -15   4  194.20  128.91   1 0.09719 0.58166-0.88615-0.25990 0.45307 0.77078
   3  15  -354043.66 1170.47   1 0.02495-0.49698 0.87329 0.30385-0.48656-0.81282
  -3 -15   358405.33  891.81   1-0.64691-0.12828-0.40278 0.16749 0.64750 0.97749
  -3 -15   353498.19 1084.36   1 0.10064 0.61950-0.92181-0.35067 0.37434 0.70230
   3  15  -2  825.35  145.42   1 0.03266-0.52361 0.90695 0.39277-0.41995-0.75601
  -3 -15   2  904.73  121.91   1-0.64574-0.09268-0.40169 0.11342 0.64934 0.98921
  -3  15   2  533.61  265.92   1 0.00056-0.69114-0.13934-0.39034-0.99024-0.60823
   3  15  -1  454.14  124.99   1 0.04157-0.54893 0.94029 0.48112-0.33780-0.68351
  -3 -15   1  381.00   98.46   1-0.64733-0.05982-0.40317 0.05677 0.64684 0.99659
  -3  15   1  517.14  227.04   1-0.00603-0.66345-0.14418-0.45043-0.98953-0.59744
   3  15   0 2471.22  241.24   1 0.05169-0.57313 0.97008 0.56598-0.23719-0.59260
  -3 -15   0 2830.79  211.46   1-0.65165-0.02970-0.40723-0.00244 0.63992 0.99955
  -3  15   0 2690.49  339.55   1-0.00788-0.63099-0.14553-0.50704-0.98932-0.58715
   3  15   1 8136.47  432.27   1 0.06273-0.59631 0.99116 0.64195-0.11682-0.48198
  -3  15  -1 7764.25  387.62   1-0.08196-0.66959-0.04506-0.46161-0.99561-0.58185
  -3 -15  -1 8465.87  387.09   1-0.65864-0.00226-0.41385-0.06422 0.62842 0.99793
  -3  15  -1 8223.37  616.31   1-0.00509-0.59389-0.14349-0.56027-0.98963-0.57739
  -3  15  -2  116.32  112.74   1-0.08210-0.63542-0.04711-0.51888-0.99550-0.57182
  -3 -15  -2    8.43   84.72   1-0.66819 0.02262-0.42296-0.12850 0.61206 0.99145
  -3  15  -3  219.52  131.61   1-0.08171-0.60072-0.04138-0.56838-0.99579-0.56219
  -3 -15  -3   96.67  111.20   1-0.68016 0.04503-0.43452-0.19503 0.59039 0.97976
  -3  15  -3  173.70  285.56   1 0.01409-0.50609-0.12942-0.65672-0.99148-0.55908
  -3 -15  -4   16.67   66.57   1-0.69425 0.06536-0.44837-0.26404 0.56299 0.96229
  -3  15  -4   43.87  241.01   1 0.03044-0.45543-0.11737-0.69994-0.99262-0.55014
  -3  15  -533182.31 1174.96   1-0.07976-0.53012-0.01360-0.65112-0.99672-0.54314
  -3 -15  -531831.71 1029.89   1-0.71016 0.08387-0.46435-0.33518 0.52919 0.93841
   3 -15   529752.78 1083.79   1-0.03939 0.40944 0.09222 0.73242 0.99495 0.54397
  -3  15  -532614.09 1326.20   1 0.05132-0.40025-0.10190-0.73973-0.99347-0.54091
   3  16  -5 3049.48  295.82   1 0.01536-0.47953 0.82556 0.12027-0.56409-0.86924
  -3 -16   5 3551.19  222.02   1-0.65624-0.16503-0.41158 0.29465 0.63241 0.94124
   3 -16  -5 3740.92  329.95   1-0.08582 0.74888 0.05759 0.17158 0.99464 0.64010
  -3 -16   5 3395.20  343.71   1 0.09540 0.58673-0.86792-0.16081 0.48744 0.79365
   3  16  -416878.08  742.32   1 0.02067-0.50853 0.85277 0.20274-0.52186-0.83683
  -3 -16   415524.53  611.39   1-0.64993-0.12428-0.40562 0.24545 0.64269 0.96140
   3 -16  -417854.36  744.59   1-0.06356 0.73670 0.07424 0.24341 0.99521 0.63088
   3  16  -3 8289.26  494.19   1 0.02706-0.53639 0.88294 0.28799-0.46870-0.79331
  -3 -16   310268.65  384.35   1-0.64618-0.08610-0.40210 0.19380 0.64866 0.97725
   3 -16  -3 9255.78  508.35   1-0.04649 0.71932 0.08694 0.31130 0.99512 0.62101
  -3  16   3 7577.07  622.09   1 0.05237-0.71518-0.10112-0.32237-0.99349-0.62015
   3  16  -227986.04  830.86   1 0.03468-0.56310 0.91507 0.37537-0.40179-0.73621
  -3 -16   233784.24  700.49   1-0.64505-0.05054-0.40104 0.13969 0.65043 0.98890
   3 -16  -234434.62  914.47   1-0.03436 0.69700 0.09594 0.37547 0.99479 0.61089
  -3  16   231798.19 1487.57   1 0.04100-0.69224-0.10955-0.38607-0.99313-0.60971
   3  16  -1 2805.10  264.22   1 0.04348-0.58853 0.94659 0.46189-0.31947-0.66353
  -3 -16   1 3360.16  222.05   1-0.64658-0.01762-0.40247 0.08310 0.64803 0.99638
  -3  16   1 2972.89  345.37   1 0.03436-0.66457-0.11447-0.44625-0.99283-0.59933
  -3 -16   011107.00  444.82   1-0.65073 0.01265-0.40638 0.02403 0.64140 0.99963
  -3  16   013755.51  824.52   1 0.03229-0.63233-0.11600-0.50304-0.99272-0.58914
  -3 -16  -1   51.52   88.38   1-0.65747 0.04035-0.41274-0.03749 0.63037 0.99848
  -3  16  -1   28.85  247.48   1 0.03468-0.59564-0.11424-0.55654-0.99284-0.57919
  -3 -16  -219463.27  580.02   1-0.66668 0.06557-0.42152-0.10143 0.61468 0.99267
   3 -16   219671.28  686.52   1-0.03188 0.56173 0.09778 0.59805 0.99469 0.57165
  -3  16  -218619.39 1207.84   1 0.04144-0.55457-0.10923-0.60680-0.99315-0.56941
  -3  16  -3  168.44  108.56   1-0.07697-0.63746 0.02490-0.52765-0.99672-0.56143
  -3 -16  -3   38.10   81.96   1-0.67826 0.08838-0.43268-0.16757 0.59391 0.98189
   3 -16   3   60.91  161.39   1-0.04226 0.51690 0.09009 0.64554 0.99503 0.56221
  -3  16  -3  -31.35  230.62   1 0.05253-0.50917-0.10099-0.65382-0.99349-0.55968
  -3  16  -4 9329.44  524.53   1-0.07651-0.60271 0.03098-0.57681-0.99658-0.55137
  -3 -16  -411058.17  394.53   1-0.69193 0.10914-0.44607-0.23611 0.56767 0.96557
   3 -16   4 9651.50  593.01   1-0.05697 0.46775 0.07915 0.68979 0.99523 0.55262
   3  17  -2 3817.64  325.79   1 0.03704-0.60226 0.92412 0.35891-0.38029-0.71306
  -3 -17   2 5107.28  280.83   1-0.64582-0.00985-0.40175 0.16461 0.64923 0.98631
   3 -17  -2 6006.43  408.57   1-0.07310 0.69972 0.06712 0.37227 0.99506 0.60975
  -3 -17   1 8481.45  342.62   1-0.64728 0.02311-0.40313 0.10807 0.64692 0.99387
   3 -17  -1 8637.12  477.60   1-0.06574 0.67263 0.07261 0.43295 0.99519 0.60009
  -3 -17   0 8421.26  393.07   1-0.65128 0.05355-0.40689 0.04914 0.64052 0.99735
   3 -17   0 9993.59  465.73   1-0.06279 0.64114 0.07481 0.49033 0.99521 0.59033
  -3 -17  -1 4546.89  268.87   1-0.65776 0.08151-0.41302-0.01214 0.62988 0.99659
   4   0 -12  830.56  150.70   1 0.02406 0.43318 0.86913 0.17814-0.49398-0.88352
   4   0 -12  856.53  149.45   1-0.76879-0.35762 0.40045-0.28973-0.49859-0.88778
  -4   0  12  813.91  214.69   1 0.09178-0.32032-0.83143-0.14141 0.54798 0.93669
   4   0 -11    4.59  102.84   1 0.02504 0.39982 0.87369 0.23795-0.48582-0.88516
   4   0 -11    6.89   77.28   1-0.77465-0.43229 0.41455-0.16513-0.47755-0.88648
  -4   0  11   40.46  122.09   1 0.09242-0.28513-0.83777-0.20295 0.53813 0.93675
   4   0 -1054575.41 1132.58   1 0.02682 0.36726 0.88182 0.30132-0.47080-0.87995
   4   0 -1057740.84  982.49   1-0.77465-0.43229 0.41455-0.16513-0.47755-0.88648
  -4   0  1053849.54 1088.19   1 0.09342-0.24958-0.84785-0.26823 0.52193 0.93046
   4   0  -9   14.70   89.29   1 0.02946 0.33557 0.89349 0.36824-0.44810-0.86705
   4   0  -9   46.22   80.69   1-0.77960-0.47145 0.42732-0.09723-0.45783-0.87651
   4   0  -8  897.85  132.64   1 0.03302 0.30479 0.90841 0.43840-0.41675-0.84551
   4   0  -8 1226.85  138.25   1-0.78571-0.51199 0.44461-0.02469-0.43007-0.85863
  -4   0   8 1175.84  159.81   1 0.09652-0.17807-0.87924-0.41018 0.46648 0.89444
   4   0  -7  119.50  115.70   1 0.03753 0.27504 0.92595 0.51119-0.37577-0.81427
  -4   0   7  196.71  135.66   1 0.09855-0.14147-0.90011-0.48625 0.42436 0.86229
   4   0  -694488.19 1317.52   1 0.04301 0.24616 0.94505 0.58553-0.32405-0.77237
   4   0  -698747.75 1329.78   1-0.79869-0.59416 0.49276 0.13285-0.34536-0.79329
  -4   0   695719.89 1637.64   1-0.75184-0.95815-0.59481-0.23544-0.28448 0.16279
  -4   0   694560.25 1422.10   1 0.10077-0.10498-0.92316-0.56435 0.37097 0.81883
   4   0  -5   20.07  104.47   1 0.04938 0.21818 0.96408 0.65979-0.26094-0.71907
   4   0  -5   -3.84   61.69   1-0.80315-0.63309 0.52338 0.21881-0.28461-0.74250
  -4   0   5  -73.29   78.22   1 0.10298-0.06821-0.94681-0.64321 0.30484 0.76264
   4   0  -449128.99 1145.30   1 0.05649 0.19093 0.98086 0.73178-0.18630-0.65424
   4   0  -446653.28 1153.67   1-0.80358-0.66794 0.55697 0.30768-0.20981-0.67762
  -4   0   446902.21 1142.69   1-0.76758-0.90515-0.59949-0.35050-0.22677 0.24052
  -4   0   451353.06 1274.68   1 0.10493-0.03175-0.96857-0.72005 0.22549 0.69319
   4   0  -3  -14.36   67.92   1 0.06413 0.16429 0.99285 0.79904-0.10066-0.57839
   4   0  -3   -6.98   51.99   1-0.79717-0.69602 0.59169 0.39772-0.12004-0.59779
  -4   0   3   -2.00   71.66   1 0.10629 0.00420-0.98542-0.79201 0.13283 0.61048
   4   0  -2 3357.78  266.50   1 0.07195 0.13772 0.99738 0.85878-0.00594-0.49348
   4   0  -2 3167.55  214.74   1-0.78083-0.71419 0.62452 0.48561-0.01645-0.50409
  -4   0   2 3562.39  273.90   1-0.77241-0.84123-0.60061-0.46200-0.20648 0.28084
  -4   0   2 3631.71  247.53   1 0.10670 0.03914-0.99388-0.85568 0.02842 0.51601
   4   0  -1  108.10   92.08   1 0.07958 0.11086 0.99226 0.90886 0.09526-0.40208
   4   0  -1   28.26   76.79   1-0.75169-0.71959 0.65209 0.56838 0.09860-0.39890
  -4   0   1   57.43   84.80   1-0.77170-0.80614-0.60045-0.51704-0.20958 0.28774
  -4   0   1  -12.84  101.74   1 0.10582 0.07281-0.99078-0.90779-0.08448 0.41304
   4   0   0 7399.39  402.66   1 0.08664 0.08356 0.97604 0.94784 0.19956-0.30757
   4   0   0 7607.21  345.43   1-0.70809-0.71033 0.67088 0.64264 0.22027-0.28712
  -4   0   0 6657.16  396.65   1-0.76894-0.76901-0.59982-0.57160-0.22119 0.28615
   4   0   1 -118.59  132.44   1 0.09283 0.05547 0.94835 0.97530 0.30331-0.21379
   4   0   1  402.51  105.41   1-0.65012-0.68693 0.67828 0.70536 0.34243-0.17485
  -4   0  -1   45.12  128.33   1-0.76396-0.72965-0.59854-0.62551-0.24106 0.27629
   4   0   272896.18 1362.65   1 0.09793 0.02635 0.90985 0.99196 0.40320-0.12371
  -4   0  -270400.44 1324.20   1-0.75637-0.68768-0.59629-0.67845-0.26895 0.25841
  -4   0  -3   59.68  156.96   1-0.74563-0.64257-0.59265-0.73000-0.30461 0.23276
   4   0   454234.41 1155.42   1 0.10457-0.03571 0.80610 0.99871 0.58245 0.03594
   4   0   5  -33.32  100.00   1 0.10615-0.06856 0.74453 0.99233 0.65909 0.10278
   4   0   647167.35 1020.20   1 0.10671-0.10259 0.67874 0.98166 0.72658 0.16067
   4   0   7   14.60  116.89   1 0.10635-0.13739 0.60998 0.96808 0.78524 0.20958
   4   0   856018.82 1324.29   1 0.10519-0.17300 0.53935 0.95264 0.83548 0.25007
  -4   0  -9  -71.22  126.46   1-0.10338 0.20683-0.46906-0.93743-0.87709-0.28005
  -4   0  -9  152.41   86.60   1-0.07843 0.23109-0.46001-0.92923-0.88444-0.28830
   4   0   9    8.63  112.30   1 0.05256-0.26148 0.45015 0.91836 0.89140 0.29702
  -4   0 -10 3216.05  264.37   1-0.10092 0.24363-0.39695-0.92054-0.91227-0.30533
  -4   0 -10 2651.56  235.39   1-0.04736 0.29755-0.37348-0.89918-0.92642-0.32081
  -4   0 -10 2779.33  243.25   1-0.10067 0.24315-0.39567-0.92014-0.91285-0.30693
   4  -1 -12 2650.03  256.59   1 0.02833 0.47897 0.88859 0.22311-0.45781-0.84900
   4   1 -12 2882.91  238.78   1 0.02041 0.38792 0.85147 0.13489-0.52400-0.91176
   4   1 -12 2903.43  212.01   1-0.77506-0.40512 0.41558-0.30033-0.47598-0.86352
   4  -1 -12 2944.32  205.28   1-0.76266-0.31000 0.38665-0.27796-0.51849-0.90919
  -4   1  12 2693.98  242.61   1 0.09325-0.36028-0.84619-0.18182 0.52464 0.91495
  -4  -1  12 2626.60  262.05   1 0.09049-0.28019-0.81851-0.10285 0.56731 0.95441
   4  -1 -11  266.43  102.89   1 0.02945 0.44575 0.89345 0.28322-0.44817-0.84917
   4   1 -11  276.04  132.79   1 0.02126 0.35446 0.85568 0.19435-0.51706-0.91464
   4  -1 -11  293.21  106.48   1-0.76479-0.34653 0.39136-0.21800-0.51178-0.91235
  -4   1  11  280.39  161.09   1 0.09390-0.32580-0.85272-0.24371 0.51385 0.91348
  -4  -1  11  214.53  155.38   1 0.09109-0.24504-0.82447-0.16400 0.55852 0.95553
   4  -1 -1012834.78  490.06   1 0.03139 0.41336 0.90172 0.34673-0.43116-0.84196
   4   1 -1012244.06  494.79   1 0.02289 0.32177 0.86355 0.25748-0.50373-0.91113
   4   1 -1012383.57  427.47   1-0.78084-0.47975 0.43068-0.17471-0.45253-0.85983
   4  -1 -1012635.63  495.28   1-0.76848-0.38463 0.39974-0.15437-0.49963-0.91006
  -4   1  1013963.25  547.33   1 0.09493-0.29021-0.86311-0.30930 0.49600 0.90559
  -4  -1  1012598.14  534.28   1 0.09206-0.20951-0.83421-0.22895 0.54369 0.95062
   4  -1  -962615.98 1210.30   1 0.03422 0.38185 0.91325 0.41350-0.40595-0.82655
   4   1  -964954.32 1430.00   1 0.02537 0.28996 0.87522 0.32445-0.48305-0.90035
   4   1  -962491.16 1277.51   1-0.78551-0.51885 0.44400-0.10614-0.43107-0.84824
   4  -1  -968329.22 1511.16   1-0.77371-0.42426 0.41223-0.08664-0.48107-0.90138
  -4   1   967398.39 1672.33   1 0.09631-0.25426-0.87717-0.37856 0.47041 0.88996
  -4  -1   966928.28 1480.44   1 0.09342-0.17359-0.84789-0.29783 0.52185 0.93869
   4  -1  -8 2102.57  192.64   1 0.03798 0.35135 0.92761 0.48314-0.37160-0.80194
   4   1  -8 2028.26  210.18   1 0.02873 0.25899 0.89034 0.39482-0.45438-0.88149
   4   1  -8 2178.15  173.08   1-0.79100-0.55877 0.46154-0.03333-0.40160-0.82865
   4  -1  -8 1597.11  230.84   1-0.78025-0.46503 0.42906-0.01466-0.45509-0.88516
  -4  -1   8 1988.58  242.06   1-0.75155-0.98509-0.59472-0.09935-0.28543 0.14039
  -4   1   8 2540.37  223.95   1 0.09802-0.21798-0.89466-0.45126 0.43584 0.86535
  -4  -1   8 1815.76  203.19   1 0.09515-0.13802-0.86535-0.37063 0.49204 0.91846
   4  -1  -758612.07 1519.21   1 0.04269 0.32170 0.94401 0.55477-0.32712-0.76728
   4   1  -758311.46 1427.16   1 0.03305 0.22897 0.90854 0.46826-0.41648-0.85340
   4   1  -758272.58 1441.33   1-0.79664-0.59915 0.48322 0.04240-0.36310-0.79951
   4  -1  -759777.76 1375.84   1-0.78774-0.50696 0.45083 0.06236-0.41975-0.85970
  -4  -1   758968.78 1465.81   1-0.76657-0.96574-0.59923-0.15906-0.23081 0.20503
  -4   1   759701.28 1544.50   1 0.09998-0.18175-0.91492-0.52657 0.39103 0.83047
  -4  -1   758208.69 1504.56   1 0.09723-0.10137-0.88650-0.44698 0.45239 0.88877
   4  -1  -6 4205.10  267.18   1 0.04831 0.29297 0.96116 0.62715-0.27171-0.72169
   4   1  -6 4294.89  275.03   1 0.03833 0.19997 0.92889 0.54384-0.36835-0.81501
   4   1  -6 4522.77  248.70   1-0.80153-0.63850 0.50934 0.12387-0.31323-0.75958
   4  -1  -6 4318.44  249.49   1-0.79524-0.54920 0.47731 0.14297-0.37383-0.82336
  -4  -1   6 4812.79  363.03   1-0.77665-0.94144-0.60142-0.21644-0.18733 0.25852
  -4   1   6 4915.97  308.32   1 0.10206-0.14511-0.93684-0.60369 0.33451 0.78389
  -4  -1   6 3994.12  289.03   1 0.09954-0.06479-0.91031-0.52585 0.40177 0.84810
   4  -1  -5 4618.26  291.19   1 0.05476 0.26506 0.97723 0.69846-0.20495-0.66474
   4   1  -5 4114.49  274.02   1 0.04457 0.17186 0.95005 0.62023-0.30888-0.76535
   4   1  -5 4610.18  256.22   1-0.80402-0.67546 0.53908 0.20894-0.25087-0.70716
   4  -1  -5 4323.28  253.96   1-0.80142-0.58985 0.50860 0.22960-0.31470-0.77417
  -4  -1   5 4179.31  355.00   1-0.78323-0.91365-0.60228-0.27250-0.15423 0.30163
  -4   1   5 4151.04  283.63   1 0.10405-0.10862-0.95849-0.68042 0.26544 0.72472
  -4  -1   5 4630.38  307.40   1 0.10192-0.02785-0.93539-0.60613 0.33859 0.79487
   4  -1  -417408.04  629.44   1 0.06183 0.23778 0.98995 0.76640-0.12712-0.59672
   4   1  -417483.12  602.74   1 0.05164 0.14458 0.96996 0.69535-0.23770-0.70397
   4   1  -416911.17  610.95   1-0.80197-0.70783 0.57113 0.29625-0.17503-0.64124
   4  -1  -416342.76  622.77   1-0.80406-0.62696 0.54353 0.31987-0.24092-0.71034
  -4  -1   416398.64  583.56   1-0.78731-0.88335-0.60248-0.32788-0.13095 0.33492
  -4   1   416931.66  587.68   1 0.10568-0.07244-0.97741-0.75454 0.18301 0.65224
  -4  -1   418176.08  694.20   1 0.10413 0.00885-0.95940-0.68522 0.26209 0.72827
   4  -1  -3 7819.58  399.48   1 0.06928 0.21093 0.99682 0.82856-0.03923-0.51863
   4   1  -3 7346.32  366.45   1 0.05936 0.11793 0.98614 0.76675-0.15493-0.63101
   4   1  -3 7940.24  335.64   1-0.79277-0.73309 0.60348 0.38366-0.08550-0.56158
   4  -1  -3 8271.03  321.58   1-0.80025-0.65760 0.58020 0.41181-0.15148-0.63083
  -4   1   3 8483.25  465.59   1-0.74462-0.88933-0.59228-0.42409-0.30779 0.17093
  -4  -1   3 8023.48  388.85   1-0.78953-0.85119-0.60243-0.38303-0.11707 0.35881
  -4   1   3 7717.47  375.47   1 0.10661-0.03690-0.99037-0.82261 0.08821 0.56739
  -4  -1   3 8183.52  390.06   1 0.10584 0.04512-0.97945-0.76047 0.17167 0.64779
   4   1  -280319.66 1255.99   1 0.06742 0.09169 0.99580 0.83165-0.06180-0.54767
   4   1  -275444.59 1104.08   1-0.77354-0.74839 0.63350 0.46899 0.01702-0.46898
   4  -1  -276945.07 1099.45   1-0.78658-0.67845 0.61571 0.50240-0.04672-0.53598
  -4   1   270997.57 1234.61   1-0.74666-0.85700-0.59302-0.48002-0.30135 0.18738
  -4  -1   273621.78 1086.98   1-0.79026-0.81755-0.60239-0.43818-0.11227 0.37363
  -4   1   279432.43 1213.33   1 0.10651-0.00247-0.99416-0.88160-0.01714 0.47197
   4  -1  -163995.57 1118.30   1 0.08382 0.15663 0.98413 0.92631 0.15637-0.34265
   4   1  -160323.89 1038.43   1 0.07545 0.06525 0.99637 0.88740 0.03932-0.45634
   4   1  -161696.09  965.44   1-0.74203-0.75140 0.65781 0.54849 0.12907-0.36680
   4  -1  -164335.73 1023.75   1-0.75970-0.68612 0.64636 0.58827 0.07116-0.42797
  -4   1   161412.10 1202.62   1-0.74600-0.82197-0.59278-0.53498-0.30343 0.19532
  -4  -1   156552.92 1025.02   1-0.78965-0.78257-0.60243-0.49341-0.11627 0.37963
  -4   1   161730.30 1009.05   1 0.10509 0.03065-0.98600-0.92865-0.12939 0.36966
  -4  -1   161208.89 1004.94   1 0.10629 0.11471-0.99335-0.88471-0.04420 0.45180
   4  -1   0 3149.97  238.05   1 0.09022 0.12861 0.96200 0.95937 0.25769-0.25111
   4   1   0 2916.94  260.96   1 0.08307 0.03846 0.98588 0.93211 0.14533-0.36011
   4   1   0 3133.05  244.78   1-0.69703-0.74075 0.67345 0.61958 0.24616-0.25961
   4  -1   0 2903.88  231.72   1-0.71736-0.67813 0.66817 0.66555 0.19729-0.31171
  -4   1   0 3254.47  250.89   1-0.74269-0.78428-0.59157-0.58896-0.31376 0.19500
  -4  -1   0 2891.41  231.84   1-0.78765-0.74619-0.60248-0.54865-0.12888 0.37704
  -4  -1   0 2799.49  216.08   1 0.10441 0.14736-0.98110-0.92767-0.16286 0.34307
   4  -1   155015.28  994.94   1 0.09568 0.10000 0.92923 0.98173 0.35688-0.16187
   4   1   152735.41 1256.37   1 0.08991 0.01094 0.96339 0.96481 0.25256-0.26268
   4   1   154630.17  963.54   1-0.63902-0.71730 0.67830 0.67976 0.36269-0.15297
   4  -1   150997.29 1002.22   1-0.65928-0.65462 0.67798 0.73068 0.32508-0.19381
  -4  -1  -149982.21 1035.09   1-0.78402-0.70819-0.60235-0.60371-0.14990 0.36603
   4  -1   216691.15  629.31   1 0.10005 0.06994 0.88684 0.99453 0.45109-0.07746
   4   1   217302.75  653.97   1 0.09570-0.01734 0.92909 0.98563 0.35724-0.16802
  -4  -1  -216577.87  574.72   1-0.77836-0.66815-0.60170-0.65826-0.17917 0.34678
   4  -1   3 5757.97  402.02   1 0.10328 0.03870 0.83626 0.99925 0.53850 0.00015
   4   1   3 6257.87  351.53   1 0.10027-0.04720 0.88405 0.99579 0.45649-0.07857
  -4  -1  -3 6206.67  372.39   1-0.77007-0.62548-0.60009-0.71184-0.21652 0.31944
   4  -1   451547.83 1017.59   1 0.10540 0.00659 0.77937 0.99756 0.61762 0.06948
   4   1   451161.04 1041.19   1 0.10359-0.07835 0.82989 0.99691 0.54821 0.00335
  -4  -1  -454825.49 1034.10   1-0.75839-0.57943-0.59692-0.76386-0.26177 0.28420
   4  -1   580436.72 1948.30   1 0.10650-0.02689 0.71778 0.99111 0.68806 0.13028
   4   1   578729.42 1857.38   1 0.10567-0.11050 0.76873 0.99095 0.63077 0.07610
  -4  -1  -578735.16 1856.33   1-0.74236-0.52903-0.59145-0.81359-0.31475 0.24123
   4  -1   6115689.4 1662.96   1 0.10667-0.06117 0.65280 0.98131 0.74997 0.18243
   4   1   6113796.8 1633.79   1 0.10662-0.14413 0.70234 0.97967 0.70380 0.13953
   4  -1   6115050.7 1641.57   1 0.07320-0.09590 0.64864 0.97701 0.75756 0.19037
   4  -1   7 6982.37  431.18   1 0.10604-0.09626 0.58558 0.96927 0.80364 0.22635
   4   1   7 7767.89  377.13   1 0.10656-0.17864 0.63220 0.96471 0.76744 0.19341
   4  -1   7 6786.64  360.53   1 0.06593-0.13768 0.57835 0.96187 0.81311 0.23630
   4   1   7 7534.16  412.61   1 0.07045-0.21595 0.62204 0.95434 0.77980 0.20638
   4  -1   8 9625.31  443.25   1 0.10468-0.13206 0.51696 0.95584 0.84958 0.26254
   4   1   8 8533.44  417.16   1 0.10560-0.21405 0.55963 0.94733 0.82198 0.23821
  -4   1  -810652.61  397.35   1-0.06122 0.17249-0.50731-0.94678-0.85958-0.27175
  -4  -1  -810078.61  389.87   1-0.04864 0.26810-0.54056-0.92901-0.83989-0.25503
   4  -1   8 9571.83  462.84   1 0.05841-0.17972 0.50609 0.94477 0.86049 0.27405
   4   1   8 9517.62  411.50   1 0.06244-0.25848 0.54479 0.93224 0.83624 0.25319
  -4   1  -916887.56  570.97   1-0.10275 0.16595-0.44889-0.94280-0.88765-0.28909
  -4   1  -915345.83  478.63   1-0.08444 0.18357-0.44300-0.93772-0.89253-0.29491
  -4  -1  -917103.80  488.80   1-0.07327 0.27776-0.47442-0.91814-0.87723-0.28258
   4  -1   912225.15  663.30   1 0.05072-0.22193 0.43260 0.92643 0.90015 0.30407
   4   1   913271.36  545.42   1 0.05417-0.30127 0.46554 0.90815 0.88336 0.29068
  -4   1 -10 4916.55  304.09   1-0.10024 0.20281-0.37924-0.92839-0.91984-0.31138
  -4  -1 -10 5024.91  331.43   1-0.10150 0.28456-0.41248-0.91054-0.90529-0.29988
  -4   1 -10 4818.60  293.87   1-0.06106 0.24235-0.36375-0.91503-0.92948-0.32245
  -4  -1 -10 4895.11  288.85   1-0.03715 0.34924-0.38065-0.88077-0.92397-0.31979
  -4   1 -10 4524.60  264.28   1-0.10598 0.19632-0.37973-0.92971-0.91900-0.31159
  -4  -1 -10 5204.35  385.72   1-0.09614 0.28919-0.40908-0.90806-0.90741-0.30297
   4  -2 -1215858.41  671.62   1 0.03331 0.52547 0.90961 0.26964-0.41411-0.80695
   4   2 -1215757.71  675.85   1 0.01736 0.34336 0.83605 0.09398-0.54836-0.93449
   4   2 -1218446.80  652.70   1-0.78139-0.45294 0.43219-0.30929-0.45013-0.83616
   4  -2 -1217093.58  626.60   1-0.75691-0.26276 0.37438-0.26467-0.53564-0.92785
  -4   2  1218162.42  748.97   1 0.09487-0.40083-0.86246-0.22390 0.49715 0.88836
  -4  -2  1216740.06  698.34   1 0.08939-0.23987-0.80750-0.06620 0.58304 0.96854
   4  -2 -1128104.27  841.26   1 0.03457 0.49239 0.91464 0.32991-0.40277-0.80541
   4   2 -1129342.23  868.37   1 0.01811 0.30978 0.83988 0.15306-0.54246-0.93840
   4   2 -1122190.09 1051.96   1-0.78362-0.48959 0.43846-0.24777-0.44009-0.83600
   4  -2 -1128848.94  840.01   1-0.75892-0.29917 0.37860-0.20519-0.52979-0.93187
  -4   2  1132509.14 1088.04   1 0.09556-0.36556-0.86954-0.28619 0.48451 0.88569
  -4  -2  1121560.04 1373.77   1 0.08995-0.20475-0.81310-0.12699 0.57512 0.97053
   4  -2 -1037498.68  928.39   1 0.03669 0.46017 0.92281 0.39333-0.38349-0.79594
   4   2 -1038071.08  950.44   1 0.01959 0.27695 0.84741 0.21585-0.53056-0.93632
   4   2 -1038937.98  826.07   1-0.78692-0.52732 0.44828-0.18268-0.42400-0.82978
   4  -2 -1037843.13  779.67   1-0.76260-0.33725 0.38651-0.14203-0.51868-0.93063
  -4   2  1041410.39  983.05   1 0.09661-0.32995-0.88014-0.35199 0.46478 0.87591
  -4  -2  1038312.16 1117.73   1 0.09089-0.16925-0.82250-0.19160 0.56144 0.96676
   4  -2  -917906.33  635.18   1 0.03971 0.42894 0.93385 0.45967-0.35543-0.77762
   4   2  -917414.35  600.40   1 0.02189 0.24493 0.85876 0.28245-0.51190-0.92748
   4   2  -916737.63  538.69   1-0.79112-0.56595 0.46195-0.11376-0.40088-0.81655
   4  -2  -917178.48  555.34   1-0.76797-0.37703 0.39856-0.07473-0.50136-0.92317
  -4  -2   916959.73  791.18   1-0.76046-0.98685-0.59754-0.02138-0.25422 0.16017
  -4   2   919502.99  751.48   1 0.09797-0.29402-0.89416-0.42122 0.43687 0.85797
  -4  -2   918257.66  659.31   1 0.09223-0.13336-0.83591-0.26020 0.54105 0.95629
   4  -2  -821157.42  671.03   1 0.04366 0.39853 0.94716 0.52821-0.31776-0.74977
   4   2  -820806.74  669.60   1 0.02508 0.21382 0.87390 0.35287-0.48544-0.91091
   4   2  -819010.00  519.31   1-0.79575-0.60529 0.47944-0.04228-0.37000-0.79487
   4  -2  -821790.36  544.73   1-0.77485-0.41815 0.41505-0.00309-0.47678-0.90837
  -4  -2   819877.90  979.07   1-0.77641-0.96842-0.60138-0.08041-0.18845 0.23596
  -4   2   820871.05  679.62   1 0.09963-0.25808-0.91123-0.49333 0.39965 0.83067
  -4  -2   821633.42  662.35   1 0.09395-0.09780-0.85321-0.33284 0.51302 0.93789
   4  -2  -7 7179.77  355.23   1 0.04852 0.36904 0.96173 0.59802-0.26964-0.71145
   4   2  -7 6865.04  344.44   1 0.02920 0.18360 0.89237 0.42659-0.45034-0.88561
   4   2  -7 7970.38  344.97   1-0.80025-0.64426 0.50121 0.03483-0.32919-0.76400
   4  -2  -7 7155.27  330.41   1-0.78298-0.46071 0.43665 0.07375-0.44301-0.88447
  -4  -2   7 7719.99  414.82   1-0.78663-0.94427-0.60247-0.13669-0.13500 0.29942
  -4   2   7 7830.55  392.74   1 0.10147-0.22168-0.93058-0.56788 0.35173 0.79269
  -4  -2   7 6705.45  356.00   1 0.09605-0.06114-0.87444-0.40926 0.47552 0.91036
   4  -2  -629952.76  964.98   1 0.05424 0.34042 0.97609 0.66762-0.21047-0.66210
   4   2  -629216.18  884.14   1 0.03429 0.15436 0.91353 0.50299-0.40531-0.85039
   4   2  -629444.09  810.40   1-0.80343-0.68191 0.52679 0.11575-0.27745-0.72221
   4  -2  -627753.66  790.95   1-0.79154-0.50369 0.46341 0.15577-0.39838-0.84972
  -4  -2   629675.14  893.67   1-0.79303-0.91630-0.60207-0.19148-0.09270 0.35173
  -4   2   628538.96  927.58   1 0.10335-0.18524-0.95084-0.64334 0.29192 0.74282
  -4  -2   630560.89  993.35   1 0.09842-0.02420-0.89874-0.48877 0.42727 0.87207
   4  -2  -559877.76 1114.55   1 0.06066 0.31248 0.98824 0.73500-0.14031-0.60176
   4   2  -561074.62 1078.93   1 0.04035 0.12613 0.93608 0.58074-0.34944-0.80425
   4   2  -558378.65  958.40   1-0.80369-0.71656 0.55534 0.19955-0.21369-0.66836
   4  -2  -563239.94  963.43   1-0.79913-0.54606 0.49501 0.24158-0.34109-0.80215
  -4  -2   557932.39 1058.62   1-0.79690-0.88579-0.60104-0.24565-0.06072 0.39372
  -4   2   560132.43 1131.75   1 0.10505-0.14904-0.96991-0.71749 0.21963 0.68043
  -4  -2   560471.73 1088.71   1 0.10092 0.01256-0.92477-0.56985 0.36689 0.82164
   4  -2  -491763.79 1835.48   1 0.06760 0.28513 0.99592 0.79801-0.05964-0.53091
   4   2  -487713.50 1774.74   1 0.04732 0.09875 0.95833 0.65823-0.28168-0.74631
   4   2  -490260.23 1701.86   1-0.79892-0.74628 0.58565 0.28520-0.13681-0.60143
   4  -2  -493567.77 1688.57   1-0.80371-0.58511 0.53101 0.33291-0.26845-0.73946
  -4  -2   493652.32 1797.92   1-0.79910-0.85361-0.59996-0.29976-0.03845 0.42600
  -4   2   491374.29 1766.88   1 0.10628-0.11321-0.98518-0.78786 0.13458 0.60535
  -4  -2   484144.42 1811.07   1 0.10333 0.04952-0.95054-0.65082 0.29290 0.75761
   4  -2  -369102.65 1241.63   1 0.07470 0.25777 0.99677 0.85412 0.02943-0.45169
   4   2  -367109.40 1057.44   1 0.05502 0.07209 0.97782 0.73290-0.20208-0.67650
   4   2  -370111.75 1014.47   1-0.78671-0.76851 0.61548 0.37005-0.04749-0.52195
   4  -2  -368719.70 1004.56   1-0.80223-0.61809 0.56944 0.42662-0.17931-0.66026
  -4  -2   366341.66 1000.86   1-0.80019-0.82033-0.59919-0.35418-0.02547 0.44899
  -4   2   368379.00 1153.51   1 0.10671-0.07824-0.99356-0.85145 0.03785 0.51856
  -4  -2   373933.00 1127.98   1 0.10532 0.08602-0.97305-0.72842 0.20510 0.67970
   4  -2  -2 3236.49  233.52   1 0.08163 0.23028 0.98887 0.90142 0.12430-0.36661
   4   2  -2 3237.25  254.24   1 0.06322 0.04600 0.99177 0.80207-0.11125-0.59545
   4   2  -2 2772.41  273.01   1-0.76458-0.78086 0.64232 0.45207 0.05319-0.43113
   4  -2  -2 3371.98  212.83   1-0.79100-0.64139 0.60737 0.51967-0.07352-0.56440
  -4  -2   2 3232.75  224.15   1-0.80050-0.78627-0.59893-0.40911-0.02146 0.46302
  -4   2   2 2982.39  260.27   1 0.10604-0.04437-0.99204-0.90513-0.06784 0.42280
  -4  -2   2 3022.12  253.42   1 0.10652 0.12183-0.98887-0.79938 0.10379 0.58833
   4   2  -1   12.51   78.63   1 0.07155 0.01994 0.99737 0.86287-0.01102-0.50502
   4   2  -1   33.14   59.02   1-0.73064-0.78126 0.66325 0.52843 0.16204-0.33224
   4  -2  -1   14.17   57.21   1-0.76617-0.65112 0.64090 0.60842 0.04706-0.45370
  -4  -2   1   40.50   71.02   1-0.80014-0.75153-0.59923-0.46461-0.02617 0.46832
  -4   2   1   13.21   68.04   1 0.10404-0.01183-0.97839-0.94669-0.17866 0.32192
  -4  -2   1  147.31   84.34   1 0.10656 0.15640-0.99426-0.85998-0.00871 0.48576
   4  -2   0 5230.17  329.48   1 0.09370 0.17372 0.94307 0.96599 0.31910-0.19152
   4   2   0 4886.85  331.03   1 0.07960-0.00648 0.99223 0.91288 0.09561-0.40815
   4   2   0 5031.15  284.94   1-0.68414-0.76933 0.67566 0.59617 0.27461-0.22956
   4  -2   0 4972.03  271.10   1-0.72491-0.64421 0.66554 0.68854 0.17761-0.33300
  -4  -2   0 4928.07  276.31   1-0.79901-0.71603-0.60001-0.52058-0.03943 0.46507
  -4  -2   0 5083.45  298.76   1 0.10511 0.18949-0.98612-0.90705-0.12845 0.37596
   4  -2   168236.31 1196.33   1 0.09836 0.14416 0.90559 0.98366 0.41258-0.10781
   4   2   168346.89 1260.18   1 0.08700-0.03343 0.97483 0.95069 0.20524-0.30833
   4   2   168759.09 1197.26   1-0.62598-0.74573 0.67789 0.65372 0.38550-0.12856
   4  -2   168052.23 1222.46   1-0.66644-0.62031 0.67755 0.75588 0.31108-0.20942
  -4  -2  -169078.06 1067.16   1-0.79685-0.67949-0.60106-0.57682-0.06114 0.45338
   4  -2   2 2759.98  246.05   1 0.10198 0.11330 0.85975 0.99311 0.50042-0.02977
   4   2   2 2529.79  223.49   1 0.09341-0.06132 0.94486 0.97583 0.31385-0.20973
  -4  -2  -2 2607.92  204.26   1-0.79324-0.64150-0.60203-0.63299-0.09118 0.43334
   4  -2   318118.25  718.57   1 0.10452 0.08160 0.80725 0.99582 0.58087 0.04088
   4   2   318689.73  714.41   1 0.09861-0.09033 0.90305 0.98920 0.41805-0.11536
  -4  -2  -318988.08  616.11   1-0.78755-0.60144-0.60248-0.68862-0.12951 0.40503
   4  -2   415228.16  574.66   1 0.10606 0.04871 0.74967 0.99343 0.65325 0.10348
   4   2   414776.81  544.81   1 0.10251-0.12090 0.85082 0.99227 0.51534-0.02786
  -4  -2  -415939.39  534.52   1-0.77900-0.55851-0.60180-0.74313-0.17604 0.36851
   4  -2   5  -21.07   93.17   1 0.10669 0.01474 0.68841 0.98732 0.71743 0.15800
   4   2   5   33.84  111.83   1 0.10509-0.15255 0.79035 0.98700 0.60356 0.05051
  -4  -2  -5   -6.56   86.71   1-0.76659-0.51173-0.59924-0.79577-0.23073 0.32383
   4  -2   627884.00  727.07   1 0.10650-0.01989 0.62456 0.97866 0.77367 0.20450
   4   2   627543.74  747.73   1 0.10644-0.18577 0.72357 0.97531 0.68198 0.11934
  -4  -2  -628209.02  772.67   1-0.74910-0.45986-0.59388-0.84560-0.29351 0.27106
   4  -2   629615.80  755.43   1 0.07043-0.05727 0.62180 0.97578 0.78000 0.21112
   4  -2   7 3476.93  306.00   1 0.10559-0.05525 0.55905 0.96833 0.82238 0.24345
   4   2   7 3365.03  288.37   1 0.10667-0.21998 0.65217 0.95910 0.75052 0.17813
  -4   2  -7 2983.67  192.78   1-0.04465 0.11325-0.55087-0.96058-0.83339-0.25387
   4  -2   7 3076.90  303.67   1 0.06335-0.09886 0.55356 0.96269 0.83039 0.25188
   4   2   7 3138.53  243.73   1 0.07238-0.25542 0.64076 0.94745 0.76431 0.19259
   4  -2   811210.67  468.24   1 0.10405-0.09124 0.49252 0.95699 0.86405 0.27537
   4   2   810118.07  481.27   1 0.10591-0.25519 0.57770 0.93981 0.80934 0.22720
  -4   2  -810569.46  432.52   1-0.06885 0.12335-0.48660-0.95156-0.87090-0.28159
  -4  -2  -810915.85  365.16   1-0.04375 0.31450-0.55318-0.91614-0.83190-0.24852
   4  -2   8 9958.66  449.85   1 0.05608-0.14065 0.48379 0.94807 0.87338 0.28524
   4   2   811228.06  483.72   1 0.06412-0.29820 0.56094 0.92278 0.82536 0.24401
   4   2   9 6050.53  369.57   1 0.10429-0.29127 0.50131 0.91860 0.85895 0.26706
  -4   2  -9 7334.40  387.64   1-0.10201 0.12518-0.42669-0.94615-0.89862-0.29852
  -4   2  -9 7998.39  385.80   1-0.09126 0.13524-0.42335-0.94358-0.90135-0.30225
  -4  -2  -9 6750.46  405.55   1-0.06898 0.32357-0.48625-0.90446-0.87108-0.27791
   4   2   9 5675.89  453.34   1 0.05554-0.34130 0.47861 0.89561 0.87626 0.28527
  -4   2 -10  186.71  115.01   1-0.09943 0.16210-0.35950-0.93418-0.92782-0.31783
  -4  -2 -10   71.68  161.66   1-0.10197 0.32560-0.42572-0.89823-0.89908-0.29521
  -4   2 -10   95.94   99.36   1-0.07867 0.18326-0.35108-0.92793-0.93303-0.32456
  -4   2 -10  -22.19  102.60   1-0.11205 0.14875-0.36126-0.93674-0.92570-0.31681
  -4  -2 -10   20.27  103.82   1-0.09242 0.33442-0.41997-0.89344-0.90281-0.29985
   4   3 -1215020.69  625.91   1 0.01485 0.29931 0.82285 0.05527-0.56806-0.95255
   4   3 -1214113.17  549.92   1-0.78749-0.50053 0.45005-0.31701-0.42106-0.80558
   4  -3 -1213715.54  592.52   1-0.75168-0.21603 0.36368-0.24979-0.55017-0.94389
  -4   3  1214131.46  641.12   1 0.09663-0.44048-0.88043-0.26754 0.46420 0.85697
  -4  -3  1215361.58  676.06   1 0.08848-0.19935-0.79845-0.03150 0.59552 0.97942
   4  -3 -11 6746.48  416.92   1 0.04049 0.53994 0.93658 0.37745-0.34810-0.75232
   4   3 -11 6854.45  387.24   1 0.01550 0.26565 0.82631 0.11399-0.56299-0.95730
   4   3 -11 7978.33  386.37   1-0.78960-0.53706 0.45682-0.25499-0.40968-0.80407
   4  -3 -11 6472.84  316.46   1-0.75356-0.25231 0.36747-0.19075-0.54506-0.94865
  -4   3  11 7749.87  415.92   1 0.09735-0.40519-0.88778-0.33009 0.44983 0.85255
  -4  -3  11 7926.63  435.07   1 0.08901-0.16427-0.80372-0.09197 0.58830 0.98211
   4  -3 -1013203.23  554.47   1 0.04277 0.50787 0.94429 0.44040-0.32631-0.74034
   4   3 -1012350.20  459.94   1 0.01686 0.23270 0.83348 0.17641-0.55228-0.95641
   4   3 -1012540.68  421.32   1-0.79256-0.57445 0.46706-0.18948-0.39202-0.79630
   4  -3 -1011713.55  415.00   1-0.75719-0.29034 0.37494-0.12803-0.53486-0.94831
  -4   3  1010021.29  554.42   1 0.09839-0.36959-0.89844-0.39594 0.42792 0.84061
  -4  -3  1012568.04  626.48   1 0.08992-0.12880-0.81280-0.15625 0.57555 0.97928
   4  -3  -9 7169.65  397.70   1 0.04596 0.47670 0.95432 0.50566-0.29521-0.71906
   4   3  -9 7068.14  390.60   1 0.01902 0.20053 0.84450 0.24269-0.53520-0.94915
   4   3  -9 5369.89  322.82   1-0.79607-0.61265 0.48078-0.12184-0.36756-0.78090
   4  -3  -9 7661.77  332.18   1-0.76263-0.33019 0.38657-0.06115-0.51860-0.94192
  -4  -3   9 8100.76  407.98   1-0.78234-0.96720-0.60220-0.00043-0.15900 0.25397
  -4   3   9 7251.56  422.39   1 0.09972-0.33397-0.91218-0.46474 0.39745 0.82004
  -4  -3   9 7648.27  400.95   1 0.09123-0.09293-0.82590-0.22455 0.55638 0.97002
   4  -3  -818241.21  585.13   1 0.05006 0.44647 0.96591 0.57252-0.25397-0.68765
   4   3  -818973.98  571.93   1 0.02202 0.16921 0.85938 0.31283-0.51084-0.93461
   4   3  -816571.05  728.83   1-0.79978-0.65082 0.49853-0.04875-0.33437-0.75765
   4  -3  -819127.60  551.44   1-0.76981-0.37178 0.40285 0.01037-0.49506-0.92826
  -4  -3   816654.04  565.11   1-0.79268-0.94317-0.60213-0.05555-0.09536 0.32763
  -4   3   818569.50  682.25   1 0.10127-0.29785-0.92852-0.53627 0.35720 0.78973
  -4  -3   818444.67  626.35   1 0.09295-0.05666-0.84310-0.29695 0.52965 0.95320
   4  -3  -714263.65  515.71   1 0.05501 0.41706 0.97779 0.63963-0.20220-0.64569
   4   3  -715081.66  524.32   1 0.02595 0.13884 0.87791 0.38662-0.47810-0.91172
   4   3  -712782.40  452.06   1-0.80283-0.68835 0.52001 0.02806-0.29161-0.72483
   4  -3  -713455.88  426.96   1-0.77838-0.41462 0.42410 0.08678-0.46287-0.90584
  -4  -3   713293.43  495.71   1-0.79860-0.91472-0.60025-0.10886-0.04386 0.38914
  -4   3   714999.37  550.49   1 0.10295-0.26162-0.94646-0.60942 0.30595 0.74843
  -4  -3   714738.83  552.81   1 0.09503-0.02073-0.86414-0.37331 0.49418 0.92747
   4  -3  -661662.48 1534.32   1 0.06073 0.38841 0.98834 0.70540-0.13959-0.59290
   4   3  -659658.70 1457.65   1 0.03085 0.10940 0.89944 0.46339-0.43594-0.87937
   4   3  -662158.14 1533.47   1-0.80406-0.72393 0.54473 0.10804-0.23821-0.68135
   4  -3  -660971.46 1396.42   1-0.78775-0.45842 0.45087 0.16881-0.41970-0.87255
  -4  -3   662387.20 1495.31   1-0.80175-0.88349-0.59764-0.16145-0.00328 0.43973
  -4   3   663940.80 1657.38   1 0.10457-0.22550-0.96439-0.68242 0.24292 0.69530
  -4  -3   661503.87 1563.21   1 0.09744 0.01623-0.88865-0.45302 0.44809 0.89134
   4  -3  -538290.57  847.42   1 0.06705 0.36046 0.99554 0.76797-0.06627-0.52940
   4   3  -535246.46  792.40   1 0.03673 0.08095 0.92295 0.54215-0.38313-0.83636
   4   3  -539373.76  763.85   1-0.80184-0.75620 0.57198 0.19061-0.17287-0.62595
   4  -3  -536616.39  772.26   1-0.79656-0.50198 0.48285 0.25498-0.36377-0.82643
  -4  -3   536833.05  773.79   1-0.80323-0.85072-0.59504-0.21408 0.02702 0.48004
  -4   3   537749.03  815.73   1 0.10590-0.18961-0.98021-0.75344 0.16724 0.62957
  -4  -3   536460.77  831.57   1 0.10002 0.05308-0.91531-0.53474 0.39010 0.84334
   4  -3  -4 2928.57  262.02   1 0.07364 0.33267 0.99716 0.82479 0.01572-0.45720
   4   3  -4 3359.11  250.71   1 0.04354 0.05346 0.94678 0.62115-0.31889-0.78185
   4   3  -4 2891.49  243.06   1-0.79418-0.78294 0.60009 0.27374-0.09571-0.55862
   4  -3  -4 2940.31  207.03   1-0.80280-0.54270 0.51972 0.34719-0.29221-0.76480
  -4  -3   4 3423.19  239.96   1-0.80383-0.81693-0.59290-0.26713 0.04810 0.51113
  -4   3   4 3327.86  254.92   1 0.10665-0.15427-0.99109-0.81941 0.07974 0.55204
  -4  -3   4 3525.12  265.16   1 0.10257 0.09019-0.94230-0.61693 0.31865 0.78182
   4  -3  -3 2765.21  221.39   1 0.08025 0.30480 0.99125 0.87417 0.10476-0.37804
   4   3  -3 2844.26  224.10   1 0.05117 0.02674 0.96879 0.69835-0.24250-0.71525
   4   3  -3 2519.01  203.87   1-0.77877-0.80206 0.62726 0.35623-0.00652-0.47936
   4  -3  -3 2978.15  197.91   1-0.80337-0.57773 0.55967 0.44244-0.20336-0.68590
  -4  -3   3 3043.54  220.02   1-0.80400-0.78272-0.59156-0.32098 0.06016 0.53320
  -4   3   3 2464.41  219.28   1 0.10650-0.11987-0.99414-0.87767-0.01821 0.46402
  -4  -3   3 2995.94  235.89   1 0.10478 0.12690-0.96677-0.69648 0.23318 0.70625
   4  -3  -217921.60  586.52   1 0.08652 0.27671 0.97645 0.91456 0.19763-0.29495
   4   3  -217390.26  585.94   1 0.05942 0.00062 0.98624 0.77102-0.15424-0.63681
   4   3  -217365.61  527.34   1-0.75362-0.81138 0.65080 0.43493 0.09219-0.39049
   4  -3  -218566.90  569.21   1-0.79430-0.60320 0.59979 0.53769-0.09658-0.58908
  -4  -3   218277.06  538.90   1-0.80403-0.74836-0.59118-0.37577 0.06350 0.54656
  -4   3   218991.65  633.71   1 0.10520-0.08663-0.98675-0.92549-0.12345 0.36872
  -4  -3   218838.43  548.69   1 0.10629 0.16302-0.98531-0.77017 0.13363 0.61664
   4  -3  -147674.10  963.75   1 0.09217 0.24810 0.95214 0.94545 0.29140-0.21108
   4   3  -149177.13 1108.27   1 0.06793-0.02517 0.99613 0.83607-0.05569-0.54803
   4  -3  -146941.51  844.97   1-0.77126-0.61474 0.63594 0.62909 0.02666-0.47574
  -4  -3   150251.80  947.68   1-0.80398-0.71393-0.59177-0.43156 0.05832 0.55140
  -4  -3   146997.19  915.34   1 0.10668 0.19796-0.99405-0.83412 0.02188 0.51483
   4  -3   052727.96 1026.71   1 0.09696 0.21866 0.91872 0.96717 0.38280-0.12943
   4   3   054434.12 1043.81   1 0.07631-0.05125 0.99579 0.89088 0.05076-0.45133
   4   3   053744.93  947.17   1-0.66936-0.79601 0.67732 0.57221 0.30526-0.19730
   4  -3   058015.86  962.76   1-0.73078-0.60861 0.66319 0.71181 0.16164-0.35057
  -4  -3   052261.07  872.39   1-0.80376-0.67932-0.59326-0.48824 0.04475 0.54784
  -4  -3   052125.12  970.75   1 0.10562 0.23143-0.98952-0.88479-0.09844 0.40443
   4  -3   133993.98  809.78   1 0.10081 0.18804 0.87702 0.98076 0.46974-0.05229
   4   3   135428.39  976.40   1 0.08418-0.07773 0.98321 0.93350 0.16186-0.35004
   4   3   132328.49  780.84   1-0.61101-0.77223 0.67688 0.62709 0.41047-0.10198
   4  -3   134465.09  748.23   1-0.67152-0.58392 0.67713 0.78108 0.30089-0.22122
  -4  -3  -132733.55  782.14   1-0.80307-0.64426-0.59543-0.54559 0.02285 0.53595
   4  -3   2 4759.60  333.71   1 0.10365 0.15644 0.82857 0.98751 0.55020 0.01835
   4   3   2 5459.18  349.08   1 0.09115-0.10519 0.95752 0.96300 0.27358-0.24811
  -4  -3  -2 5321.41  289.21   1-0.80150-0.60824-0.59794-0.60329-0.00728 0.51582
   4  -3   3   27.26  113.11   1 0.10552 0.12407 0.77474 0.98889 0.62340 0.08179
   4   3   3   -2.12   95.61   1 0.09692-0.13348 0.91908 0.97966 0.38195-0.14982
  -4  -3  -3   29.06   98.57   1-0.79841-0.57078-0.60035-0.66089-0.04586 0.48726
   4  -3   457257.90 1282.25   1 0.10651 0.09047 0.71703 0.98635 0.68885 0.13754
   4   3   462226.67 1190.31   1 0.10137-0.16350 0.86901 0.98487 0.48429-0.05727
  -4  -3  -461145.10 1019.82   1-0.79302-0.53101-0.60207-0.71780-0.09283 0.45030
   4  -3   550083.50 1345.90   1 0.10669 0.05620 0.65649 0.98100 0.74674 0.18569
   4   3   546854.51 1260.35   1 0.10444-0.19466 0.80945 0.98051 0.57782 0.02640
  -4  -3  -543077.32 1180.30   1-0.78432-0.48793-0.60237-0.77329-0.14827 0.40488
   4  -3   549621.88 1260.49   1 0.07408 0.02229 0.65727 0.98171 0.74999 0.18905
   4  -3   670403.89 1132.41   1 0.10616 0.02121 0.59407 0.97376 0.79737 0.22656
   4   3   673478.42 1405.98   1 0.10619-0.22735 0.74237 0.96863 0.66152 0.10031
  -4  -3  -675525.03 1221.45   1-0.77107-0.44031-0.60032-0.82643-0.21227 0.35089
   4  -3   674804.18 1111.08   1 0.06744-0.01886 0.59299 0.97258 0.80237 0.23180
   4  -3   7  474.72  137.03   1 0.10500-0.01438 0.53045 0.96533 0.84118 0.26062
   4   3   7  213.14  115.16   1 0.10671-0.26140 0.66985 0.95119 0.73478 0.16402
  -4  -3  -7  349.72  120.24   1-0.75169-0.38655-0.59476-0.87607-0.28497 0.28820
  -4   3  -7  712.79  125.90   1-0.05408 0.06231-0.52630-0.96152-0.84857-0.26757
   4  -3   7  468.79  127.57   1 0.06058-0.06024 0.52691 0.96166 0.84775 0.26754
   4   3   7  564.92  123.49   1 0.07408-0.29511 0.65728 0.93835 0.74999 0.17997
   4   3   814370.33  547.04   1 0.10615-0.29641 0.59349 0.93000 0.79781 0.21730
  -4   3  -815750.87  552.30   1-0.10332 0.04801-0.46712-0.95690-0.87813-0.28641
  -4   3  -814314.98  450.32   1-0.07734 0.07335-0.46308-0.95355-0.88293-0.29214
   4  -3   814458.06  516.13   1 0.05355-0.10178 0.45965 0.94954 0.88648 0.29664
   4   3   813293.26  554.49   1 0.06556-0.33816 0.57477 0.91101 0.81567 0.23602
   4   3   9  212.68  152.14   1 0.10463-0.33238 0.51468 0.90639 0.85096 0.26071
  -4   3  -9   43.34  149.74   1-0.10114 0.08454-0.40256-0.94757-0.90978-0.30816
  -4   3  -9  -39.33   89.13   1-0.09886 0.08613-0.40105-0.94678-0.91070-0.31012
  -4  -3  -9  -66.94   75.96   1-0.06559 0.36846-0.49549-0.88820-0.86612-0.27443
   4   3   9  146.93   88.14   1 0.05664-0.38159 0.48917 0.88056 0.87034 0.28105
  -4   3 -1047978.33 1067.88   1-0.09851 0.12151-0.33781-0.93804-0.93604-0.32451
  -4  -3 -1042903.70 1112.92   1-0.10234 0.36674-0.43649-0.88346-0.89386-0.29151
  -4   3 -1043164.08 1060.62   1-0.10065 0.11979-0.33498-0.93742-0.93682-0.32694
  -4   3 -1045492.95  862.19   1-0.11883 0.10045-0.34026-0.94125-0.93278-0.32242
   4   4 -12   -9.08  111.34   1 0.01281 0.25576 0.81186 0.01878-0.58370-0.96655
   4   4 -12   67.52   78.79   1-0.79310-0.54762 0.46902-0.32362-0.38859-0.77160
   4  -4 -12  100.00  100.34   1-0.74709-0.16995 0.35462-0.23328-0.56221-0.95744
  -4   4  12   15.89  157.31   1 0.09850-0.48003-0.89960-0.31236 0.42544 0.81975
  -4  -4  12  117.04  187.49   1 0.08776-0.15864-0.79134 0.00124 0.60503 0.98733
   4   4 -11 1198.93  173.96   1 0.01339 0.22201 0.81499 0.07717-0.57931-0.97198
   4   4 -11  995.07  143.09   1-0.79492-0.58406 0.47605-0.26282-0.37611-0.76797
   4  -4 -11 1222.33  140.08   1-0.74883-0.20609 0.35802-0.17463-0.55772-0.96282
  -4   4  11  912.87  220.09   1 0.09923-0.44499-0.90709-0.37490 0.40905 0.81328
  -4  -4  11  944.59  174.75   1 0.08826-0.12359-0.79634-0.05894 0.59837 0.99058
   4  -4 -10  107.19   92.09   1 0.04966 0.55627 0.96486 0.48649-0.25801-0.67370
   4   4 -10  167.78  105.79   1 0.01465 0.18896 0.82181 0.13924-0.56957-0.97206
   4   4 -10  120.07   84.03   1-0.79740-0.62101 0.48661-0.19691-0.35685-0.75865
   4  -4 -10   11.97   90.84   1-0.75239-0.24405 0.36510-0.11230-0.54826-0.96323
  -4  -4  10   97.57   98.06   1-0.78513-0.96285-0.60241 0.08014-0.14369 0.25785
  -4   4  10   19.53   99.55   1 0.10023-0.40943-0.91756-0.44057 0.38473 0.79891
  -4  -4  10  308.02  171.66   1 0.08915-0.08815-0.80512-0.12292 0.58637 0.98849
   4  -4  -928770.51  848.32   1 0.05299 0.52527 0.97323 0.55015-0.22363-0.64916
   4   4  -929421.18  811.23   1 0.01667 0.15666 0.83248 0.20517-0.55379-0.96610
   4   4  -931860.74  873.22   1-0.80016-0.65824 0.50071-0.12748-0.33018-0.74192
   4  -4  -929638.26  763.69   1-0.75786-0.28393 0.37635-0.04580-0.53291-0.95774
  -4  -4   932015.62  951.00   1-0.79593-0.93927-0.60138 0.02598-0.06939 0.34216
  -4   4   931588.35  910.92   1 0.10148-0.37362-0.93071-0.50892 0.35137 0.77549
  -4  -4   930032.70  867.63   1 0.09043-0.05231-0.81792-0.19093 0.56817 0.98020
   4  -4  -8 1328.10  185.26   1 0.05716 0.49508 0.98217 0.61432-0.17907-0.61441
   4   4  -8 1408.83  184.65   1 0.01952 0.12519 0.84706 0.27501-0.53112-0.95325
   4   4  -8 1504.98  161.62   1-0.80266-0.69520 0.51834-0.05450-0.29504-0.71673
   4  -4  -8 1334.40  165.41   1-0.76521-0.32569 0.39230 0.02539-0.51042-0.94513
  -4  -4   8 1431.45  169.65   1-0.80141-0.91038-0.59804-0.02585-0.00861 0.41295
  -4   4   8 1461.59  200.62   1 0.10290-0.33766-0.94585-0.57926 0.30785 0.74191
  -4  -4   8 1360.56  166.67   1 0.09213-0.01606-0.83486-0.26306 0.54269 0.96464
   4  -4  -726502.61  757.61   1 0.06211 0.46566 0.99034 0.67771-0.12392-0.56908
   4   4  -726113.74  748.52   1 0.02327 0.09462 0.86540 0.34860-0.50053-0.93248
   4   4  -726452.92  627.53   1-0.80402-0.73104 0.53931 0.02180-0.25034-0.68198
   4  -4  -729687.12  678.41   1-0.77420-0.36909 0.41345 0.10178-0.47922-0.92380
  -4  -4   721373.27  765.61   1-0.80365-0.87838-0.59374-0.07679 0.04017 0.47174
  -4   4   728233.23  759.90   1 0.10434-0.30171-0.96174-0.65022 0.25330 0.69726
  -4  -4   727233.66  802.77   1 0.09420 0.01985-0.85575-0.33926 0.50873 0.94048
   4  -4  -6 6078.58  372.54   1 0.06773 0.43703 0.99601 0.73879-0.05801-0.51301
   4   4  -6 6026.97  344.42   1 0.02798 0.06501 0.88703 0.42547-0.46085-0.90263
   4   4  -6 5029.33  318.62   1-0.80304-0.76442 0.56301 0.10074-0.19526-0.63679
   4  -4  -6 5975.21  317.41   1-0.78417-0.41335 0.44005 0.18357-0.43751-0.89187
  -4  -4   6 5945.10  336.90   1-0.80404-0.84439-0.58933-0.12756 0.07872 0.52030
  -4   4   6 6617.67  350.31   1 0.10562-0.26587-0.97673-0.72041 0.18664 0.64055
  -4  -4   6 6085.24  346.47   1 0.09662 0.05683-0.88028-0.41899 0.46450 0.90620
   4  -4  -560427.01 1055.90   1 0.07372 0.40863 0.99713 0.79512 0.01669-0.44810
   4   4  -559701.60 1126.35   1 0.03367 0.03637 0.91104 0.50473-0.41092-0.86251
   4   4  -560100.08 1066.96   1-0.79811-0.79397 0.58860 0.18166-0.12870-0.58017
   4  -4  -559741.54 1017.06   1-0.79401-0.45761 0.47245 0.27123-0.38253-0.84677
  -4  -4   562639.56 1159.59   1-0.80355-0.80951-0.58543-0.17885 0.10759 0.55919
  -4   4   562317.94 1222.77   1 0.10650-0.23039-0.98840-0.78716 0.10819 0.57208
  -4  -4   560180.58 1289.70   1 0.09925 0.09374-0.90730-0.50107 0.40860 0.86031
   4  -4  -4  255.43  120.18   1 0.07985 0.38029 0.99186 0.84516 0.09910-0.37560
   4   4  -4  123.44  147.74   1 0.04031 0.00872 0.93594 0.58479-0.34982-0.81113
   4   4  -4  246.82  101.75   1-0.78736-0.81761 0.61435 0.26240-0.05121-0.51249
   4  -4  -4  159.51   70.70   1-0.80160-0.50000 0.50990 0.36294-0.31211-0.78630
  -4  -4   4   99.92   90.85   1-0.80282-0.77446-0.58250-0.23130 0.12714 0.58881
  -4   4   4   68.12  102.51   1 0.10668-0.19567-0.99412-0.84808 0.01857 0.49240
   4  -4  -3153896.0 2838.48   1 0.08578 0.35187 0.97876 0.88725 0.18619-0.29827
   4   4  -3140800.6 2557.77   1 0.04784-0.01809 0.95982 0.66390-0.27647-0.74759
   4   4  -3147675.7 2737.95   1-0.76877-0.83345 0.63845 0.34165 0.03683-0.43432
   4  -4  -3153357.0 2545.56   1-0.80391-0.53677 0.55116 0.45951-0.22347-0.70761
  -4  -4   3155413.4 2633.51   1-0.80226-0.73951-0.58072-0.28471 0.13829 0.60996
  -4   4   3154476.2 2671.42   1 0.10589-0.16192-0.99116-0.90034-0.07983 0.40393
  -4  -4   3155578.7 2687.99   1 0.10427 0.16782-0.96100-0.66506 0.25613 0.72768
   4  -4  -2 8139.21  412.15   1 0.09124 0.32290 0.95704 0.92073 0.27520-0.21905
   4   4  -2 7446.45  395.00   1 0.05605-0.04425 0.97996 0.73921-0.19112-0.67201
   4   4  -2 7157.11  394.80   1-0.74055-0.83978 0.65859 0.41711 0.13352-0.34753
   4  -4  -2 7572.25  353.47   1-0.79666-0.56401 0.59326 0.55693-0.11559-0.60967
  -4  -4   2 7816.78  409.97   1-0.80211-0.70497-0.58027-0.33944 0.14105 0.62273
  -4   4   2 7841.07  370.84   1 0.10392-0.12935-0.97748-0.94186-0.18362 0.31008
  -4  -4   2 7261.62  393.85   1 0.10602 0.20412-0.98168-0.74094 0.15828 0.63978
   4  -4  -1 9097.42  445.68   1 0.09600 0.29361 0.92668 0.94551 0.36337-0.14070
   4   4  -1 8219.48  403.77   1 0.06465-0.06993 0.99341 0.80780-0.09461-0.58528
   4   4  -1 8798.14  449.48   1-0.70185-0.83541 0.67241 0.48635 0.23506-0.25600
   4  -4  -1 9614.30  381.73   1-0.77508-0.57703 0.63177 0.65058 0.01032-0.49372
  -4  -4   1 8932.92  367.80   1-0.80241-0.67087-0.58115-0.39551 0.13562 0.62729
  -4  -4   1 9578.61  425.55   1 0.10671 0.23942-0.99315-0.80757 0.04755 0.53897
   4  -4   017988.13  715.69   1 0.09991 0.26308 0.88848 0.96251 0.44789-0.06599
   4   4   019572.73  667.23   1 0.07329-0.09568 0.99724 0.86684 0.01116-0.48930
   4   4   017447.68  583.16   1-0.65261-0.82074 0.67823 0.54749 0.33777-0.16318
   4  -4   019946.16  661.04   1-0.73497-0.57133 0.66133 0.73558 0.14983-0.36400
  -4  -4   020837.43  638.95   1-0.80304-0.63711-0.58328-0.45282 0.12205 0.62372
  -4  -4   018643.59  601.88   1 0.10597 0.27322-0.99168-0.86131-0.07300 0.42835
   4  -4   1 5549.56  342.75   1 0.10291 0.23161 0.84347 0.97280 0.52721 0.00351
   4   4   1 4969.00  321.75   1 0.08152-0.12194 0.98908 0.91379 0.12277-0.38742
   4  -4   1 5026.94  338.86   1-0.67439-0.54531 0.67685 0.80643 0.29504-0.22867
  -4  -4  -1 5255.40  291.14   1-0.80373-0.60339-0.58643-0.51098 0.10051 0.61221
   4  -4   2  586.00  118.83   1 0.10501 0.19945 0.79311 0.97764 0.59995 0.06649
   4   4   2  876.89  158.03   1 0.08896-0.14885 0.96749 0.94740 0.23672-0.28329
  -4  -4  -2  739.22  154.86   1-0.80406-0.56934-0.59033-0.57007 0.07063 0.59233
   4  -4   330359.16  862.22   1 0.10624 0.16625 0.73873 0.97846 0.66557 0.12232
   4   4   329454.26  830.02   1 0.09526-0.17685 0.93238 0.96737 0.34869-0.18137
  -4  -4  -331904.03  711.12   1-0.80342-0.53432-0.59451-0.62944 0.03245 0.56417
   4  -4   425390.02  877.63   1 0.10670 0.13212 0.68144 0.97635 0.72405 0.17111
   4   4   426498.51  871.21   1 0.10022-0.20609 0.88466 0.97486 0.45531-0.08461
  -4  -4  -426347.29  825.55   1-0.80104-0.49750-0.59843-0.68856-0.01412 0.52760
   4  -4   5  240.88  106.85   1 0.10648 0.09744 0.62208 0.97218 0.77567 0.21298
   4   4   5  360.00  150.63   1 0.10376-0.23701 0.82600 0.97149 0.55402 0.00430
  -4  -4  -5  360.06  122.45   1-0.79593-0.45802-0.60138-0.74670-0.06940 0.48232
   4  -4   5  124.91  156.47   1 0.07072 0.06033 0.62470 0.97474 0.77765 0.21501
   4  -4   671358.21 1156.39   1 0.10563 0.06214 0.56139 0.96667 0.82077 0.24833
   4   4   675730.15 1232.24   1 0.10589-0.26911 0.75884 0.95952 0.64261 0.08303
   4  -4   674103.15 1121.90   1 0.06426 0.01934 0.56229 0.96749 0.82443 0.25216
   4  -4   7 1787.49  200.15   1 0.10425 0.02631 0.49986 0.96033 0.85980 0.27761
   4   4   7 1849.98  219.03   1 0.10670-0.30287 0.68518 0.94093 0.72050 0.15138
  -4  -4  -7 2279.47  237.54   1-0.77230-0.36564-0.60058-0.85629-0.20697 0.36478
  -4   4  -7 1904.02  187.49   1-0.06443 0.01045-0.49866-0.95938-0.86439-0.28191
   4  -4   7 1743.03  177.64   1 0.05761-0.02181 0.49849 0.95885 0.86497 0.28306
   4   4   7 1909.14  196.22   1 0.07555-0.33504 0.67148 0.92695 0.73715 0.16883
   4   4   814065.32  557.49   1 0.10632-0.33770 0.60687 0.91780 0.78765 0.20877
  -4   4  -813718.67  548.76   1-0.10242 0.00740-0.43874-0.95406-0.89275-0.29950
  -4  -4  -812576.03  724.84   1-0.75018-0.30914-0.59425-0.90514-0.28999 0.29178
  -4   4  -814801.62  469.57   1-0.08664 0.02254-0.43670-0.95267-0.89542-0.30315
   4  -4   814275.64  527.32   1 0.05084-0.06310 0.43376 0.94927 0.89958 0.30805
   4   4   813082.66  580.03   1 0.06673-0.37838 0.58612 0.89674 0.80746 0.22950
   4   4   914530.65  629.18   1 0.10489-0.37358 0.52556 0.89167 0.84426 0.25564
  -4   4  -915286.94  609.51   1-0.10013 0.04403-0.37659-0.94713-0.92095-0.31779
  -4   4  -913996.68  672.50   1-0.05495 0.08962-0.36811-0.94090-0.92815-0.32660
  -4   4  -915003.73  551.29   1-0.10720 0.03628-0.37606-0.94729-0.92037-0.31831
  -4  -4  -914899.36  524.31   1-0.06314 0.41243-0.50214-0.86935-0.86247-0.27226
   4   4   911946.37  549.00   1 0.05745-0.42217 0.49697 0.86274 0.86586 0.27827
  -4   4 -10 1493.19  195.64   1-0.09745 0.08106-0.31428-0.94005-0.94431-0.33125
  -4  -4 -10 1403.63  189.16   1-0.10261 0.40798-0.44460-0.86603-0.88982-0.28901
  -4   4 -10 1453.93  185.51   1-0.12757 0.05138-0.31484-0.94285-0.94052-0.32921
  -4  -4 -10 1483.45  145.30   1-0.08755 0.42231-0.43407-0.85654-0.89661-0.29660
   4   5 -11  -19.75  104.12   1-0.79938-0.63002 0.49635-0.26809-0.33855-0.72882
   4  -5 -11  -36.66   76.55   1-0.74485-0.16062 0.35029-0.15679-0.56787-0.97448
  -4   5  11   27.00  148.65   1 0.10112-0.48452-0.92690-0.42037 0.36140 0.76715
  -4  -5  11   81.41  136.59   1 0.08772-0.08271-0.79093-0.02790 0.60557 0.99618
   4   5 -1029858.67  712.29   1 0.01291 0.14569 0.81239 0.10433-0.58295-0.98381
   4   5 -1029851.41  771.32   1-0.80120-0.66632 0.50715-0.20195-0.31758-0.71779
   4  -5 -1028146.74  602.81   1-0.74833-0.19850 0.35704-0.09479-0.55902-0.97550
  -4  -5  1028651.52  772.25   1-0.79722-0.93341-0.60091 0.10725-0.05773 0.34240
  -4   5  1028634.68  796.66   1 0.10206-0.44902-0.93689-0.48555 0.33437 0.75007
  -4  -5  1030393.12  772.65   1 0.08858-0.04729-0.79946-0.09162 0.59415 0.99466
   4  -5  -925521.20  835.98   1 0.06077 0.57455 0.98840 0.59085-0.13917-0.56637
   4   5  -926499.18  696.38   1 0.01482 0.11328 0.82272 0.16990-0.56825-0.97892
   4   5  -920755.38  722.74   1-0.80296-0.70254 0.52125-0.13250-0.28903-0.69919
   4  -5  -926780.68  630.97   1-0.75380-0.23838 0.36796-0.02862-0.54440-0.97074
  -4  -5   925977.76  722.73   1-0.80261-0.90459-0.59636 0.05656 0.01237 0.42250
  -4   5   919939.73  775.00   1 0.10319-0.41334-0.94901-0.55287 0.29787 0.72351
  -4  -5   924791.46  867.89   1 0.08984-0.01148-0.81198-0.15934 0.57672 0.98715
   4  -5  -8   10.90   94.17   1 0.06496 0.54452 0.99373 0.65165-0.09098-0.52804
   4   5  -8  -22.86  137.03   1 0.01754 0.08168 0.83695 0.23940-0.54698-0.96747
   4   5  -8   -2.26   72.98   1-0.80401-0.73806 0.53858-0.05983-0.25196-0.67207
   4  -5  -8  -50.98   94.99   1-0.76127-0.28025 0.38362 0.04228-0.52277-0.95899
  -4  -5   8   26.89   92.76   1-0.80406-0.87165-0.59041 0.00733 0.06991 0.49005
  -4   5   8   27.11   89.55   1 0.10439-0.37763-0.96232-0.62125 0.25107 0.68660
  -4  -5   8   -8.43  107.57   1 0.09151 0.02474-0.82864-0.23120 0.55224 0.97258
   4  -5  -717042.51  576.54   1 0.06976 0.51494 0.99700 0.71013-0.03328-0.48015
   4   5  -717282.40  604.16   1 0.02113 0.05095 0.85501 0.31271-0.51816-0.94847
   4   5  -717141.39  556.94   1-0.80345-0.77183 0.55872 0.01554-0.20563-0.63563
   4  -5  -717981.24  481.98   1-0.77053-0.32392 0.40455 0.11846-0.49255-0.93863
  -4  -5   718395.44  554.02   1-0.80327-0.83657-0.58420-0.04183 0.11597 0.54624
  -4   5   714030.55  867.90   1 0.10552-0.34194-0.97554-0.68968 0.19280 0.63828
  -4  -5   717906.30  609.92   1 0.09357 0.06135-0.84937-0.30714 0.51942 0.94968
   4  -5  -612527.66  563.29   1 0.07506 0.48581 0.99659 0.76506 0.03414-0.42267
   4   5  -614499.17  518.34   1 0.02565 0.02117 0.87652 0.38945-0.48067-0.92080
   4   5  -612742.01  452.04   1-0.80002-0.80290 0.58121 0.09335-0.14882-0.58875
   4  -5  -612339.43  433.05   1-0.78100-0.36868 0.43110 0.20020-0.45186-0.90773
  -4  -5   613587.81  476.81   1-0.80142-0.80033-0.57838-0.09119 0.15230 0.59258
  -4   5   613832.79  560.42   1 0.10638-0.30647-0.98667-0.75587 0.12306 0.57854
  -4  -5   614103.27  527.84   1 0.09598 0.09761-0.87374-0.38679 0.47682 0.91698
   4  -5  -510086.79  471.55   1 0.08055 0.45689 0.99078 0.81444 0.10893-0.35766
   4   5  -5 9283.49  435.11   1 0.03115-0.00766 0.90071 0.46889-0.43328-0.88322
   4   5  -5 9193.39  445.12   1-0.79223-0.82943 0.60471 0.17184-0.08177-0.53150
   4  -5  -5 9662.91  418.79   1-0.79162-0.41374 0.46370 0.28806-0.39787-0.86361
  -4  -5   5 7915.72  368.58   1-0.79931-0.76383-0.57349-0.14149 0.17944 0.62971
  -4   5   5 9753.37  473.34   1 0.10671-0.27160-0.99340-0.81781 0.04194 0.50736
  -4  -5   5 9984.02  470.16   1 0.09863 0.13483-0.90091-0.46917 0.42263 0.87275
   4  -5  -4 8989.44  423.40   1 0.08599 0.42797 0.97813 0.85700 0.18934-0.28702
   4   5  -4 6774.09  377.23   1 0.03761-0.03548 0.92624 0.54956-0.37504-0.83469
   4   5  -4 9372.03  406.57   1-0.77821-0.84994 0.62798 0.25043-0.00388-0.46354
   4  -5  -4 9711.98  376.13   1-0.80035-0.45723 0.50177 0.38037-0.32812-0.80389
  -4  -5   4 7831.24  336.23   1-0.79751-0.72764-0.56989-0.19308 0.19794 0.65821
  -4   5   4 8927.77  451.41   1 0.10625-0.23753-0.99313-0.87274-0.04887 0.42648
  -4  -5   4 9337.81  403.45   1 0.10134 0.17180-0.92917-0.55248 0.35548 0.81562
   4  -5  -3 4966.76  346.54   1 0.09109 0.39865 0.95782 0.89188 0.27254-0.21360
   4   5  -3 5185.74  315.67   1 0.04500-0.06244 0.95139 0.62995-0.30465-0.77411
   4   5  -3 4639.85  307.05   1-0.75636-0.86251 0.64887 0.32645 0.08287-0.38664
   4  -5  -3 4672.84  266.87   1-0.80406-0.49542 0.54417 0.47809-0.23949-0.72524
  -4  -5   3 4413.82  304.55   1-0.79639-0.69213-0.56780-0.24617 0.20822 0.67849
  -4   5   3 5179.88  297.48   1 0.10475-0.20448-0.98361-0.91843-0.14668 0.33860
  -4  -5   3 4815.98  273.38   1 0.10383 0.20885-0.95611-0.63463 0.27397 0.74405
   4  -5  -2 3650.01  297.40   1 0.09563 0.36914 0.92957 0.91878 0.35602-0.13990
   4   5  -2 3882.96  270.52   1 0.05313-0.08867 0.97357 0.70728-0.22211-0.70134
   4   5  -2 3670.27  253.95   1-0.72528-0.86574 0.66540 0.39839 0.17664-0.30292
   4  -5  -2 3468.82  234.00   1-0.79829-0.52414 0.58796 0.57721-0.13048-0.62617
  -4  -5   2 3333.67  257.31   1-0.79612-0.65747-0.56732-0.30087 0.21052 0.69079
  -4  -5   2 3751.06  267.88   1 0.10575 0.24528-0.97832-0.71193 0.17804 0.65801
   4  -5  -1224650.4 3732.25   1 0.09944 0.33851 0.89402 0.93843 0.43683-0.06889
   4   5  -1223855.2 3697.08   1 0.06178-0.11438 0.98988 0.77882-0.12767-0.61671
   4   5  -1216177.3 3485.21   1-0.68429-0.85932 0.67564 0.46396 0.27429-0.21516
   4  -5  -1210978.4 3347.53   1-0.77773-0.53820 0.62858 0.67300-0.00167-0.50735
  -4  -5   1221913.0 3576.48   1-0.79675-0.62371-0.56847-0.35720 0.20499 0.69525
  -4  -5   1225103.3 3654.99   1 0.10668 0.28082-0.99194-0.78072 0.06833 0.55822
   4  -5   078936.53 1627.62   1 0.10244 0.30704 0.85198 0.95169 0.51343-0.00210
   4   5   075203.25 1762.45   1 0.07056-0.13991 0.99723 0.84127-0.02337-0.52218
   4   5   076090.50 1664.10   1-0.63386-0.84346 0.67819 0.52183 0.37183-0.12751
   4  -5   083074.28 1627.33   1-0.73744-0.53252 0.66016 0.75985 0.14271-0.37287
  -4  -5   073783.00 1557.39   1-0.79816-0.59072-0.57114-0.41506 0.19166 0.69192
  -4  -5   079131.63 1568.54   1 0.10621 0.31489-0.99296-0.83695-0.05222 0.44760
   4  -5   122279.10  749.11   1 0.10462 0.27496 0.80471 0.95963 0.58436 0.05906
   4   5   122205.21  714.10   1 0.07907-0.16587 0.99295 0.89210 0.08824-0.42027
   4  -5   123133.61  779.74   1-0.67483-0.50428 0.67681 0.83201 0.29414-0.23119
  -4  -5  -121615.33  625.18   1-0.80007-0.55825-0.57516-0.47426 0.17049 0.68075
  -4  -5  -122037.87  683.94   1 0.10403 0.34724-0.97832-0.87751-0.17904 0.33072
   4  -5   2 5222.66  330.43   1 0.10599 0.24190 0.75349 0.96360 0.64885 0.11377
   4   5   2 4900.75  383.17   1 0.08691-0.19238 0.97516 0.92951 0.20370-0.31463
  -4  -5  -2 5156.46  292.06   1-0.80209-0.52587-0.58022-0.53451 0.14136 0.66162
   4  -5   316779.28  563.05   1 0.10664 0.20796 0.69931 0.96462 0.70681 0.16199
   4   5   316491.72  630.78   1 0.09367-0.21991 0.94326 0.95267 0.31855-0.20985
  -4  -5  -318769.80  539.04   1-0.80364-0.49302-0.58591-0.59522 0.10422 0.63453
   4  -5   430448.27  959.33   1 0.10663 0.17350 0.64300 0.96351 0.75839 0.20382
   4   5   430177.81  974.13   1 0.09910-0.24867 0.89779 0.96241 0.42911-0.10917
  -4  -5  -431622.64  925.49   1-0.80399-0.45898-0.59175-0.65625 0.05856 0.59888
   4  -5   430158.72  947.92   1 0.07322 0.13874 0.64886 0.96937 0.75736 0.20266
   4  -5   573240.72 1269.20   1 0.10603 0.13845 0.58527 0.96096 0.80387 0.23954
   4   5   577117.67 1308.89   1 0.10308-0.27916 0.84020 0.96011 0.53237-0.01570
  -4  -5  -578278.14 1277.95   1-0.80219-0.42280-0.59705-0.71674 0.00420 0.55454
   4  -5   577253.01 1344.37   1 0.06714 0.09814 0.59009 0.96574 0.80453 0.24020
   4  -5   6  643.18  160.01   1 0.10491 0.10288 0.52660 0.95748 0.84360 0.26953
   4   5   6  612.63  151.64   1 0.10557-0.31089 0.77292 0.94802 0.62564 0.06769
  -4  -5  -6  588.78  119.54   1-0.79706-0.38325-0.60098-0.77588-0.05921 0.50111
  -4   5  -6  333.54  115.88   1-0.05278-0.05370-0.52973-0.96069-0.84651-0.27234
   4  -5   6  587.99  116.73   1 0.06088 0.05736 0.52978 0.96059 0.84594 0.27197
   4   5   7 2154.84  215.98   1 0.10665-0.34437 0.69810 0.92825 0.70801 0.14052
  -4   5  -7 2010.37  272.02   1-0.10335-0.06937-0.46802-0.95366-0.87765-0.29277
  -4  -5  -7 1933.01  201.31   1-0.78710-0.33891-0.60248-0.83257-0.13222 0.43811
  -4   5  -7 2330.16  188.81   1-0.07564-0.04226-0.46784-0.95406-0.88056-0.29660
   4  -5   7 2284.19  214.06   1 0.05447 0.01643 0.46838 0.95434 0.88184 0.29824
   4   5   8 4077.14  316.60   1 0.10643-0.37904 0.61774 0.90308 0.77913 0.20190
  -4   5  -8 3705.76  287.16   1-0.10136-0.03304-0.40854-0.94940-0.90709-0.31231
  -4  -5  -8 3545.06  284.94   1-0.77033-0.28777-0.60015-0.88544-0.21541 0.36493
  -4   5  -8 4389.07  272.09   1-0.09672-0.02904-0.40738-0.94885-0.90812-0.31437
   4   5   8 3835.90  302.40   1 0.06763-0.41887 0.59476 0.87977 0.80104 0.22478
   4   5   9 2959.12  304.83   1 0.10507-0.41485 0.53374 0.87426 0.83909 0.25210
  -4   5  -9 3117.00  291.51   1-0.09898 0.00367-0.34884-0.94492-0.93193-0.32725
  -4   5  -9 2781.47  289.05   1-0.08714 0.01595-0.34491-0.94328-0.93457-0.33160
  -4   5  -9 3188.97  271.70   1-0.11624-0.01427-0.34832-0.94505-0.93013-0.32659
  -4  -5  -9 3090.48  249.23   1-0.06165 0.45543-0.50615-0.84785-0.86023-0.27151
   4   5   9 2447.98  246.77   1 0.05795-0.46307 0.50168 0.84184 0.86310 0.27721
  -4   5 -10  546.69  154.30   1-0.09626 0.04074-0.28899-0.94030-0.95247-0.33789
  -4  -5 -10  252.27  146.84   1-0.10278 0.44932-0.44982-0.84570-0.88718-0.28789
  -4  -5 -10  338.10  128.22   1-0.08647 0.46491-0.43720-0.83416-0.89519-0.29667
   4   6 -11 1151.67  149.82   1 0.01049 0.13607 0.79899 0.01017-0.60124-0.99064
   4   6 -11 1198.17  146.09   1-0.80254-0.67469 0.51729-0.27271-0.29718-0.68586
   4  -6 -11 1161.35  128.26   1-0.74170-0.11597 0.34430-0.13721-0.57561-0.98372
  -4   6  11 1004.43  170.64   1 0.10296-0.52411-0.94650-0.46562 0.30581 0.71309
  -4  -6  11 1253.44  188.71   1 0.08737-0.04163-0.78747 0.00121 0.61012 0.99913
   4   6 -10  600.44  134.58   1 0.01160 0.10286 0.80519 0.07162-0.59289-0.99211
   4   6 -10  280.88  108.25   1-0.80353-0.71015 0.52820-0.20646-0.27446-0.67309
   4  -6 -10  341.18   97.64   1-0.74511-0.15379 0.35078-0.07548-0.56723-0.98521
  -4  -6  10  483.07  146.78   1-0.80294-0.89778-0.59573 0.13800 0.01955 0.41825
  -4   6  10  344.78  129.20   1 0.10378-0.48873-0.95557-0.52989 0.27585 0.69307
  -4  -6  10  556.44  139.58   1 0.08821-0.00624-0.79578-0.06230 0.59912 0.99803
   4   6  -9 7010.05  359.95   1 0.01342 0.07036 0.81518 0.13687-0.57904-0.98808
   4   6  -9 5835.39  341.88   1-0.80406-0.74514 0.54213-0.13718-0.24406-0.65263
   4  -6  -9 6801.44  324.46   1-0.75057-0.19365 0.36145-0.00956-0.55316-0.98102
  -4  -6   9 8010.06  413.98   1-0.80398-0.86444-0.58841 0.09013 0.08586 0.49457
  -4   6   9 7725.77  402.33   1 0.10471-0.45328-0.96604-0.59543 0.23620 0.66332
  -4  -6   9 8021.54  417.07   1 0.08944 0.02954-0.80805-0.12977 0.58227 0.99110
   4  -6  -823918.62  812.63   1 0.07324 0.59429 0.99725 0.68073 0.01046-0.42826
   4   6  -824339.79  734.72   1 0.01602 0.03864 0.82905 0.20600-0.55893-0.97778
   4   6  -823800.62  775.33   1-0.80344-0.77883 0.55884-0.06525-0.20536-0.62382
   4  -6  -824463.46  670.86   1-0.75810-0.23559 0.37687 0.06110-0.53220-0.96992
  -4  -6   822043.76  955.22   1-0.80219-0.82837-0.58049 0.04266 0.13967 0.55854
  -4   6   825527.80  807.57   1 0.10564-0.41781-0.97690-0.66149 0.18572 0.62278
  -4  -6   826409.44  821.01   1 0.09109 0.06574-0.82444-0.20136 0.55856 0.97730
   4  -6  -720184.31  665.22   1 0.07772 0.56437 0.99453 0.73338 0.06972-0.37898
   4   6  -720334.98  660.58   1 0.01947 0.00777 0.84677 0.27897-0.53159-0.96026
   4   6  -720181.43  645.42   1-0.80071-0.81059 0.57807 0.00930-0.15713-0.58553
   4  -6  -720634.26  553.37   1-0.76756-0.27945 0.39763 0.13710-0.50272-0.95031
  -4  -6   720500.93  604.16   1-0.79896-0.79075-0.57277-0.00479 0.18323 0.61210
  -4   6   717791.89 1048.55   1 0.10637-0.38245-0.98653-0.72617 0.12424 0.57131
  -4  -6   721400.97  664.03   1 0.09313 0.10234-0.84490-0.27703 0.52674 0.95539
   4  -6  -6  -56.11   89.71   1 0.08246 0.53469 0.98721 0.78125 0.13641-0.32208
   4   6  -6  -20.18   73.22   1 0.02382-0.02217 0.86802 0.35543-0.49595-0.93443
   4   6  -6   -6.30   64.85   1-0.79468-0.83884 0.59881 0.08502-0.09950-0.53768
  -4  -6   6   30.60   73.74   1-0.79531-0.75272-0.56589-0.05309 0.21732 0.65619
  -4  -6   6 -103.60  117.82   1 0.09552 0.13857-0.86908-0.35648 0.48535 0.92396
   4  -6  -5 2160.95  217.42   1 0.08725 0.50513 0.97398 0.82322 0.20913-0.25911
   4   6  -5 1667.86  170.58   1 0.02915-0.05118 0.89216 0.43482-0.45077-0.89905
   4   6  -5 1807.58  231.04   1-0.78378-0.86246 0.62023 0.16177-0.03144-0.47955
   4  -6  -5 2445.65  186.47   1-0.78963-0.37025 0.45691 0.30684-0.40953-0.87678
  -4  -6   5 2276.99  216.42   1-0.79198-0.71513-0.56033-0.10283 0.24246 0.69137
  -4   6   5 2293.39  217.69   1 0.10640-0.31334-0.99382-0.84387-0.03141 0.43553
  -4  -6   5 2458.10  218.02   1 0.09817 0.17579-0.89620-0.43880 0.43264 0.88122
   4  -6  -474899.88 1952.27   1 0.09184 0.47551 0.95392 0.85840 0.28562-0.19242
   4   6  -473309.48 1898.21   1 0.03545-0.07921 0.91806 0.51597-0.39484-0.85293
   4   6  -476540.51 1749.97   1-0.76654-0.87961 0.64056 0.23721 0.04564-0.41233
   4  -6  -481654.99 1781.13   1-0.79922-0.41460 0.49550 0.39967-0.34017-0.81753
  -4  -6   469390.23 1751.16   1-0.78936-0.67812-0.55627-0.15395 0.25974 0.71864
  -4   6   476348.60 1830.59   1 0.10522-0.27998-0.98689-0.89214-0.12237 0.35451
  -4  -6   472471.85 1696.25   1 0.10091 0.21280-0.92466-0.52233 0.36715 0.82576
   4  -6  -3 4538.53  314.62   1 0.09597 0.44538 0.92696 0.88655 0.36266-0.12510
   4   6  -3 4810.71  344.17   1 0.04266-0.10629 0.94392 0.59695-0.32739-0.79519
   4   6  -3 3632.35  248.98   1-0.74139-0.88901 0.65815 0.31012 0.13101-0.33687
   4  -6  -3 4106.67  221.06   1-0.80401-0.45386 0.53886 0.49837-0.25135-0.73866
  -4  -6   3 4381.86  243.41   1-0.78780-0.64217-0.55395-0.20680 0.26925 0.73813
  -4  -6   3 3936.08  260.89   1 0.10348 0.24992-0.95221-0.60507 0.28736 0.75591
   4  -6  -229739.93  756.05   1 0.09950 0.41447 0.89333 0.90812 0.43823-0.05933
   4   6  -230929.74  802.94   1 0.05069-0.13262 0.96754 0.67573-0.24755-0.72512
   4   6  -228931.30  688.16   1-0.70751-0.88945 0.67103 0.37840 0.22166-0.25629
   4  -6  -228898.52  680.02   1-0.79931-0.48367 0.58415 0.59899-0.14089-0.63817
  -4  -6   230066.83  658.59   1-0.78747-0.60744-0.55346-0.26150 0.27121 0.75008
  -4  -6   228688.78  748.33   1 0.10552 0.28647-0.97551-0.68347 0.19296 0.67141
   4  -6  -1   64.46  121.62   1 0.10234 0.38285 0.85372 0.92380 0.51057 0.00318
   4   6  -1  112.98   91.98   1 0.05931-0.15836 0.98606 0.74947-0.15543-0.64281
   4   6  -1   38.74   67.26   1-0.66449-0.88100 0.67768 0.44038 0.31492-0.17292
   4  -6  -1   33.66   70.27   1-0.77926-0.49824 0.62662 0.69664-0.00886-0.51617
  -4  -6   1   41.05   73.02   1-0.78838-0.57396-0.55481-0.31802 0.26574 0.75460
  -4  -6   1   13.13   84.12   1 0.10663 0.32219-0.99072-0.75385 0.08425 0.57261
   4  -6   0167011.9 1971.92   1 0.10445 0.35070 0.80919 0.93449 0.57818 0.06104
   4   6   0170376.0 1948.21   1 0.06817-0.18379 0.99627 0.81477-0.05273-0.54987
   4   6   0155851.0 1749.81   1-0.61305-0.86411 0.67705 0.49506 0.40714-0.09059
   4  -6   0168324.6 1761.35   1-0.73812-0.49173 0.65982 0.78513 0.14071-0.37650
  -4  -6   0169041.1 1596.53   1-0.79044-0.54161-0.55791-0.37630 0.25284 0.75169
  -4  -6   0163360.7 1807.82   1 0.10636 0.35647-0.99366-0.81200-0.03616 0.46213
   4  -6   1 2144.12  196.67   1 0.10584 0.31765 0.76092 0.94142 0.64015 0.11322
   4   6   1 2088.06  209.94   1 0.07689-0.20953 0.99532 0.86891 0.05841-0.44842
   4  -6   1 2106.62  222.02   1-0.67251-0.46049 0.67704 0.85786 0.29888-0.22805
  -4  -6  -1 1915.80  167.35   1-0.79336-0.51002-0.56257-0.43606 0.23257 0.74143
  -4  -6  -1 1876.34  185.67   1 0.10438 0.38903-0.98092-0.85447-0.16396 0.34427
   4  -6   263805.85 1137.76   1 0.10657 0.28379 0.70978 0.94550 0.69630 0.15960
   4   6   265547.50 1203.50   1 0.08504-0.23571 0.98092 0.90970 0.17479-0.34187
  -4  -6  -263170.99  987.46   1-0.79681-0.47908-0.56857-0.49724 0.20448 0.72334
   4  -6   3  735.10  140.84   1 0.10669 0.24946 0.65654 0.94745 0.74670 0.20024
   4   6   3  830.20  141.02   1 0.09219-0.26285 0.95199 0.93582 0.29191-0.23483
  -4  -6  -3  899.30  119.61   1-0.80023-0.44812-0.57552-0.55938 0.16847 0.69733
   4  -6   3  959.80  146.37   1 0.07493 0.21636 0.66550 0.95646 0.74261 0.19584
   4  -6   412007.54  493.00   1 0.10626 0.21458 0.60184 0.94793 0.79151 0.23530
   4   6   412802.25  517.43   1 0.09806-0.29119 0.90864 0.94768 0.40588-0.13075
  -4  -6  -412553.39  483.75   1-0.80295-0.41644-0.58295-0.62199 0.12424 0.66310
   4  -6   411259.54  493.61   1 0.06924 0.17615 0.61035 0.95646 0.78909 0.23269
   4  -6   513714.68  538.62   1 0.10534 0.17921 0.54614 0.94742 0.83103 0.26507
   4   6   514877.35  549.27   1 0.10244-0.32127 0.85207 0.94640 0.51329-0.03313
  -4  -6  -514408.07  536.36   1-0.80406-0.38315-0.59022-0.68430 0.07148 0.62041
   4  -6   512228.04  568.47   1 0.06335 0.13575 0.55355 0.95482 0.83039 0.26436
   4  -6   612926.68  499.20   1 0.10398 0.14340 0.48978 0.94625 0.86561 0.28990
   4   6   612281.83  570.13   1 0.10526-0.35267 0.78462 0.93414 0.61096 0.05464
  -4  -6  -611768.35  462.10   1-0.80247-0.34717-0.59661-0.74587 0.00950 0.56844
  -4   6  -613421.79  438.56   1-0.06615-0.10858-0.49398-0.95044-0.86694-0.29130
   4  -6   612043.69  495.56   1 0.05731 0.09518 0.49554 0.95196 0.86668 0.29101
   4   6   7 1012.46  171.02   1 0.10658-0.38589 0.70852 0.91308 0.69759 0.13173
  -4   6  -7  839.75  161.56   1-0.10224-0.10978-0.43355-0.94473-0.89530-0.30889
  -4  -6  -7  810.20  146.37   1-0.79674-0.30702-0.60110-0.80560-0.06222 0.50669
  -4   6  -7  815.13  113.06   1-0.08767-0.09580-0.43374-0.94546-0.89676-0.31132
   4  -6   7 1255.35  156.21   1 0.05114 0.05450 0.43665 0.94822 0.89817 0.31287
   4   6   850036.02 1089.09   1 0.10651-0.42042 0.62594 0.88569 0.77255 0.19695
  -4   6  -850655.36 1012.37   1-0.10013-0.07332-0.37658-0.94299-0.92095-0.32464
  -4   6  -851473.04 1082.22   1-0.04582-0.01858-0.37457-0.94329-0.92606-0.33142
  -4  -6  -846645.12  963.63   1-0.78499-0.26090-0.60241-0.86209-0.14452 0.43441
   4   6   844280.25 1069.87   1 0.06821-0.45968 0.60043 0.85983 0.79675 0.22219
   4   6   9  -35.24   96.88   1 0.10519-0.45619 0.53900 0.85393 0.83570 0.25035
  -4   6  -9  146.99  111.40   1-0.09769-0.03653-0.31939-0.94102-0.94257-0.33635
  -4  -6  -9   56.02   78.86   1-0.06116 0.49743-0.50746-0.82367-0.85949-0.27224
   4   6   9    1.67   87.79   1 0.05795-0.46307 0.50168 0.84184 0.86310 0.27721
  -4  -6 -10 8778.40  386.99   1-0.08632 0.50657-0.43761-0.80907-0.89501-0.29797
   4   7 -11  689.03  144.95   1 0.00959 0.09365 0.79391-0.02049-0.60795-0.99539
   4   7 -11  573.59  105.08   1-0.80401-0.71766 0.53863-0.27694-0.25186-0.63895
   4  -7 -11  577.54  135.03   1-0.73944-0.07221 0.34007-0.11587-0.58101-0.99063
  -4  -7  11  559.28  160.24   1 0.08721-0.00005-0.78587 0.02817 0.61220 0.99960
   4   7 -10 8539.25  403.00   1 0.01069 0.06042 0.80012 0.04105-0.59974-0.99732
   4   7 -10 5458.86  418.95   1-0.80397-0.75188 0.54936-0.21096-0.22764-0.62462
   4  -7 -10 9041.67  387.11   1-0.74279-0.10998 0.34637-0.05432-0.57295-0.99244
  -4   7  10 8647.87  473.15   1 0.10526-0.52871-0.97240-0.57224 0.20820 0.62689
  -4  -7  1010312.57  494.86   1 0.08803 0.03500-0.79403-0.03491 0.60146 0.99877
   4   7  -9  681.57  132.70   1 0.01243 0.02785 0.80979 0.10598-0.58657-0.99397
   4   7  -9  594.44  111.89   1-0.80305-0.78546 0.56292-0.14207-0.19546-0.60238
   4  -7  -9  589.76  106.67   1-0.74823-0.14982 0.35684 0.01139-0.55928-0.98864
  -4  -7   9  864.58  139.63   1-0.80156-0.82062-0.57875 0.12520 0.15011 0.55757
  -4   7   9  670.51  320.32   1-0.28259-0.88227-0.33775 0.00938-0.89780-0.47063
  -4   7   9  439.49  119.93   1 0.10593-0.49349-0.98058-0.63562 0.16503 0.59367
  -4  -7   9  756.71  141.35   1 0.08925 0.07077-0.80609-0.10217 0.58501 0.99224
   4   7  -811385.73  463.95   1 0.01493-0.00396 0.82331 0.17476-0.56738-0.98460
   4   7  -811582.38  428.49   1-0.80052-0.81742 0.57894-0.07072-0.15482-0.57168
   4  -7  -810929.47  498.28   1-0.75581-0.19181 0.37210 0.08189-0.53877-0.97800
  -4  -7   811869.30  445.90   1-0.79720-0.78187-0.56930 0.07947 0.20088 0.61834
  -4   7   811028.91  541.52   1 0.10647-0.45832-0.98805-0.69813 0.11138 0.55004
  -4  -7   811496.45  496.89   1 0.09086 0.10694-0.82222-0.17349 0.56186 0.97900
   4  -7  -7 1360.71  205.34   1 0.08570 0.61390 0.97900 0.74342 0.18494-0.26540
   4   7  -7 1557.28  189.33   1 0.01826-0.03496 0.84066 0.24735-0.54125-0.96829
   4   7  -7 1584.79  162.78   1-0.79546-0.84658 0.59672 0.00202-0.10561-0.53225
   4  -7  -7 1497.40  162.11   1-0.76541-0.23581 0.39274 0.15779-0.50979-0.95890
  -4  -7   7 1698.48  169.53   1-0.79213-0.74258-0.56057 0.03288 0.24140 0.66894
  -4   7   7 1474.81  172.75   1 0.10671-0.42354-0.99319-0.75847 0.04670 0.49530
  -4  -7   7 1788.56  209.47   1 0.09288 0.14351-0.84239-0.24887 0.53078 0.95784
   4  -7  -614436.22  617.78   1 0.08967 0.58345 0.96447 0.78408 0.24849-0.21164
   4   7  -613527.61  458.51   1 0.02248-0.06506 0.86158 0.32353-0.50711-0.94397
   4   7  -612589.35  564.30   1-0.78655-0.87220 0.61575 0.07637-0.04658-0.48314
   4  -7  -613768.73  436.09   1-0.77651-0.28122 0.41924 0.23949-0.47038-0.92927
  -4  -7   615100.04  512.88   1-0.78711-0.70316-0.55293-0.01464 0.27334 0.71087
  -4   7   613668.73  530.76   1 0.10643-0.38929-0.99392-0.81440-0.02820 0.43033
  -4  -7   615345.56  573.26   1 0.09525 0.17971-0.86631-0.32805 0.49033 0.92740
   4  -7  -5 5064.51  366.71   1 0.09355 0.55314 0.94397 0.81883 0.31648-0.15341
   4   7  -5 5200.34  306.23   1 0.02763-0.09422 0.88547 0.40262-0.46386-0.91050
   4   7  -5 5022.48  334.39   1-0.77247-0.89264 0.63468 0.15061 0.02162-0.42485
   4  -7  -5 5317.56  271.25   1-0.78817-0.32731 0.45218 0.32769-0.41750-0.88627
  -4  -7   5 4922.43  284.89   1-0.78277-0.66443-0.54679-0.06368 0.29711 0.74462
  -4   7   5 5065.67  292.85   1 0.10541-0.35577-0.98812-0.86382-0.11177 0.35670
  -4  -7   5 5151.54  316.37   1 0.09788 0.21692-0.89323-0.41017 0.43880 0.88583
   4  -7  -416991.68  686.72   1 0.09710 0.52241 0.91752 0.84749 0.38564-0.09396
   4   7  -416086.63  705.56   1 0.03376-0.12242 0.91140 0.48380-0.41012-0.86657
   4   7  -415690.58  573.42   1-0.75195-0.90648 0.65192 0.22295 0.09777-0.35856
   4  -7  -417927.14  624.23   1-0.79838-0.37226 0.49125 0.42098-0.34819-0.82715
  -4  -7   415553.33  568.72   1-0.77953-0.62679-0.54241-0.11448 0.31322 0.77072
  -4  -7   416981.76  624.44   1 0.10063 0.25394-0.92169-0.49370 0.37464 0.83172
   4  -7  -3  629.95  120.97   1 0.10018 0.49105 0.88524 0.87041 0.45420-0.03520
   4   7  -3  650.82  148.47   1 0.04080-0.14966 0.93766 0.56517-0.34513-0.81128
   4   7  -3  841.17  132.27   1-0.72376-0.91260 0.66597 0.29239 0.18069-0.28576
   4  -7  -3  882.73  120.75   1-0.80392-0.41226 0.53547 0.52054-0.25880-0.74770
  -4  -7   3  770.65  138.29   1 0.10323 0.29110-0.94950-0.57671 0.29629 0.76332
   4  -7  -2  -10.52   90.37   1 0.10269 0.45910 0.84766 0.88812 0.52049 0.02125
   4   7  -2   57.09   78.03   1 0.04872-0.17610 0.96229 0.64503-0.26762-0.74358
   4   7  -2   72.53   84.99   1-0.68719-0.91060 0.67521 0.35696 0.26805-0.20829
   4  -7  -2   68.45   61.86   1-0.79982-0.44268 0.58207 0.62248-0.14652-0.64540
  -4  -7   2   76.39   97.84   1-0.77729-0.55576-0.53947-0.22188 0.32370 0.80118
  -4  -7   2   21.37   76.76   1 0.10535 0.32773-0.97345-0.65575 0.20320 0.68013
   4  -7  -111911.21  509.35   1 0.10458 0.42673 0.80565 0.90133 0.58308 0.07410
   4   7  -110380.98  585.70   1 0.05726-0.20191 0.98236 0.72024-0.17797-0.66368
   4   7  -111801.68  511.09   1-0.64238-0.90035 0.67833 0.41540 0.35664-0.12959
   4  -7  -111751.46  455.88   1-0.77967-0.45716 0.62609 0.72171-0.01081-0.51973
  -4  -7   1 8761.58  329.44   1-0.77844-0.52252-0.54098-0.27857 0.31836 0.80583
  -4  -7   112276.35  461.32   1 0.10657 0.36357-0.98971-0.72720 0.09538 0.58222
   4  -7   071831.67 1182.99   1 0.10586 0.39357 0.76025 0.91114 0.64093 0.12217
   4   7   067498.78 1296.57   1 0.06615-0.22731 0.99483 0.78777-0.07701-0.57248
   4  -7   071135.96 1133.80   1-0.73680-0.44874 0.66046 0.81159 0.14456-0.37409
  -4  -7   068765.25 1009.45   1-0.78101-0.49069-0.54440-0.33717 0.30599 0.80344
  -4  -7   068044.00 1088.63   1 0.10645 0.39799-0.99400-0.78670-0.02486 0.47191
   4  -7   1 1425.17  181.10   1 0.10655 0.35968 0.71219 0.91832 0.69384 0.16525
   4   7   1 1994.20  213.11   1 0.07500-0.25290 0.99662 0.84464 0.03334-0.47182
   4  -7   1 1725.12  201.99   1-0.66690-0.41341 0.67751 0.88396 0.31016-0.21839
  -4  -7  -1 1602.61  161.21   1-0.78477-0.46006-0.54959-0.39754 0.28647 0.79391
  -4  -7  -1 2039.47  240.57   1 0.10461 0.43068-0.98259-0.83050-0.15347 0.35323
   4  -7   2 1458.85  181.25   1 0.10670 0.32538 0.66213 0.92344 0.74175 0.20341
   4   7   2 1236.62  196.33   1 0.08340-0.27883 0.98513 0.88834 0.15017-0.36482
  -4  -7  -2 1363.64  156.83   1-0.78938-0.43026-0.55630-0.45943 0.25961 0.77704
   4  -7   3 6377.70  361.79   1 0.10636 0.29059 0.61062 0.92711 0.78474 0.23665
   4   7   3 6331.29  413.77   1 0.09089-0.30576 0.95877 0.91717 0.26924-0.25554
  -4  -7  -3 6403.08  330.64   1-0.79433-0.40070-0.56419-0.52243 0.22520 0.75265
   4  -7   3 6632.97  402.37   1 0.07054 0.25336 0.62290 0.93947 0.77911 0.23064
   4  -7   443541.80  968.71   1 0.10557 0.25535 0.55808 0.92976 0.82304 0.26519
   4   7   442329.12 1050.36   1 0.09711-0.33359 0.91739 0.93085 0.38594-0.14905
  -4  -7  -439064.80  750.29   1-0.79901-0.37099-0.57288-0.58630 0.18268 0.72014
   4  -7   436566.37  813.51   1 0.06503 0.21334 0.56969 0.94142 0.81927 0.26117
   4  -7   546935.89 1019.28   1 0.10438 0.21971 0.50481 0.93168 0.85689 0.28929
   4   7   549073.75 1223.18   1 0.10186-0.36332 0.86169 0.93044 0.49710-0.04768
  -4  -7  -542930.07  921.48   1-0.80260-0.34019-0.58178-0.65039 0.13170 0.67915
  -4   7  -547427.69 1068.78   1-0.05858-0.17682-0.51439-0.94109-0.85555-0.28821
   4  -7   545354.28  996.02   1 0.05936 0.17315 0.51518 0.94206 0.85501 0.28728
   4   7   643500.13 1234.36   1 0.10498-0.39441 0.79392 0.91786 0.59887 0.04418
  -4   7  -647143.29 1183.06   1-0.10283-0.18622-0.45136-0.93286-0.88639-0.30835
  -4  -7  -642426.88 1103.47   1-0.80406-0.30725-0.59019-0.71384 0.07176 0.62930
  -4   7  -637783.91 1170.96   1-0.08041-0.16435-0.45445-0.93642-0.88713-0.31000
   4  -7   644629.62 1064.51   1 0.05355 0.13283 0.45967 0.94170 0.88647 0.30910
   4   7   7 8598.89  482.82   1 0.10651-0.42741 0.71635 0.89532 0.68956 0.12534
  -4   7  -710530.89  489.34   1-0.10094-0.14998-0.39730-0.93403-0.91211-0.32417
  -4  -7  -7 8624.36  453.41   1-0.80206-0.27086-0.59723-0.77607 0.00196 0.56950
  -4   7  -7 8581.08  441.35   1-0.10047-0.15012-0.39625-0.93347-0.91262-0.32570
   4   7   8 5478.51  369.86   1 0.10655-0.46183 0.63128 0.86544 0.76819 0.19422
  -4   7  -8 4927.52  442.85   1-0.09873-0.11343-0.34294-0.93489-0.93415-0.33630
  -4  -7  -8 5463.01  338.14   1-0.79484-0.22923-0.60169-0.83577-0.07859 0.49892
  -4   7  -8 5871.46  468.21   1-0.25264-0.26912-0.31766-0.90999-0.91392-0.31541
  -4   7  -8 5990.78  301.35   1-0.11902-0.13438-0.33964-0.93212-0.93299-0.33627
   4   7   8 5185.72  360.57   1 0.06846-0.50084 0.60276 0.83655 0.79497 0.22211
   4   7   9 9809.64  500.44   1 0.10523-0.49760 0.54105 0.83039 0.83437 0.25065
  -4   7  -910824.61  497.83   1-0.09623-0.07658-0.28832-0.93549-0.95268-0.34494
  -4  -7  -910535.68  417.27   1-0.06171 0.53840-0.50600-0.79670-0.86031-0.27455
   4   8 -10 5205.39  447.46   1 0.01015 0.01835 0.79706 0.01249-0.60380-0.99975
   4   8 -10 4448.31  433.11   1-0.80207-0.79148 0.57051-0.21539-0.17659-0.57197
   4  -8 -10 6035.80  314.36   1-0.74144-0.06712 0.34380-0.03132-0.57625-0.99725
  -4  -8  10 6499.82  389.65   1 0.08804 0.07644-0.79414-0.00937 0.60131 0.99703
   4   8  -928944.52  785.04   1 0.01183-0.01427 0.80647 0.07716-0.59114-0.99691
   4   8  -928713.12  736.69   1-0.79948-0.82338 0.58347-0.14711-0.14275-0.54807
   4  -8  -932413.18  701.89   1-0.74686-0.10696 0.35417 0.03429-0.56279-0.99367
  -4  -8   930232.97  780.94   1-0.79664-0.77419-0.56826 0.16131 0.20597 0.61204
  -4   8   925861.58 1206.14   1-0.22530-0.86651-0.29912 0.02249-0.92723-0.49864
  -4  -8   932201.01  776.80   1 0.08924 0.11219-0.80602-0.07645 0.58511 0.99074
   4   8  -8 5147.11  306.06   1 0.01425-0.04617 0.81965 0.14559-0.57268-0.98826
   4   8  -8 5027.20  303.17   1-0.79489-0.85297 0.59826-0.07735-0.10111-0.51619
   4  -8  -8 5381.93  290.56   1-0.75447-0.14897 0.36934 0.10471-0.54253-0.98328
  -4  -8   8 5818.95  300.16   1-0.79038-0.73373-0.55782 0.11643 0.25323 0.66938
  -4   8   8 4959.54  556.70   1-0.27732-0.88422-0.33423-0.06787-0.90076-0.46210
  -4   8   8 4996.68  339.22   1 0.10670-0.49953-0.99392-0.72965 0.02679 0.46698
  -4  -8   8 5841.74  353.31   1 0.09083 0.14834-0.82190-0.14754 0.56233 0.97786
   4   8  -7 6573.40  423.59   1 0.01747-0.07727 0.83660 0.21780-0.54752-0.97292
   4   8  -7 5893.47  356.71   1-0.78720-0.87980 0.61463-0.00566-0.05028-0.47529
   4  -8  -7 6052.70  327.65   1-0.76415-0.19306 0.38994 0.18055-0.51381-0.96442
  -4  -8   7 8395.65  393.29   1-0.78384-0.69280-0.54828 0.07080 0.29150 0.71764
  -4   8   7 7130.23  398.47   1 0.10633-0.46535-0.99351-0.78444-0.04015 0.40997
  -4  -8   7 7181.79  420.66   1 0.09282 0.18488-0.84179-0.22262 0.53176 0.95721
   4  -8  -6 6233.79  423.66   1 0.09630 0.63195 0.92432 0.76947 0.36925-0.09238
   4   8  -6 7514.71  392.27   1 0.02156-0.10750 0.85713 0.29358-0.51464-0.94986
   4   8  -6 7179.80  367.32   1-0.77531-0.90244 0.63150 0.06651 0.00930-0.42563
   4  -8  -6 7878.00  340.66   1-0.77542-0.23865 0.41648 0.26231-0.47460-0.93500
  -4  -8   6 8123.81  350.32   1-0.77779-0.65235-0.54012 0.02378 0.32141 0.75753
  -4   8   6 6028.75  384.87   1 0.10533-0.43181-0.98764-0.83377-0.11604 0.34402
  -4  -8   6 7875.79  383.31   1 0.09516 0.22104-0.86539-0.30147 0.49197 0.92749
   4  -8  -5 3732.68  286.92   1 0.09906 0.60028 0.89826 0.79861 0.42814-0.04330
   4   8  -5 4147.07  303.89   1 0.02656-0.13680 0.88067 0.37231-0.47297-0.91796
   4   8  -5 3971.91  257.80   1-0.75811-0.91956 0.64758 0.13768 0.07677-0.36801
   4  -8  -5 4281.78  244.21   1-0.78736-0.28501 0.44962 0.35071-0.42177-0.89205
  -4  -8   5 4110.66  271.69   1-0.77274-0.61290-0.53364-0.02491 0.34364 0.78976
  -4  -8   5 4171.47  315.28   1 0.09777 0.25822-0.89201-0.38329 0.44130 0.88679
   4  -8  -446974.85 1030.19   1 0.10150 0.56825 0.86718 0.82282 0.48753 0.00624
   4   8  -444324.30  893.83   1 0.03253-0.16517 0.90642 0.45330-0.42112-0.87591
   4   8  -441009.36 1237.18   1-0.73435-0.93010 0.66161 0.20709 0.15160-0.30335
   4  -8  -449468.80 1005.58   1-0.79795-0.33032 0.48916 0.44445-0.35212-0.83267
  -4  -8   445494.16 1084.97   1-0.76905-0.57482-0.52905-0.07550 0.35868 0.81478
  -4  -8   444170.51  947.00   1 0.10049 0.29523-0.92026-0.46661 0.37816 0.83372
   4  -8  -311714.15  516.35   1 0.10350 0.53582 0.83173 0.84258 0.54543 0.05434
   4   8  -312052.29  480.03   1 0.03941-0.19256 0.93278 0.53477-0.35827-0.82276
   4   8  -310186.84  539.73   1-0.70313-0.93344 0.67211 0.27291 0.23206-0.23278
   4  -8  -310461.83  422.20   1-0.80386-0.37070 0.53414 0.54478-0.26169-0.75218
  -4  -8   310656.93  378.24   1-0.76695-0.53832-0.52649-0.12812 0.36684 0.83293
  -4  -8   312149.76  471.16   1 0.10310 0.33239-0.94805-0.54960 0.30094 0.76645
   4  -8  -284461.09 1961.40   1 0.10503 0.50307 0.79235 0.85842 0.60095 0.10013
   4   8  -284718.60 2024.48   1 0.04719-0.21914 0.95795 0.61517-0.28302-0.75732
   4   8  -285043.82 1939.41   1-0.66420-0.92908 0.67770 0.33382 0.31550-0.15924
   4  -8  -278309.13 1811.94   1-0.79987-0.40123 0.58187 0.64786-0.14703-0.64751
  -4  -8   287047.22 1888.33   1-0.76657-0.50354-0.52603-0.18283 0.36832 0.84440
  -4  -8   288200.88 1988.69   1 0.10525 0.36905-0.97225-0.62890 0.20890 0.68431
   4  -8  -143984.44 1310.57   1 0.10606 0.46966 0.75004 0.87131 0.65282 0.14222
   4   8  -139756.52 1218.10   1 0.05564-0.24504 0.97911 0.69146-0.19553-0.67958
   4   8  -143770.45 1216.01   1-0.61788-0.91732 0.67741 0.38885 0.39916-0.08546
   4  -8  -143803.15 1119.22   1-0.77886-0.41487 0.62715 0.74837-0.00695-0.51750
  -4  -8   137739.73 1011.70   1-0.76790-0.47048-0.52765-0.23963 0.36318 0.84924
  -4  -8   145739.15 1209.41   1 0.10654 0.40496-0.98908-0.70092 0.10180 0.58711
   4  -8   0 2542.06  263.58   1 0.10660 0.43564 0.70533 0.88186 0.70081 0.18033
   4   8   0 2170.60  237.48   1 0.06450-0.27044 0.99325 0.76064-0.09634-0.59014
   4  -8   0 2583.59  251.21   1-0.73311-0.40358 0.66217 0.83892 0.15513-0.36514
  -4  -8   0 2901.65  194.79   1-0.77087-0.43905-0.53130-0.29846 0.35138 0.84743
  -4  -8   0 2740.85  237.08   1 0.10650 0.43947-0.99414-0.76119-0.01832 0.47691
   4   8   1  -34.92  114.50   1 0.07346-0.29588 0.99720 0.81980 0.01332-0.49027
   4  -8   1   90.64   82.36   1-0.65719-0.36223 0.67807 0.91014 0.32910-0.20105
  -4  -8  -1   61.35   78.91   1-0.77526-0.40904-0.53684-0.35918 0.33280 0.83884
  -4  -8  -1   70.17   76.02   1 0.10473 0.47224-0.98347-0.80572-0.14770 0.35747
   4  -8   2 1274.51  168.23   1 0.10636 0.36649 0.61077 0.89767 0.78462 0.24465
   4   8   2 1343.01  175.50   1 0.08202-0.32177 0.98811 0.86576 0.12997-0.38329
  -4  -8  -2 1082.20  132.77   1-0.78076-0.38015-0.54407-0.42158 0.30722 0.82325
   4  -8   2 1179.90  152.15   1 0.07100 0.32974 0.62733 0.91436 0.77550 0.23497
   4  -8   3  439.19  113.13   1 0.10564 0.33132 0.56172 0.90381 0.82055 0.27082
   4   8   3  560.08  129.08   1 0.08978-0.34834 0.96397 0.89680 0.25037-0.27274
  -4  -8  -3  693.70  131.35   1-0.78694-0.35193-0.55268-0.48537 0.27432 0.80034
   4  -8   3  607.95  125.75   1 0.06588 0.29010 0.57788 0.92006 0.81345 0.26328
   4  -8   4 4328.37  297.79   1 0.10456 0.29579 0.51186 0.90914 0.85267 0.29319
   4   8   4 4974.84  356.40   1 0.09631-0.37586 0.92420 0.91208 0.36956-0.16378
  -4  -8  -4 4667.31  259.08   1-0.79320-0.32366-0.56230-0.55011 0.23376 0.76981
  -4   8  -4 4615.02  381.89   1-0.05345-0.24750-0.52796-0.92492-0.84758-0.28855
   4  -8   4 4953.88  295.07   1 0.06059 0.25030 0.52704 0.92437 0.84767 0.28787
   4   8   530503.92  930.35   1 0.10137-0.40527 0.86911 0.91228 0.48410-0.05903
  -4   8  -529795.39  871.22   1-0.10315-0.26240-0.46149-0.91331-0.88112-0.31145
  -4  -8  -527688.36  736.70   1-0.79881-0.29489-0.57246-0.61545 0.18487 0.73092
  -4   8  -530652.57  803.33   1-0.07540-0.23515-0.46850-0.92071-0.88023-0.31141
   4  -8   529420.58  797.46   1 0.05517 0.21036 0.47509 0.92758 0.87820 0.30877
   4   8   6  903.41  190.08   1 0.10475-0.43610 0.80078 0.89914 0.58971 0.03665
  -4   8  -6  991.81  162.08   1-0.10143-0.22634-0.41062-0.91767-0.90614-0.32657
  -4  -8  -6 1005.98  153.10   1-0.80282-0.26451-0.58250-0.68068 0.12710 0.68315
  -4   8  -6  775.08  218.77   1-0.29339-0.42001-0.34493-0.85226-0.89159-0.31183
  -4   8  -6  982.56  157.84   1-0.09549-0.22094-0.41100-0.91847-0.90661-0.32800
   4  -8   6  851.21  125.86   1 0.04963 0.17030 0.42223 0.92988 0.90512 0.32606
   4   8   732550.01  864.79   1 0.10646-0.46892 0.72143 0.87481 0.68424 0.12166
  -4   8  -728456.78  875.90   1-0.09943-0.18998-0.35935-0.92161-0.92789-0.33842
  -4  -8  -734941.61  780.17   1-0.80400-0.23128-0.59161-0.74484 0.05973 0.62586
  -4   8  -732008.60 1089.82   1-0.25337-0.34569-0.31815-0.88074-0.91355-0.32371
  -4   8  -736213.97  745.37   1-0.11399-0.20515-0.35528-0.91800-0.92778-0.33937
   4   8   8 5420.91  392.89   1 0.10657-0.50327 0.63349 0.84206 0.76637 0.19403
  -4   8  -8 5118.42  541.53   1-0.09715-0.15336-0.30769-0.92518-0.94651-0.34713
  -4  -8  -8 5622.77  347.78   1-0.80073-0.19359-0.59873-0.80721-0.01848 0.55761
  -4   8  -8 6084.00  532.87   1-0.20643-0.26444-0.28622-0.90407-0.93566-0.33574
  -4   8  -912654.96 1040.99   1-0.09461-0.11645-0.25574-0.92841-0.96210-0.35280
  -4  -8  -911211.85  504.61   1-0.06333 0.57829-0.50163-0.76683-0.86276-0.27847
   4   9 -1024748.00  908.07   1 0.00995-0.02336 0.79592-0.01414-0.60531-0.99962
   4   9 -1022961.16  797.22   1-0.79733-0.82824 0.59118-0.22030-0.12146-0.51525
   4  -9 -1025480.07  837.23   1-0.74106-0.02525 0.34310-0.00645-0.57714-0.99966
  -4  -9  1026971.31  958.50   1 0.08823 0.11805-0.79602 0.01438 0.59879 0.99290
   4   9  -921968.51  772.96   1 0.01158-0.05604 0.80509 0.05028-0.59303-0.99716
   4   9  -922557.13  786.76   1-0.79294-0.85798 0.60309-0.15344-0.08669-0.49023
   4  -9  -924164.08  736.13   1-0.74649-0.06509 0.35346 0.05915-0.56374-0.99612
  -4  -9   924408.97  739.56   1-0.79036-0.72661-0.55779 0.19725 0.25334 0.65811
  -4   9   919352.62 1110.92   1-0.17075-0.85349-0.26159 0.03449-0.94995-0.51995
  -4  -9   927566.05  876.05   1 0.08941 0.15379-0.80776-0.05255 0.58267 0.98670
   4   9  -832850.80  807.62   1 0.01393-0.08801 0.81795 0.11840-0.57510-0.98905
   4   9  -829002.40  831.06   1-0.78598-0.88554 0.61672-0.08449-0.04335-0.45681
   4  -9  -831243.76  652.98   1-0.75412-0.10713 0.36862 0.12956-0.54351-0.98576
  -4  -9   829919.23  696.65   1-0.78260-0.68446-0.54656 0.15331 0.29799 0.71274
  -4   9   829645.91 1448.63   1-0.22229-0.87072-0.29707-0.05623-0.92861-0.48854
  -4  -9   830713.57  772.81   1 0.09098 0.18991-0.82343-0.12342 0.56007 0.97401
   4   9  -725348.22  725.98   1 0.01706-0.11920 0.83452 0.19022-0.55071-0.97447
   4   9  -725887.97  681.32   1-0.77555-0.90964 0.63122-0.01467 0.00825-0.41513
   4  -9  -723145.03  594.96   1-0.76385-0.15126 0.38926 0.20545-0.51478-0.96690
  -4  -9   725763.36  645.07   1-0.77502-0.64248-0.53653 0.10816 0.33388 0.75862
  -4   9   720339.19 1051.75   1-0.26382-0.87794-0.32518-0.13961-0.90810-0.45795
  -4   9   722333.99  842.26   1 0.10495-0.50816-0.98503-0.80160-0.13671 0.31494
  -4  -9   725498.73  724.87   1 0.09294 0.22642-0.84301-0.19820 0.52979 0.95364
   4   9  -6 7989.66  422.93   1 0.02104-0.14954 0.85461 0.26556-0.51883-0.95242
   4   9  -6 4993.25  427.91   1-0.76072-0.92909 0.64555 0.05472 0.06747-0.36577
   4  -9  -6 8683.86  393.09   1-0.77520-0.19694 0.41593 0.28734-0.47545-0.93736
  -4  -9   6 7680.27  387.43   1-0.76822-0.60129-0.52804 0.06147 0.36192 0.79665
  -4   9   6 9685.97  608.12   1-0.29689-0.87671-0.34726-0.21695-0.88952-0.42929
  -4  -9   6 8299.61  441.09   1 0.09524 0.26255-0.86626-0.27669 0.49041 0.92439
   4  -9  -5 6122.00  407.75   1 0.10338 0.64604 0.83418 0.76020 0.54170 0.06856
   4   9  -5 5690.79  319.20   1 0.02591-0.17897 0.87772 0.34385-0.47847-0.92180
   4   9  -5 5054.58  377.19   1-0.74022-0.94315 0.65876 0.12324 0.13449-0.30866
   4  -9  -5 5718.29  309.64   1-0.78726-0.24342 0.44932 0.37598-0.42229-0.89407
  -4  -9   5 5753.53  295.42   1-0.76279-0.56171-0.52150 0.01266 0.38233 0.82723
  -4  -9   5 5921.87  360.37   1 0.09781 0.29968-0.89248-0.35811 0.44033 0.88427
   4  -9  -4  409.67  115.16   1 0.10472 0.61310 0.80163 0.78289 0.58856 0.10568
   4   9  -4  447.04  141.00   1 0.03173-0.20748 0.90313 0.42451-0.42818-0.88132
   4   9  -4  482.25  119.05   1-0.71338-0.95060 0.66940 0.18925 0.20730-0.24604
   4  -9  -4  300.21   98.49   1-0.79798-0.28885 0.48932 0.47018-0.35182-0.83395
  -4  -9   4  472.68   98.77   1-0.75878-0.52327-0.51678-0.03778 0.39646 0.85132
  -4  -9   4  437.30  141.57   1 0.10050 0.33666-0.92037-0.44107 0.37789 0.83192
   4  -9  -3    6.48   88.24   1 0.10573 0.57968 0.76602 0.80248 0.63404 0.14138
   4   9  -3   54.91  102.52   1 0.03846-0.23502 0.92935 0.50582-0.36717-0.83000
   4   9  -3   22.24   82.77   1-0.67944-0.95123 0.67629 0.25146 0.28457-0.17867
   4  -9  -3   44.27   68.86   1-0.80390-0.32924 0.53502 0.57122-0.25978-0.75186
  -4  -9   3  138.42   97.27   1-0.75651-0.48659-0.51416-0.09033 0.40412 0.86894
  -4  -9   3   59.20  101.74   1 0.10308 0.37380-0.94788-0.52378 0.30147 0.76545
   4  -9  -2  538.87  127.36   1 0.10639 0.54578 0.72769 0.81944 0.67760 0.17499
   4   9  -2  639.30  140.46   1 0.04609-0.26174 0.95472 0.58641-0.29390-0.76655
   4   9  -2  648.60  123.65   1-0.63846-0.94481 0.67829 0.30879 0.36369-0.10943
   4  -9  -2  552.18   99.46   1-0.79942-0.35928 0.58374 0.67530-0.14202-0.64410
  -4  -9   2  604.53  122.58   1-0.75610-0.45177-0.51369-0.14502 0.40548 0.88026
  -4  -9   2  663.27  157.24   1 0.10523 0.41045-0.97198-0.60297 0.21018 0.68406
   4  -9  -119205.72  631.02   1 0.10669 0.51163 0.68712 0.83406 0.71866 0.20630
   4   9  -119536.93  649.55   1 0.05443-0.28775 0.97652 0.66334-0.20839-0.69077
   4  -9  -118741.01  597.79   1-0.77663-0.37116 0.62993 0.77676 0.00337-0.50879
  -4  -9   118509.16  525.30   1-0.75756-0.41880-0.51537-0.20186 0.40060 0.88535
  -4  -9   118814.54  614.10   1 0.10653 0.44638-0.98890-0.67510 0.10357 0.58734
   4  -9   081969.28 1344.92   1 0.10664 0.47713 0.64475 0.84688 0.75691 0.23480
   4   9   081356.75 1447.61   1 0.06325-0.31319 0.99181 0.73365-0.11089-0.60303
   4  -9   078524.13 1327.09   1-0.72647-0.35547 0.66494 0.86731 0.17345-0.34843
  -4  -9   087616.06 1179.09   1-0.76080-0.38762-0.51915-0.26080 0.38944 0.88415
   4  -9   082403.78 1298.97   1 0.07503 0.44420 0.66647 0.86880 0.74174 0.21877
  -4  -9   083286.15 1310.31   1 0.10651 0.48091-0.99417-0.73557-0.01659 0.47712
   4  -9   1 9152.55  477.78   1 0.10625 0.44228 0.60094 0.85825 0.79219 0.26033
   4   9   1 9064.11  443.08   1 0.07224-0.33859 0.99738 0.79443-0.00227-0.50421
   4  -9   1 7374.22  458.35   1-0.64204-0.30561 0.67833 0.93602 0.35726-0.17450
  -4  -9  -1 8356.85  360.60   1-0.76563-0.35804-0.52490-0.32172 0.37185 0.87652
   4  -9   1 8704.89  452.65   1 0.07054 0.40519 0.62287 0.88036 0.77913 0.24653
  -4  -9  -1 8615.62  402.96   1 0.10475 0.51369-0.98360-0.78022-0.14675 0.35689
   4  -9   2 3142.15  263.95   1 0.10553 0.40712 0.55597 0.86847 0.82447 0.28286
   4   9   2 2213.41  256.87   1 0.08092-0.36435 0.99015 0.84222 0.11423-0.39736
  -4  -9  -2 2884.59  200.92   1-0.77177-0.32966-0.53242-0.38431 0.34770 0.86233
   4  -9   2 3084.75  244.50   1 0.06584 0.36597 0.57750 0.89013 0.81373 0.27149
   4  -9   3 5182.23  313.14   1 0.10451 0.37165 0.51005 0.87773 0.85376 0.30240
   4   9   3 4925.68  426.58   1 0.08889-0.39070 0.96776 0.87502 0.23565-0.28578
  -4  -9  -3 5310.59  261.53   1-0.77886-0.30236-0.54152-0.44860 0.31641 0.84103
  -4   9  -3 4659.71  294.96   1-0.05153-0.32139-0.53301-0.90021-0.84453-0.29381
   4  -9   3 5115.40  299.92   1 0.06097 0.32658 0.53063 0.89842 0.84540 0.29353
   4   9   4 8690.94  457.94   1 0.09568-0.41796 0.92919 0.89150 0.35698-0.17472
  -4   9  -4 9230.32  442.66   1-0.10320-0.33831-0.46320-0.88534-0.88022-0.31892
  -4  -9  -4 8394.15  392.38   1-0.78635-0.27545-0.55184-0.51409 0.27769 0.81230
  -4   9  -4 8800.37  399.35   1-0.07330-0.30886-0.47435-0.89680-0.87727-0.31676
   4  -9   4 9282.52  427.60   1 0.05595 0.28705 0.48253 0.90547 0.87409 0.31259
   4   9   511733.05  549.34   1 0.10100-0.44711 0.87438 0.89197 0.47460-0.06689
  -4   9  -512329.74  520.69   1-0.10163-0.30238-0.41595-0.89331-0.90368-0.33249
  -4  -9  -5 9751.81  369.38   1-0.79356-0.24813-0.56291-0.58029 0.23104 0.77568
  -4   9  -510512.36  640.51   1-0.27856-0.48101-0.33506-0.81264-0.90007-0.32898
  -4   9  -513328.22  458.91   1-0.09312-0.29438-0.41793-0.89564-0.90369-0.33338
   4  -9   510952.95  543.38   1 0.05080 0.24738 0.43337 0.91147 0.89977 0.32865
   4   9   6 7385.44  469.90   1 0.10460-0.47772 0.80513 0.87791 0.58379 0.03235
  -4   9  -6 8067.17  417.96   1-0.09979-0.26620-0.36812-0.90070-0.92440-0.34330
  -4  -9  -6 7098.25  358.37   1-0.79964-0.21981-0.57420-0.64676 0.17568 0.73032
  -4   9  -6 7730.39  525.69   1-0.24585-0.41400-0.31307-0.84592-0.91735-0.33618
  -4   9  -6 7099.64  390.29   1-0.11132-0.27829-0.36349-0.89646-0.92492-0.34482
   4   9   7  513.54  138.70   1 0.10644-0.51040 0.72358 0.85137 0.68197 0.12102
  -4   9  -7  398.52  124.22   1-0.09770-0.22977-0.31976-0.90757-0.94244-0.35144
  -4  -9  -7  500.90  114.19   1-0.80344-0.18921-0.58495-0.71257 0.11087 0.67560
  -4   9  -7  336.44  230.20   1-0.20715-0.34099-0.28671-0.87482-0.93535-0.34410
  -4   9  -8 3568.69  299.04   1-0.09538-0.19308-0.27097-0.91396-0.95784-0.35692
  -4   9  -8 3414.13  359.06   1-0.16189-0.26143-0.25543-0.89880-0.95317-0.35184
   4  10  -9 6049.35  383.87   1 0.01166-0.09749 0.80554 0.02523-0.59242-0.99491
   4  10  -9 6299.51  382.21   1-0.78279-0.88931 0.62172-0.16041-0.02632-0.42823
   4 -10  -9 7851.92  349.37   1-0.74713-0.02424 0.35470 0.08596-0.56211-0.99600
  -4 -10   9 6091.81  435.55   1-0.78344-0.67820-0.54772 0.23294 0.29360 0.69697
  -4 -10   9 7596.00  420.19   1 0.08976 0.19556-0.81122-0.03037 0.57779 0.98022
   4  10  -8 2026.73  255.09   1 0.01396-0.12951 0.81811 0.09305-0.57488-0.98720
   4  10  -8 1258.32  210.96   1-0.77335-0.91439 0.63372-0.09309 0.01787-0.39396
   4 -10  -8 2021.91  197.68   1-0.75478-0.06629 0.36996 0.15647-0.54169-0.98545
  -4 -10   8 2364.93  225.42   1-0.77463-0.63499-0.53603 0.18945 0.33556 0.74892
  -4  10   8 1524.91  359.39   1-0.16968-0.85964-0.26084-0.04553-0.95035-0.50886
  -4 -10   8 2206.27  232.06   1 0.09131 0.23167-0.82669-0.10103 0.55519 0.96753
   4  10  -7 7188.68  349.40   1 0.01702-0.16077 0.83429 0.16449-0.55105-0.97318
   4  10  -7 5764.24  509.69   1-0.76021-0.93549 0.64596-0.02580 0.06931-0.35238
   4 -10  -7 6946.81  357.02   1-0.76451-0.11043 0.39073 0.23249-0.51267-0.96630
  -4 -10   7 7424.89  322.12   1-0.76644-0.59272-0.52587 0.14424 0.36879 0.79238
  -4  10   7 5378.07  575.34   1-0.21083-0.86649-0.28923-0.12919-0.93374-0.48218
  -4 -10   7 7148.82  368.49   1 0.09323 0.26814-0.84597-0.17552 0.52500 0.94725
   4  10  -616785.17  582.29   1 0.02090-0.19120 0.85393 0.23938-0.51995-0.95191
   4  10  -616498.87  564.48   1-0.74222-0.95206 0.65771 0.04126 0.12851-0.30310
   4 -10  -615965.79  484.98   1-0.77587-0.15612 0.41762 0.31460-0.47287-0.93629
  -4 -10   613638.80  445.21   1-0.75914-0.55100-0.51721 0.09774 0.39521 0.82875
  -4  10   618491.52  833.12   1-0.24386-0.86521-0.31173-0.20694-0.91834-0.45669
  -4 -10   619215.00  608.63   1 0.09550 0.30422-0.86884-0.25361 0.48578 0.91821
   4  10  -5 1615.11  189.02   1 0.02566-0.22074 0.87654 0.31716-0.48062-0.92232
   4  10  -5 1251.44  173.24   1-0.71873-0.96285 0.66772 0.10663 0.19379-0.24805
   4 -10  -5 1343.10  136.68   1-0.78790-0.20257 0.45132 0.40357-0.41894-0.89223
  -4 -10   5 1421.35  154.45   1-0.75324-0.51069-0.51042 0.04937 0.41484 0.85834
  -4  10   5 1677.64  269.50   1-0.26977-0.85681-0.32918-0.27965-0.90490-0.43318
  -4 -10   5 1090.84  152.30   1 0.09802 0.34131-0.89459-0.33456 0.43599 0.87839
   4 -10  -429755.19  888.63   1 0.10647 0.65622 0.72045 0.72742 0.68528 0.20054
   4  10  -433162.00  842.93   1 0.03134-0.24939 0.90151 0.39737-0.43161-0.88311
   4  10  -426196.50 1148.13   1-0.68891-0.96759 0.67493 0.16916 0.26430-0.18743
   4 -10  -435024.99  926.34   1-0.79850-0.24786 0.49183 0.49826-0.34711-0.83083
  -4 -10   429671.57  697.02   1-0.74902-0.47205-0.50565-0.00103 0.42810 0.88156
  -4  10   432420.52 1345.37   1-0.28930-0.84204-0.34222-0.34796-0.89397-0.41217
  -4 -10   431613.16  819.59   1 0.10065 0.37824-0.92197-0.41701 0.37394 0.82645
   4 -10  -319310.46  693.55   1 0.10669 0.62198 0.68847 0.75063 0.71736 0.22288
   4  10  -319828.39  663.46   1 0.03792-0.27707 0.92739 0.47834-0.37214-0.83332
   4  10  -317849.33  635.84   1-0.65256-0.96581 0.67823 0.22778 0.33788-0.12375
   4 -10  -318990.69  581.41   1-0.80400-0.28783 0.53823 0.60000-0.25275-0.74642
  -4 -10   318683.95  545.89   1-0.74666-0.43527-0.50301-0.05356 0.43527 0.89870
  -4 -10   317386.38  590.31   1 0.10318 0.41532-0.94897-0.49921 0.29798 0.76045
   4 -10  -2 1361.07  193.67   1 0.10668 0.58752 0.65396 0.77130 0.74896 0.24472
   4  10  -2 1300.98  186.01   1 0.04541-0.30393 0.95267 0.55884-0.30057-0.77156
   4  10  -2 1013.35  156.22   1-0.60986-0.95768 0.67678 0.28165 0.41234-0.05917
   4 -10  -2 1181.18  143.96   1-0.79834-0.31670 0.58779 0.70493-0.13095-0.63463
  -4 -10   2 1289.37  136.66   1-0.74624-0.40043-0.50256-0.10826 0.43651 0.90990
  -4 -10   2 1438.07  186.98   1 0.10528 0.45193-0.97263-0.57797 0.20713 0.67948
   4 -10  -176554.17 1344.83   1 0.10643 0.55282 0.61734 0.78987 0.77945 0.26546
   4  10  -176357.05 1362.88   1 0.05364-0.33005 0.97474 0.63602-0.21680-0.69752
  -4 -10   180229.98  973.09   1-0.74779-0.36756-0.50427-0.16515 0.43186 0.91521
   4 -10  -180576.26 1437.27   1 0.07303 0.51811 0.64699 0.81978 0.75898 0.24395
  -4 -10   177760.14 1215.46   1 0.10654 0.48783-0.98919-0.64974 0.10071 0.58296
   4 -10   0 5260.41  326.66   1 0.10593 0.51788 0.57897 0.80668 0.80843 0.28469
   4  10   0 4800.77  432.91   1 0.06242-0.35563 0.99075 0.70726-0.12045-0.61098
   4 -10   0 4118.64  320.31   1-0.71588-0.30342 0.66864 0.89663 0.20103-0.32245
  -4 -10   0 4634.69  263.12   1-0.75122-0.33657-0.50812-0.22416 0.42127 0.91458
   4 -10   0 5098.98  343.06   1 0.06902 0.47959 0.60823 0.83617 0.79075 0.26608
  -4 -10   0 4783.14  294.30   1 0.10649 0.52232-0.99411-0.70987-0.01969 0.47249
   4 -10   122626.64  692.07   1 0.10519 0.48268 0.53912 0.82202 0.83563 0.30213
   4  10   123608.70  774.42   1 0.07137-0.38095 0.99736 0.76885-0.01327-0.51354
   4 -10   120747.81  713.48   1-0.61919-0.24129 0.67750 0.96081 0.39697-0.13641
  -4 -10  -122139.46  572.80   1-0.75637-0.30731-0.51400-0.28520 0.40459 0.90786
   4 -10   120482.35  786.98   1 0.06480 0.44085 0.56752 0.85062 0.82079 0.28650
  -4 -10  -122962.28  746.52   1 0.10467 0.55503-0.98301-0.75397-0.15077 0.35135
   4 -10   2 3158.14  273.86   1 0.10420 0.44724 0.49802 0.83610 0.86088 0.31763
   4  10   2 3711.15  338.94   1 0.08013-0.40662 0.99145 0.81795 0.10298-0.40693
  -4 -10  -2 3653.92  224.80   1-0.76300-0.27952-0.52175-0.34812 0.38157 0.89480
  -4  10  -2 4274.65  411.48   1-0.29481-0.64171-0.34588-0.68319-0.89076-0.34849
  -4  10  -2 3366.91  238.83   1-0.05394-0.39961-0.52668-0.86412-0.84834-0.30594
   4 -10   2 3102.84  259.15   1 0.06039 0.40193 0.52515 0.86340 0.84885 0.30493
   4  10   3 9430.11  471.79   1 0.08825-0.43282 0.97030 0.85199 0.22521-0.29455
  -4  10  -3 7917.71  470.02   1-0.10296-0.41392-0.45539-0.84784-0.88431-0.33139
  -4 -10  -3 9508.54  383.45   1-0.77073-0.25273-0.53113-0.41259 0.35192 0.87514
  -4  10  -3 9433.68  627.86   1-0.27864-0.59124-0.33511-0.72770-0.90002-0.34768
  -4  10  -3 7832.66  514.66   1-0.07504-0.38641-0.46951-0.86221-0.87973-0.32753
   4 -10   3 7707.95  403.25   1 0.05582 0.36284 0.48134 0.87474 0.87475 0.32119
   4  10   4 1945.23  228.19   1 0.09525-0.46011 0.93244 0.86913 0.34852-0.18137
  -4  10  -4 2629.86  241.64   1-0.10150-0.37811-0.41238-0.86006-0.90533-0.34251
  -4 -10  -4 1880.30  165.43   1-0.77914-0.22675-0.54190-0.47854 0.31507 0.84828
  -4  10  -4 1667.37  260.61   1-0.25756-0.53585-0.32097-0.76881-0.91139-0.34896
  -4  10  -4 2169.47  190.80   1-0.09415-0.37122-0.41491-0.86287-0.90497-0.34298
   4 -10   4 2058.82  200.94   1 0.05110 0.32360 0.43628 0.88484 0.89835 0.33516
   4  10   5  129.69  116.68   1 0.10077-0.48880 0.87748 0.86950 0.46888-0.07096
  -4  10  -5  110.34  134.15   1-0.09981-0.34208-0.36854-0.87144-0.92423-0.35150
  -4 -10  -5   89.74   72.85   1-0.78759-0.20079-0.55363-0.54544 0.27054 0.81373
  -4  10  -5  -42.69  183.69   1-0.23136-0.47535-0.30325-0.80635-0.92439-0.35189
  -4  10  -5  179.78  109.16   1-0.11165-0.35443-0.36247-0.86568-0.92528-0.35349
   4  10   6  206.47  124.09   1 0.10454-0.51924 0.80683 0.85403 0.58145 0.03164
  -4  10  -6  129.83  169.35   1-0.09789-0.30581-0.32394-0.88206-0.94099-0.35836
  -4 -10  -6  151.40   86.00   1-0.79528-0.17394-0.56582-0.61277 0.21763 0.77087
  -4  10  -6   31.59  197.73   1-0.19980-0.40948-0.28166-0.84003-0.93847-0.35589
  -4  10  -721872.06  731.73   1-0.09576-0.26932-0.27870-0.89200-0.95559-0.36302
  -4 -10  -722264.30  665.64   1-0.80121-0.14548-0.57784-0.67997 0.15541 0.71865
  -4  10  -724950.42  949.42   1-0.16251-0.33788-0.25586-0.86949-0.95295-0.36029
  -4  10  -831046.57  824.74   1-0.09341-0.23262-0.23271-0.90123-0.96804-0.36558
  -4  10  -828521.24 1090.44   1-0.11900-0.26007-0.22535-0.89425-0.96697-0.36424
   4  11  -9 3255.69  419.40   1 0.01205-0.13863 0.80769 0.00187-0.58948-0.99034
   4  11  -9 2353.63  343.29   1-0.76865-0.91629 0.63857-0.16944 0.03734-0.36290
   4 -11  -9 4690.91  259.16   1-0.74878 0.01560 0.35791 0.11474-0.55787-0.99327
  -4 -11   9 3306.72  293.01   1-0.77653-0.62979-0.53847 0.26780 0.32716 0.72913
  -4 -11   9 4363.56  293.06   1 0.09027 0.23750-0.81630-0.00981 0.57051 0.97133
   4  11  -8  -23.47  104.85   1 0.01431-0.17069 0.81998 0.06943-0.57219-0.98287
   4  11  -8  116.96  107.24   1-0.75664-0.93884 0.64867-0.10402 0.08191-0.32824
   4 -11  -8  237.93  140.65   1-0.75643-0.02644 0.37337 0.18545-0.53702-0.98229
  -4 -11   8  100.59   77.24   1-0.76699-0.58585-0.52653 0.22456 0.36671 0.77867
  -4  11   8  209.83  200.46   1-0.11950-0.85099-0.22571-0.03592-0.96683-0.52393
  -4 -11   8   28.35  150.08   1 0.09180 0.27358-0.83158-0.08028 0.54775 0.95849
   4  11  -719278.33  739.16   1 0.01731-0.20200 0.83580 0.14049-0.54875-0.96925
   4  11  -712640.83  816.24   1-0.74053-0.95729 0.65860-0.03877 0.13357-0.28649
   4 -11  -718640.17  621.07   1-0.76614-0.07056 0.39439 0.26172-0.50741-0.96256
  -4 -11   718062.67  580.08   1-0.75831-0.54312-0.51624 0.17949 0.39805 0.82024
  -4  11   720225.76  999.23   1-0.16004-0.85722-0.25414-0.11961-0.95383-0.50085
  -4 -11   718036.56  729.07   1 0.09369 0.31002-0.85056-0.15447 0.51744 0.93809
   4  11  -6 1022.59  215.83   1 0.02112-0.23252 0.85497 0.21493-0.51823-0.94854
   4  11  -6 1282.27  156.99   1-0.71967-0.97069 0.66741 0.02537 0.19138-0.23896
   4 -11  -6 1462.70  156.36   1-0.77742-0.11618 0.42159 0.34415-0.46676-0.93169
  -4 -11   6  940.78  131.86   1-0.75068-0.50107-0.50751 0.13305 0.42296 0.85511
  -4  11   6 1341.67  302.21   1-0.19279-0.85566-0.27684-0.19757-0.94137-0.47832
  -4 -11   6 1128.01  171.75   1 0.09591 0.34605-0.87302-0.23213 0.47815 0.90904
   4  11  -5 1800.11  192.62   1 0.02577-0.26215 0.87705 0.29216-0.47969-0.91973
   4  11  -5 1507.29  174.06   1-0.69317-0.97876 0.67420 0.08748 0.25487-0.18536
   4 -11  -5 1715.97  181.52   1-0.78926-0.16245 0.45571 0.43353-0.41156-0.88637
  -4 -11   5 1172.51  133.42   1-0.74457-0.46054-0.50070 0.08470 0.44147 0.88358
  -4  11   5 1756.90  287.97   1-0.21866-0.84723-0.29459-0.27059-0.93027-0.45713
  -4 -11   5 1594.74  187.21   1 0.09837 0.38308-0.89822-0.31253 0.42838 0.86923
   4  11  -4  338.68  118.00   1 0.03133-0.29092 0.90147 0.37183-0.43168-0.88153
   4  11  -4  279.77  127.41   1-0.66074-0.98090 0.67791 0.14651 0.32225-0.12787
   4 -11  -4  292.55   92.89   1-0.79946-0.20732 0.49678 0.52877-0.33773-0.82305
  -4 -11   4   66.52  102.31   1-0.74023-0.42178-0.49594 0.03430 0.45397 0.90604
  -4  11   4  261.33  203.32   1-0.23832-0.83258-0.30797-0.33923-0.92106-0.43785
   4 -11  -4  311.99   96.76   1 0.07542 0.66545 0.67021 0.70315 0.73832 0.25048
  -4 -11   4  189.59  115.22   1 0.10094 0.41995-0.92496-0.39435 0.36639 0.81739
   4 -11  -313047.09  627.82   1 0.10623 0.66298 0.59931 0.68706 0.79343 0.29730
   4  11  -314745.64  572.71   1 0.03778-0.31872 0.92687 0.45229-0.37345-0.83297
   4  11  -316249.95  667.22   1-0.62234-0.97707 0.67769 0.20162 0.39167-0.06834
   4 -11  -311812.59  633.71   1-0.80406-0.24644 0.54397 0.63136-0.23994-0.73528
  -4 -11   313969.07  474.33   1-0.73781-0.38495-0.49331-0.01823 0.46072 0.92275
  -4  11   314404.39  816.22   1-0.25228-0.81224-0.31741-0.40394-0.91411-0.42082
   4 -11  -314542.56  613.89   1 0.07268 0.62820 0.64366 0.73175 0.76184 0.26438
  -4 -11   314406.00  586.91   1 0.10339 0.45695-0.95125-0.47583 0.29057 0.75151
   4 -11  -2   24.87   95.23   1 0.10582 0.62812 0.57175 0.71469 0.81356 0.30769
   4  11  -2   37.64   90.58   1 0.04514-0.34571 0.95182 0.53247-0.30329-0.77262
   4 -11  -2   61.96   71.58   1-0.79632-0.27334 0.59429 0.73700-0.11265-0.61814
  -4 -11   2  -41.14   78.86   1-0.73740-0.35011-0.49287-0.07295 0.46186 0.93386
  -4  11   2  -95.57  180.26   1-0.26091-0.78657-0.32323-0.46502-0.90963-0.40627
   4 -11  -2   71.10   95.06   1 0.06960 0.59060 0.61386 0.75710 0.78633 0.27924
  -4 -11   2   69.29   93.92   1 0.10541 0.49348-0.97415-0.55383 0.19979 0.67062
   4 -11  -1 9619.94  474.32   1 0.10524 0.59308 0.54130 0.73942 0.83421 0.31859
   4  11  -1 9707.61  454.62   1 0.05324-0.37195 0.97381 0.60957-0.22099-0.70005
   4 -11  -1 8268.13  457.10   1-0.76599-0.27768 0.64106 0.83914 0.04778-0.46768
  -4 -11   1 8751.89  371.61   1-0.73899-0.31729-0.49460-0.12985 0.45743 0.93939
  -4  11   1 8591.01  633.16   1-0.26450-0.75585-0.32564-0.52269-0.90773-0.39429
   4 -11  -1 8018.10  628.65   1 0.06623 0.55271 0.58128 0.77968 0.81099 0.29426
  -4 -11   1 9229.42  438.74   1 0.10659 0.52930-0.98992-0.62483 0.09323 0.57394
   4 -11   0 6657.74  344.03   1 0.10447 0.55787 0.50847 0.76178 0.85471 0.32933
   4  11   0 5276.43  480.80   1 0.06193-0.39762 0.99009 0.68107-0.12597-0.61483
  -4 -11   0 6062.09  288.48   1-0.74254-0.28642-0.49847-0.18888 0.44738 0.93929
  -4  11   0 4100.31  462.30   1-0.26323-0.72028-0.32479-0.57710-0.90841-0.38488
   4 -11   0 7088.72  358.08   1 0.06260 0.51456 0.54633 0.79989 0.83522 0.30885
  -4 -11   0 6486.28  355.62   1 0.10643 0.56369-0.99393-0.68404-0.02770 0.46295
   4  11   1 6895.54  457.41   1 0.07085-0.42297 0.99729 0.74323-0.01975-0.51836
  -4  11  -1 5827.98  413.30   1-0.10349-0.52465-0.47271-0.78026-0.87511-0.34046
  -4 -11  -1 5423.93  264.05   1-0.74790-0.25736-0.50439-0.24997 0.43154 0.93342
  -4  11  -1 6076.67  457.11   1-0.25722-0.67996-0.32074-0.62832-0.91156-0.37796
  -4  11  -1 4695.01  303.92   1-0.06253-0.48400-0.50379-0.81148-0.86155-0.32745
   4 -11   1 4453.55  451.23   1 0.05874 0.47619 0.50933 0.81804 0.85856 0.32256
  -4 -11  -1 6099.24  346.86   1 0.10447 0.59627-0.98158-0.72690-0.15991 0.34068
   4  11   2  -33.91  107.54   1 0.07965-0.44858 0.99216 0.79310 0.09623-0.41200
  -4  11  -2  -72.26  151.05   1-0.10234-0.48916-0.43639-0.79916-0.89391-0.34936
  -4 -11  -2   74.74   84.21   1-0.75483-0.22988-0.51223-0.31298 0.40968 0.92151
  -4  11  -2   25.73  192.87   1-0.24651-0.63494-0.31351-0.67635-0.91702-0.37334
  -4  11  -2   44.48   60.95   1-0.08208-0.46925-0.44972-0.81266-0.88938-0.34549
   4 -11   2   33.11   81.07   1 0.05469 0.43762 0.47053 0.83440 0.88068 0.33505
   4  11   3 2271.68  302.16   1 0.08788-0.47467 0.97172 0.82784 0.21916-0.29892
  -4  11  -3 3129.83  271.04   1-0.10099-0.45346-0.39861-0.81661-0.91153-0.35708
  -4 -11  -3 2538.85  187.42   1-0.76303-0.20366-0.52179-0.37770 0.38144 0.90324
  -4  11  -3 2362.78  311.82   1-0.23107-0.58520-0.30305-0.72115-0.92453-0.37077
  -4  11  -3 2397.48  198.90   1-0.09974-0.45262-0.39844-0.81665-0.91175-0.35806
   4 -11   3 2390.66  219.83   1 0.05046 0.39887 0.43018 0.84919 0.90133 0.34607
   4  11   4 9679.72  477.49   1 0.09503-0.50180 0.93406 0.84517 0.34421-0.18402
  -4  11  -4 7642.10  564.43   1-0.09944-0.41756-0.35957-0.83279-0.92780-0.36344
  -4 -11  -4 8884.94  391.47   1-0.77208-0.17819-0.53281-0.44383 0.34640 0.87821
  -4  11  -4 8766.68  603.00   1-0.21083-0.53065-0.28924-0.76260-0.93374-0.36991
  -4  11  -4 7386.02  416.14   1-0.11591-0.43449-0.34935-0.82281-0.92979-0.36632
   4  11   560394.75 1224.56   1 0.10071-0.53033 0.87837 0.84481 0.46723-0.07097
  -4  11  -566414.67 1195.78   1-0.09769-0.38146-0.31938-0.84783-0.94257-0.36831
  -4 -11  -563334.22  964.54   1-0.78143-0.15314-0.54496-0.51116 0.30392 0.84572
  -4  11  -562947.80 1507.11   1-0.18564-0.47115-0.27191-0.80053-0.94424-0.37033
  -4  11  -6 1269.32  196.32   1-0.09574-0.34515-0.27825-0.86187-0.95572-0.37152
  -4 -11  -6 1251.39  146.70   1-0.79036-0.12767-0.55779-0.57917 0.25335 0.80514
  -4  11  -6  954.59  295.18   1-0.15528-0.40648-0.25082-0.83471-0.95549-0.37150
  -4  11  -7 1718.04  202.72   1-0.09359-0.30865-0.23609-0.87493-0.96721-0.37311
  -4 -11  -7 1176.72  146.67   1-0.79794-0.10071-0.57072-0.64724 0.19376 0.75559
  -4  11  -7 1361.91  266.64   1-0.11943-0.33633-0.22566-0.86481-0.96685-0.37278
   4  12  -8 3405.33  264.95   1 0.01496-0.21156 0.82346 0.04740-0.56717-0.97621
   4  12  -8 2120.88  302.33   1-0.73518-0.95855 0.66123-0.11708 0.14922-0.25973
   4 -12  -8 3054.24  225.46   1-0.75905 0.01242 0.37887 0.21653-0.52941-0.97619
  -4 -12   8 2654.32  212.67   1-0.76016-0.53792-0.51840 0.25812 0.39167 0.80250
  -4  12   8 2632.89  584.44   1-0.07168-0.84470-0.19169-0.02742-0.97883-0.53452
  -4 -12   8 3092.45  270.99   1 0.09244 0.31564-0.83800-0.06106 0.53777 0.94690
   4  12  -7  652.29  150.16   1 0.01792-0.24292 0.83891 0.11811-0.54396-0.96282
   4  12  -7  360.33  166.96   1-0.71630-0.97423 0.66851-0.05447 0.19999-0.21886
   4 -12  -7  528.75  131.15   1-0.76870-0.03162 0.40025 0.29315-0.49889-0.95554
  -4 -12   7  589.96  149.19   1-0.75104-0.49438-0.50792 0.21344 0.42184 0.84263
  -4  12   7  670.09  255.91   1-0.11142-0.85013-0.21999-0.11099-0.96911-0.51472
  -4 -12   7  790.01  148.47   1 0.09430 0.35129-0.85671-0.13496 0.50710 0.92648
   4  12  -614591.49  619.59   1 0.02166-0.27350 0.85762 0.19207-0.51381-0.94249
   4  12  -614442.10  602.25   1-0.69251-0.98500 0.67432 0.00665 0.25636-0.17238
   4 -12  -613801.95  501.97   1-0.77981-0.07708 0.42788 0.37602-0.45695-0.92339
  -4 -12   614057.91  499.57   1-0.74322-0.45214-0.49921 0.16698 0.44542 0.87617
  -4  12   614200.39  881.27   1-0.14372-0.84813-0.24274-0.18900-0.95938-0.49491
  -4 -12   615751.86  611.97   1 0.09646 0.38802-0.87868-0.21213 0.46755 0.89690
   4  12  -5 3245.40  281.65   1 0.02622-0.30321 0.87913 0.26873-0.47584-0.91424
   4  12  -5 3407.62  278.38   1-0.66337-0.99043 0.67776 0.06541 0.31714-0.12148
   4 -12  -5 3448.55  230.78   1-0.79128-0.12298 0.46252 0.46592-0.39991-0.87623
  -4 -12   5 3929.05  236.09   1-0.73700-0.41150-0.49244 0.11858 0.46294 0.90365
  -4  12   5 2158.38  428.18   1-0.16940-0.83950-0.26065-0.26218-0.95045-0.47590
  -4 -12   5 3419.90  260.88   1 0.09886 0.42499-0.90326-0.29192 0.41753 0.85683
   4  12  -4 5073.83  345.35   1 0.03169-0.33208 0.90294 0.34778-0.42859-0.87678
   4  12  -4 6479.40  370.96   1-0.62871-0.99034 0.67801 0.12099 0.38081-0.06771
   4 -12  -4 5853.09  315.62   1-0.80075-0.16711 0.50423 0.56179-0.32331-0.81022
  -4 -12   4 5839.37  291.19   1-0.73260-0.37269-0.48772 0.06814 0.47477 0.92545
  -4  12   4 7092.18  515.17   1-0.18906-0.82486-0.27427-0.33105-0.94288-0.45826
  -4 -12   4 6188.30  355.94   1 0.10134 0.46177-0.92924-0.37297 0.35529 0.80476
   4  12  -3 3465.80  257.78   1 0.03801-0.36000 0.92772 0.42761-0.37132-0.82917
   4 -12  -3 3319.88  285.86   1-0.80386-0.20475 0.55215 0.66512-0.22117-0.71811
  -4 -12   3 3708.95  236.35   1-0.73016-0.33583-0.48512 0.01557 0.48115 0.94179
  -4  12   3 3816.75  364.15   1-0.20317-0.80466-0.28398-0.39603-0.93705-0.44235
   4 -12  -3 3750.94  295.67   1 0.06427 0.66118 0.56236 0.67606 0.82438 0.32522
  -4 -12   3 3541.62  268.10   1 0.10370 0.49868-0.95460-0.45353 0.27924 0.73865
   4  12  -2 4188.19  308.15   1 0.04524-0.38712 0.95214 0.50727-0.30226-0.76993
  -4 -12   2 4002.24  255.69   1-0.72975-0.30100-0.48468-0.03914 0.48222 0.95282
  -4  12   2 3868.18  387.99   1-0.21207-0.77925-0.29008-0.45739-0.93320-0.42843
   4 -12  -2 3991.65  365.75   1 0.06179 0.62419 0.53860 0.70745 0.84029 0.33149
  -4 -12   2 4435.64  277.55   1 0.10560 0.53509-0.97644-0.53047 0.18815 0.65746
   4  12  -1 6549.17  374.87   1 0.05322-0.41347 0.97378 0.58400-0.22116-0.69855
  -4  12   1 6245.09  422.47   1-0.10304-0.63440-0.45786-0.68050-0.88303-0.36665
  -4 -12   1 7345.68  314.14   1-0.73137-0.26820-0.48641-0.09604 0.47800 0.95856
  -4  12   1 7714.68  527.04   1-0.21601-0.74889-0.29278-0.51536-0.93145-0.41660
   4 -12  -1 6764.07  391.72   1 0.05896 0.58683 0.51135 0.73536 0.85734 0.33891
  -4 -12   1 7196.95  370.53   1 0.10664 0.57079-0.99098-0.60025 0.08107 0.56026
   4  12   0 2035.88  260.69   1 0.06182-0.43924 0.98994 0.65539-0.12723-0.61443
  -4  12   0 2195.84  232.77   1-0.10220-0.59922-0.43226-0.71012-0.89593-0.36966
  -4 -12   0 2092.85  209.86   1-0.73498-0.23739-0.49026-0.15505 0.46843 0.95895
  -4  12   0 2838.74  344.19   1-0.21520-0.71377-0.29222-0.57006-0.93182-0.40688
   4 -12   0 1815.47  207.71   1 0.05581 0.54917 0.48120 0.76037 0.87482 0.34676
  -4 -12   0 2089.82  196.15   1 0.10632 0.60501-0.99349-0.65796-0.04075 0.44837
   4  12   121795.70 1053.74   1 0.07069-0.46462 0.99725 0.71765-0.02180-0.51874
  -4  12  -128490.75  850.92   1-0.10118-0.56385-0.40370-0.73679-0.90927-0.37310
  -4 -12  -124168.50  616.12   1-0.74044-0.20843-0.49617-0.21613 0.45337 0.95385
  -4  12  -126189.09 1132.09   1-0.20972-0.67398-0.28847-0.62157-0.93423-0.39922
   4 -12   120919.88  902.96   1 0.05239 0.51124 0.44860 0.78291 0.89219 0.35450
  -4 -12  -125029.46  737.60   1 0.10414 0.63737-0.97914-0.69882-0.17441 0.32465
   4  12   229056.48  886.22   1 0.07949-0.49022 0.99239 0.76776 0.09399-0.41256
  -4  12  -225521.28 1284.40   1-0.09998-0.52830-0.37271-0.76102-0.92254-0.37646
  -4 -12  -229019.54  628.70   1-0.74756-0.18113-0.50402-0.27914 0.43256 0.94301
  -4  12  -227363.89 1039.84   1-0.19964-0.62960-0.28155-0.66992-0.93854-0.39345
  -4  12  -223461.21  821.58   1-0.11172-0.54041-0.36225-0.75070-0.92535-0.37998
   4  12   315912.74  685.57   1 0.08778-0.51624 0.97207 0.80263 0.21762-0.29879
  -4  12  -317386.68  666.64   1-0.09859-0.49257-0.33968-0.78322-0.93535-0.37937
  -4 -12  -316642.80  482.84   1-0.75604-0.15520-0.51362-0.34391 0.40568 0.92608
  -4  12  -315607.16  761.99   1-0.18494-0.58060-0.27142-0.71505-0.94452-0.38935
   4  12   4   31.00  109.06   1 0.09503-0.54326 0.93402 0.81954 0.34434-0.18223
  -4  12  -4  127.26  139.98   1-0.09702-0.45665-0.30490-0.80367-0.94742-0.38154
  -4 -12  -4   32.04   88.19   1-0.76552-0.13026-0.52477-0.41022 0.37226 0.90263
  -4  12  -4  156.41  250.39   1-0.16558-0.52692-0.25799-0.75689-0.95185-0.38660
  -4  12  -5 2521.27  275.68   1-0.09526-0.42053-0.26868-0.82262-0.95850-0.38267
  -4 -12  -5 2051.71  192.02   1-0.77551-0.10572-0.53716-0.47775 0.33171 0.87211
  -4  12  -5 2189.08  423.77   1-0.14141-0.46845-0.24112-0.79527-0.96013-0.38481
  -4  12  -613690.73  653.10   1-0.09331-0.38424-0.23100-0.84016-0.96846-0.38273
  -4 -12  -612944.88  518.93   1-0.78534-0.08116-0.55040-0.54616 0.28334 0.83373
  -4  12  -612885.72 1006.79   1-0.11226-0.40500-0.22059-0.83000-0.96888-0.38347
   4  13  -7 1811.99  196.32   1 0.01882-0.28355 0.84350 0.09720-0.53679-0.95401
   4 -13  -7 1808.32  199.78   1-0.77212 0.00644 0.40834 0.32682-0.48690-0.94506
  -4 -13   7 1140.72  146.53   1-0.74480-0.44666-0.50095 0.24603 0.44080 0.86020
  -4  13   7 2030.10  340.82   1-0.06490-0.84514-0.18682-0.10334-0.98024-0.52444
  -4 -13   7 1836.17  204.94   1 0.09504 0.39345-0.86422-0.11681 0.49405 0.91189
   4  13  -6 6390.81  393.06   1 0.02251-0.31417 0.86174 0.17069-0.50684-0.93389
   4  13  -6 5474.73  391.63   1-0.66045-0.99442 0.67792-0.01536 0.32282-0.10431
   4 -13  -6 5896.15  313.17   1-0.78295-0.03873 0.43654 0.41025-0.44319-0.91114
  -4 -13   6 6852.96  312.84   1-0.73690-0.40435-0.49233 0.19948 0.46322 0.89258
  -4  13   6 6232.91  557.48   1-0.09664-0.84257-0.20950-0.18129-0.97302-0.50714
  -4 -13   6 6875.84  380.29   1 0.09715 0.43013-0.88569-0.19349 0.45398 0.88178
   4  13  -5  348.13  156.57   1 0.02700-0.34395 0.88265 0.24674-0.46924-0.90598
   4  13  -5  410.98  114.19   1-0.62904-0.99758 0.67803 0.04006 0.38023-0.05679
  -4 -13   5  406.21   95.89   1-0.73065-0.36368-0.48564 0.15101 0.47987 0.91919
  -4  13   5  565.09  211.67   1-0.12201-0.83364-0.22747-0.25452-0.96610-0.49015
  -4 -13   5  388.52  135.05   1 0.09947 0.46677-0.90962-0.27249 0.40334 0.84134
   4  13  -4   49.96  171.54   1 0.03237-0.37291 0.90579 0.32512-0.42248-0.86903
  -4 -13   4   53.40   85.15   1-0.72625-0.32486-0.48099 0.10050 0.49112 0.94040
   4  13  -3  184.07  116.24   1 0.03859-0.40093 0.92984 0.40422-0.36590-0.82210
  -4 -13   3  186.14  111.74   1-0.72390-0.28816-0.47852 0.04757 0.49696 0.95639
  -4  13   3   17.90  271.67   1-0.15573-0.79875-0.25114-0.38871-0.95534-0.45923
  -4 -13   3  345.56  119.36   1 0.10408 0.54045-0.95884-0.43202 0.26414 0.72198
   4  13  -243500.46 1073.36   1 0.04571-0.42816 0.95357 0.48317-0.29767-0.76368
  -4 -13   246420.54  849.51   1-0.72348-0.25331-0.47809-0.00714 0.49799 0.96735
  -4  13   251186.69 1590.37   1-0.16482-0.77353-0.25747-0.45030-0.95212-0.44593
   4 -13  -244693.66 1014.34   1 0.05342 0.65721 0.45837 0.65283 0.88715 0.37665
  -4 -13   244570.69  965.73   1 0.10583 0.57676-0.97936-0.50774 0.17217 0.63995
   4  13  -1 1123.17  176.99   1 0.05357-0.45462 0.97459 0.55928-0.21746-0.69318
  -4  13   1 1537.09  221.04   1-0.09989-0.67277-0.37065-0.61883-0.92338-0.40547
  -4 -13   1 1285.23  147.78   1-0.72503-0.22039-0.47971-0.06371 0.49416 0.97332
  -4  13   1  963.26  281.49   1-0.16908-0.74348-0.26043-0.50853-0.95057-0.43430
   4 -13  -1 1123.59  174.54   1 0.05125 0.62053 0.43770 0.68732 0.89765 0.37753
  -4 -13   1 1564.17  176.71   1 0.10669 0.61227-0.99222-0.57584 0.06411 0.54177
   4  13   017033.45  685.18   1 0.06207-0.48049 0.99029 0.63020-0.12435-0.60988
  -4  13   015617.42  649.42   1-0.09918-0.63771-0.35340-0.65681-0.93019-0.40239
  -4 -13   016749.04  497.31   1-0.72865-0.18959-0.48352-0.12269 0.48504 0.97416
  -4  13   016557.78  941.38   1-0.16867-0.70877-0.26014-0.56351-0.95072-0.42437
  -4 -13   016728.23  572.35   1 0.10614 0.64626-0.99259-0.63142-0.05905 0.42854
   4  13   1  121.09  139.83   1 0.07087-0.50593 0.99729 0.69213-0.01948-0.51475
  -4  13  -1  101.24   96.10   1-0.09824-0.60243-0.33177-0.69040-0.93822-0.40052
  -4 -13  -1   71.04   99.18   1-0.73415-0.16067-0.48937-0.18370 0.47067 0.96976
  -4  13  -1  273.24  190.73   1-0.16371-0.66950-0.25669-0.61532-0.95252-0.41610
   4  13   2 6450.31  499.21   1 0.07965-0.53154 0.99216 0.74196 0.09629-0.40858
  -4  13  -2 7405.68  422.77   1-0.09710-0.56694-0.30668-0.72054-0.94684-0.39923
  -4 -13  -2 8008.78  334.92   1-0.74134-0.13344-0.49715-0.24665 0.45082 0.95987
  -4  13  -2 9092.62  774.09   1-0.15424-0.62573-0.25010-0.66399-0.95585-0.40935
   4  13   3  196.97  145.42   1 0.08797-0.55752 0.97136 0.77634 0.22071-0.29402
  -4  13  -3   60.62  143.57   1-0.09577-0.53124-0.27890-0.74793-0.95553-0.39796
  -4  13  -3   87.72  244.34   1-0.14029-0.57747-0.24033-0.70948-0.96049-0.40391
  -4  13  -4 9278.55  484.49   1-0.09424-0.49537-0.24864-0.77289-0.96399-0.39653
  -4 -13  -4 8075.14  362.21   1-0.75971-0.08298-0.51788-0.37771 0.39322 0.92219
  -4  13  -412468.25  862.22   1-0.12179-0.52467-0.22732-0.75173-0.96617-0.39951
  -4  13  -5 5237.17  369.66   1-0.09252-0.45930-0.21636-0.79584-0.97191-0.39455
  -4 -13  -5 4611.46  277.58   1-0.77012-0.05884-0.53037-0.44534 0.35442 0.89342
  -4  13  -5 5456.33  720.72   1-0.09865-0.46722-0.21093-0.79061-0.97250-0.39577
   4  14  -6 1202.33  166.90   1 0.02363-0.35450 0.86709 0.15042-0.49758-0.92287
  -4 -14   6 1587.17  153.06   1-0.73178-0.35776-0.48685 0.23059 0.47692 0.90489
  -4  14   6 1904.64  294.21   1-0.05144-0.83891-0.17714-0.17445-0.98284-0.51555
  -4 -14   6 1207.69  183.85   1 0.09795 0.47235-0.89391-0.17605 0.43739 0.86364
   4  14  -525080.36  978.53   1 0.02808-0.38438 0.88749 0.22606-0.45996-0.89506
  -4 -14   528772.79  911.89   1-0.72557-0.31712-0.48027 0.18200 0.49282 0.93075
  -4  14   527723.78 1229.79   1-0.07643-0.82959-0.19509-0.24766-0.97780-0.50043
  -4 -14   527471.83  968.11   1 0.10019 0.50891-0.91707-0.25429 0.38592 0.82239
   4  14  -4 1459.74  181.23   1 0.03338-0.41342 0.90989 0.30372-0.41348-0.85838
  -4 -14   4 1446.35  153.97   1-0.72129-0.27851-0.47580 0.13108 0.50332 0.95144
  -4  14   4 2046.16  364.70   1-0.09581-0.81466-0.20891-0.31675-0.97322-0.48578
  -4 -14   4 2094.30  209.62   1 0.10245 0.54573-0.94107-0.33349 0.32231 0.76873
   4  14  -326003.37  859.30   1 0.03951-0.44152 0.93313 0.38198-0.35733-0.81187
  -4 -14   327348.91  765.84   1-0.71886-0.24166-0.47329 0.07844 0.50914 0.96718
  -4  14   329362.04 1256.83   1-0.10996-0.79451-0.21896-0.38205-0.96951-0.47199
  -4 -14   324289.94  840.92   1 0.10453 0.58232-0.96391-0.41143 0.24484 0.70115
   4  14  -221163.48  769.30   1 0.04652-0.46886 0.95600 0.46009-0.28962-0.75397
  -4 -14   223154.69  681.16   1-0.71845-0.20682-0.47286 0.02370 0.51012 0.97808
  -4  14   223454.75 1091.25   1-0.11918-0.76942-0.22548-0.44384-0.96692-0.45932
  -4 -14   220877.75  750.36   1 0.10610 0.61844-0.98271-0.48544 0.15169 0.61795
   4  14  -1 1806.99  246.74   1 0.05428-0.49542 0.97618 0.53534-0.21001-0.68406
  -4 -14   1 2590.90  216.72   1-0.72006-0.17401-0.47452-0.03312 0.50629 0.98418
  -4  14   1 2389.76  407.15   1-0.12369-0.73963-0.22866-0.50228-0.96561-0.44793
  -4 -14   1 2325.37  246.75   1 0.10671 0.65372-0.99339-0.55136 0.04216 0.51830
   4  14   0  732.46  162.72   1 0.06264-0.52127 0.99104 0.60512-0.11793-0.60173
  -4  14   0  435.40  130.02   1-0.09540-0.67541-0.27138-0.60028-0.95773-0.42833
  -4 -14   0  720.53  124.18   1-0.72364-0.14317-0.47826-0.09201 0.49759 0.98540
  -4  14   0  955.26  303.31   1-0.12366-0.70529-0.22864-0.55752-0.96562-0.43786
   4  14   110399.46  534.20   1 0.07140-0.54689 0.99736 0.66665-0.01282-0.50643
  -4  14  -1 7665.73  739.02   1-0.09469-0.64036-0.25739-0.64151-0.96165-0.42235
  -4 -14  -1 9203.23  501.20   1-0.72907-0.11412-0.48396-0.15267 0.48397 0.98166
  -4  14  -112149.20  716.38   1-0.11918-0.66650-0.22548-0.60962-0.96692-0.42909
   4  14   2  601.33  150.71   1 0.08014-0.57253 0.99142 0.71566 0.10317-0.40002
  -4  14  -2  625.64  177.81   1-0.09372-0.60505-0.23868-0.67802-0.96656-0.41736
  -4 -14  -2  861.12  119.95   1-0.73626-0.08689-0.49164-0.21552 0.46497 0.97262
  -4  14  -2 1395.48  277.69   1-0.11031-0.62333-0.21921-0.65862-0.96942-0.42150
  -4  14  -3 9754.37  477.47   1-0.09252-0.56950-0.21622-0.71078-0.97195-0.41285
  -4 -14  -3 7933.94  366.15   1-0.74494-0.06115-0.50111-0.28015 0.44038 0.95800
  -4  14  -310276.66  645.77   1-0.09707-0.57578-0.20981-0.70449-0.97290-0.41491
  -4  14  -4 1284.60  217.19   1-0.09110-0.53373-0.19069-0.74049-0.97741-0.40841
  -4 -14  -4 1159.13  127.69   1-0.75480-0.03659-0.51219-0.34640 0.40979 0.93737
  -4  14  -4 1221.24  262.32   1-0.07942-0.52383-0.19723-0.74717-0.97713-0.40906
   4  15  -4  463.60  123.70   1 0.03470-0.45362 0.91513 0.28344-0.40166-0.84491
  -4 -15   4  730.17  151.23   1-0.71751-0.23327-0.47189 0.16062 0.51233 0.95905
  -4  15   4  828.96  231.59   1-0.05171-0.81209-0.17733-0.31069-0.98279-0.49393
  -4 -15   4  666.61  148.61   1 0.10312 0.58782-0.94827-0.31504 0.30022 0.74512
   4  15  -3 5804.73  498.13   1 0.04075-0.48179 0.93746 0.36079-0.34567-0.79856
  -4 -15   3 6660.82  353.32   1-0.71512-0.19646-0.46943 0.10792 0.51790 0.97455
  -4  15   3 8015.97  641.58   1-0.06579-0.79187-0.18747-0.37608-0.98006-0.48113
   4  15  -2 3429.75  328.61   1 0.04767-0.50923 0.95933 0.43789-0.27820-0.74089
  -4 -15   2 3594.49  230.37   1-0.71472-0.16163-0.46901 0.05317 0.51884 0.98541
  -4  15   2 3714.35  498.89   1-0.07510-0.76687-0.19414-0.43802-0.97809-0.46908
   4  15  -1 1015.44  187.13   1 0.05533-0.53588 0.97846 0.51209-0.19886-0.67125
  -4 -15   1 1440.21  162.89   1-0.71630-0.12879-0.47064-0.00361 0.51516 0.99166
  -4  15   1 1209.74  267.14   1-0.07982-0.73729-0.19752-0.49666-0.97704-0.45795
   4  15   018835.26  853.35   1 0.06359-0.56181 0.99222 0.58075-0.10699-0.58913
  -4 -15   020008.08  693.39   1-0.71984-0.09791-0.47430-0.06243 0.50680 0.99323
  -4  15   021031.79 1029.75   1-0.08012-0.70328-0.19773-0.55214-0.97697-0.44780
  -4 -15  -1  132.50   77.35   1-0.72521-0.06878-0.47990-0.12298 0.49372 0.99002
  -4  15  -1   23.53  181.41   1-0.07609-0.66494-0.19485-0.60452-0.97787-0.43863
  -4  15  -2  737.56  191.48   1-0.08982-0.64266-0.16864-0.63353-0.98157-0.43084
  -4 -15  -2  715.93  118.89   1-0.73234-0.04150-0.48744-0.18569 0.47547 0.98173
  -4  15  -2  593.06  265.10   1-0.06779-0.62234-0.18890-0.65383-0.97965-0.43032
   5   0 -11   24.92   94.73   1-0.79605-0.41974 0.48066-0.16291-0.36778-0.89290
   5   0 -10 4882.46  348.03   1 0.04403 0.38386 0.94836 0.36087-0.31409-0.84995
   5   0 -10 4665.02  294.61   1-0.79826-0.45642 0.49065-0.09758-0.34932-0.88439
  -5   0  10 4872.69  325.42   1 0.10060-0.24298-0.92137-0.33485 0.37543 0.91040
   5   0  -9   12.05   75.49   1-0.80067-0.49330 0.50370-0.02919-0.32436-0.86936
  -5   0   9  -30.57  126.82   1 0.10162-0.20740-0.93217-0.40086 0.34744 0.89235
   5   0  -819787.77  640.74   1 0.04986 0.32101 0.96539 0.48837-0.25596-0.81144
   5   0  -820631.57  677.17   1-0.80281-0.52991 0.51980 0.04224-0.29204-0.84699
  -5   0   822660.22  759.86   1 0.10278-0.17169-0.94457-0.46846 0.31178 0.86663
   5   0  -7   97.64  102.38   1 0.05377 0.29055 0.97504 0.55324-0.21541-0.78070
   5   0  -7    6.53   84.57   1-0.80401-0.56558 0.53879 0.11657-0.25151-0.81640
   5   0  -640830.47  976.29   1 0.05828 0.26069 0.98425 0.61768-0.16685-0.74195
   5   0  -641182.72  898.14   1-0.80332-0.59928 0.56022 0.19327-0.20202-0.77685
  -5   0   640557.35  964.83   1 0.10513-0.10028-0.97090-0.60504 0.21517 0.78985
   5   0  -5  126.99  133.82   1 0.06331 0.23149 0.99189 0.68062-0.11018-0.69509
   5   0  -5    3.84   91.20   1-0.79103-0.65594 0.60731 0.35070-0.07373-0.66838
  -5   0   5   66.01  116.17   1 0.10608-0.06479-0.98247-0.67182 0.15324 0.73787
   5   0  -4112640.3 1545.12   1 0.06872 0.20251 0.99656 0.74050-0.04609-0.64081
   5   0  -4116167.6 1451.33   1-0.79103-0.65594 0.60731 0.35070-0.07373-0.66838
  -5   0   4109027.1 1862.97   1-0.75141-0.88900-0.59467-0.33862-0.28589 0.30823
  -5   0   4120277.4 1620.48   1 0.10664-0.02961-0.99086-0.73530 0.08250 0.67708
   5   0  -3   16.77   78.68   1 0.07435 0.17367 0.99692 0.79608 0.02483-0.57972
   5   0  -3  -39.07   86.37   1-0.77624-0.67567 0.63041 0.42911 0.00515-0.59942
  -5   0   3   23.14  127.68   1-0.75459-0.85780-0.59572-0.39487-0.27513 0.32901
  -5   0   3   56.82  118.25   1 0.10662 0.00491-0.99429-0.79393 0.00345 0.60797
   5   0  -2115368.9 2579.27   1 0.08000 0.14491 0.99164 0.84599 0.10123-0.51311
   5   0  -2111448.2 2367.64   1-0.75357-0.68752 0.65083 0.50471 0.09237-0.52208
  -5   0   2117913.5 2715.69   1-0.75563-0.82446-0.59605-0.45039-0.27153 0.34262
  -5   0   2112705.2 2468.86   1 0.10585 0.03868-0.99096-0.84581-0.08238 0.53207
   5   0  -1  -69.20  116.81   1 0.08548 0.11606 0.97965 0.88920 0.18159-0.44254
   5   0  -1 -168.10   81.90   1-0.72171-0.68995 0.66671 0.57608 0.18607-0.43828
  -5   0   1   48.19  123.20   1-0.75466-0.78911-0.59574-0.50527-0.27490 0.34926
  -5   0   1   30.20  111.45   1 0.10417 0.07154-0.97939-0.88945-0.17300 0.45139
   5   0   063987.96 1592.48   1 0.09059 0.08674 0.96025 0.92500 0.26401-0.36991
   5   0   060960.98 1479.07   1-0.67997-0.68277 0.67622 0.64092 0.28347-0.35077
  -5   0   060853.73 1619.49   1-0.75165-0.75174-0.59475-0.55947-0.28509 0.34909
   5   0   1  -32.60   90.83   1 0.09515 0.05706 0.93317 0.95306 0.34658-0.29735
   5   0   1   18.44   73.14   1-0.62860-0.66596 0.67801 0.69802 0.38100-0.26313
  -5   0  -1   81.11  127.08   1-0.74648-0.71219-0.59296-0.61287-0.30191 0.34228
   5   0   216213.03  573.13   1 0.09903 0.02677 0.89863 0.97367 0.42737-0.22635
   5   0   3  106.67  109.68   1 0.10215-0.00457 0.85700 0.98735 0.50508-0.15844
   5   0   4 1545.78  190.60   1 0.10445-0.03646 0.80922 0.99478 0.57813-0.09521
   5   0   5  107.92   98.31   1 0.10594-0.06940 0.75612 0.99688 0.64578-0.03735
   5   0   6 1757.47  197.16   1 0.10664-0.10330 0.69866 0.99454 0.70745 0.01469
   5   0   7    1.20  138.59   1 0.10669 0.01474 0.68841 0.98732 0.71743 0.15800
   5   0   7   99.04  103.73   1 0.07141-0.17445 0.63129 0.98215 0.77225 0.07021
   5   0   819724.39  672.85   1 0.10585-0.17300 0.57358 0.97982 0.81227 0.10001
   5   0   821470.66  694.75   1 0.06443-0.21594 0.56398 0.97000 0.82326 0.11159
   5   0   9   37.96  105.38   1 0.10444-0.20885 0.50738 0.96881 0.85536 0.13335
  -5   0  -9  -16.35  103.11   1-0.06507 0.24467-0.49692-0.95911-0.86535-0.14221
   5  -1 -11 1251.74  177.77   1 0.04626 0.46194 0.95521 0.33801-0.29226-0.81997
   5   1 -11 1648.39  197.52   1 0.03851 0.37118 0.92956 0.26131-0.36664-0.89103
   5   1 -11 1423.12  167.61   1-0.79876-0.46396 0.49313-0.17601-0.34466-0.86819
   5  -1 -11 1378.86  149.05   1-0.79320-0.37513 0.46940-0.14690-0.38792-0.91525
  -5   1  11 1682.55  188.25   1 0.10080-0.31875-0.92352-0.30746 0.37004 0.89657
  -5  -1  11 1739.43  233.22   1 0.09879-0.23759-0.90261-0.23543 0.41894 0.94240
   5  -1 -10 6024.76  369.74   1 0.04822 0.42956 0.96091 0.39894-0.27262-0.81013
   5   1 -10 6994.32  395.05   1 0.04034 0.33866 0.93606 0.32304-0.34951-0.88371
   5   1 -10 6916.80  334.44   1-0.80059-0.50025 0.50321-0.11059-0.32531-0.85878
   5  -1 -10 6272.04  332.44   1-0.79569-0.41234 0.47914-0.08352-0.37053-0.90719
  -5   1  10 6617.73  426.30   1 0.10161-0.28339-0.93205-0.37120 0.34776 0.88424
  -5  -1  10 6868.91  370.28   1 0.09965-0.20250-0.91153-0.29936 0.39896 0.93240
   5  -1  -9 1260.11  206.86   1 0.05087 0.39788 0.96801 0.46129-0.24570-0.79303
   5   1  -9 1471.23  185.10   1 0.04284 0.30680 0.94452 0.38673-0.32564-0.86965
   5   1  -9 1200.86  139.83   1-0.80242-0.53655 0.51622-0.04224-0.29938-0.84280
   5  -1  -9 1339.87  161.89   1-0.79857-0.44970 0.49218-0.01514-0.34645-0.89305
  -5   1   9 1282.43  171.92   1 0.10258-0.24787-0.94241-0.43675 0.31832 0.86475
  -5  -1   9 1085.12  180.29   1 0.10072-0.16688-0.92264-0.36567 0.37227 0.91566
   5  -1  -8 8060.78  444.73   1 0.05416 0.36681 0.97593 0.52444-0.21123-0.76837
   5   1  -8 8842.12  431.32   1 0.04603 0.27563 0.95452 0.45197-0.29454-0.84837
   5   1  -8 8830.37  361.25   1-0.80377-0.57237 0.53210 0.02898-0.26611-0.81947
   5  -1  -8 9535.41  381.78   1-0.80140-0.48699 0.50843 0.05644-0.31503-0.87157
  -5   1   8 6976.21  364.86   1 0.10365-0.21224-0.95407-0.50361 0.28107 0.83744
  -5  -1   8 9104.12  435.48   1 0.10194-0.13110-0.93557-0.43381 0.33808 0.89141
   5  -1  -743095.48 1080.69   1 0.05809 0.33637 0.98391 0.58764-0.16892-0.73588
   5   1  -742641.07 1096.27   1 0.04988 0.24516 0.96544 0.51811-0.25579-0.81942
   5   1  -735036.52 1162.05   1-0.80393-0.60690 0.55058 0.10272-0.22482-0.78810
   5  -1  -740170.91 1002.80   1-0.80350-0.52357 0.52778 0.13113-0.27534-0.84182
  -5  -1   744738.27 1371.39   1-0.75089-0.95008-0.59449-0.14726-0.28762 0.27506
  -5   1   745302.55 1133.44   1 0.10473-0.17666-0.96618-0.57078 0.23561 0.80186
  -5  -1   740564.90 1098.47   1 0.10325-0.09524-0.94969-0.50312 0.29567 0.85894
   5  -1  -614092.99  554.11   1 0.06259 0.30665 0.99098 0.65006-0.11847-0.69525
   5   1  -614574.56  575.89   1 0.05437 0.21528 0.97639 0.58429-0.20902-0.78246
   5   1  -613206.37  524.77   1-0.80194-0.63940 0.57132 0.17878-0.17456-0.74779
   5  -1  -612610.79  511.61   1-0.80395-0.55842 0.54986 0.20848-0.22650-0.80293
  -5  -1   614876.56  625.13   1-0.76051-0.92532-0.59755-0.20552-0.25404 0.31864
  -5   1   613044.48  538.07   1 0.10571-0.14114-0.97775-0.63755 0.18116 0.75736
  -5  -1   613754.38  610.36   1 0.10453-0.05946-0.96396-0.57245 0.24461 0.81777
   5  -1  -512250.33  502.74   1 0.06752 0.27719 0.99587 0.71015-0.06059-0.64717
   5   1  -511943.73  487.00   1 0.05943 0.18598 0.98626 0.64938-0.15411-0.73736
   5   1  -512367.06  450.84   1-0.79659-0.66854 0.59348 0.25628-0.11495-0.69811
   5  -1  -511823.49  413.72   1-0.80148-0.59044 0.57405 0.28800-0.16758-0.75394
  -5  -1   512523.98  492.90   1-0.76714-0.89757-0.59938-0.26253-0.22854 0.35416
  -5   1   512301.99  474.22   1 0.10642-0.10579-0.98730-0.70218 0.11792 0.70409
  -5  -1   512408.86  488.36   1 0.10566-0.02378-0.97719-0.64089 0.18415 0.76726
   5  -1  -4 1795.42  184.83   1 0.07276 0.24805 0.99733 0.76682 0.00439-0.59198
   5   1  -4 2047.75  216.01   1 0.06494 0.15724 0.99371 0.71209-0.09119-0.68424
   5   1  -4 1679.92  215.07   1-0.78648-0.69287 0.61588 0.33367-0.04617-0.63920
   5  -1  -4 1673.57  176.39   1-0.79453-0.61796 0.59918 0.36818-0.09839-0.69466
  -5  -1   4 1964.19  205.66   1-0.77142-0.86748-0.60039-0.31874-0.21077 0.38193
  -5   1   4 2137.38  210.16   1 0.10671-0.07096-0.99322-0.76330 0.04601 0.64212
  -5  -1   4 1905.82  210.55   1 0.10645 0.01163-0.98769-0.70648 0.11457 0.70762
   5  -1  -3 1207.26  156.20   1 0.07815 0.21896 0.99407 0.81880 0.07556-0.53067
   5   1  -3  936.65  158.58   1 0.07075 0.12866 0.99727 0.77086-0.02102-0.62387
   5   1  -3  906.34  126.21   1-0.77006-0.71093 0.63717 0.41012 0.03161-0.57128
   5  -1  -3  819.66  110.25   1-0.78128-0.63923 0.62389 0.44820-0.01868-0.62489
  -5  -1   3  636.30  134.74   1-0.77377-0.83546-0.60089-0.37443-0.20048 0.40224
  -5   1   3 1187.80  203.74   1 0.10639-0.03675-0.99375-0.81905-0.03350 0.57254
  -5  -1   3 1119.68  189.57   1 0.10671 0.04643-0.99362-0.76763 0.03621 0.63920
   5  -1  -219421.63  747.71   1 0.08348 0.18995 0.98494 0.86487 0.15136-0.46465
   5   1  -220403.05  719.99   1 0.07666 0.10010 0.99551 0.82430 0.05543-0.55722
   5   1  -217924.86  678.83   1-0.74586-0.72128 0.65568 0.48394 0.11730-0.49551
   5  -1  -215950.81  692.01   1-0.75997-0.65244 0.64615 0.52565 0.07019-0.54589
  -5  -1   219632.72  738.52   1-0.77445-0.80176-0.60102-0.42976-0.19743 0.41530
  -5   1   218476.08  665.39   1 0.10528-0.00331-0.98728-0.86778-0.11906 0.49692
   5  -1  -191741.49 2086.17   1 0.08856 0.16061 0.96911 0.90424 0.23014-0.39566
   5   1  -190335.39 2129.49   1 0.08248 0.07150 0.98717 0.87115 0.13668-0.48576
   5   1  -191490.17 2034.33   1-0.71293-0.72264 0.66953 0.55328 0.20842-0.41431
   5  -1  -185146.36 1983.02   1-0.72906-0.65582 0.66390 0.59890 0.16640-0.45956
  -5  -1   186873.35 2117.92   1-0.77355-0.76648-0.60084-0.48477-0.20146 0.42129
  -5  -1   193444.87 2116.20   1 0.10487 0.11366-0.98443-0.86884-0.14102 0.48185
   5  -1   0  428.18  118.19   1 0.09321 0.13104 0.94610 0.93637 0.31016-0.32562
   5   1   0  567.77  139.46   1 0.08799 0.04267 0.97131 0.91049 0.22093-0.41131
   5   1   0  532.42  104.28   1-0.67072-0.71499 0.67720 0.61628 0.30252-0.33011
   5  -1   0  664.25  129.75   1-0.68763-0.64897 0.67514 0.66546 0.26708-0.36877
  -5  -1   0  403.08  120.86   1-0.77104-0.72959-0.60031-0.53943-0.21241 0.42035
   5  -1   1  100.36   86.09   1 0.09728 0.10093 0.91592 0.96134 0.38939-0.25618
   5   1   1   61.05  131.59   1 0.09299 0.01343 0.94742 0.94172 0.30615-0.33611
  -5  -1  -1   55.68   93.11   1-0.76674-0.69092-0.59928-0.59359-0.23014 0.41263
   5   1   2   46.52   91.53   1 0.09732-0.01639 0.91552 0.96498 0.39031-0.26177
  -5  -1  -2  219.78  142.34   1-0.76038-0.65019-0.59752-0.64702-0.25453 0.39826
   5  -1   3 3405.47  302.52   1 0.10332 0.03806 0.83544 0.99137 0.53978-0.12540
   5   1   3 3252.96  263.02   1 0.10089-0.04729 0.87586 0.98064 0.47188-0.19000
  -5  -1  -3 2618.95  290.01   1-0.75154-0.60698-0.59471-0.69941-0.28545 0.37735
   5  -1   430215.96  915.00   1 0.10520 0.00575 0.78662 0.99776 0.60840-0.06657
   5   1   430582.34  873.36   1 0.10361-0.07901 0.82932 0.98930 0.54907-0.12261
   5  -1   5 1737.59  205.24   1 0.10632-0.02772 0.73325 0.99953 0.67159-0.01304
   5   1   5 1471.08  196.08   1 0.10547-0.11133 0.77675 0.99193 0.62090-0.06060
   5  -1   6  716.23  140.91   1 0.10671-0.06178 0.67602 0.99748 0.72911 0.03472
   5   1   6  649.35  152.48   1 0.10649-0.14491 0.71915 0.98943 0.68664-0.00447
   5  -1   6 1062.83  146.23   1 0.07574-0.09420 0.67337 0.99469 0.73541 0.04131
   5  -1   7 9075.90  474.40   1 0.10641-0.09653 0.61572 0.99237 0.78073 0.07659
   5   1   7 9826.18  464.23   1 0.10669-0.17916 0.65731 0.98278 0.74602 0.04515
   5  -1   7 9218.58  476.15   1 0.06928-0.13518 0.61067 0.98715 0.78884 0.08510
   5   1   7 8473.98  624.51   1 0.07333-0.21392 0.64998 0.97524 0.75640 0.05606
   5  -1   8  160.43  112.24   1 0.10547-0.13192 0.55301 0.98484 0.82646 0.11257
   5   1   8  104.33  103.27   1 0.10613-0.21417 0.59215 0.97280 0.79880 0.08818
  -5   1  -8  299.82  128.97   1-0.04798 0.18595-0.54226-0.97470-0.83883-0.12401
   5  -1   8  185.20  112.06   1 0.06246-0.17652 0.54497 0.97661 0.83611 0.12275
   5  -1   9  775.99  136.82   1 0.10394-0.16791 0.48839 0.97540 0.86641 0.14276
   5   1   9  668.72  150.27   1 0.10486-0.24989 0.52438 0.96021 0.84500 0.12462
  -5   1  -9  621.50  115.67   1-0.07081 0.19741-0.48121-0.96891-0.87373-0.14911
  -5  -1  -9  649.24  130.59   1-0.06013 0.29112-0.51023-0.94692-0.85792-0.13627
   5  -1   9  910.21  151.77   1 0.05535-0.21814 0.47686 0.96365 0.87723 0.15423
   5   1   9  593.25  136.29   1 0.05870-0.29758 0.50892 0.94449 0.85880 0.13920
   5  -2 -1114252.49  755.77   1 0.05091 0.50816 0.96812 0.37648-0.24524-0.77461
   5   2 -1119644.17  696.21   1 0.03538 0.32640 0.91780 0.22402-0.39545-0.91829
   5   2 -1112978.87  804.55   1-0.80112-0.50782 0.50657-0.18814-0.31872-0.84066
  -5   2  1121215.89  673.05   1 0.10190-0.35908-0.93516-0.34476 0.33923 0.86729
  -5  -2  1119987.65  746.25   1 0.09794-0.19703-0.89378-0.20093 0.43767 0.95958
   5  -2 -10 1461.23  171.26   1 0.05292 0.47581 0.97307 0.43666-0.22431-0.76349
   5   2 -10 1721.13  217.88   1 0.03712 0.29393 0.92443 0.28589-0.37952-0.91206
   5   2 -10 1468.41  162.06   1-0.80247-0.54364 0.51669-0.12267-0.29841-0.83029
   5  -2 -10 1516.82  156.03   1-0.79307-0.36794 0.46894-0.06653-0.38874-0.92746
  -5   2  10 1685.78  203.88   1 0.10266-0.32376-0.94332-0.40812 0.31557 0.85358
  -5  -2  10 1592.68  185.73   1 0.09880-0.16159-0.90272-0.26508 0.41872 0.95058
   5  -2  -913381.31  592.40   1 0.05560 0.44412 0.97904 0.49785-0.19591-0.74491
   5   2  -913880.18  515.15   1 0.03954 0.26199 0.93325 0.34995-0.35702-0.89938
   5   2  -913713.27  510.46   1-0.80362-0.57926 0.52959-0.05443-0.27148-0.81331
   5  -2  -9 9883.07  569.28   1-0.79631-0.40594 0.48180 0.00003-0.36571-0.91389
  -5  -2   912467.25  796.38   1-0.74536-0.97176-0.59255-0.00933-0.30548 0.23575
  -5   2   912805.78  485.80   1 0.10355-0.28831-0.95304-0.47304 0.28457 0.83252
  -5  -2   911829.53  768.59   1 0.09989-0.12628-0.91403-0.33141 0.39313 0.93499
   5  -2  -8 1985.21  209.23   1 0.05892 0.41307 0.98538 0.55942-0.15980-0.71861
   5   2  -8 2408.53  229.39   1 0.04265 0.23074 0.94388 0.41580-0.32752-0.87969
   5   2  -8 2102.89  185.29   1-0.80405-0.61404 0.54511 0.01634-0.23736-0.78910
   5  -2  -8 2021.25  261.91   1-0.79971-0.44380 0.49814 0.07172-0.33511-0.89324
  -5  -2   8 1996.98  248.88   1-0.76039-0.95242-0.59752-0.06949-0.25450 0.29674
  -5   2   8 2255.54  281.97   1 0.10451-0.25286-0.96366-0.53871 0.24581 0.80364
  -5  -2   8 2114.43  254.28   1 0.10116-0.09046-0.92734-0.39992 0.36026 0.91207
   5  -2  -756723.07 1352.40   1 0.06284 0.38278 0.99130 0.62073-0.11557-0.68422
   5   2  -757791.88 1306.92   1 0.04643 0.20018 0.95574 0.48290-0.29049-0.85248
   5  -2  -759875.30 1293.58   1-0.80260-0.48116 0.51778 0.14670-0.29619-0.86426
  -5  -2   762581.08 1461.68   1-0.77095-0.92861-0.60029-0.12745-0.21278 0.34847
  -5   2   757791.66 1350.78   1 0.10543-0.21739-0.97442-0.60467 0.19845 0.76623
  -5  -2   760181.90 1369.97   1 0.10255-0.05452-0.94208-0.46986 0.31930 0.88105
   5  -2  -6 9166.81  428.10   1 0.06724 0.35279 0.99568 0.68031-0.06397-0.64242
   5   2  -610215.36  492.60   1 0.05088 0.17028 0.96804 0.55040-0.24557-0.81734
   5   2  -6 7935.85  428.16   1-0.79961-0.67857 0.58294 0.16483-0.14417-0.71579
   5  -2  -6 9144.95  355.30   1-0.80404-0.51707 0.54041 0.22467-0.24790-0.82592
  -5  -2   6 9770.16  434.91   1-0.77825-0.90154-0.60168-0.18404-0.17967 0.39160
  -5   2   6 9594.62  471.99   1 0.10620-0.18207-0.98409-0.66954 0.14237 0.72010
  -5  -2   6 8604.88  407.66   1 0.10394-0.01863-0.95730-0.54014 0.26973 0.84136
   5  -2  -556109.67 1170.52   1 0.07202 0.32318 0.99738 0.73722-0.00508-0.59333
   5   2  -561358.35 1203.37   1 0.05593 0.14097 0.97972 0.61730-0.19240-0.77398
   5   2  -560409.17  975.71   1-0.79264-0.70599 0.60378 0.24065-0.08459-0.66607
   5  -2  -559404.54 1039.07   1-0.80277-0.55023 0.56540 0.30493-0.18937-0.77733
  -5  -2   562540.60 1085.49   1-0.78315-0.87206-0.60228-0.23983-0.15468 0.42660
  -5   2   560802.03 1054.71   1 0.10665-0.14699-0.99124-0.73176 0.07780 0.66551
  -5  -2   559834.17 1282.72   1 0.10522 0.01719-0.97187-0.60990 0.21070 0.79228
   5  -2  -4 8368.90  432.78   1 0.07703 0.29374 0.99519 0.79030 0.06041-0.53771
   5   2  -4 8325.29  410.92   1 0.06149 0.11216 0.98946 0.68228-0.13103-0.72243
   5   2  -4 7816.30  367.43   1-0.78070-0.72858 0.62469 0.31688-0.01583-0.60724
   5  -2  -4 7820.06  329.86   1-0.79715-0.57909 0.59176 0.38662-0.11984-0.71774
  -5  -2   4 8320.51  409.44   1-0.78622-0.84075-0.60246-0.29520-0.13744 0.45385
  -5   2   4 7768.30  395.51   1 0.10663-0.11248-0.99428-0.79001 0.00503 0.60268
  -5  -2   4 8513.40  413.26   1 0.10620 0.05273-0.98411-0.67735 0.14223 0.73376
   5  -2  -311584.08  529.14   1 0.08209 0.26438 0.98797 0.83827 0.13104-0.47686
   5   2  -312408.57  487.90   1 0.06741 0.08383 0.99580 0.74384-0.06189-0.66307
   5   2  -310662.26  428.59   1-0.76251-0.74485 0.64409 0.39142 0.06092-0.54034
   5  -2  -311305.25  420.49   1-0.78528-0.60175 0.61786 0.46777-0.03953-0.64736
  -5  -2   312512.78  473.05   1-0.78785-0.80800-0.60248-0.35041-0.12767 0.47363
  -5   2   311733.47  454.94   1 0.10595-0.07861-0.99156-0.84250-0.07465 0.53292
  -5  -2   311911.52  459.11   1 0.10669 0.08784-0.99217-0.74053 0.06478 0.66625
   5  -2  -224131.33  811.51   1 0.08702 0.23497 0.97477 0.88027 0.20550-0.41218
   5   2  -223608.67  804.05   1 0.07352 0.05555 0.99719 0.80043 0.01414-0.59683
   5   2  -223319.23  761.42   1-0.73679-0.75340 0.66047 0.46327 0.14460-0.46664
   5  -2  -221470.77  678.23   1-0.76516-0.61616 0.64181 0.54692 0.05096-0.56675
  -5  -2   225020.10  808.61   1-0.78825-0.77403-0.60247-0.40560-0.12517 0.48615
  -5   2   226118.08  793.71   1 0.10448-0.04555-0.98164-0.88779-0.15953 0.45798
  -5  -2   222601.87  723.03   1 0.10648 0.12217-0.99409-0.79765-0.02079 0.59060
   5  -2  -1  882.23  156.27   1 0.09164 0.20538 0.95499 0.91565 0.28211-0.34553
   5   2  -1 1188.00  164.34   1 0.07961 0.02715 0.99221 0.85063 0.09571-0.52505
   5   2  -1  890.72  145.16   1-0.70264-0.75382 0.67223 0.53035 0.23322-0.38790
   5  -2  -1 1551.11  204.80   1-0.73503-0.62033 0.66130 0.62192 0.14966-0.47791
  -5  -2   1 1044.31  147.28   1-0.78751-0.73891-0.60248-0.46080-0.12975 0.49158
  -5  -2   1  922.02  130.38   1 0.10539 0.15561-0.98802-0.84679-0.11269 0.50864
   5  -2   028486.35  928.91   1 0.09578 0.17533 0.92847 0.94427 0.35884-0.27857
   5   2   028339.56  966.61   1 0.08546-0.00133 0.97972 0.89333 0.18119-0.44938
   5   2   026375.16  829.53   1-0.65987-0.74561 0.67795 0.59140 0.32395-0.30707
   5  -2   028636.88  864.80   1-0.69374-0.61360 0.67409 0.69003 0.25361-0.38385
  -5  -2   029334.88  876.70   1-0.78556-0.70259-0.60243-0.51595-0.14128 0.49005
   5  -2   116967.12  612.44   1 0.09933 0.14444 0.89531 0.96631 0.43421-0.21300
   5   2   116505.70  672.16   1 0.09085-0.03035 0.95898 0.92779 0.26850-0.37186
   5   2   115154.83  549.00   1-0.60893-0.72924 0.67670 0.64547 0.41384-0.22706
   5  -2   115315.78  603.45   1-0.64122-0.59565 0.67833 0.74959 0.35873-0.28861
  -5  -2  -116239.28  527.18   1-0.78221-0.66487-0.60219-0.57090-0.15968 0.48168
   5  -2   2 2438.50  257.51   1 0.10221 0.11286 0.85589 0.98220 0.50694-0.15008
   5   2   2 2605.67  276.86   1 0.09561-0.05957 0.92977 0.95365 0.35550-0.29493
  -5  -2  -2 2920.47  298.11   1-0.77718-0.62546-0.60151-0.62541-0.18484 0.46653
   5  -2   3 1419.32  180.86   1 0.10438 0.08083 0.81102 0.99254 0.57563-0.09119
   5   2   3 1496.08  187.65   1 0.09959-0.09002 0.89227 0.97136 0.44036-0.21988
  -5  -2  -3  972.07  168.16   1-0.77002-0.58393-0.60008-0.67917-0.21670 0.44468
   5  -2   4  960.01  161.76   1 0.10583 0.04784 0.76144 0.99816 0.63953-0.03708
   5   2   4 1093.32  166.10   1 0.10272-0.12137 0.84703 0.98143 0.52151-0.14852
  -5  -2  -4  981.02  181.79   1-0.76020-0.53973-0.59746-0.73175-0.25519 0.41620
   5  -2   5 2753.52  295.37   1 0.10658 0.01399 0.70796 0.99983 0.69815 0.01188
   5   2   5 2169.27  264.70   1 0.10494-0.15333 0.79511 0.98471 0.59730-0.08258
  -5  -2  -5 2106.94  257.57   1-0.74700-0.49216-0.59314-0.78262-0.30025 0.38115
   5  -2   6  123.13  117.30   1 0.10667-0.02037 0.65120 0.99826 0.75136 0.05534
   5   2   6  299.82  134.08   1 0.10626-0.18644 0.73740 0.98220 0.66703-0.02263
   5  -2   6  301.68  143.66   1 0.07330-0.05524 0.64968 0.99661 0.75666 0.06086
   5  -2   752365.82 1019.23   1 0.10613-0.05536 0.59186 0.99410 0.79901 0.09324
   5   2   751191.25 1034.91   1 0.10671-0.22059 0.67500 0.97487 0.73005 0.03081
   5  -2   749764.53 1005.18   1 0.06695-0.09612 0.58819 0.99028 0.80594 0.10051
   5   2   750449.27 1087.09   1 0.07506-0.25359 0.66671 0.96635 0.74152 0.04288
   5  -2   821477.30  720.02   1 0.10500-0.09094 0.53047 0.98789 0.84117 0.12564
   5   2   824482.70  734.51   1 0.10634-0.25542 0.60867 0.96373 0.78626 0.07727
  -5   2  -824510.01  623.02   1-0.05515 0.13727-0.52349-0.98143-0.85024-0.13393
   5  -2   818539.90  818.89   1 0.06029-0.13729 0.52411 0.98136 0.84950 0.13444
   5   2   819040.08  768.33   1 0.06777-0.29539 0.59616 0.95096 0.79999 0.09172
   5   2   9  304.78  121.35   1 0.10519-0.29101 0.53931 0.94956 0.83550 0.11676
  -5   2  -9  383.70  165.78   1-0.10336 0.12410-0.46852-0.98081-0.87738-0.15031
  -5  -2  -9  304.71  122.29   1-0.05602 0.33674-0.52118-0.93237-0.85160-0.13142
   5  -2   9  251.81  111.07   1 0.05338-0.17872 0.45796 0.97035 0.88736 0.16267
   5   2   9  371.87  162.72   1 0.06005-0.33763 0.52188 0.93183 0.85090 0.13299
  -5   3  1111889.46  510.99   1 0.10302-0.39938-0.94721-0.38246 0.30360 0.83319
  -5  -3  1112824.98  538.53   1 0.09720-0.15635-0.88619-0.16769 0.45300 0.97336
   5  -3 -10 1085.17  149.31   1 0.05813 0.52252 0.98399 0.47311-0.16847-0.70932
   5   3 -10 1364.53  177.60   1 0.03438 0.24954 0.91385 0.24981-0.40458-0.93558
   5   3 -10 1096.14  134.86   1-0.80370-0.58638 0.53095-0.13398-0.26858-0.79887
   5  -3 -10 1087.44  134.94   1-0.79050-0.32388 0.45983-0.05006-0.40453-0.94477
  -5   3  10  999.03  187.49   1 0.10372-0.36413-0.95482-0.44527 0.27847 0.81800
  -5  -3  10 1133.62  185.79   1 0.09807-0.12091-0.89512-0.23182 0.43489 0.96521
   5  -3  -9 1059.57  156.29   1 0.06081 0.49083 0.98846 0.53281-0.13867-0.68933
   5   3  -9 1288.10  171.00   1 0.03671 0.21754 0.92288 0.31408-0.38332-0.92413
   5  -3  -9 1068.71  163.35   1-0.79409-0.36190 0.47279 0.01815-0.38192-0.93203
  -5  -3   9  996.23  180.74   1-0.76638-0.95126-0.59918 0.00963-0.23159 0.30822
  -5   3   9  829.85  177.61   1 0.10450-0.32884-0.96362-0.50912 0.24598 0.79539
  -5  -3   9  821.99  183.54   1 0.09917-0.08558-0.90653-0.29826 0.41030 0.95064
   5  -3  -8  423.23  114.87   1 0.06413 0.45995 0.99284 0.59261-0.10073-0.66124
   5   3  -8  564.48  124.46   1 0.03972 0.18630 0.93386 0.38027-0.35540-0.90591
   5   3  -8  686.46  112.39   1-0.80344-0.65493 0.55877 0.00441-0.20553-0.75567
   5  -3  -8  477.42  122.93   1-0.79793-0.40051 0.48906 0.08820-0.35231-0.91203
  -5  -3   8  684.95  170.45   1-0.77790-0.92840-0.60163-0.04800-0.18138 0.36844
  -5   3   8  698.61  133.01   1 0.10531-0.29348-0.97301-0.57371 0.20531 0.76467
  -5  -3   8  719.09  248.78   1 0.10047-0.04972-0.92008-0.36701 0.37860 0.92888
   5  -3  -7 6196.85  389.62   1 0.06794 0.42938 0.99614 0.65111-0.05552-0.62584
   5   3  -7 6384.44  355.26   1 0.04342 0.15566 0.94641 0.44804-0.32002-0.88035
   5   3  -7 5156.17  339.84   1-0.80111-0.68708 0.57605 0.07703-0.16239-0.72248
   5  -3  -7 7026.43  338.67   1-0.80147-0.43852 0.50892 0.16340-0.31407-0.88373
  -5  -3   7 7658.94  428.36   1-0.78570-0.90183-0.60244-0.10400-0.14046 0.41937
  -5   3   7 6747.03  421.00   1 0.10604-0.25820-0.98201-0.63791 0.15622 0.72553
  -5  -3   7 7145.02  393.04   1 0.10191-0.01373-0.93527-0.43739 0.33893 0.89916
   5  -3  -6 1357.54  182.65   1 0.07219 0.39923 0.99738 0.70756-0.00294-0.58305
   5   3  -6 1330.93  210.51   1 0.04781 0.12569 0.95973 0.51660-0.27680-0.84694
   5   3  -6 1136.55  198.46   1-0.79615-0.71645 0.59478 0.15074-0.11122-0.68114
   5  -3  -6 1542.40  149.33   1-0.80376-0.47529 0.53200 0.24182-0.26633-0.84594
  -5  -3   6 1344.66  163.18   1-0.79087-0.87263-0.60234-0.15910-0.10812 0.46173
  -5   3   6 1541.67  173.83   1 0.10656-0.22306-0.98939-0.70035 0.09875 0.67804
  -5  -3   6 1211.03  159.18   1 0.10339 0.02229-0.95125-0.50858 0.29055 0.86072
   5  -3  -514459.33  533.89   1 0.07675 0.36934 0.99544 0.76092 0.05657-0.53345
   5   3  -514328.77  522.09   1 0.05281 0.09635 0.97281 0.58487-0.22545-0.80537
   5   3  -514364.77  466.80   1-0.78736-0.74220 0.61435 0.22562-0.05120-0.63105
   5  -3  -514351.35  476.29   1-0.80353-0.50949 0.55771 0.32282-0.20806-0.79762
  -5  -3   514057.07  565.98   1-0.79419-0.84157-0.60185-0.21379-0.08384 0.49602
  -5   3   514564.17  518.90   1 0.10671-0.18837-0.99374-0.75991 0.03289 0.62212
  -5  -3   514536.80  488.81   1 0.10478 0.05818-0.96679-0.57918 0.23306 0.81311
   5  -3  -4 2078.75  218.90   1 0.08144 0.33962 0.98923 0.80990 0.12158-0.47823
   5   3  -4 2345.89  213.95   1 0.05838 0.06755 0.98444 0.65172-0.16570-0.75543
   5   3  -4 1990.24  196.00   1-0.77352-0.76288 0.63353 0.30012 0.01713-0.57265
   5  -3  -4 2305.56  179.93   1-0.79907-0.53952 0.58508 0.40552-0.13837-0.73787
  -5  -3   4 2195.08  250.78   1-0.79618-0.80919-0.60130-0.26844-0.06724 0.52263
  -5   3   4 2388.10  201.11   1 0.10633-0.15421-0.99350-0.81488-0.04043 0.55873
  -5  -3   4 2149.53  186.67   1 0.10592 0.09387-0.98045-0.64803 0.16579 0.75579
   5  -3  -3    9.64   89.41   1 0.08610 0.30994 0.97779 0.85367 0.19104-0.41854
   5   3  -3   47.24   86.73   1 0.06437 0.03929 0.99311 0.71560-0.09788-0.69740
   5   3  -3   83.80   78.24   1-0.75347-0.77728 0.65090 0.37262 0.09271-0.50692
   5  -3  -3   56.83   65.21   1-0.78838-0.56336 0.61251 0.48802-0.05721-0.66666
  -5  -3   3   13.62   90.14   1-0.79719-0.77582-0.60093-0.32326-0.05804 0.54185
  -5   3   3  103.65  131.29   1 0.10527-0.12073-0.98718-0.86377-0.11990 0.48920
  -5  -3   3  162.34  127.59   1 0.10661 0.12918-0.99028-0.71300 0.08922 0.68915
   5  -3  -238109.98  895.17   1 0.09055 0.27997 0.96045 0.89152 0.26328-0.35608
   5   3  -235140.55 1016.54   1 0.07062 0.01115 0.99724 0.77493-0.02261-0.63193
   5   3  -237430.56  876.97   1-0.72611-0.78420 0.66508 0.44226 0.17440-0.43523
   5  -3  -235806.52  848.95   1-0.76925-0.57878 0.63798 0.56871 0.03491-0.58443
  -5  -3   238846.69  866.82   1-0.79740-0.74165-0.60084-0.37836-0.05602 0.55387
  -5  -3   235445.02  823.38   1 0.10662 0.16374-0.99429-0.77220 0.00403 0.61390
   5  -3  -175160.02 1880.34   1 0.09464 0.24985 0.93680 0.92304 0.33680-0.29249
   5   3  -176364.48 1858.03   1 0.07692-0.01701 0.99529 0.82814 0.05884-0.56025
   5   3  -172490.85 1708.20   1-0.69076-0.78341 0.67462 0.50713 0.26024-0.35928
   5  -3  -177327.35 1811.22   1-0.73964-0.58373 0.65906 0.64510 0.13622-0.49303
  -5  -3   175770.05 1758.31   1-0.79686-0.70675-0.60105-0.43377-0.06104 0.55887
  -5  -3   175350.74 1766.47   1 0.10577 0.19743-0.99047-0.82360-0.08811 0.53169
   5  -3   0 4174.73  306.79   1 0.09823 0.21925 0.90693 0.94831 0.40966-0.22940
   5   3   0 4170.18  286.85   1 0.08305-0.04530 0.98593 0.87397 0.14502-0.48385
   5   3   0 3560.28  256.47   1-0.64738-0.77460 0.67832 0.56615 0.34751-0.28190
   5  -3   0 3893.90  261.92   1-0.69826-0.57665 0.67320 0.71476 0.24337-0.39570
  -5  -3   0 4018.01  265.41   1-0.79552-0.67102-0.60151-0.48942-0.07298 0.55694
   5  -3   1 7022.06  404.19   1 0.10124 0.18779 0.87101 0.96770 0.48071-0.16816
   5   3   1 6779.21  431.30   1 0.08879-0.07389 0.96819 0.91142 0.23392-0.40476
   5  -3   1 6364.06  347.82   1-0.64475-0.55770 0.67834 0.77523 0.35234-0.29661
  -5  -3  -1 6275.31  324.13   1-0.79316-0.63429-0.60205-0.54515-0.09178 0.54815
   5  -3   212663.13  487.71   1 0.10359 0.15571 0.82973 0.98163 0.54845-0.11022
   5   3   212522.41  525.67   1 0.09392-0.10300 0.94161 0.93993 0.32332-0.32542
  -5  -3  -212231.77  488.39   1-0.78948-0.59623-0.60244-0.60073-0.11739 0.53255
   5  -3   321196.79  677.07   1 0.10529 0.12320 0.78367 0.99078 0.61217-0.05627
   5   3   320966.29  662.24   1 0.09830-0.13278 0.90625 0.95975 0.41115-0.24745
  -5  -3  -320072.43  686.10   1-0.78404-0.55642-0.60235-0.65583-0.14980 0.51016
   5  -3   482787.97 1587.65   1 0.10632 0.08979 0.73363 0.99593 0.67117-0.00706
   5   3   484040.48 1643.60   1 0.10181-0.16375 0.86246 0.97128 0.49577-0.17262
  -5  -3  -490985.15 1524.86   1-0.77629-0.51430-0.60136-0.71004-0.18900 0.48097
   5  -3   5  467.37  166.61   1 0.10671 0.05556 0.68030 0.99776 0.72512 0.03721
   5   3   5  508.12  127.42   1 0.10437-0.19536 0.81128 0.97530 0.57525-0.10300
  -5  -3  -5  437.70  152.15   1-0.76551-0.46914-0.59895-0.76282-0.23502 0.44496
   5  -3   6 8654.78  423.64   1 0.10649 0.02090 0.62422 0.99686 0.77395 0.07629
   5   3   6 7489.59  444.96   1 0.10599-0.22818 0.75360 0.97282 0.64872-0.03932
  -5  -3  -6 7896.94  471.54   1-0.75081-0.42007-0.59447-0.81353-0.28788 0.40212
   5  -3   6 7109.31  395.35   1 0.07066-0.01649 0.62405 0.99660 0.77817 0.08067
   5  -3   7  206.63  116.74   1 0.10572-0.01432 0.56597 0.99380 0.81761 0.11020
   5   3   7  128.87  163.22   1 0.10668-0.26208 0.69059 0.96488 0.71532 0.01772
   5  -3   7  256.25  111.72   1 0.06442-0.05724 0.56387 0.99157 0.82334 0.11621
   5  -3   8 3893.70  274.70   1 0.10441-0.05008 0.50600 0.98902 0.85618 0.13902
   5   3   8 3763.31  284.39   1 0.10648-0.29673 0.62310 0.95257 0.77485 0.06750
  -5   3  -8 3577.28  248.81   1-0.06315 0.08776-0.50213-0.98557-0.86248-0.14469
   5  -3   8 3549.28  255.81   1 0.05792-0.09826 0.50146 0.98432 0.86323 0.14647
   5   3   8 3026.85  350.58   1 0.06912-0.33544 0.60916 0.93835 0.79002 0.08344
   5   4 -10  416.65  134.39   1 0.03205 0.20570 0.90445 0.21489-0.42537-0.95472
   5   4 -10  512.55  124.35   1-0.80405-0.62805 0.54575-0.14483-0.23590-0.76457
   5  -4 -10  597.12  111.98   1-0.78813-0.28002 0.45206-0.03225-0.41770-0.95945
  -5   4  10  458.91  129.53   1 0.10472-0.40460-0.96605-0.48200 0.23616 0.77714
  -5  -4  10  432.50  140.86   1 0.09745-0.08011-0.88882-0.19986 0.44776 0.97654
   5  -4  -9 1990.43  236.87   1 0.06650 0.53821 0.99512 0.56524-0.07278-0.62515
   5   4  -9 1555.44  185.35   1 0.03430 0.17362 0.91357 0.27926-0.40522-0.94438
   5   4  -9 1803.23  199.67   1-0.80349-0.66198 0.55818-0.07707-0.20693-0.74554
   5  -4  -9 1849.24  272.15   1-0.79198-0.31830 0.46496 0.03590-0.39568-0.94730
  -5  -4   9 2331.88  243.80   1-0.78201-0.92537-0.60217 0.03225-0.16072 0.37767
  -5   4   9 2275.23  236.12   1 0.10537-0.36939-0.97373-0.54488 0.20181 0.75275
  -5  -4   9 1234.58  341.01   1 0.09856-0.04443-0.90024-0.26649 0.42407 0.96281
   5  -4  -810556.94  467.40   1 0.06968 0.50700 0.99698 0.62230-0.03421-0.59639
   5   4  -8 9751.16  473.70   1 0.03722 0.14230 0.92479 0.34567-0.37864-0.92750
   5   4  -810754.01  417.30   1-0.80170-0.69467 0.57282-0.00710-0.17073-0.71928
   5  -4  -8 9012.58  421.49   1-0.79619-0.35728 0.48128 0.10598-0.36665-0.92796
  -5  -4   810599.98  441.82   1-0.79034-0.89932-0.60239-0.02315-0.11174 0.43667
  -5   4   8 9508.19  583.34   1 0.10600-0.33421-0.98150-0.60786 0.15939 0.72027
  -5  -4   811217.93  524.91   1 0.09989-0.00889-0.91395-0.33521 0.39334 0.94209
   5  -4  -714207.36  577.61   1 0.07334 0.47627 0.99723 0.67776 0.01180-0.56017
   5   4  -716893.74  597.61   1 0.04084 0.11157 0.93779 0.41390-0.34479-0.90345
   5   4  -715820.51  547.48   1-0.79791-0.72537 0.58928 0.06468-0.12681-0.68530
   5  -4  -717196.90  521.91   1-0.80027-0.39582 0.50133 0.18137-0.32897-0.90023
  -5  -4   716764.95  562.44   1-0.79564-0.87024-0.60147-0.07743-0.07193 0.48648
  -5   4   713158.26  686.75   1 0.10649-0.29909-0.98834-0.66974 0.10881 0.67969
  -5  -4   717503.02  617.81   1 0.10136 0.02713-0.92942-0.40589 0.35481 0.91351
   5  -4  -6   66.42  158.67   1 0.07737 0.44586 0.99488 0.73073 0.06498-0.51693
   5   4  -6  -25.07   92.59   1 0.04514 0.08152 0.95184 0.48319-0.30322-0.87170
   5   4  -6  -35.60  116.49   1-0.79125-0.75305 0.60684 0.13719-0.07519-0.64349
   5  -4  -6   23.85   75.68   1-0.80327-0.43330 0.52478 0.26017-0.28167-0.86287
  -5  -4   6   52.00   85.33   1-0.79891-0.83914-0.60008-0.13122-0.04058 0.52784
  -5   4   6   65.78   93.53   1 0.10671-0.26433-0.99303-0.72964 0.04984 0.63066
  -5  -4   6   96.38  109.05   1 0.10290 0.06323-0.94591-0.47758 0.30765 0.87630
   5  -4  -520727.83  672.47   1 0.08160 0.41567 0.98893 0.77998 0.12390-0.46780
   5   4  -520935.46  661.60   1 0.05010 0.05213 0.96600 0.55253-0.25360-0.83185
   5   4  -518136.39  613.91   1-0.78056-0.77689 0.62488 0.21055-0.01515-0.59338
   5  -4  -520879.98  588.10   1-0.80391-0.46837 0.55112 0.34181-0.22357-0.81473
  -5  -4   521976.32  680.00   1-0.80082-0.80668-0.59864-0.18498-0.01716 0.56128
  -5   4   522074.91  714.28   1 0.10651-0.22999-0.99416-0.78598-0.01688 0.57387
  -5  -4   521490.77  655.91   1 0.10438 0.09920-0.96223-0.54896 0.25140 0.82993
   5  -4  -4 1686.72  217.67   1 0.08588 0.38562 0.97845 0.82470 0.18775-0.41371
   5   4  -4 1356.16  184.38   1 0.05564 0.02331 0.97912 0.62087-0.19549-0.78356
   5   4  -4 1382.78  186.73   1-0.76481-0.79554 0.64212 0.28290 0.05230-0.53579
   5  -4  -4 1531.93  152.08   1-0.80043-0.49938 0.57939 0.42541-0.15364-0.75474
  -5  -4   4 1626.10  182.72   1-0.80187-0.77335-0.59748-0.23901-0.00127 0.58718
  -5   4   4 1304.53  161.17   1 0.10574-0.19622-0.99027-0.83729-0.09037 0.51032
  -5  -4   4 1422.05  159.06   1 0.10564 0.13502-0.97698-0.61892 0.18528 0.77376
   5  -4  -313479.37  579.72   1 0.09006 0.35538 0.96273 0.86417 0.25501-0.35624
   5   4  -312928.46  539.82   1 0.06166-0.00502 0.98971 0.68669-0.12904-0.72692
   5   4  -312944.37  486.95   1-0.74278-0.80807 0.65741 0.35350 0.12678-0.47121
   5  -4  -313079.33  445.32   1-0.79070-0.52419 0.60800 0.50911-0.07157-0.68265
  -5  -4   312118.13  463.79   1-0.80235-0.73958-0.59680-0.29355 0.00721 0.60567
  -5   4   311725.72  467.71   1 0.10426-0.16316-0.98006-0.88229-0.16911 0.44151
  -5  -4   313523.39  504.97   1 0.10649 0.17049-0.98825-0.68532 0.10959 0.70800
   5  -4  -289309.53 1382.47   1 0.09398 0.32510 0.94125 0.89788 0.32434-0.29681
   5   4  -286477.60 1523.69   1 0.06799-0.03296 0.99617 0.74831-0.05487-0.66252
   5   4  -282609.82 1283.98   1-0.71378-0.81333 0.66928 0.42084 0.20631-0.40171
   5  -4  -286799.11 1253.11   1-0.77230-0.54033 0.63485 0.59128 0.02231-0.59868
  -5  -4   285527.83 1252.47   1-0.80243-0.70528-0.59667-0.34861 0.00881 0.61728
  -5  -4   290268.46 1359.00   1 0.10669 0.20524-0.99397-0.74625 0.02488 0.63323
   5  -4  -128589.06  781.95   1 0.09749 0.29441 0.91402 0.92578 0.39376-0.23714
   5   4  -130049.93  873.65   1 0.07445-0.06096 0.99688 0.80416 0.02614-0.59127
   5   4  -130909.51  746.76   1-0.67721-0.81133 0.67655 0.48343 0.28923-0.32868
   5  -4  -128815.53  690.69   1-0.74300-0.54562 0.65728 0.66895 0.12612-0.50477
  -5  -4   128050.49  767.75   1-0.80215-0.67061-0.59710-0.40423 0.00349 0.62198
  -5  -4   128423.84  771.44   1 0.10604 0.23913-0.99207-0.79955-0.06735 0.55093
   5  -4   022677.45  754.61   1 0.10050 0.26296 0.88106 0.94814 0.46218-0.17853
   5   4   021979.23  703.79   1 0.08081-0.08902 0.99034 0.85281 0.11263-0.51456
   5   4   021298.84  757.51   1-0.63321-0.80190 0.67817 0.54038 0.37297-0.25483
   5  -4   022162.54  649.76   1-0.70116-0.53808 0.67257 0.73976 0.23667-0.40400
  -5  -4   022905.34  612.39   1-0.80142-0.63540-0.59803-0.46033-0.00855 0.61996
  -5  -4   023417.25  642.87   1 0.10436 0.27198-0.98076-0.84344-0.16495 0.46326
   5  -4   135146.16  877.62   1 0.10294 0.23096 0.84294 0.96522 0.52805-0.12247
   5   4   133506.50 1102.81   1 0.08684-0.11731 0.97539 0.89306 0.20265-0.43436
   5  -4   133661.51  803.34   1-0.64625-0.51773 0.67833 0.80084 0.34959-0.30098
  -5  -4  -133916.22  763.16   1-0.80003-0.59964-0.59932-0.51681-0.02751 0.61100
   5  -4   2 8745.09  427.19   1 0.10478 0.19859 0.80011 0.97760 0.59062-0.06966
   5   4   2 8802.67  454.65   1 0.09231-0.14608 0.95135 0.92409 0.29394-0.35314
  -5  -4  -2 9131.91  423.80   1-0.79768-0.56291-0.60071-0.57340-0.05327 0.59526
   5  -4   3 2641.57  273.64   1 0.10600 0.16537 0.75331 0.98600 0.64905-0.02102
   5   4   3 2208.37  269.37   1 0.09704-0.17551 0.91806 0.94599 0.38437-0.27257
  -5  -4  -3 2629.75  239.38   1-0.79393-0.52479-0.60190-0.62978-0.08586 0.57268
   5  -4   4 2861.70  287.17   1 0.10662 0.13138 0.70319 0.99106 0.70295 0.02316
   5   4   4 3311.85  274.71   1 0.10090-0.20612 0.87573 0.95897 0.47212-0.19462
  -5  -4  -4 3058.61  244.66   1-0.78822-0.48471-0.60247-0.68555-0.12535 0.54320
   5  -4   5 2992.35  256.11   1 0.10666 0.09698 0.65026 0.99331 0.75218 0.06264
   5   4   5 2936.99  276.71   1 0.10380-0.23766 0.82528 0.96372 0.55509-0.12145
  -5  -4  -5 2476.55  297.92   1-0.77985-0.44196-0.60191-0.74018-0.17181 0.50675
   5  -4   5 3053.23  268.19   1 0.07364 0.06240 0.65297 0.99598 0.75378 0.06422
   5  -4   641395.60  922.06   1 0.10617 0.06203 0.59508 0.99331 0.79662 0.09732
   5   4   642130.70  971.23   1 0.10570-0.26994 0.76770 0.96133 0.63202-0.05439
  -5  -4  -643918.54  973.46   1-0.76792-0.39565-0.59957-0.79303-0.22538 0.46320
   5  -4   641657.71 1086.27   1 0.06781 0.02205 0.59653 0.99469 0.79971 0.10052
   5  -4   7  306.90  145.83   1 0.10517 0.02658 0.53809 0.99151 0.83629 0.12725
   5   4   7  312.70  143.69   1 0.10661-0.30360 0.70408 0.95277 0.70207 0.00609
  -5  -4  -7  247.73  148.97   1-0.75132-0.34467-0.59464-0.84328-0.28621 0.41238
  -5   4  -7  481.08  120.15   1-0.04994 0.02516-0.53717-0.99086-0.84199-0.13251
   5  -4   7  425.06  125.84   1 0.06171-0.01856 0.53776 0.99107 0.84083 0.13200
   5   4   825108.86  987.76   1 0.10658-0.33808 0.63537 0.93925 0.76481 0.05908
  -5   4  -826059.35  841.49   1-0.07195 0.03744-0.47808-0.98703-0.87536-0.15608
   5  -4   825601.26  962.77   1 0.05538-0.05941 0.47707 0.98554 0.87711 0.15865
   5   4   824514.85  952.78   1 0.07024-0.37572 0.61998 0.92356 0.78146 0.07658
   5   5 -10 5686.97  377.63   1 0.03013 0.16226 0.89639 0.18132-0.44223-0.96994
   5   5 -10 5166.72  314.47   1-0.80324-0.66874 0.56104-0.15513-0.20005-0.72712
   5  -5 -10 5093.04  318.69   1-0.78607-0.23648 0.44569-0.01305-0.42829-0.97154
  -5   5  10 4789.58  337.08   1 0.10560-0.44514-0.97650-0.51811 0.18783 0.73034
  -5  -5  10 5413.57  399.44   1 0.09697-0.03917-0.88387-0.16926 0.45756 0.98479
   5  -5  -961023.85 1524.13   1 0.07254 0.58574 0.99736 0.59303 0.00158-0.55246
   5   5  -964512.32 1174.29   1 0.03231 0.13011 0.90552 0.24570-0.42306-0.96057
   5   5  -960873.90 1411.95   1-0.80165-0.70164 0.57307-0.08776-0.17009-0.70710
   5  -5  -964876.20  956.47   1-0.79012-0.27495 0.45854 0.05505-0.40674-0.95987
  -5  -5   958318.55 1474.13   1-0.79285-0.89468-0.60210 0.05793-0.09406 0.44291
  -5   5   963714.45 1158.31   1 0.10609-0.41010-0.98269-0.57950 0.15180 0.70426
  -5  -5   961637.75 1525.05   1 0.09808-0.00349-0.89527-0.23585 0.43459 0.97178
   5  -5  -8 9112.78  457.98   1 0.07558 0.55438 0.99629 0.64733 0.04094-0.52308
   5   5  -810500.61  466.81   1 0.03516 0.09862 0.91692 0.31234-0.39751-0.94483
   5   5  -8 8949.22  361.44   1-0.79855-0.73302 0.58704-0.01846-0.13300-0.67995
   5  -5  -810121.84  404.91   1-0.79467-0.31393 0.47503 0.12680-0.37792-0.94093
  -5  -5   8 8021.38  461.23   1-0.79834-0.86579-0.60039 0.00444-0.04662 0.50037
  -5   5   8 9126.10  483.47   1 0.10650-0.37505-0.98844-0.64028 0.10787 0.67035
  -5  -5   810053.13  470.62   1 0.09941 0.03205-0.90903-0.30464 0.40469 0.95192
   5  -5  -724912.13  742.44   1 0.07898 0.52336 0.99307 0.69930 0.08693-0.48688
   5   5  -725187.73  738.00   1 0.03867 0.06789 0.93013 0.38072-0.36518-0.92219
   5   5  -725656.10  699.07   1-0.79323-0.76198 0.60241 0.05184-0.08876-0.64551
   5  -5  -727544.49  671.86   1-0.79914-0.35319 0.49511 0.20072-0.34091-0.91376
  -5  -5   724467.25  660.06   1-0.80144-0.83452-0.59800-0.04835-0.00816 0.54883
  -5   5   725886.99  849.98   1 0.10671-0.34031-0.99273-0.69977 0.05568 0.62809
  -5  -5   724510.71  706.19   1 0.10091 0.06811-0.92467-0.37548 0.36714 0.92432
   5  -5  -6 1230.23  169.17   1 0.08265 0.49262 0.98680 0.74822 0.13922-0.44437
   5   5  -6 1248.10  154.74   1 0.04289 0.03776 0.94468 0.45051-0.32514-0.89197
   5   5  -6 1233.81  153.57   1-0.78472-0.78800 0.61877 0.12352-0.03647-0.60315
   5  -5  -6 1376.19  141.43   1-0.80272-0.39123 0.51889 0.27984-0.29392-0.87670
  -5  -5   6 1180.30  164.20   1-0.80303-0.80189-0.59552-0.10110 0.02184 0.58884
  -5   5   6 1080.00  144.42   1 0.10658-0.30589-0.99429-0.75654-0.00436 0.57798
  -5  -5   6 1370.28  178.33   1 0.10249 0.10424-0.94149-0.44751 0.32105 0.88818
   5  -5  -5 3279.54  281.11   1 0.08647 0.46210 0.97661 0.79323 0.19683-0.39652
   5   5  -5 3067.93  257.46   1 0.04778 0.00829 0.95966 0.52072-0.27704-0.85368
   5   5  -5 2859.06  249.28   1-0.77212-0.80976 0.63505 0.19490 0.02311-0.55343
   5  -5  -5 3090.73  207.81   1-0.80405-0.42701 0.54578 0.36205-0.23584-0.82859
  -5  -5   5 3478.62  244.47   1-0.80375-0.76822-0.59331-0.15407 0.04433 0.62135
  -5   5   5 3494.44  270.88   1 0.10599-0.27194-0.99178-0.80924-0.07155 0.52073
  -5  -5   5 2999.45  236.50   1 0.10404 0.14028-0.95836-0.51944 0.26590 0.84290
   5  -5  -4 5218.02  339.91   1 0.09026 0.43147 0.96182 0.83363 0.25836-0.34478
   5   5  -4 5266.25  338.12   1 0.05327-0.02055 0.97389 0.59011-0.22065-0.80705
   5   5  -4 6105.66  324.80   1-0.75427-0.82647 0.65036 0.26552 0.09003-0.49642
   5  -5  -4 4896.72  277.24   1-0.80134-0.45879 0.57484 0.44644-0.16554-0.76824
  -5  -5   4 5346.56  320.11   1-0.80400-0.73409-0.59164-0.20759 0.05950 0.64653
  -5   5   4 5723.61  325.13   1 0.10479-0.23860-0.98391-0.85657-0.14468 0.45754
  -5  -5   4 5729.93  335.44   1 0.10539 0.17619-0.97394-0.59021 0.20082 0.78777
   5   5  -3  500.52  119.64   1 0.05929-0.04890 0.98602 0.65747-0.15567-0.75189
   5   5  -3  536.89  113.59   1-0.73038-0.83684 0.66336 0.33396 0.16275-0.43377
   5  -5  -3  557.74  101.11   1-0.79233-0.48434 0.60449 0.53120-0.08244-0.69514
  -5  -5   3  439.05  113.11   1-0.80405-0.69976-0.59069-0.26183 0.06760 0.66465
  -5  -5   3  398.71  159.28   1 0.10636 0.21179-0.98631-0.65773 0.12597 0.72285
   5  -5  -2 2718.14  252.81   1 0.09720 0.37003 0.91665 0.89879 0.38769-0.23505
   5   5  -2 2466.08  233.79   1 0.06567-0.07678 0.99440 0.72099-0.08268-0.68866
   5   5  -2 2264.44  200.77   1-0.69967-0.84069 0.67290 0.39883 0.24013-0.36628
   5  -5  -2 2423.10  187.15   1-0.77442-0.50095 0.63253 0.61456 0.01324-0.60938
  -5  -5   2 2703.73  230.13   1-0.80406-0.66538-0.59054-0.31687 0.06884 0.67590
  -5  -5   2 2419.09  210.72   1 0.10671 0.24669-0.99341-0.72003 0.04178 0.64860
   5  -5  -133688.32  810.79   1 0.10010 0.33849 0.88621 0.92354 0.45233-0.18021
   5   5  -134156.26  919.47   1 0.07224-0.10459 0.99738 0.77917-0.00222-0.61801
   5   5  -131560.85  759.78   1-0.66191-0.83750 0.67784 0.45910 0.31998-0.29632
   5  -5  -130944.10  904.18   1-0.74507-0.50621 0.65614 0.69341 0.11977-0.51275
  -5  -5   133351.72  829.86   1 0.10623 0.28075-0.99306-0.77489-0.05043 0.56631
   5  -5   034263.27  852.81   1 0.10251 0.30643 0.85074 0.94339 0.51548-0.12688
   5   5   035497.37  926.14   1 0.07877-0.13253 0.99333 0.83024 0.08411-0.54141
   5   5   033412.91  887.47   1-0.61732-0.82748 0.67737 0.51395 0.40009-0.22610
   5  -5   036037.58  829.31   1-0.70235-0.49780 0.67230 0.76511 0.23389-0.40840
  -5  -5   038798.72  854.84   1-0.80388-0.59644-0.59258-0.42928 0.05111 0.67820
  -5  -5   034694.51  758.69   1 0.10471 0.31377-0.98333-0.82037-0.14864 0.47805
   5  -5   1 3137.23  247.19   1 0.10439 0.27410 0.81080 0.95867 0.57593-0.07620
   5   5   1 2961.39  247.29   1 0.08504-0.16058 0.98091 0.87301 0.17485-0.46049
   5  -5   1 2823.84  231.51   1-0.64554-0.47556 0.67833 0.82647 0.35088-0.30129
  -5  -5  -1 3179.39  226.66   1-0.80341-0.56159-0.59454-0.48643 0.03221 0.66932
   5  -5   2 3811.12  280.79   1 0.10571 0.24098 0.76702 0.97009 0.63285-0.02907
   5   5   2 4317.29  359.45   1 0.09081-0.18924 0.95920 0.90650 0.26772-0.37741
  -5  -5  -2 3747.04  253.40   1-0.80232-0.52611-0.59685-0.54393 0.00658 0.65371
   5  -5   335024.46  928.62   1 0.10648 0.20715 0.71993 0.97820 0.68582 0.01414
   5   5   334617.63  902.01   1 0.09585-0.21816 0.92790 0.93025 0.36029-0.29501
  -5  -5  -330467.80  766.36   1-0.80017-0.48950-0.59921-0.60148-0.02578 0.63134
   5  -5   4 8130.76  453.57   1 0.10671 0.17293 0.67004 0.98349 0.73461 0.05318
   5   5   4 8483.95  500.02   1 0.10003-0.24842 0.88706 0.94461 0.45067-0.21444
  -5  -5  -4 6324.68  447.72   1-0.79641-0.45137-0.60122-0.65869-0.06515 0.60198
   5  -5   558528.30 1139.96   1 0.10644 0.13820 0.61785 0.98649 0.77905 0.08787
   5   5   559419.40 1262.99   1 0.10323-0.27969 0.83726 0.95012 0.53695-0.13794
  -5  -5  -553845.73 1010.67   1-0.79035-0.41093-0.60238-0.71504-0.11161 0.56554
   5  -5   561474.40 1366.20   1 0.07049 0.10064 0.62238 0.99099 0.77952 0.08826
   5  -5   619795.36  648.20   1 0.10568 0.10299 0.56380 0.98763 0.81911 0.11818
   5   5   618656.97  619.85   1 0.10540-0.31170 0.77971 0.94777 0.61720-0.06759
  -5  -5  -616921.22  611.06   1-0.78112-0.36733-0.60207-0.76992-0.16536 0.52180
   5  -5   614958.99  760.50   1 0.06476 0.06040 0.56714 0.99091 0.82106 0.12017
   5  -5   7 7691.51  394.74   1 0.10447 0.06733 0.50824 0.98725 0.85484 0.14417
   5   5   7 7553.88  466.91   1 0.10652-0.34515 0.71543 0.93853 0.69051-0.00382
  -5  -5  -7 6904.94  383.74   1-0.76760-0.31943-0.59949-0.82254-0.22666 0.47051
  -5   5  -7 8529.62  407.37   1-0.06040-0.02680-0.50952-0.98871-0.85833-0.14737
   5  -5   7 6387.51  538.08   1 0.05880 0.01992 0.50991 0.98883 0.85821 0.14768
   5   5   8 8289.51  460.03   1 0.10664-0.37948 0.64543 0.92372 0.75633 0.05224
  -5   5  -8 8254.57  736.26   1-0.10285-0.03426-0.45212-0.98582-0.88600-0.16424
  -5   5  -8 9456.33  422.68   1-0.08154-0.01365-0.45125-0.98570-0.88866-0.16790
   5  -5   8 6987.27  462.85   1 0.05265-0.02074 0.45100 0.98508 0.89096 0.17080
   5   5   8 7668.81  460.33   1 0.07111-0.41624 0.62848 0.90644 0.77456 0.07138
   5   6 -1014010.68  546.39   1 0.02860 0.11921 0.88975 0.14917-0.45553-0.98159
   5   6 -10 9975.44  592.95   1-0.80102-0.70801 0.57654-0.16520-0.16113-0.68660
   5  -6 -1013183.33  454.53   1-0.78442-0.19334 0.44078 0.00761-0.43633-0.98110
  -5   6  1012415.71  561.97   1 0.10629-0.48577-0.98536-0.55243 0.13325 0.67737
  -5  -6  1014446.61  612.69   1 0.09662 0.00189-0.88030-0.14003 0.46445 0.99014
   5   6  -9  204.67  123.12   1 0.03071 0.08699 0.89884 0.21351-0.43719-0.97306
   5   6  -9  217.54  104.41   1-0.79826-0.73975 0.58805-0.09836-0.13023-0.66564
   5  -6  -9  437.08  101.71   1-0.78861-0.23195 0.45359 0.07568-0.41513-0.96977
  -5  -6   9  250.64  147.40   1-0.79962-0.85993-0.59961 0.08602-0.03245 0.50310
  -5   6   9  299.54  132.91   1 0.10657-0.45095-0.98969-0.61197 0.09565 0.64971
  -5  -6   9  279.75  155.88   1 0.09773 0.03756-0.89164-0.20657 0.44206 0.97771
   5  -6  -8 5603.62  351.59   1 0.08163 0.60191 0.98887 0.66548 0.12431-0.44139
   5   6  -8 4908.31  400.96   1 0.03347 0.05542 0.91026 0.28017-0.41267-0.95834
   5   6  -8 5768.84  351.00   1-0.79378-0.76949 0.60109-0.03039-0.09272-0.63793
   5  -6  -8 5110.32  350.03   1-0.79339-0.27116 0.47013 0.14747-0.38664-0.95116
  -5  -6   8 5184.56  315.23   1-0.80264-0.82875-0.59631 0.03409 0.01301 0.55857
  -5   6   8 5697.62  343.74   1 0.10671-0.41627-0.99302-0.67050 0.05010 0.61410
  -5  -6   8 5693.65  330.57   1 0.09906 0.07346-0.90538-0.27551 0.41287 0.95848
   5  -6  -7 6316.74  427.49   1 0.08468 0.57063 0.98192 0.71372 0.16929-0.40616
   5   6  -7 7018.22  377.01   1 0.03692 0.02453 0.92367 0.34883-0.38138-0.93686
   5   6  -7 4105.91  377.66   1-0.78673-0.79697 0.61545 0.03928-0.04760-0.60273
   5  -6  -7 5896.72  521.51   1-0.79820-0.31074 0.49036 0.22154-0.34987-0.92431
  -5  -6   7 7663.57  395.34   1-0.80386-0.79559-0.59270-0.01748 0.05000 0.60558
  -5   6   7 7133.53  364.65   1 0.10659-0.38185-0.99429-0.72698-0.00326 0.57067
  -5  -6   7 6965.75  655.68   1 0.10057 0.10919-0.92110-0.34626 0.37610 0.93176
   5  -6  -641164.03 1079.27   1 0.08792 0.53945 0.97157 0.75857 0.21979-0.36545
   5   6  -642670.10  967.82   1 0.04104-0.00560 0.93847 0.41877-0.34290-0.90807
   5   6  -632252.94 1138.81   1-0.77631-0.82107 0.63032 0.10947 0.00483-0.56022
   5  -6  -641863.86  958.46   1-0.80220-0.34922 0.51443 0.30095-0.30301-0.88739
  -5  -6   641106.86  875.76   1-0.80404-0.76138-0.58929-0.06926 0.07899 0.64458
  -5   6   638608.08  926.99   1 0.10608-0.34782-0.99229-0.78019-0.06396 0.51991
  -5  -6   641943.73  937.56   1 0.10218 0.14535-0.93810-0.41847 0.33092 0.89652
   5  -6  -5 1457.63  188.31   1 0.09121 0.50832 0.95718 0.79937 0.27472-0.32031
   5   6  -5 1570.95  236.84   1 0.04585-0.03514 0.95399 0.48952-0.29630-0.87128
   5   6  -5 1627.58  157.88   1-0.76167-0.84079 0.64478 0.17902 0.06401-0.51090
   5  -6  -5 1338.11  153.99   1-0.80405-0.38554 0.54180 0.38366-0.24481-0.83914
  -5  -6   5 1644.72  178.04   1-0.80373-0.72669-0.58643-0.12159 0.10051 0.67611
  -5   6   5 1556.58  174.72   1 0.10506-0.31430-0.98579-0.82889-0.13106 0.46275
  -5  -6   5 1585.33  197.12   1 0.10377 0.18150-0.95538-0.49094 0.27652 0.85207
   5  -6  -411038.91  498.35   1 0.09444 0.47739 0.93817 0.83558 0.33303-0.27183
   5   6  -411940.16  510.20   1 0.05128-0.06405 0.96905 0.55974-0.24144-0.82618
   5   6  -411126.75  477.36   1-0.74176-0.85543 0.65796 0.24751 0.12989-0.45493
   5  -6  -410918.53  427.09   1-0.80190-0.41786 0.57156 0.46873-0.17395-0.77824
  -5  -6   411620.26  436.98   1-0.80332-0.69196-0.58439-0.17496 0.11471 0.70040
  -5  -6   410594.79  458.79   1 0.10518 0.21741-0.97147-0.56209 0.21255 0.79798
   5  -6  -3 1113.26  155.60   1 0.09744 0.44617 0.91448 0.86700 0.39271-0.22187
   5   6  -3 1024.14  185.41   1 0.05727-0.09243 0.98237 0.62829-0.17791-0.77246
   5   6  -3  774.57  163.25   1-0.71597-0.86390 0.66861 0.31360 0.20081-0.39410
   5  -6  -3 1069.98  130.36   1-0.79335-0.44388 0.60212 0.55444-0.08964-0.70396
  -5  -6   3 1028.71  174.52   1-0.80303-0.65728-0.58324-0.22900 0.12231 0.71800
  -5  -6   3 1177.29  192.15   1 0.10624 0.25311-0.98465-0.63042 0.13847 0.73382
   5  -6  -2 3960.95  286.52   1 0.10011 0.41441 0.88602 0.89374 0.45269-0.17170
   5   6  -2 3966.83  295.42   1 0.06366-0.12028 0.99230 0.69334-0.10617-0.71049
   5   6  -2 3174.57  228.72   1-0.68366-0.86616 0.67573 0.37604 0.27564-0.32916
   5  -6  -2 3792.54  245.49   1-0.77560-0.46065 0.63117 0.63880 0.00803-0.61621
  -5  -6   2 3623.17  299.29   1-0.80299-0.62285-0.58310-0.28403 0.12326 0.72895
  -5  -6   2 4116.05  305.13   1 0.10671 0.28811-0.99278-0.69376 0.05477 0.66006
   5  -6  -1 3144.99  277.59   1 0.10239 0.38221 0.85290 0.91594 0.51191-0.12230
   5   6  -1 2983.78  260.31   1 0.07030-0.14802 0.99717 0.75341-0.02654-0.64066
   5   6  -1 2492.75  251.18   1-0.64479-0.86185 0.67834 0.43397 0.35226-0.26243
   5  -6  -1 2896.78  304.16   1-0.74580-0.46546 0.65572 0.71861 0.11751-0.51665
  -5  -6   1 3273.46  236.36   1-0.80321-0.58869-0.58395-0.34007 0.11766 0.73334
  -5  -6   1 2936.00  217.55   1 0.10635 0.32230-0.99362-0.74981-0.03738 0.57784
   5  -6   0 6713.06  393.28   1 0.10420 0.34981 0.81557 0.93382 0.56919-0.07478
   5   6   0 6434.38  372.11   1 0.07697-0.17582 0.99525 0.80659 0.05949-0.56434
   5  -6   0 6205.21  389.84   1-0.70170-0.45567 0.67245 0.79088 0.23542-0.40847
  -5  -6   0 6882.49  406.35   1-0.80360-0.55464-0.58570-0.39679 0.10570 0.73138
  -5  -6   0 6470.71  358.00   1 0.10497 0.35545-0.98512-0.79651-0.13607 0.48909
   5  -6   1  383.18  145.28   1 0.10553 0.31670 0.77459 0.94804 0.62359-0.03016
   5   6   1  113.93  127.39   1 0.08343-0.20367 0.98505 0.85159 0.15065-0.48302
   5  -6   1  130.53  121.75   1-0.64235-0.43089 0.67833 0.85209 0.35670-0.29708
  -5  -6  -1  382.61  132.00   1-0.80397-0.52063-0.58826-0.45454 0.08702 0.72272
   5  -6   213160.59  561.52   1 0.10636 0.28293 0.73039 0.95907 0.67468 0.01113
   5   6   213420.24  583.08   1 0.08944-0.23208 0.96546 0.88719 0.24468-0.39877
  -5  -6  -213040.49  469.52   1-0.80402-0.48629-0.59138-0.51285 0.06174 0.70745
   5  -6   3 8211.10  407.17   1 0.10670 0.24882 0.68345 0.96731 0.72215 0.04884
   5   6   3 7819.80  514.33   1 0.09476-0.26101 0.93593 0.91270 0.33917-0.31439
  -5  -6  -3 9325.00  401.34   1-0.80333-0.45122-0.59478-0.57143 0.02972 0.68545
   5  -6   411683.80  483.80   1 0.10657 0.21425 0.63422 0.97327 0.76576 0.08270
   5   6   410703.70  584.23   1 0.09923-0.29069 0.89641 0.92838 0.43196-0.23150
  -5  -6  -411342.02  459.02   1-0.80138-0.41481-0.59807-0.62993-0.00913 0.65658
   5  -6   412520.19  495.47   1 0.07247 0.17853 0.64157 0.98065 0.76362 0.08029
   5  -6   5 9200.83  419.28   1 0.10600 0.17922 0.58310 0.97733 0.80544 0.11263
   5   6   5 9674.65  490.18   1 0.10271-0.32168 0.84726 0.93454 0.52114-0.15211
  -5  -6  -5 9587.95  411.97   1-0.79748-0.37654-0.60080-0.68785-0.05519 0.62053
   5  -6   5 9242.97  464.32   1 0.06711 0.13866 0.58978 0.98400 0.80476 0.11181
   5  -6   611130.22  507.41   1 0.10500 0.14377 0.53043 0.97985 0.84119 0.13863
   5   6   611340.65  506.81   1 0.10511-0.35345 0.78965 0.93213 0.60447-0.07869
  -5  -6  -611305.68  446.35   1-0.79079-0.33547-0.60235-0.74459-0.10866 0.57708
  -5   6  -612594.90  440.22   1-0.05023-0.09244-0.53641-0.98585-0.84245-0.13980
   5  -6   611826.47  551.99   1 0.06152 0.09855 0.53593 0.98531 0.84201 0.13942
   5   6   7 1626.84  203.56   1 0.10643-0.38670 0.72461 0.92212 0.68088-0.01181
  -5   6  -7 1661.89  218.30   1-0.10361-0.11088-0.47694-0.98096-0.87280-0.15941
  -5  -6  -7 1293.52  211.64   1-0.78023-0.29054-0.60196-0.79940-0.16989 0.52586
  -5   6  -7 1785.64  161.91   1-0.07169-0.07961-0.47878-0.98348-0.87499-0.16255
   5  -6   7 1644.99  222.48   1 0.05572 0.05823 0.48036 0.98489 0.87529 0.16307
   5   6   819021.65  752.05   1 0.10668-0.42090 0.65317 0.90587 0.74965 0.04719
  -5   6  -823872.62  662.48   1-0.09188-0.06550-0.42154-0.98150-0.90213-0.17990
   5  -6   820703.78  626.44   1 0.04974 0.01774 0.42331 0.98299 0.90461 0.18276
   5   6   817692.76  791.75   1 0.07174-0.45701 0.63449 0.88684 0.76959 0.06810
   5   7  -9  562.49  128.25   1 0.02947 0.04424 0.89357 0.18273-0.44795-0.98216
   5   7  -9  293.82  127.77   1-0.79309-0.77576 0.60274-0.10966-0.08776-0.62142
   5  -7  -9  335.77   92.49   1-0.78753-0.18939 0.45017 0.09784-0.42086-0.97701
  -5  -7   9  316.33  120.79   1-0.80309-0.82207-0.59538 0.11582 0.02335 0.55748
  -5   7   9  376.54  142.11   1 0.10670-0.49225-0.99375-0.64167 0.03257 0.58816
  -5  -7   9  294.15  142.56   1 0.09751 0.07876-0.88937-0.17865 0.44665 0.98075
   5   7  -8 1449.08  192.31   1 0.03217 0.01259 0.90494 0.24934-0.42431-0.96833
   5  -7  -8 1307.33  163.78   1-0.79248-0.22876 0.46676 0.16969-0.39254-0.95857
  -5  -7   8 1573.64  206.29   1-0.80405-0.78864-0.59074 0.06528 0.06722 0.61137
  -5   7   8  980.74  217.96   1 0.10653-0.45788-0.99420-0.69733-0.01411 0.55141
  -5  -7   8 1428.12  185.47   1 0.09884 0.11466-0.90304-0.24752 0.41801 0.96207
   5  -7  -7  540.55  128.01   1 0.09028 0.61771 0.96170 0.71907 0.25877-0.31836
   5   7  -7  619.25  156.08   1 0.03554-0.01837 0.91839 0.31804-0.39407-0.94789
   5   7  -7  495.72  117.36   1-0.77819-0.82991 0.62801 0.02624-0.00377-0.55727
   5  -7  -7  530.55  100.47   1-0.79752-0.26856 0.48716 0.24390-0.35584-0.93187
  -5  -7   7  456.01  130.70   1-0.80368-0.75388-0.58613 0.01470 0.10267 0.65683
  -5   7   7  690.44  170.40   1 0.10603-0.42384-0.99202-0.75035-0.06820 0.50726
  -5  -7   7  572.14  140.67   1 0.10035 0.15039-0.91875-0.31825 0.38186 0.93599
   5  -7  -6  544.84  161.27   1 0.09300 0.58631 0.94735 0.75995 0.30638-0.28053
   5   7  -6  420.72  122.68   1 0.03956-0.04858 0.93333 0.38811-0.35682-0.92033
   5   7  -6  602.74  115.89   1-0.76586-0.85190 0.64118 0.09448 0.04826-0.51510
   5  -7  -6  649.25  117.66   1-0.80182-0.30733 0.51150 0.32358-0.30892-0.89489
  -5  -7   6  519.89  114.67   1-0.80268-0.71860-0.58202-0.03661 0.13017 0.69445
  -5   7   6  458.02  118.37   1 0.10510-0.39023-0.98606-0.79960-0.12896 0.45644
  -5  -7   6  506.47  128.11   1 0.10196 0.18656-0.93581-0.39052 0.33741 0.90149
   5  -7  -522688.95  779.98   1 0.09569 0.55477 0.92910 0.79680 0.35721-0.23941
   5   7  -526009.19  868.16   1 0.04429-0.07820 0.94919 0.45920-0.31156-0.88488
   5   7  -525985.37  774.94   1-0.74908-0.86967 0.65375 0.16237 0.10712-0.46616
   5  -7  -524270.21  717.48   1-0.80402-0.34400 0.53929 0.40672-0.25039-0.84630
  -5  -7   526075.64  733.26   1-0.80152-0.68305-0.57865-0.08842 0.15071 0.72499
  -5  -7   522911.30  698.28   1 0.10357 0.22273-0.95327-0.46318 0.28379 0.85781
   5  -7  -460129.78 1428.51   1 0.09826 0.52290 0.90662 0.82952 0.41032-0.19610
   5   7  -463522.02 1471.38   1 0.04967-0.10718 0.96486 0.53011-0.25799-0.84112
   5   7  -461373.17 1389.58   1-0.72720-0.88204 0.66465 0.22869 0.17146-0.41194
   5  -7  -454536.71 1364.58   1-0.80220-0.37666 0.56967 0.49242-0.17873-0.78462
  -5  -7   460720.09 1281.64   1-0.80055-0.64769-0.57625-0.14121 0.16441 0.74869
  -5  -7   465297.21 1430.95   1 0.10503 0.25868-0.96969-0.53466 0.22059 0.80449
   5  -7  -312573.44  540.84   1 0.10060 0.49077 0.87977 0.85798 0.46462-0.15164
   5   7  -311412.48  554.08   1 0.05559-0.13560 0.97902 0.59941-0.19598-0.78886
   5   7  -311766.92  483.09   1-0.69948-0.88888 0.67294 0.29230 0.24055-0.35275
   5  -7  -311973.14  489.53   1-0.79381-0.40285 0.60101 0.57893-0.09295-0.70889
  -5  -7   312032.97  446.75   1-0.79999-0.61273-0.57496-0.19510 0.17154 0.76582
  -5  -7   312349.12  462.49   1 0.10615 0.29435-0.98340-0.60357 0.14712 0.74098
   5  -7  -282194.44 1564.26   1 0.10262 0.45835 0.84883 0.88224 0.51860-0.10746
   5   7  -285218.89 1632.72   1 0.06199-0.16357 0.99018 0.66578-0.12529-0.72798
   5   7  -277441.25 1527.71   1-0.66566-0.88963 0.67760 0.35229 0.31262-0.29057
   5  -7  -275958.46 1381.10   1-0.77583-0.41940 0.63089 0.66413 0.00697-0.61889
  -5  -7   280032.05 1405.81   1-0.79993-0.57828-0.57483-0.25015 0.17225 0.77653
  -5  -7   283831.50 1483.71   1 0.10669 0.32953-0.99223-0.66757 0.06388 0.66764
   5  -7  -1 1471.05  182.68   1 0.10427 0.42578 0.81389 0.90254 0.57157-0.06424
   5   7  -1 1756.66  193.09   1 0.06866-0.19116 0.99654 0.72723-0.04677-0.65923
   5   7  -1 1618.74  199.46   1-0.62576-0.88430 0.67788 0.40788 0.38586-0.22722
   5  -7  -1 1293.87  239.41   1-0.74509-0.42328 0.65612 0.74463 0.11971-0.51608
  -5  -7   1 1450.18  156.45   1-0.80038-0.54435-0.57586-0.30636 0.16663 0.78091
  -5  -7   1 1396.18  175.16   1 0.10643 0.36381-0.99391-0.72446-0.02821 0.58548
   5  -7   020881.03  746.50   1 0.10550 0.39258 0.77558 0.91942 0.62236-0.02324
   5   7   023322.54  721.63   1 0.07541-0.21885 0.99639 0.78217 0.03880-0.58336
   5  -7   020124.74  693.91   1-0.69896-0.41147 0.67305 0.81711 0.24175-0.40375
  -5  -7   022295.77  637.44   1-0.80126-0.51083-0.57797-0.36366 0.15469 0.77897
  -5  -7   021541.69  645.13   1 0.10513 0.39705-0.98627-0.77202-0.12732 0.49631
   5  -7   1 5116.74  345.08   1 0.10631 0.35894 0.73420 0.93323 0.67055 0.01516
   5   7   1 4300.86  357.95   1 0.08203-0.24665 0.98809 0.82906 0.13013-0.50181
   5  -7   1 4425.85  330.52   1-0.63624-0.38332 0.67825 0.87764 0.36763-0.28777
  -5  -7  -1 4885.89  275.30   1-0.80236-0.47755-0.58103-0.42190 0.13639 0.77067
   5  -7   2 8474.22  452.70   1 0.10668 0.32471 0.69019 0.94446 0.71571 0.05052
   5   7   2 7962.66  431.90   1 0.08824-0.27476 0.97034 0.86650 0.22503-0.41674
  -5  -7  -2 7457.33  364.55   1-0.80342-0.44417-0.58482-0.48068 0.11177 0.75607
   5  -7   317842.70  671.88   1 0.10663 0.29021 0.64393 0.95338 0.75761 0.08267
   5   7   318030.26  756.08   1 0.09380-0.30344 0.94239 0.89357 0.32108-0.33082
  -5  -7  -318457.73  593.05   1-0.80403-0.41040-0.58911-0.54016 0.08038 0.73470
   5  -7   317940.12  643.84   1 0.07376 0.25574 0.65411 0.96364 0.75279 0.07739
   5  -7   419398.91  603.21   1 0.10618 0.25531 0.59578 0.96042 0.79609 0.11140
   5   7   418412.29  783.50   1 0.09852-0.33286 0.90398 0.91038 0.41604-0.24577
  -5  -7  -416970.49  569.18   1-0.80370-0.37568-0.59353-0.59977 0.04216 0.70649
   5  -7   420598.41  648.49   1 0.06876 0.21622 0.60570 0.97038 0.79271 0.10768
   5  -7   573373.68 1215.77   1 0.10534 0.22001 0.54605 0.96587 0.83109 0.13665
   5   7   570784.80 1432.95   1 0.10225-0.36361 0.85534 0.91704 0.50786-0.16374
  -5  -7  -573109.95 1105.34   1-0.80176-0.33929-0.59763-0.65907-0.00312 0.67119
   5  -7   621150.58  721.50   1 0.10412 0.18434 0.49500 0.97000 0.86263 0.15843
   5   7   619620.99  794.77   1 0.10486-0.39516 0.79754 0.91443 0.59408-0.08745
  -5  -7  -620863.77  698.70   1-0.79741-0.30056-0.60083-0.71747-0.05592 0.62840
  -5   7  -618534.53  736.46   1-0.06344-0.14716-0.50134-0.97628-0.86291-0.15878
   5  -7   621230.46  733.31   1 0.05808 0.13651 0.50295 0.97794 0.86235 0.15807
   5   7   7 2643.73  270.27   1 0.10634-0.42824 0.73156 0.90349 0.67342-0.01764
  -5   7  -7 3184.33  256.58   1-0.10256-0.15134-0.44319-0.97275-0.89053-0.17561
  -5  -7  -7 2461.82  303.03   1-0.78960-0.25837-0.60243-0.77426-0.11663 0.57771
  -5   7  -7 3097.05  248.12   1-0.08380-0.13323-0.44481-0.97501-0.89169-0.17776
   5  -7   7 2627.66  306.85   1 0.05245 0.09636 0.44915 0.97930 0.89191 0.17799
   5   8  -9  128.23  145.68   1 0.02859 0.00183 0.88972 0.15337-0.45559-0.98816
   5   8  -9  -40.81   97.04   1-0.78573-0.80988 0.61714-0.12086-0.04197-0.57400
   5  -8  -9   60.06  108.51   1-0.78694-0.14731 0.44833 0.12158-0.42392-0.98158
  -5  -8   9  -30.08  125.12   1-0.80406-0.78151-0.58996 0.14685 0.07363 0.60635
  -5  -8   9  106.67  123.74   1 0.09742 0.12009-0.88846-0.15207 0.44848 0.98104
   5   8  -8 5515.24  315.98   1 0.03122-0.02986 0.90100 0.21989-0.43269-0.97506
   5   8  -8 4712.18  289.88   1-0.77802-0.83670 0.62822-0.05445-0.00298-0.54494
   5  -8  -8 5041.25  377.55   1-0.79199-0.18678 0.46501 0.19351-0.39561-0.96315
  -5  -8   8 6053.71  353.41   1-0.80329-0.74648-0.58429 0.09710 0.11539 0.65827
  -5   8   8 4355.96  416.23   1 0.10581-0.50003-0.99073-0.71951-0.08511 0.48194
  -5  -8   8 5654.98  325.42   1 0.09874 0.15598-0.90202-0.22084 0.42024 0.96275
   5   8  -7 2000.97  248.28   1 0.03451-0.06091 0.91439 0.28853-0.40335-0.95552
   5   8  -7 1513.41  189.56   1-0.76740-0.86035 0.63976 0.01213 0.04227-0.50954
   5  -8  -7 1772.52  182.25   1-0.79717-0.22671 0.48557 0.26788-0.35878-0.93639
  -5  -8   7 2055.13  208.04   1-0.80161-0.71041-0.57889 0.04731 0.14930 0.70218
  -5   8   7 1822.45  241.77   1 0.10490-0.46640-0.98468-0.76866-0.13925 0.43774
  -5  -8   7 2122.90  221.45   1 0.10024 0.19171-0.91764-0.29148 0.38455 0.93716
   5  -8  -6  218.88  122.25   1 0.09766 0.63264 0.91242 0.75050 0.39741-0.19104
   5   8  -6  132.13  102.74   1 0.03846-0.09120 0.92935 0.35861-0.36717-0.92902
   5   8  -6   89.41   81.56   1-0.75299-0.88050 0.65123 0.07891 0.09431-0.46742
   5  -8  -6  199.21   78.24   1-0.80164-0.26565 0.51017 0.34782-0.31157-0.89913
  -5  -8   6   68.78  116.45   1-0.79963-0.67404-0.57417-0.00314 0.17580 0.73868
  -5  -8   6  275.93  152.61   1 0.10185 0.22787-0.93465-0.36370 0.34065 0.90321
   5  -8  -5 7708.74  454.57   1 0.09968 0.60022 0.89122 0.78450 0.44246-0.15580
   5   8  -5 7995.82  413.96   1 0.04310-0.12090 0.94538 0.42987-0.32309-0.89475
   5   8  -5 5646.03  665.25   1-0.73421-0.89595 0.66168 0.14477 0.15202-0.41989
   5  -8  -5 7739.66  329.26   1-0.80400-0.30248 0.53836 0.43135-0.25246-0.84996
  -5  -8   5 6849.54  339.61   1-0.79778-0.63779-0.57040-0.05456 0.19538 0.76826
  -5  -8   5 7577.52  363.21   1 0.10347 0.26405-0.95213-0.43638 0.28764 0.86014
   5  -8  -4  171.12  121.56   1 0.10157 0.56765 0.86608 0.81467 0.48947-0.11864
   5   8  -4  204.34  108.47   1 0.04840-0.14996 0.96141 0.50113-0.27079-0.85227
   5   8  -4  139.98  123.53   1-0.71026-0.90657 0.67029 0.20871 0.21498-0.36682
   5  -8  -4  223.88   87.24   1-0.80225-0.33522 0.56928 0.51761-0.17971-0.78721
  -5  -8   4  195.37  119.43   1-0.79637-0.60199-0.56776-0.10710 0.20840 0.79128
  -5  -8   4  182.83  119.84   1 0.10494 0.30002-0.96868-0.50799 0.22503 0.80741
   5  -8  -3  350.03  132.23   1 0.10323 0.53487 0.83725 0.84104 0.53698-0.08093
   5   8  -3  556.18  172.75   1 0.05427-0.17843 0.97617 0.57102-0.21008-0.80130
   5   8  -3  559.99  144.50   1-0.68078-0.91165 0.67612 0.26986 0.28176-0.30993
   5  -8  -3  561.88  125.40   1-0.79370-0.36126 0.60128 0.60480-0.09214-0.70971
  -5  -8   3  484.38  103.22   1-0.79558-0.56682-0.56636-0.16088 0.21509 0.80797
  -5  -8   3  562.38  122.11   1 0.10609 0.33572-0.98265-0.57717 0.15209 0.74442
   5  -8  -2 2233.60  237.13   1 0.10462 0.50202 0.80474 0.86376 0.58433-0.04332
   5   8  -2 1795.46  221.98   1 0.06064-0.20643 0.98821 0.63828-0.14057-0.74160
   5   8  -2 1864.32  186.46   1-0.64557-0.91100 0.67833 0.32740 0.35084-0.25074
   5  -8  -2 1929.36  179.73   1-0.77506-0.37714 0.63179 0.69063 0.01042-0.61707
  -5  -8   2 1977.19  179.91   1-0.79552-0.53236-0.56625-0.21596 0.21562 0.81849
  -5  -8   2 2957.63  239.23   1 0.10668 0.37095-0.99188-0.64157 0.06916 0.67139
   5  -8  -159548.83 1430.77   1 0.10566 0.46864 0.76913 0.88336 0.63028-0.00716
   5   8  -162624.74 1416.77   1 0.06732-0.23399 0.99573 0.70087-0.06301-0.67380
   5  -8  -157104.15 1309.74   1-0.74277-0.37949 0.65741 0.77154 0.12684-0.51058
  -5  -8   160105.32 1367.80   1-0.79618-0.49863-0.56742-0.27231 0.21005 0.82292
  -5  -8   158066.34 1306.39   1 0.10647 0.40528-0.99405-0.69894-0.02291 0.58925
   5  -8   0 2513.87  269.82   1 0.10635 0.43474 0.73066 0.90014 0.67440 0.02708
   5   8   0 3571.53  270.27   1 0.07413-0.26161 0.99700 0.75721 0.02200-0.59848
   5  -8   0 2836.22  240.14   1-0.69379-0.36483 0.67408 0.84376 0.25348-0.39364
  -5  -8   0 2985.55  216.23   1-0.79747-0.46553-0.56981-0.32988 0.19837 0.82125
  -5  -8   0 3036.94  241.24   1 0.10522 0.43857-0.98688-0.74698-0.12244 0.49966
   5  -8   129443.08  873.37   1 0.10668 0.40062 0.68966 0.91433 0.71623 0.05915
   5   8   128821.00  941.48   1 0.08086-0.28930 0.99026 0.80565 0.11334-0.51692
   5  -8   127012.72  959.63   1-0.62664-0.33224 0.67792 0.90293 0.38437-0.27264
  -5  -8  -128006.46  748.36   1-0.79921-0.43288-0.57328-0.38854 0.18054 0.81341
   5  -8   2 9064.77  458.50   1 0.10665 0.36613 0.64647 0.92633 0.75544 0.08861
   5   8   2 9738.89  500.58   1 0.08723-0.31724 0.97404 0.84463 0.20888-0.43122
  -5  -8  -211435.58  473.62   1-0.80114-0.40042-0.57767-0.44811 0.15641 0.79928
   5  -8   2 9416.34  428.88   1 0.07434 0.33223 0.65978 0.93976 0.74776 0.08031
   5  -8   3 3764.91  310.30   1 0.10625 0.33128 0.60142 0.93646 0.79183 0.11525
   5   8   3 3595.05  310.41   1 0.09299-0.34572 0.94740 0.87300 0.30623-0.34401
  -5  -8  -3 2890.02  255.26   1-0.80288-0.36777-0.58271-0.50833 0.12580 0.77867
   5  -8   3 3356.30  259.84   1 0.06970 0.29307 0.61477 0.94990 0.78561 0.10853
   5  -8   4  100.43  141.33   1 0.10551 0.29609 0.55476 0.94499 0.82528 0.13895
   5   8   4   83.11  129.23   1 0.09793-0.37492 0.90989 0.89070 0.40312-0.25705
  -5  -8  -4  148.73  130.21   1-0.80395-0.33442-0.58805-0.56867 0.08859 0.75151
   5  -8   4   39.46  128.84   1 0.06482 0.25367 0.56767 0.95796 0.82069 0.13397
   5  -8   523504.85  776.77   1 0.10443 0.26056 0.50675 0.95216 0.85574 0.15966
   5   8   524228.27  950.82   1 0.10187-0.40546 0.86154 0.89766 0.49735-0.17261
  -5  -8  -523260.84  732.14   1-0.80374-0.29983-0.59332-0.62913 0.04420 0.71714
  -5   8  -522246.89  693.80   1-0.05712-0.21665-0.51827-0.96346-0.85330-0.15748
   5  -8   521712.01  731.98   1 0.05973 0.21407 0.51875 0.96420 0.85283 0.15647
   5   8   6  697.06  161.82   1 0.10466-0.43682 0.80333 0.89465 0.58625-0.09365
  -5  -8  -6 1034.19  156.69   1-0.80148-0.26311-0.59796-0.68900-0.00759 0.67531
   5  -8   6  742.31  144.77   1 0.05445 0.17427 0.46825 0.96885 0.88191 0.17592
   5   8   7 8617.83  489.18   1 0.10628-0.46964 0.73608 0.88259 0.66849-0.02120
  -5   8  -7 8276.08  662.62   1-0.10132-0.19160-0.40758-0.96269-0.90752-0.19107
  -5  -8  -7 7488.42  504.47   1-0.79616-0.22341-0.60131-0.74753-0.06740 0.62551
  -5   8  -7 9743.79  430.89   1-0.09669-0.18764-0.40745-0.96315-0.90809-0.19268
   5   9  -814433.43  631.94   1 0.03061-0.07199 0.89842 0.19180-0.43806-0.97878
   5   9  -812999.27  561.47   1-0.76655-0.86641 0.64055-0.06800 0.04561-0.49466
   5  -9  -812346.20  650.59   1-0.79196-0.14526 0.46490 0.21898-0.39580-0.96485
  -5  -9   812935.29  648.81   1-0.80102-0.70270-0.57738 0.12963 0.15809 0.69957
  -5   9   811845.97  849.39   1-0.29225-0.94074-0.34418-0.09623-0.89225-0.32518
  -5  -9   815034.70  632.74   1 0.09876 0.19742-0.90228-0.19544 0.41966 0.96063
   5   9  -710500.74  825.07   1 0.03383-0.10310 0.91169 0.26032-0.40946-0.95999
   5   9  -713207.97  527.72   1-0.75395-0.88837 0.65057-0.00267 0.09109-0.45910
   5  -9  -713573.25  468.51   1-0.79719-0.18522 0.48565 0.29353-0.35862-0.93783
  -5  -9   714780.22  490.62   1-0.79827-0.66556-0.57137 0.08045 0.19051 0.74199
  -5  -9   713887.51  528.12   1 0.10025 0.23314-0.91775-0.26594 0.38428 0.93536
   5   9  -6 1036.02  156.89   1 0.03770-0.13346 0.92658 0.33031-0.37419-0.93438
   5   9  -6  826.60  155.84   1-0.73751-0.90649 0.66012 0.06219 0.14249-0.41760
   5  -9  -6 1179.89  135.73   1-0.80169-0.22419 0.51052 0.37373-0.31088-0.90003
  -5  -9   6  939.90  137.98   1-0.79550-0.62840-0.56621 0.03043 0.21581 0.77729
  -5  -9   6 1084.76  181.95   1 0.10185 0.26929-0.93461-0.33801 0.34075 0.90179
   5  -9  -5    7.05   84.29   1 0.10419 0.61173 0.81582 0.79000 0.56883-0.04093
   5   9  -5   74.25  143.12   1 0.04227-0.16325 0.94263 0.40159-0.33114-0.90114
   5   9  -5    7.88  117.72   1-0.71671-0.91992 0.66838 0.12585 0.19895-0.37135
  -5  -9   5   29.55   96.66   1-0.79310-0.59160-0.56214-0.02068 0.23448 0.80596
  -5  -9   5  154.69  141.67   1 0.10346 0.30546-0.95197-0.41057 0.28816 0.85914
   5  -9  -4 9517.76  511.04   1 0.10420 0.61195 0.81563 0.78985 0.56910-0.04061
   5   9  -4 9640.26  530.80   1 0.04749-0.19238 0.95883 0.47303-0.27996-0.85978
   5   9  -4 8579.71  463.42   1-0.69085-0.92863 0.67461 0.18740 0.26002-0.32017
   5  -9  -4 8622.16  511.72   1-0.80207-0.29354 0.57047 0.54438-0.17670-0.78579
  -5  -9   4 9431.15  390.46   1-0.79137-0.55568-0.55936-0.07322 0.24665 0.82816
  -5  -9   410491.63  432.71   1 0.10493 0.34142-0.96846-0.48212 0.22597 0.80683
   5  -9  -310559.75  560.06   1 0.10521 0.57852 0.78618 0.81559 0.60896-0.01053
   5   9  -311723.86  481.85   1 0.05329-0.22091 0.97394 0.54326-0.22042-0.80997
   5   9  -3 9164.15  458.09   1-0.65973-0.93207 0.67796 0.24607 0.32422-0.26586
   5  -9  -311060.40  429.02   1-0.79297-0.31904 0.60302 0.63214-0.08692-0.70611
  -5  -9   311157.03  388.76   1-0.79042-0.52033-0.55788-0.12691 0.25297 0.84447
  -5  -9   310768.25  448.19   1 0.10608 0.37712-0.98245-0.55132 0.15338 0.74419
   5  -9  -224846.71  852.47   1 0.10599 0.54486 0.75369 0.83829 0.64862 0.01933
   5   9  -223349.63  704.38   1 0.05962-0.24895 0.98658 0.61112-0.15199-0.75136
   5   9  -224294.12  780.11   1-0.62327-0.93018 0.67774 0.30118 0.39010-0.20987
   5  -9  -221103.86  684.81   1-0.77314-0.33374 0.63395 0.71839 0.01877-0.61034
  -5  -9   223818.68  599.81   1-0.79035-0.48587-0.55779-0.18200 0.25338 0.85486
  -5  -9   223585.10  675.37   1 0.10668 0.41237-0.99178-0.61582 0.07063 0.67134
   5  -9  -1 1522.10  212.10   1 0.10649 0.51078 0.71846 0.85835 0.68736 0.04815
   5   9  -1 1638.19  209.05   1 0.06628-0.27652 0.99495 0.67453-0.07537-0.68449
   5  -9  -1 1882.79  236.73   1-0.73855-0.33379 0.65961 0.79935 0.13946-0.49960
  -5  -9   1 1471.44  163.84   1-0.79118-0.45230-0.55907-0.23846 0.24791 0.85939
  -5  -9   1 1438.09  161.43   1 0.10648 0.44672-0.99408-0.67333-0.02152 0.58911
   5  -9   0  689.34  162.36   1 0.10671 0.47654 0.68080 0.87588 0.72464 0.07569
   5   9   0  431.83  161.53   1 0.07315-0.30405 0.99727 0.73207 0.00931-0.60961
   5  -9   0  459.21  114.67   1-0.68566-0.31523 0.67544 0.87075 0.27135-0.37738
  -5  -9   0  639.38  108.79   1-0.79279-0.41934-0.56164-0.29610 0.23670 0.85817
  -5  -9   0  666.36  145.49   1 0.10524 0.48001-0.98699-0.72145-0.12149 0.49908
   5  -9   1  -65.78  130.88   1 0.10662 0.44200 0.64099 0.89126 0.76010 0.10139
  -5  -9  -1  -41.05   71.43   1-0.79506-0.38722-0.56545-0.35509 0.21939 0.85086
   5  -9   1   56.37   99.92   1 0.07417 0.40798 0.65812 0.90856 0.74924 0.08971
   5  -9   228898.99 1220.10   1 0.10623 0.40716 0.59931 0.90476 0.79343 0.12497
   5   9   234658.60  880.41   1 0.08643-0.35951 0.97672 0.82174 0.19630-0.44213
  -5  -9  -230949.17  718.29   1-0.79772-0.35549-0.57029-0.41512 0.19596 0.83743
   5  -9   234947.64  858.18   1 0.06989 0.36918 0.61661 0.92221 0.78415 0.11499
   5  -9   3  439.20  138.16   1 0.10553 0.37202 0.55599 0.91663 0.82445 0.14624
   5   9   3  568.20  143.08   1 0.09235-0.38782 0.95109 0.85111 0.29475-0.35382
  -5  -9  -3  630.21  116.45   1-0.80041-0.32379-0.57593-0.47594 0.16623 0.81770
   5  -9   3  593.32  120.71   1 0.06537 0.33014 0.57301 0.93376 0.81693 0.13814
   5  -9   476339.26 1244.37   1 0.10454 0.33658 0.51125 0.92707 0.85304 0.16508
   5   9   472702.03 1339.53   1 0.09747-0.41685 0.91420 0.86943 0.39336-0.26516
  -5  -9  -468850.58 1005.22   1-0.80269-0.29168-0.58206-0.53726 0.12990 0.79137
  -5   9  -467744.96 1319.81   1-0.05320-0.28855-0.52862-0.94405-0.84718-0.15967
   5  -9   463786.86 1124.75   1 0.06064 0.29090 0.52755 0.94345 0.84735 0.15893
   5   9   518348.03  687.22   1 0.10158-0.44720 0.86589 0.87643 0.48980-0.17851
  -5   9  -519225.79  743.80   1-0.10326-0.30375-0.46520-0.93540-0.87915-0.18098
  -5  -9  -518910.96  576.00   1-0.80397-0.25854-0.58829-0.59849 0.08673 0.75826
  -5   9  -518774.93  585.26   1-0.07348-0.27452-0.47384-0.94453-0.87753-0.18023
   5  -9   517412.13  670.25   1 0.05573 0.25146 0.48044 0.95150 0.87524 0.17719
   5   9   6  192.13  165.81   1 0.10453-0.47842 0.80700 0.87274 0.58121-0.09706
  -5   9  -6  554.93  184.90   1-0.10171-0.26784-0.41818-0.94361-0.90264-0.19457
  -5  -9  -6  147.60  113.00   1-0.80353-0.22371-0.59416-0.65954 0.03606 0.71760
  -5   9  -6  145.21  216.09   1-0.29082-0.45902-0.34322-0.86896-0.89309-0.18492
  -5   9  -6  245.75  142.43   1-0.09248-0.25923-0.41981-0.94576-0.90288-0.19578
   5  -9   6  348.39  144.28   1 0.05064 0.21186 0.43187 0.95808 0.90051 0.19282
   5  10  -8   59.64  102.41   1 0.03021-0.11362 0.89672 0.16607-0.44155-0.97954
   5  10  -8   97.36   91.85   1-0.75213-0.89347 0.65180-0.08237 0.09715-0.44148
   5 -10  -8  299.79  110.91   1-0.79240-0.10422 0.46647 0.24613-0.39305-0.96361
  -5 -10   8   46.91  101.92   1-0.79779-0.65796-0.57042 0.16220 0.19530 0.73537
  -5  10   8  223.94  190.16   1-0.24233-0.93235-0.31069-0.08827-0.91909-0.35061
  -5 -10   8  144.01  126.67   1 0.09891 0.23898-0.90379-0.17130 0.41636 0.95579
   5  10  -7  -21.74  106.21   1 0.03348-0.14497 0.91028 0.23340-0.41262-0.96151
   5  10  -7   37.96  102.26   1-0.73762-0.91351 0.66007-0.01879 0.14219-0.40636
   5 -10  -7   82.55   87.62   1-0.79759-0.14411 0.48746 0.32089-0.35528-0.93608
  -5 -10   7   83.12  130.68   1-0.79419-0.61996-0.56395 0.11348 0.22630 0.77637
  -5  10   7   23.05  256.27   1-0.27600-0.93171-0.33335-0.16619-0.90149-0.32293
  -5 -10   7  111.54  109.62   1 0.10038 0.27469-0.91905-0.24159 0.38112 0.93068
   5  10  -6 5834.62  529.45   1 0.03728-0.17540 0.92501 0.30322-0.37810-0.93663
   5  10  -6 7009.04  408.86   1-0.71928-0.92940 0.66754 0.04406 0.19238-0.36643
   5 -10  -6 6268.26  384.23   1-0.80197-0.18297 0.51260 0.40138-0.30670-0.89744
  -5 -10   6 7027.42  344.05   1-0.79083-0.58244-0.55853 0.06358 0.25023 0.81038
  -5 -10   6 7508.38  405.73   1 0.10195 0.31082-0.93568-0.31341 0.33779 0.89730
   5  10  -527305.00 1066.48   1-0.69644-0.94112 0.67357 0.10541 0.24751-0.32118
   5 -10  -531111.44  701.98   1-0.80405-0.21952 0.54151 0.48563-0.24546-0.84614
  -5 -10   531493.73  656.90   1-0.78800-0.54521-0.55424 0.01269 0.26807 0.83819
  -5 -10   530967.78  733.16   1 0.10353 0.34695-0.95278-0.38572 0.28543 0.85488
   5 -10  -4 7245.13  425.57   1 0.10597 0.65518 0.75482 0.75461 0.64731 0.03596
   5  10  -4 8048.27  423.62   1 0.04692-0.23446 0.95717 0.44584-0.28569-0.86385
   5  10  -4 7776.72  388.72   1-0.66881-0.94806 0.67737 0.16453 0.30636-0.27222
   5 -10  -4 8202.85  358.55   1-0.80161-0.25158 0.57333 0.57282-0.16942-0.78011
  -5 -10   4 7055.46  354.64   1-0.78597-0.50878-0.55128-0.03952 0.27986 0.85998
  -5 -10   4 8116.70  397.40   1 0.10497 0.38290-0.96904-0.45705 0.22346 0.80280
   5 -10  -3 6705.84  444.20   1 0.10641 0.62105 0.72654 0.78165 0.67883 0.05749
   5  10  -3 7289.49  420.25   1 0.05265-0.26306 0.97243 0.51622-0.22716-0.81505
   5  10  -3 6215.71  358.90   1-0.63620-0.95001 0.67825 0.22074 0.36771-0.22076
   5 -10  -3 6700.02  356.97   1-0.79151-0.27610 0.60628 0.66101-0.07691-0.69772
  -5 -10   3 7720.46  331.12   1-0.78489-0.47331-0.54975-0.09317 0.28584 0.87595
  -5 -10   3 7511.19  361.94   1 0.10610 0.41858-0.98281-0.52602 0.15104 0.74032
   5 -10  -2 6324.73  394.56   1 0.10666 0.58685 0.69547 0.80577 0.71058 0.07949
   5  10  -2 7068.34  398.17   1 0.05892-0.29115 0.98540 0.58441-0.15972-0.75742
   5 -10  -2 5682.03  334.41   1-0.76980-0.28902 0.63743 0.74748 0.03267-0.59811
  -5 -10   2 7156.22  314.78   1-0.78483-0.43886-0.54967-0.14827 0.28614 0.88623
  -5 -10   2 7163.88  387.82   1 0.10668 0.45381-0.99194-0.59034 0.06831 0.66749
   5 -10  -1 7037.39  406.62   1 0.10670 0.55245 0.66190 0.82739 0.74195 0.10111
   5  10  -1 5965.35  342.16   1 0.06556-0.31874 0.99431 0.64834-0.08395-0.69141
   5 -10  -1 6498.01  361.83   1-0.73197-0.28549 0.66268 0.82828 0.15834-0.48211
  -5 -10   1 6162.20  323.26   1-0.78580-0.40542-0.55105-0.20482 0.28080 0.89088
  -5 -10   1 6377.22  334.96   1 0.10646 0.48813-0.99402-0.64763-0.02405 0.58506
   5 -10   022263.77  748.26   1 0.10651 0.51780 0.62610 0.84677 0.77242 0.12183
   5  10   022308.11  708.97   1 0.07243-0.34626 0.99737 0.70661 0.00016-0.61708
  -5 -10   022835.49  576.31   1-0.78771-0.37294-0.55381-0.26276 0.26980 0.88987
   5 -10   022474.61  742.76   1 0.07316 0.48288 0.64831 0.86921 0.75784 0.10626
  -5 -10   021845.17  633.25   1 0.10518 0.52139-0.98662-0.69543-0.12456 0.49448
   5 -10   1  263.59  139.19   1 0.10608 0.48292 0.58833 0.86418 0.80162 0.14128
   5  10   1  279.21  114.37   1 0.07927-0.37385 0.99269 0.75695 0.09096-0.53595
  -5 -10  -1  267.86   88.75   1-0.79040-0.34123-0.55787-0.32199 0.25305 0.88310
   5 -10   1  279.11  134.58   1 0.06927 0.44447 0.61059 0.88664 0.78890 0.12769
   5 -10   2 4722.04  322.86   1 0.10539 0.44778 0.54882 0.87985 0.82927 0.15917
   5  10   2 4921.00  427.04   1 0.08586-0.40156 0.97853 0.79798 0.18735-0.44941
  -5 -10  -2 4830.66  337.03   1-0.79364-0.30989-0.56303-0.38224 0.23048 0.87054
   5 -10   2 4595.42  305.81   1 0.06513 0.40582 0.57073 0.90193 0.81854 0.14769
   5 -10   3 3190.13  301.32   1 0.10445 0.41240 0.50775 0.89397 0.85514 0.17530
   5  10   3 2412.94  347.45   1 0.09190-0.42974 0.95358 0.82801 0.28676-0.36015
  -5 -10  -3 3077.50  255.07   1-0.79712-0.27898-0.56914-0.44354 0.20166 0.85172
  -5  10  -3 2296.56  243.13   1-0.05234-0.36349-0.53089-0.91657-0.84581-0.16661
   5 -10   3 2982.78  265.05   1 0.06079 0.36696 0.52894 0.91530 0.84647 0.16599
   5  10   410204.03  558.83   1 0.09716-0.45862 0.91697 0.84663 0.38693-0.26995
  -5  10  -410335.65  568.21   1-0.10326-0.37960-0.46502-0.90554-0.87925-0.18945
  -5 -10  -4 9884.19  424.84   1-0.80040-0.24787-0.57590-0.50548 0.16640 0.82646
  -5  10  -4 9292.57  418.63   1-0.07221-0.34906-0.47736-0.91830-0.87572-0.18673
   5 -10   4 9810.04  460.02   1 0.05625 0.32790 0.48543 0.92694 0.87246 0.18234
   5  10   5 5526.81  386.24   1 0.10142-0.48884 0.86837 0.85333 0.48543-0.18125
  -5  10  -5 5290.40  532.69   1-0.10182-0.34382-0.42143-0.91718-0.90112-0.20141
  -5 -10  -5 5385.22  349.52   1-0.80294-0.21603-0.58293-0.56770 0.12432 0.79438
  -5  10  -5 4714.04  584.65   1-0.27649-0.52052-0.33367-0.82967-0.90122-0.20172
  -5  10  -5 4864.96  401.61   1-0.09079-0.33335-0.42472-0.92091-0.90075-0.20197
   5 -10   5 6215.87  366.49   1 0.05153 0.28866 0.44036 0.93702 0.89634 0.19659
   5  10   6 2694.92  311.43   1 0.10448-0.51994 0.80846 0.84862 0.57919-0.09745
  -5  10  -6 3702.96  328.26   1-0.10014-0.30779-0.37673-0.92769-0.92089-0.21128
  -5 -10  -6 2978.79  270.52   1-0.80406-0.18272-0.58979-0.62956 0.07503 0.75515
  -5  10  -6 4214.95  443.58   1-0.24702-0.45675-0.31386-0.86512-0.91676-0.20718
  -5  10  -6 4318.29  285.66   1-0.10823-0.31649-0.37293-0.92438-0.92152-0.21294
   5  11  -7 2424.50  231.59   1 0.03344-0.18653 0.91011 0.20772-0.41300-0.96023
   5  11  -7 2427.78  245.63   1-0.71820-0.93522 0.66790-0.03652 0.19515-0.35215
   5 -11  -7 3003.99  288.31   1-0.79834-0.10336 0.49102 0.35003-0.34863-0.93101
  -5 -11   7 3047.96  226.67   1-0.78983-0.57434-0.55699 0.14591 0.25674 0.80550
  -5  11   7 2378.01  354.16   1-0.22732-0.92456-0.30050-0.15886-0.92629-0.34631
  -5 -11   7 3006.47  267.93   1 0.10061 0.31634-0.92149-0.21837 0.37512 0.92316
   5  11  -6 3041.64  288.08   1 0.03717-0.21701 0.92461 0.27730-0.37908-0.93595
   5  11  -6 3203.49  300.48   1-0.69787-0.94946 0.67328 0.02417 0.24425-0.31294
   5 -11  -6 3507.19  242.03   1-0.80245-0.14194 0.51647 0.43081-0.29887-0.89120
  -5 -11   6 3206.89  246.79   1-0.78596-0.53607-0.55128 0.09644 0.27989 0.83863
  -5  11   6 3748.44  391.11   1-0.25448-0.91741-0.31889-0.23252-0.91298-0.32293
  -5 -11   6 4154.07  295.97   1 0.10215 0.35244-0.93779-0.28987 0.33182 0.88980
   5  11  -513195.85  530.03   1 0.04160-0.24694 0.94037 0.34829-0.33758-0.90427
   5  11  -511476.61  532.04   1-0.67321-0.95936 0.67697 0.08319 0.29746-0.26962
   5 -11  -511309.75  422.52   1-0.80405-0.17803 0.54579 0.51552-0.23582-0.83817
  -5 -11   512361.15  452.99   1-0.78280-0.49852-0.54684 0.04570 0.29694 0.86567
  -5  11   511775.69  910.02   1-0.27572-0.90434-0.33316-0.30205-0.90165-0.30152
  -5 -11   511505.20  486.12   1 0.10369 0.38853-0.95453-0.36181 0.27949 0.84742
   5  11  -4  773.14  157.70   1 0.04667-0.27622 0.95644 0.41959-0.28816-0.86466
   5  11  -4  631.86  151.30   1-0.64396-0.96468 0.67834 0.13988 0.35378-0.22319
   5 -11  -4  700.58  131.48   1-0.80074-0.20921 0.57791 0.60298-0.15753-0.76983
  -5 -11   4  491.34  135.57   1-0.78057-0.46188-0.54380-0.00642 0.30819 0.88691
  -5  11   4  535.87  231.08   1-0.29161-0.88593-0.34375-0.36791-0.89263-0.28242
  -5 -11   4  575.12  138.80   1 0.10509 0.42444-0.97037-0.43272 0.21754 0.79535
   5  11  -338424.22 1005.43   1 0.05233-0.30488 0.97166 0.48992-0.23049-0.81671
   5  11  -338733.46  921.20   1-0.61007-0.96535 0.67680 0.19366 0.41200-0.17486
   5 -11  -333221.93  939.74   1-0.78911-0.23221 0.61114 0.69147-0.06162-0.68405
  -5 -11   337938.84  720.13   1-0.77939-0.42631-0.54223-0.06003 0.31387 0.90257
  -5 -11   338748.27  850.71   1 0.10617 0.46007-0.98370-0.50126 0.14509 0.73285
   5 -11  -2 4642.33  362.37   1 0.10654 0.62819 0.63010 0.76599 0.76916 0.13643
   5  11  -2 4608.47  350.09   1 0.05855-0.33303 0.98474 0.55822-0.16388-0.75991
  -5 -11   2 4508.80  257.56   1-0.77935-0.39187-0.54217-0.11515 0.31408 0.91278
   5 -11  -2 4851.62  388.53   1 0.07434 0.59450 0.65981 0.79601 0.74774 0.11372
  -5 -11   2 5370.22  318.26   1 0.10670 0.49526-0.99234-0.56510 0.06218 0.65983
   5 -11  -146351.94 1138.33   1 0.10623 0.59343 0.59956 0.79063 0.79324 0.15077
   5  11  -149303.30 1102.42   1 0.06514-0.36065 0.99391 0.62239-0.08887-0.69465
  -5 -11   143091.66  892.66   1-0.78043-0.35855-0.54361-0.17177 0.30888 0.91756
   5 -11  -149075.04  981.63   1 0.07117 0.55680 0.62897 0.82032 0.77416 0.13051
  -5 -11   146289.30  986.17   1 0.10641 0.52951-0.99385-0.62181-0.03055 0.57702
   5 -11   0  439.06  118.75   1 0.10573 0.55848 0.56670 0.81296 0.81710 0.16488
   5  11   0  668.62  162.87   1 0.07200-0.38818 0.99738 0.68107-0.00525-0.62084
  -5 -11   0  513.77  107.12   1-0.78255-0.32628-0.54650-0.22983 0.29823 0.91690
   5 -11   0  346.19  175.88   1 0.06771 0.51883 0.59560 0.84211 0.80041 0.14713
  -5 -11   0  432.29  114.47   1 0.10505 0.56269-0.98570-0.66887-0.13173 0.48578
   5 -11   1 8519.33  441.89   1 0.10503 0.52333 0.53181 0.83325 0.84032 0.17834
   5  11   1 8488.37  520.85   1 0.07886-0.41573 0.99322 0.73192 0.08537-0.53986
  -5 -11  -1 8767.57  342.56   1-0.78558-0.29492-0.55073-0.28924 0.28203 0.91069
   5 -11   1 9097.68  438.01   1 0.06402 0.48061 0.55996 0.86162 0.82604 0.16312
   5 -11   2  457.67  151.70   1 0.10412 0.48797 0.49511 0.85174 0.86256 0.19083
   5  11   2  528.91  229.81   1 0.08552-0.44337 0.97955 0.77343 0.18209-0.45300
  -5 -11  -2  551.36  150.48   1-0.78930-0.26424-0.55618-0.34987 0.26011 0.89875
  -5  11  -2  488.03  219.63   1-0.29108-0.67956-0.34340-0.69913-0.89294-0.22226
  -5  11  -2  503.93  113.47   1-0.05546-0.44242-0.52266-0.87858-0.85073-0.17983
   5 -11   2  385.68  122.98   1 0.06009 0.44217 0.52224 0.87906 0.85067 0.17812
   5  11   312141.42  554.51   1 0.09165-0.47146 0.95491 0.80376 0.28237-0.36288
  -5  11  -312795.23  650.51   1-0.10298-0.45518-0.45624-0.86707-0.88387-0.20244
  -5 -11  -311868.45  414.61   1-0.79339-0.23375-0.56263-0.41141 0.23230 0.88096
  -5  11  -312888.84  936.57   1-0.27605-0.63023-0.33338-0.74437-0.90147-0.22071
  -5  11  -311168.42  549.45   1-0.07451-0.42718-0.47097-0.88214-0.87899-0.19831
   5 -11   311136.30  503.22   1 0.05596 0.40352 0.48266 0.89463 0.87401 0.19183
   5  11   4 3616.20  372.18   1 0.09702-0.50023 0.91822 0.82230 0.38398-0.27125
  -5  11  -4 5520.02  399.45   1-0.10165-0.41950-0.41657-0.88263-0.90340-0.21206
  -5 -11  -4 4252.77  252.59   1-0.79749-0.20346-0.56985-0.47382 0.19813 0.85679
  -5  11  -4 5843.23  498.11   1-0.25664-0.57652-0.32036-0.78661-0.91186-0.22102
  -5  11  -4 5133.04  342.02   1-0.09231-0.41067-0.42030-0.88674-0.90267-0.21219
   5 -11   4 4703.75  330.47   1 0.05164 0.36468 0.44137 0.90850 0.89583 0.20401
  -5  11  -510845.17  723.59   1-0.10009-0.38360-0.37559-0.89688-0.92136-0.22012
  -5 -11  -512633.07  531.74   1-0.80108-0.17265-0.57752-0.53666 0.15728 0.82594
  -5  11  -516348.16  829.98   1-0.23269-0.51826-0.30415-0.82567-0.92376-0.22284
  -5  11  -512874.90  508.10   1-0.10900-0.39307-0.37058-0.89227-0.92238-0.22211
   5  12  -6 6601.40  407.55   1 0.03737-0.25832 0.92535 0.25251-0.37725-0.93247
   5  12  -6 5802.99  407.61   1-0.67310-0.96616 0.67698 0.00226 0.29767-0.25791
  -5 -12   6 6900.17  333.11   1-0.78123-0.48984-0.54470 0.12864 0.30491 0.86226
  -5  12   6 6936.00  581.15   1-0.20698-0.91144-0.28659-0.22574-0.93542-0.34395
  -5 -12   6 6026.08  353.57   1 0.10244 0.39415-0.94089-0.26731 0.32284 0.87930
   5  12  -5 2730.52  238.77   1 0.04173-0.28831 0.94082 0.32322-0.33630-0.90133
   5  12  -5 2612.30  252.20   1-0.64679-0.97441 0.67833 0.05892 0.34860-0.21687
  -5 -12   5 2853.23  200.85   1-0.77783-0.45204-0.54016 0.07800 0.32124 0.88857
  -5  12   5 2110.65  334.86   1-0.22842-0.89858-0.30125-0.29566-0.92578-0.32423
  -5 -12   5 2283.98  206.72   1 0.10392 0.43014-0.95708-0.33858 0.27052 0.83686
   5  12  -429681.18  805.62   1 0.04674-0.31766 0.95663 0.39426-0.28750-0.86234
   5  12  -427359.07  930.91   1-0.61614-0.97833 0.67728 0.11320 0.40204-0.17332
  -5 -12   429522.62  662.33   1-0.77544-0.41526-0.53707 0.02591 0.33200 0.90933
  -5  12   431880.32 1100.47   1-0.24458-0.88044-0.31221-0.36189-0.91798-0.30636
  -5 -12   432588.69  861.73   1 0.10526 0.46603-0.97240-0.40910 0.20821 0.78450
   5  12  -3 2699.02  284.06   1 0.05233-0.34639 0.97165 0.46438-0.23052-0.81508
  -5 -12   3 2767.60  207.08   1-0.77420-0.37963-0.53549-0.02767 0.33741 0.92472
  -5  12   3 2868.40  370.84   1-0.25585-0.85740-0.31982-0.42476-0.91227-0.29057
  -5 -12   3 2274.84  215.13   1 0.10627 0.50172-0.98506-0.47697 0.13546 0.72164
   5  12  -2 1310.69  210.65   1 0.05848-0.37460 0.98462 0.53257-0.16459-0.75896
  -5 -12   2 1286.95  163.45   1-0.77417-0.34519-0.53544-0.08281 0.33757 0.93486
  -5  12   2 1267.81  355.04   1-0.26252-0.82976-0.32431-0.48451-0.90879-0.27701
   5 -12  -2  974.07  192.95   1 0.06795 0.62950 0.59790 0.75971 0.79868 0.16296
  -5 -12   2 1215.22  181.66   1 0.10671 0.53670-0.99291-0.54003 0.05219 0.64831
   5  12  -1   65.12  133.17   1 0.06503-0.40226 0.99379 0.59673-0.09021-0.69433
  -5 -12   1   57.20   94.64   1-0.77533-0.31196-0.53693-0.13947 0.33251 0.93980
  -5  12   1   69.24  229.28   1-0.26479-0.79773-0.32584-0.54130-0.90758-0.26572
   5 -12  -1  -30.62  111.46   1 0.06505 0.59208 0.56995 0.78692 0.81909 0.17374
  -5 -12   1  -29.87   90.93   1 0.10632 0.57085-0.99348-0.59579-0.04112 0.56493
   5 -12   0  171.59  129.44   1 0.10433 0.59853 0.50277 0.77462 0.85809 0.20423
   5  12   0  149.76  143.65   1 0.07187-0.42981 0.99738 0.65552-0.00699-0.62092
  -5 -12   0  246.25   97.25   1-0.77762-0.27985-0.53989-0.19761 0.32221 0.93948
  -5  12   0  139.36  268.60   1-0.26281-0.76144-0.32451-0.59523-0.90863-0.25670
   5 -12   0  123.99  130.03   1 0.06187 0.55439 0.53935 0.81147 0.83980 0.18481
  -5 -12   0  127.50   96.46   1 0.10483 0.60389-0.98413-0.64165-0.14315 0.47284
   5  12   1 4447.85  378.54   1 0.07873-0.45735 0.99339 0.70652 0.08350-0.54005
  -5  12  -1 3262.46  345.27   1-0.10342-0.56582-0.47057-0.79650-0.87627-0.21312
  -5 -12  -1 4798.04  271.70   1-0.78090-0.24874-0.54425-0.25714 0.30655 0.93381
  -5  12  -1 4977.26  450.74   1-0.25665-0.72097-0.32036-0.64635-0.91186-0.24985
   5 -12   1 4431.00  308.25   1 0.05844 0.51643 0.50638 0.83366 0.86032 0.19570
   5  12   2 4662.35  373.57   1 0.08542-0.48495 0.97984 0.74815 0.18056-0.45285
  -5  12  -2 4959.41  469.67   1-0.10237-0.53043-0.43743-0.81859-0.89340-0.22034
  -5 -12  -2 5782.16  283.30   1-0.78498-0.21842-0.54988-0.31795 0.28535 0.92260
  -5  12  -2 7628.25  587.62   1-0.24632-0.67633-0.31338-0.69464-0.91712-0.24503
   5 -12   2 6070.42  334.07   1 0.05477 0.47825 0.47128 0.85371 0.88027 0.20603
   5  12   3   83.74  132.77   1 0.09161-0.51297 0.95512 0.77838 0.28168-0.36190
  -5  12  -3   33.07  159.43   1-0.10113-0.49484-0.40246-0.83884-0.90983-0.22686
  -5 -12  -3   36.96  112.56   1-0.78957-0.18862-0.55660-0.37985 0.25837 0.90561
  -5  12  -3   65.18  223.66   1-0.23178-0.62749-0.30353-0.74005-0.92419-0.24202
   5 -12   3  207.39  133.71   1 0.05089 0.43985 0.43425 0.87183 0.89935 0.21547
  -5  12  -4 1556.65  207.92   1-0.09970-0.45906-0.36585-0.85745-0.92531-0.23245
  -5 -12  -4 1345.85  183.39   1-0.79431-0.15876-0.56416-0.44251 0.22534 0.88259
  -5  12  -4 1123.08  309.30   1-0.21294-0.57434-0.29068-0.78246-0.93282-0.24057
   5  13  -4  653.27  154.33   1 0.04710-0.35880 0.95771 0.36982-0.28383-0.85702
  -5 -13   4  509.51  130.35   1-0.77079-0.36912-0.53121 0.05739 0.35168 0.92760
  -5  13   4  593.53  256.19   1-0.19842-0.87580-0.28071-0.35591-0.93905-0.32602
  -5 -13   4  445.12  139.13   1 0.10548 0.50768-0.97502-0.38607 0.19543 0.77019
   5  13  -3 2736.27  303.22   1 0.05263-0.38759 0.97238 0.43957-0.22737-0.81027
  -5 -13   3 3540.18  255.13   1-0.76951-0.33344-0.52962 0.00380 0.35685 0.94276
  -5  13   3 2940.16  432.26   1-0.20993-0.85301-0.28862-0.41908-0.93414-0.31103
  -5 -13   3 2794.78  247.70   1 0.10639 0.54327-0.98679-0.45304 0.12217 0.70682
   5  13  -2 5710.16  411.22   1 0.05872-0.41587 0.98504 0.50746-0.16196-0.75466
  -5 -13   2 6060.24  337.32   1-0.76948-0.29901-0.52958-0.05133 0.35696 0.95286
  -5  13   2 6210.38  529.57   1-0.21689-0.82566-0.29338-0.47911-0.93106-0.29787
  -5 -13   2 5372.42  367.33   1 0.10671 0.57813-0.99355-0.51501 0.03827 0.63286
   5  13  -1 9780.80  572.47   1 0.06521-0.44357 0.99397 0.57136-0.08804-0.69049
  -5 -13   111816.49  484.22   1-0.77070-0.26584-0.53109-0.10802 0.35205 0.95794
  -5  13   110996.37  748.18   1-0.21950-0.79396-0.29516-0.53615-0.92988-0.28662
   5 -13  -1 9090.33  527.74   1 0.05848 0.62691 0.50682 0.74940 0.86006 0.21301
  -5 -13   1 9650.42  491.97   1 0.10617 0.61213-0.99277-0.56944-0.05587 0.54865
   5  13   0 2287.09  377.21   1 0.07201-0.47115 0.99738 0.62997-0.00510-0.61736
  -5  13   0 2319.15  289.72   1-0.10222-0.64048-0.43299-0.72924-0.89557-0.24079
  -5 -13   0 2902.27  258.68   1-0.77311-0.23385-0.53410-0.16621 0.34208 0.95796
  -5  13   0 1883.48  305.49   1-0.21789-0.75805-0.29406-0.59032-0.93061-0.27726
   5 -13   0 1811.33  324.60   1 0.05565 0.58956 0.47974 0.77747 0.87564 0.21896
   5  13   127698.69 1047.51   1 0.07886-0.49869 0.99322 0.68078 0.08538-0.53649
  -5  13  -124879.52 1267.96   1-0.10128-0.60519-0.40650-0.75797-0.90801-0.24332
  -5 -13  -127760.03  900.77   1-0.77658-0.20292-0.53854-0.22582 0.32693 0.95279
  -5  13  -126615.22 1278.85   1-0.21214-0.71799-0.29013-0.64165-0.93317-0.26975
   5 -13   126840.53 1044.75   1 0.05254 0.55193 0.45002 0.80291 0.89146 0.22515
   5  13   2   65.93  128.32   1 0.08556-0.52627 0.97941 0.72215 0.18283-0.44891
  -5  13  -2   82.88  129.17   1-0.10017-0.56973-0.37744-0.78414-0.92059-0.24600
  -5  13  -2   -7.20  219.57   1-0.20227-0.67382-0.28336-0.69014-0.93743-0.26393
   6   0  -9  -37.68  133.76   1 0.06040 0.36515 0.98783 0.44854-0.14330-0.81576
   6   0  -9  -48.57   82.99   1-0.80308-0.49616 0.56269 0.02275-0.19603-0.86793
   6   0  -8 1671.84  211.50   1 0.06316 0.33375 0.99170 0.50777-0.11191-0.79421
   6   0  -8 1913.67  188.52   1-0.80108-0.52865 0.57619 0.09157-0.16204-0.84388
  -6   0   8 1762.13  186.99   1 0.10587-0.16828-0.97976-0.49657 0.16986 0.85152
   6   0  -7  -27.41  156.62   1 0.06635 0.30255 0.99500 0.56627-0.07457-0.76667
   6   0  -7  -42.72   86.33   1-0.79729-0.55935 0.59129 0.16201-0.12116-0.81294
  -6   0   7  -51.46  130.04   1 0.10634-0.13314-0.98612-0.55800 0.12745 0.81909
   6   0  -6 2444.41  223.87   1 0.06993 0.27175 0.99706 0.62354-0.03113-0.73303
   6   0  -6 2613.97  203.72   1-0.79096-0.58742 0.60745 0.23314-0.07329-0.77496
  -6   0   6 2492.09  223.47   1 0.10665-0.09829-0.99121-0.61829 0.07820 0.77977
   6   0  -5   71.49  104.47   1 0.07383 0.24126 0.99710 0.67878 0.01812-0.69357
   6   0  -5   36.00   77.87   1-0.78113-0.61211 0.62410 0.30511-0.01793-0.72953
  -6   0   5   26.70  132.15   1 0.10669-0.06372-0.99404-0.67632 0.02232 0.73383
   6   0  -4 2134.31  212.09   1 0.07795 0.21091 0.99429 0.73121 0.07283-0.64872
   6   0  -4 2226.15  197.84   1-0.76687-0.63232 0.64026 0.37641 0.04437-0.67711
  -6   0   4 2139.75  195.09   1 0.10633-0.02953-0.99353-0.73102-0.03974 0.68170
   6   0  -3    5.34  140.04   1 0.08217 0.18071 0.98781 0.77993 0.13213-0.59920
   6   0  -3    3.57   79.66   1-0.74711-0.64712 0.65495 0.44641 0.11338-0.61801
  -6   0   3    5.67   99.18   1 0.10548 0.00415-0.98861-0.78131-0.10727 0.62412
   6   0  -2185945.4 1935.83   1 0.08637 0.15060 0.97693 0.82424 0.19529-0.54583
   6   0  -2170515.1 1719.47   1-0.72108-0.65531 0.66693 0.51392 0.18773-0.55358
  -6   0   2193666.2 1846.85   1 0.10403 0.03723-0.97829-0.82620-0.17918 0.56213
   6   0  -1  -20.38  125.94   1-0.68802-0.65682 0.67508 0.57739 0.26623-0.48497
   6   0   064644.66 1480.28   1 0.09422 0.08985 0.93968 0.89731 0.32879-0.43215
   6   0   061090.62 1396.46   1-0.64775-0.65111 0.67832 0.63595 0.34683-0.41425
   6   0   1  133.00  150.11   1 0.09763 0.05914 0.91274 0.92551 0.39669-0.37406
   6   0   2 5230.83  380.17   1 0.10058 0.02761 0.88007 0.94818 0.46405-0.31651
   6   0   419903.25  658.09   1 0.10482-0.03673 0.79892 0.97744 0.59222-0.20797
   6   0   5  -46.56  149.51   1 0.10604-0.06994 0.75117 0.98488 0.65153-0.15845
   6   0   621300.21  822.86   1 0.10664-0.10396 0.69933 0.98816 0.70679-0.11281
   6  -1  -9 4071.05  289.39   1 0.06405 0.41052 0.99275 0.47917-0.10163-0.77579
   6   1  -9 3956.80  330.51   1 0.05711 0.32036 0.98207 0.41724-0.17966-0.85045
   6  -1  -9 3876.38  252.49   1-0.80375-0.45533 0.55439 0.04003-0.21592-0.88941
  -6   1   9 4053.69  309.97   1 0.10576-0.24436-0.97845-0.46572 0.17728 0.85052
  -6  -1   9 3601.85  328.23   1 0.10484-0.16243-0.96745-0.40340 0.23029 0.90048
   6  -1  -8  287.72  122.34   1 0.06675 0.37884 0.99532 0.53694-0.06980-0.75377
   6   1  -8  222.95  124.99   1 0.05986 0.28875 0.98698 0.47738-0.14928-0.82989
   6   1  -8  178.82   87.93   1-0.79916-0.56822 0.58476 0.07457-0.13925-0.81948
   6  -1  -8   75.26   87.60   1-0.80240-0.48847 0.56826 0.10922-0.18228-0.86571
  -6   1   8  380.35  170.70   1 0.10622-0.20923-0.98433-0.52664 0.14070 0.82393
  -6  -1   8  182.36  141.20   1 0.10548-0.12723-0.97504-0.46620 0.19534 0.87548
   6  -1  -7 3227.13  297.93   1 0.06988 0.34757 0.99704 0.59387-0.03184-0.72560
   6   1  -7 3485.30  289.92   1 0.06311 0.25782 0.99163 0.53736-0.11254-0.80297
   6   1  -7 3087.87  324.83   1-0.79453-0.59795 0.59919 0.14396-0.09837-0.78849
  -6   1   7 3663.09  286.24   1 0.10656-0.17435-0.98952-0.58704 0.09739 0.79055
  -6  -1   7 3567.04  260.99   1 0.10607-0.09209-0.98241-0.52876 0.15367 0.84375
   6  -1  -6 1229.33  208.97   1 0.07336 0.31667 0.99723 0.64926 0.01206-0.69150
   6   1  -6 1390.25  167.01   1 0.06675 0.22708 0.99532 0.59625-0.06978-0.77001
   6   1  -6 1347.50  160.50   1-0.78721-0.62515 0.61462 0.21471-0.05033-0.75038
   6  -1  -6 1656.24  174.92   1-0.79391-0.54888 0.60077 0.25206-0.09369-0.79698
  -6   1   6 1567.44  197.36   1 0.10671-0.13966-0.99315-0.64588 0.04745 0.75055
  -6  -1   6 1459.55  196.36   1 0.10652-0.05699-0.98872-0.59016 0.10522 0.80527
   6  -1  -5  585.31  150.01   1 0.07713 0.28598 0.99511 0.70240 0.06165-0.65179
   6   1  -5  676.06  157.78   1 0.07075 0.19668 0.99727 0.65340-0.02097-0.73101
   6   1  -5  434.80  151.97   1-0.77634-0.64881 0.63028 0.28569 0.00469-0.70527
   6  -1  -5  598.30  107.74   1-0.78501-0.57451 0.61831 0.32492-0.03801-0.75124
  -6  -1   5  625.73  159.60   1-0.74710-0.87755-0.59317-0.24927-0.29995 0.40958
  -6   1   5  560.82  116.55   1 0.10656-0.10527-0.99426-0.70219-0.00888 0.70415
  -6  -1   5  381.02  178.57   1 0.10671-0.02226-0.99303-0.64967 0.04989 0.75988
   6  -1  -4  337.96  172.61   1 0.08105 0.25549 0.98992 0.75241 0.11611-0.60712
   6   1  -4  201.14  117.46   1 0.07501 0.16649 0.99661 0.70797 0.03354-0.68633
   6   1  -4  154.91  108.65   1-0.76106-0.66798 0.64528 0.35582 0.06625-0.65359
   6  -1  -4  119.75   80.08   1-0.77166-0.59564 0.63553 0.39730 0.02500-0.69811
  -6  -1   4  272.90  162.57   1-0.75143-0.84750-0.59467-0.30597-0.28583 0.43371
  -6   1   4  233.76  116.17   1 0.10600-0.07130-0.99182-0.75495-0.07109 0.65188
  -6  -1   4  144.80  120.59   1 0.10654 0.01210-0.99423-0.70608-0.01189 0.70802
   6  -1  -3   91.84  110.19   1 0.08504 0.22517 0.98091 0.79859 0.17486-0.55815
   6   1  -3  -77.26  120.74   1-0.74037-0.68184 0.65869 0.42454 0.13407-0.59568
   6  -1  -3  -49.25   77.38   1-0.75273-0.61127 0.65140 0.46848 0.09516-0.63786
  -6  -1   3  -22.82   98.43   1-0.75378-0.81548-0.59546-0.36194-0.27792 0.45164
  -6   1   3   69.26  122.84   1 0.10492-0.03783-0.98480-0.80315-0.13835 0.59456
  -6  -1   3   84.16  112.48   1 0.10589 0.04599-0.99119-0.75824-0.07951 0.65034
   6  -1  -2 4080.13  312.68   1 0.08897 0.19467 0.96745 0.84033 0.23690-0.50590
   6   1  -2 4320.15  295.35   1 0.08385 0.10661 0.98404 0.80578 0.15693-0.58253
   6   1  -2 4237.71  283.11   1-0.71361-0.68931 0.66933 0.49070 0.20673-0.53296
   6  -1  -2 3773.38  283.63   1-0.72731-0.62007 0.66461 0.53722 0.17117-0.57174
  -6  -1   2 4237.80  281.83   1-0.75432-0.78165-0.59563-0.41731-0.27604 0.46353
  -6  -1   2 3441.70  253.83   1 0.10464 0.07928-0.98282-0.80509-0.15197 0.58783
   6  -1  -120359.92  779.69   1 0.09272 0.16426 0.94900 0.87702 0.30131-0.45149
   6   1  -122409.55  748.10   1 0.08818 0.07651 0.97058 0.84751 0.22403-0.52521
   6   1  -120082.99  731.59   1-0.68015-0.69042 0.67620 0.55289 0.28308-0.46650
   6  -1  -121600.50  689.64   1-0.69454-0.62187 0.67394 0.60187 0.25180-0.50101
  -6  -1   123038.91  759.41   1-0.75314-0.74609-0.59525-0.47212-0.28008 0.46951
   6  -1   0   49.48  139.04   1 0.09617 0.13358 0.92536 0.90851 0.36668-0.39591
   6   1   0   46.93   95.81   1-0.63988-0.68471 0.67831 0.61032 0.36116-0.39832
  -6  -1   0  165.98  182.52   1-0.75020-0.70877-0.59426-0.52632-0.28990 0.46969
   6  -1   1  366.84  169.68   1 0.09923 0.10221 0.89637 0.93472 0.43204-0.34035
   6   1   1  370.31  149.18   1 0.09601 0.01605 0.92666 0.91386 0.36341-0.40570
  -6  -1  -1  388.03  172.32   1-0.74537-0.66957-0.59256-0.57981-0.30542 0.46419
   6  -1   2 2221.14  234.80   1 0.10183 0.07033 0.86204 0.95573 0.49649-0.28571
   6   1   2 2159.05  229.08   1 0.09928-0.01510 0.89581 0.93821 0.43318-0.34572
   6  -1   320175.20  652.14   1 0.10390 0.03796 0.82279 0.97167 0.55876-0.23324
   6   1   320822.53  689.26   1 0.10202-0.04684 0.85903 0.95676 0.50164-0.28707
   6  -1   422062.29  702.20   1 0.10542 0.00533 0.77888 0.98298 0.61823-0.18359
   6   1   420407.12  864.92   1 0.10416-0.07885 0.81678 0.96972 0.56745-0.23111
   6  -1   5 2351.50  270.92   1 0.10635-0.02834 0.73088 0.99011 0.67415-0.13733
   6   1   5 2393.18  256.29   1 0.10565-0.11179 0.76944 0.97757 0.62991-0.17844
   6  -1   6 3271.11  289.78   1 0.10671-0.06243 0.67910 0.99351 0.72624-0.09499
   6   1   6 2721.09  284.37   1 0.10650-0.14555 0.71757 0.98081 0.68828-0.12968
   6  -2  -9  481.13  151.57   1 0.06800 0.45596 0.99617 0.50814-0.05484-0.73067
   6   2  -9  402.67  155.97   1 0.05415 0.27590 0.97591 0.38555-0.21133-0.88046
  -6   2   9  295.85  162.83   1 0.10617-0.28537-0.98372-0.49664 0.14493 0.81969
  -6  -2   9  351.36  135.73   1 0.10438-0.12146-0.96224-0.37254 0.25136 0.92002
   6  -2  -810350.42  526.30   1 0.07063 0.42421 0.99724 0.56441-0.02252-0.70815
   6   2  -8 9871.03  471.40   1 0.05691 0.24429 0.98168 0.44655-0.18181-0.86076
   6   2  -8 6855.37  434.15   1-0.79649-0.60687 0.59377 0.05762-0.11413-0.79270
   6  -2  -810254.56  405.88   1-0.80324-0.44781 0.56109 0.12763-0.19993-0.88496
  -6   2   8 9928.39  575.20   1 0.10650-0.25038-0.98848-0.55644 0.10750 0.79226
  -6  -2   810584.16  452.62   1 0.10510-0.08620-0.97044-0.43595 0.21722 0.89583
   6  -2  -742760.77 1190.11   1 0.07365 0.39284 0.99715 0.61953 0.01583-0.67959
   6   2  -737098.59 1183.36   1 0.06015 0.21317 0.98744 0.50753-0.14608-0.83484
   6   2  -743053.21 1144.58   1-0.79090-0.63580 0.60758 0.12675-0.07287-0.76137
   6  -2  -742148.57 1121.63   1-0.80089-0.47995 0.57719 0.19906-0.15943-0.85440
  -6  -2   734571.62 1281.92   1-0.75111-0.90878-0.59456-0.11468-0.28690 0.40119
  -6   2   745112.57 1176.83   1 0.10669-0.21565-0.99226-0.61543 0.06342 0.75811
  -6  -2   738358.58 1305.76   1 0.10578-0.05097-0.97862-0.49933 0.17635 0.86491
   6  -2  -6  776.87  157.19   1 0.07701 0.36176 0.99521 0.67288 0.06009-0.64525
   6   2  -6  674.15  136.70   1 0.06384 0.18267 0.99252 0.56790-0.10400-0.80256
   6   2  -6  423.04  104.27   1-0.78251-0.66194 0.62213 0.19662-0.02488-0.72330
   6  -2  -6  751.04  187.04   1-0.79617-0.50966 0.59470 0.27160-0.11145-0.81637
  -6  -2   6  761.29  150.69   1-0.75890-0.88220-0.59707-0.17238-0.25992 0.43818
  -6   2   6  853.02  150.00   1 0.10666-0.18114-0.99421-0.67258 0.01287 0.71750
  -6  -2   6  764.17  152.11   1 0.10633-0.01575-0.98597-0.56176 0.12862 0.82714
   6  -2  -5 9674.30  473.13   1 0.08058 0.33091 0.99072 0.72358 0.10939-0.60573
   6   2  -510730.25  494.58   1 0.06791 0.15235 0.99612 0.62670-0.05585-0.76421
   6   2  -510388.12  452.01   1-0.77056-0.68440 0.63666 0.26627 0.02956-0.67874
   6  -2  -5 9659.78  392.07   1-0.78809-0.53610 0.61305 0.34526-0.05546-0.77031
  -6  -2   5 9712.16  658.18   1-0.76432-0.85325-0.59864-0.22913-0.23965 0.46846
  -6   2   5 9986.29  424.79   1 0.10630-0.14697-0.99337-0.72694-0.04378 0.67078
  -6  -2   5 8888.27  469.10   1 0.10667 0.01912-0.99154-0.62254 0.07389 0.78235
   6  -2  -4 3894.76  298.33   1 0.08428 0.30031 0.98295 0.77101 0.16335-0.56155
   6   2  -4 3549.74  258.71   1 0.07228 0.12233 0.99738 0.68316-0.00177-0.71994
   6   2  -4 3479.91  253.88   1-0.75412-0.70251 0.65046 0.33538 0.09053-0.62768
   6  -2  -4 3727.91  263.82   1-0.77551-0.55805 0.63126 0.41879 0.00840-0.71636
  -6  -2   4 3885.25  275.24   1-0.76781-0.82236-0.59955-0.28523-0.22583 0.49230
  -6   2   4 3411.62  253.45   1 0.10550-0.11322-0.98875-0.77754-0.10595 0.61855
  -6  -2   4 3481.08  239.30   1 0.10666 0.05365-0.99421-0.68041 0.01246 0.73085
   6  -2  -318167.81  683.98   1 0.08799 0.26960 0.97128 0.81454 0.22104-0.51365
   6   2  -318024.93  617.03   1 0.07683 0.09242 0.99537 0.73635 0.05772-0.67025
   6   2  -318856.04  594.71   1-0.73247-0.71507 0.66246 0.40287 0.15693-0.57127
   6  -2  -316483.61  528.62   1-0.75731-0.57437 0.64818 0.49088 0.07958-0.65508
  -6  -2   316038.66  614.91   1-0.76965-0.78982-0.59999-0.34087-0.21826 0.50988
  -6   2   317839.41  571.69   1 0.10418-0.08000-0.97944-0.82343-0.17270 0.56173
  -6  -2   318875.65  583.64   1 0.10618 0.08771-0.99281-0.73422-0.05511 0.67321
   6  -2  -2 1193.07  172.25   1 0.09161 0.23907 0.95512 0.85352 0.28169-0.46296
   6   2  -2 1873.92  207.12   1 0.08146 0.06263 0.98919 0.78536 0.12191-0.61585
   6   2  -2 1421.61  156.96   1-0.70484-0.72202 0.67170 0.46744 0.22802-0.51007
   6  -2  -2 1589.77  171.55   1-0.73236-0.58365 0.66250 0.56074 0.15723-0.58729
  -6  -2   2 1655.87  204.07   1-0.77000-0.75580-0.60007-0.39614-0.21679 0.52136
  -6  -2   2 1473.55  164.65   1 0.10512 0.12119-0.98619-0.78281-0.12792 0.61034
   6  -2  -1  286.30  117.34   1 0.09501 0.20802 0.93418 0.88778 0.34390-0.41056
   6   2  -1  527.94  129.80   1 0.08602 0.03288 0.97803 0.82939 0.18988-0.55769
   6   2  -1  287.47  102.82   1-0.67089-0.72263 0.67719 0.52825 0.30217-0.44580
   6  -2  -1  362.71  100.30   1-0.69973-0.58559 0.67288 0.62644 0.23998-0.51444
  -6  -2   1  210.91  164.04   1-0.76892-0.72035-0.59982-0.45108-0.22128 0.52689
   6  -2   0  669.66  144.18   1 0.09809 0.17698 0.90825 0.91699 0.40674-0.35749
   6   2   0  877.80  162.61   1 0.09038 0.00282 0.96124 0.86780 0.26046-0.49689
   6   2   0  743.50  124.00   1-0.63051-0.71682 0.67808 0.58447 0.37767-0.38019
   6  -2   0  703.52  144.02   1-0.65900-0.57943 0.67799 0.68687 0.32561-0.43869
  -6  -2   0 1064.03  160.81   1-0.76637-0.68342-0.59918-0.50564-0.23162 0.52655
   6  -2   1 2193.10  221.12   1 0.10079 0.14519 0.87724 0.94130 0.46934-0.30471
   6   2   1 1684.07  214.81   1 0.09441-0.02733 0.93837 0.90002 0.33246-0.43497
   6  -2   1 1586.36  211.99   1-0.61024-0.56523 0.67681 0.74102 0.41172-0.36248
  -6  -2  -1 1513.74  173.85   1-0.76220-0.64487-0.59804-0.55969-0.24774 0.52044
   6  -2   2  989.51  158.76   1 0.10302 0.11298 0.84145 0.96072 0.53040-0.25345
   6   2   2  936.62  214.11   1 0.09799-0.05786 0.90928 0.92610 0.40446-0.37280
  -6  -2  -2  984.92  179.39   1-0.75619-0.60449-0.59623-0.61308-0.26956 0.50864
   6  -2   331953.64  841.97   1 0.10474 0.08055 0.80109 0.97557 0.58930-0.20436
   6   2   335099.64  991.66   1 0.10104-0.08929 0.87387 0.94602 0.47553-0.31154
  -6  -2  -335300.85  883.91   1-0.74801-0.56194-0.59350-0.66553-0.29702 0.49120
   6  -2   4 6920.25  371.80   1 0.10593 0.04731 0.75659 0.98627 0.64524-0.15820
   6   2   4 7869.99  422.10   1 0.10346-0.12131 0.83256 0.95991 0.54418-0.25269
   6  -2   524819.49  772.69   1 0.10658 0.01333 0.70840 0.99322 0.69770-0.11541
   6   2   520210.36  829.04   1 0.10523-0.15368 0.78570 0.96825 0.60959-0.19713
   6  -2   612615.02  608.20   1 0.10669-0.02100 0.65684 0.99685 0.74643-0.07643
   6   2   611854.93  603.88   1 0.10631-0.18703 0.73376 0.97152 0.67102-0.14548
   6  -2   612885.74  579.24   1 0.07395-0.05544 0.65599 0.99589 0.75112-0.07159
   6  -3  -8 4145.44  370.03   1 0.07478 0.46984 0.99673 0.58958 0.03046-0.65698
   6   3  -8 4620.63  345.73   1 0.05428 0.20016 0.97619 0.41553-0.21000-0.88728
   6   3  -8 4256.62  290.10   1-0.79289-0.64475 0.60321 0.04147-0.08632-0.76326
   6  -3  -8 5063.32  300.86   1-0.80373-0.40680 0.55479 0.14691-0.21499-0.90162
  -6  -3   8 4566.07  352.73   1-0.75848-0.90900-0.59694-0.03626-0.26145 0.41520
  -6   3   8 4634.93  357.38   1 0.10668-0.29163-0.99181-0.58541 0.07017 0.75646
  -6  -3   8 4557.62  322.95   1 0.10473-0.04514-0.96617-0.40602 0.23565 0.91274
   6  -3  -7 3457.66  288.16   1 0.07766 0.43830 0.99460 0.64264 0.06883-0.62840
   6   3  -7 3640.16  288.13   1 0.05752 0.16903 0.98285 0.47741-0.17517-0.86226
   6   3  -7 2088.06  396.71   1-0.78625-0.67264 0.61626 0.10983-0.04489-0.73176
   6  -3  -7 3199.55  285.86   1-0.80194-0.43951 0.57130 0.21875-0.17461-0.87119
  -6  -3   7 3388.15  258.81   1-0.76734-0.88349-0.59943-0.09393-0.22774 0.45893
  -6   3   7 3723.51  271.75   1 0.10669-0.25708-0.99396-0.64277 0.02540 0.72162
  -6  -3   7 2677.29  288.00   1 0.10548-0.00984-0.97500-0.47005 0.19554 0.88258
   6  -3  -6  923.82  181.15   1 0.08081 0.40704 0.99034 0.69357 0.11266-0.59435
   6   3  -6 1376.65  166.51   1 0.06122 0.13837 0.98908 0.53886-0.13404-0.83094
   6   3  -6 1053.03  180.86   1-0.77672-0.69763 0.62983 0.17872 0.00299-0.69380
   6  -3  -6 1200.64  147.93   1-0.79787-0.46992 0.58942 0.29220-0.12642-0.83293
  -6  -3   6 1306.54  205.58   1-0.77363-0.85541-0.60086-0.15056-0.20110 0.49558
  -6   3   6 1078.08  164.05   1 0.10645-0.22278-0.99398-0.69800-0.02560 0.68055
  -6  -3   6 1302.26  162.74   1 0.10613 0.02536-0.98320-0.53345 0.14846 0.84544
   6  -3  -5 5943.03  357.25   1 0.08415 0.37608 0.98328 0.74172 0.16144-0.55535
   6   3  -5 5570.95  346.58   1 0.06533 0.10828 0.99409 0.59912-0.08659-0.79329
   6   3  -5 5815.80  309.23   1-0.76357-0.71888 0.64319 0.24718 0.05697-0.64969
   6  -3  -5 5520.80  296.88   1-0.79048-0.49701 0.60844 0.36625-0.07018-0.78665
  -6  -3   5 5577.27  318.50   1-0.77794-0.82534-0.60164-0.20653-0.18119 0.52550
  -6   3   5 4323.26  341.04   1 0.10585-0.18884-0.99096-0.75018-0.08240 0.63369
  -6  -3   5 6251.38  349.08   1 0.10658 0.06046-0.98981-0.59516 0.09439 0.80132
   6  -3  -4 8159.63  440.40   1 0.08757 0.34507 0.97282 0.78645 0.21432-0.51225
   6   3  -4 8346.23  420.44   1 0.06978 0.07833 0.99701 0.65724-0.03309-0.74959
   6   3  -4 6140.23  389.08   1-0.74593-0.73580 0.65564 0.31494 0.11708-0.59950
   6  -3  -4 7667.94  366.82   1-0.77857-0.51963 0.62752 0.44065-0.00559-0.73198
  -6  -3   4 6597.46  407.11   1-0.78065-0.79368-0.60202-0.26210-0.16774 0.54896
  -6   3   4 8162.65  376.64   1 0.10480-0.15535-0.98396-0.79839-0.14429 0.58174
  -6  -3   4 8519.90  399.40   1 0.10671 0.09512-0.99373-0.65428 0.03337 0.75023
   6  -3  -3 3808.06  316.29   1 0.09097 0.31404 0.95841 0.82723 0.27048-0.46588
   6   3  -3 4062.75  295.60   1 0.07445 0.04855 0.99688 0.71229 0.02611-0.70019
   6   3  -3 3722.91  323.03   1-0.72321-0.74728 0.66617 0.38096 0.18214-0.54444
   6  -3  -3 2980.09  238.43   1-0.76091-0.53650 0.64540 0.51371 0.06677-0.66952
  -6  -3   3 4215.78  270.36   1-0.78205-0.76069-0.60217-0.31745-0.16055 0.56617
  -6  -3   3 4135.67  276.32   1 0.10638 0.12934-0.99374-0.70950-0.03407 0.69272
   6  -3  -263100.27 1204.62   1 0.09423 0.28316 0.93957 0.86356 0.32910-0.41722
   6   3  -264166.17 1256.09   1 0.07923 0.01892 0.99274 0.76335 0.09039-0.64570
   6   3  -263180.30 1322.53   1-0.69471-0.75335 0.67391 0.44402 0.25142-0.48506
   6  -3  -260951.39 1181.27   1-0.73627-0.54609 0.66072 0.58458 0.14610-0.60004
  -6  -3   266939.37 1159.66   1-0.78226-0.72653-0.60219-0.37266-0.15944 0.57729
  -6  -3   262919.60 1078.80   1 0.10548 0.16298-0.98863-0.75960-0.10711 0.62963
   6   3  -1   34.06  104.55   1-0.66020-0.75341 0.67793 0.50338 0.32331-0.42306
   6  -3  -1  175.61  107.47   1-0.70359-0.54797 0.67201 0.65119 0.23099-0.52504
  -6  -3   1  -12.78  104.32   1-0.78132-0.69122-0.60210-0.42776-0.16432 0.58243
   6  -3   0    2.53  118.53   1 0.09810 0.21074 0.90822 0.85468 0.40682-0.47444
   6   3   0   47.25  110.39   1 0.08858-0.04045 0.96903 0.85002 0.23050-0.52518
   6   3   0  116.03  109.68   1-0.61965-0.74743 0.67753 0.55829 0.39620-0.36006
   6  -3   0  173.59   95.88   1-0.66233-0.54128 0.67782 0.71232 0.31916-0.44676
  -6  -3   0  164.20  126.80   1-0.77919-0.65472-0.60182-0.48267-0.17508 0.58168
   6  -3   1  939.19  177.73   1 0.10225 0.18812 0.85529 0.94494 0.50795-0.26775
   6   3   1  761.60  170.41   1 0.09287-0.07034 0.94813 0.88420 0.30399-0.46177
   6  -3   1  770.40  140.44   1-0.61250-0.52602 0.67700 0.76683 0.40803-0.36777
  -6  -3  -1  818.04  158.75   1-0.77572-0.61687-0.60126-0.53731-0.19165 0.57512
   6  -3   2 3091.29  265.17   1 0.10410 0.15553 0.81816 0.96301 0.56547-0.22002
   6   3   2 3406.00  258.64   1 0.09673-0.10059 0.92075 0.91199 0.37795-0.39767
  -6  -3  -2 3437.88  265.70   1-0.77066-0.57744-0.60022-0.59146-0.21400 0.56278
   6  -3   3   94.82  125.70   1 0.10547 0.12275 0.77690 0.97696 0.62072-0.17457
   6   3   3   99.31  120.92   1 0.10005-0.13170 0.88680 0.93323 0.45118-0.33424
  -6  -3  -3 -125.08  145.39   1-0.76369-0.53609-0.59846-0.64489-0.24209 0.54471
   6  -3   414991.03  658.48   1 0.10634 0.08900 0.73201 0.98723 0.67294-0.13206
   6   3   414187.74  688.51   1 0.10276-0.16348 0.84636 0.94812 0.52260-0.27262
  -6  -3  -414096.46  614.06   1-0.75437-0.49239-0.59565-0.69727-0.27589 0.52091
   6  -3   5 2207.67  221.50   1 0.10670 0.05491 0.68374 0.99416 0.72187-0.09288
   6   3   5 3301.87  276.95   1 0.10478-0.19559 0.80000 0.95697 0.59077-0.21432
  -6  -3  -5 2741.63  249.89   1-0.74214-0.44579-0.59137-0.74818-0.31542 0.49140
   6  -3   6  556.34  143.94   1 0.10656 0.02032 0.63255 0.99814 0.76715-0.05735
   6   3   6  621.04  161.69   1 0.10609-0.22871 0.74810 0.96027 0.65504-0.15984
   6  -3   6  815.02  158.82   1 0.07157-0.01642 0.63292 0.99843 0.77089-0.05352
   6  -4  -813688.34  639.70   1 0.07911 0.51565 0.99290 0.61132 0.08881-0.60032
   6   4  -815799.54  694.09   1 0.05198 0.15636 0.97081 0.38462-0.23412-0.90973
   6   4  -814592.81  605.66   1-0.78818-0.68153 0.61288 0.02553-0.05602-0.73134
   6  -4  -811805.42  561.62   1-0.80397-0.36554 0.54946 0.16716-0.22742-0.91565
  -6  -4   817051.23  864.18   1-0.77295-0.88195-0.60072-0.01443-0.20413 0.47111
  -6   4   815898.61  649.93   1 0.10670-0.33304-0.99388-0.61312 0.02853 0.71634
  -6  -4   816772.04  707.46   1 0.10439-0.00405-0.96239-0.37658 0.25081 0.92637
   6  -4  -7   42.99  115.16   1 0.08180 0.48392 0.98855 0.66216 0.12677-0.57214
   6   4  -7   32.19  152.27   1 0.05520 0.12521 0.97820 0.44723-0.20018-0.88560
   6   4  -7  -10.76  121.87   1-0.78043-0.70830 0.62506 0.09303-0.01449-0.69974
   6  -4  -7   66.53   95.66   1-0.80266-0.39872 0.56632 0.23935-0.18711-0.88528
  -6  -4   7   82.76  144.84   1-0.78003-0.85465-0.60194-0.07084-0.17092 0.51433
  -6   4   7  210.70  140.47   1 0.10651-0.29869-0.99416-0.66862-0.01677 0.68097
   6  -4  -640641.25 1191.86   1 0.08472 0.45254 0.98180 0.71061 0.16994-0.53873
   6   4  -643505.16 1255.42   1 0.05890 0.09455 0.98536 0.50962-0.15994-0.85518
   6   4  -636409.05 1043.04   1-0.76973-0.73196 0.63751 0.16056 0.03297-0.66215
   6  -4  -640951.26 1021.12   1-0.79911-0.42967 0.58493 0.31330-0.13878-0.84689
  -6  -4   646365.73 1198.06   1-0.78494-0.82519-0.60240-0.12650-0.14477 0.55049
  -6   4   634434.13 1504.29   1 0.10603-0.26463-0.99203-0.72169-0.06805 0.63963
  -6  -4   644351.58 1165.40   1 0.10593 0.06658-0.98059-0.50518 0.16497 0.86043
   6  -4  -5  126.81  166.26   1 0.08778 0.42117 0.97209 0.75609 0.21754-0.50092
   6   4  -5  186.97  133.92   1 0.06303 0.06449 0.99155 0.57102-0.11336-0.81839
   6   4  -5  100.83  124.60   1-0.75527-0.75205 0.64966 0.22803 0.08664-0.61839
   6  -4  -5  -21.43   96.37   1-0.79228-0.45732 0.60460 0.38802-0.08208-0.80018
  -6   4   5  -13.20   91.46   1 0.10518-0.23094-0.98659-0.77146-0.12474 0.59288
  -6  -4   5    7.32  115.96   1 0.10647 0.10178-0.98804-0.56775 0.11148 0.81688
   6  -4  -416124.60  654.71   1 0.09087 0.38984 0.95889 0.79808 0.26883-0.45942
   6   4  -417628.65  645.32   1 0.06752 0.03459 0.99587 0.63056-0.06053-0.77536
   6   4  -417357.73  592.24   1-0.73644-0.76743 0.66063 0.29448 0.14559-0.56949
   6  -4  -415538.21  551.24   1-0.78088-0.48045 0.62444 0.46318-0.01671-0.74473
  -6  -4   415786.23  517.10   1-0.79025-0.76175-0.60239-0.23687-0.11229 0.60300
  -6  -4   418137.52  587.57   1 0.10671 0.13656-0.99298-0.62789 0.05088 0.76621
   6  -4  -356486.92 1284.97   1 0.09391 0.35875 0.94169 0.83606 0.32310-0.41507
   6   4  -357329.61 1197.22   1 0.07228 0.00496 0.99738 0.68726-0.00175-0.72638
   6   4  -354233.73 1071.86   1-0.71253-0.77808 0.66965 0.35882 0.20940-0.51558
   6  -4  -350949.41 1176.84   1-0.76359-0.49770 0.64318 0.53711 0.05690-0.68102
  -6  -4   357363.14 1063.45   1-0.79126-0.72838-0.60231-0.29198-0.10547 0.61984
  -6  -4   355542.22 1044.11   1 0.10651 0.17090-0.99417-0.68429-0.01638 0.70889
   6  -4  -258052.98 1145.19   1 0.09678 0.32746 0.92034 0.86983 0.37894-0.36898
   6   4  -259482.06 1309.24   1 0.07718-0.02460 0.99506 0.74010 0.06237-0.67204
   6   4  -253898.71 1180.45   1-0.68313-0.78325 0.67580 0.42030 0.27677-0.45810
   6  -4  -256988.17 1197.95   1-0.73902-0.50769 0.65937 0.60862 0.13807-0.60977
  -6  -4   259824.62 1108.46   1-0.79137-0.69412-0.60229-0.34716-0.10470 0.63061
  -6  -4   257664.67 1030.48   1 0.10575 0.20468-0.99035-0.73567-0.08954 0.64566
   6  -4  -119663.28  704.95   1 0.09939 0.29564 0.89464 0.89933 0.43557-0.32215
   6   4  -117679.46  646.48   1 0.08210-0.05410 0.98795 0.78818 0.13114-0.61305
   6   4  -117261.12  588.41   1-0.64802-0.78270 0.67831 0.47813 0.34632-0.39843
   6  -4  -117475.17  607.94   1-0.70609-0.50901 0.67139 0.67620 0.22505-0.53259
  -6  -4   119195.17  633.43   1-0.79061-0.65898-0.60237-0.40242-0.10989 0.63544
  -6  -4   120168.53  620.24   1 0.10430 0.23777-0.98034-0.78087-0.16748 0.57766
   6  -4   032127.12  941.85   1 0.10167 0.26345 0.86451 0.92454 0.49221-0.27534
   6   4   030962.01  883.30   1 0.08689-0.08361 0.97520 0.83063 0.20351-0.55050
   6  -4   028567.83  805.26   1-0.66404-0.50152 0.67771 0.73784 0.31581-0.45172
  -6  -4   034510.35  818.96   1-0.78892-0.62292-0.60246-0.45771-0.12094 0.63440
   6  -4   1 4290.91  308.88   1 0.10357 0.23090 0.83025 0.94547 0.54767-0.22967
   6   4   1 4414.03  318.47   1 0.09141-0.11326 0.95616 0.86664 0.27820-0.48590
   6  -4   1 4221.98  321.37   1-0.61284-0.48488 0.67703 0.79248 0.40749-0.36993
  -6  -4  -1 4535.87  309.20   1-0.78615-0.58578-0.60246-0.51289-0.13782 0.62753
   6  -4   2  723.61  151.83   1 0.10504 0.19822 0.79196 0.96240 0.60146-0.18567
   6   4   2  595.72  170.36   1 0.09552-0.14326 0.93041 0.89607 0.35383-0.42014
  -6  -4  -2  734.87  153.10   1-0.78205-0.54730-0.60217-0.56781-0.16051 0.61485
   6  -4   3 3268.78  287.77   1 0.10606 0.16480 0.75009 0.97573 0.65277-0.14415
   6   4   3 3011.59  270.84   1 0.09910-0.17412 0.89778 0.91864 0.42913-0.35464
  -6  -4  -3 3281.39  264.60   1-0.77629-0.50716-0.60136-0.62219-0.18901 0.59637
   6  -4   4 4341.92  378.03   1 0.10661 0.13072 0.70497 0.98579 0.70117-0.10546
   6   4   4 4854.51  350.67   1 0.10207-0.20563 0.85827 0.93446 0.50292-0.29065
  -6  -4  -4 4578.28  352.32   1-0.76842-0.46492-0.59970-0.67571-0.22333 0.57205
   6  -4   5 8946.29  448.65   1 0.10669 0.09635 0.65688 0.99288 0.74640-0.06998
   6   4   5 9128.14  473.68   1 0.10433-0.23750 0.81241 0.94381 0.57366-0.22980
  -6  -4  -5 8668.35  424.63   1-0.75790-0.42002-0.59677-0.72797-0.26353 0.54187
   6  -4   5 9674.85  425.45   1 0.07434 0.06225 0.65973 0.99569 0.74781-0.06867
  -6  -4  -6  229.70  158.90   1-0.74401-0.37176-0.59206-0.77846-0.30967 0.50574
   6  -4   6  670.70  180.79   1 0.06900 0.02239 0.60801 0.99912 0.79092-0.03519
   6  -5  -8 6519.64  439.05   1 0.08359 0.56173 0.98468 0.62867 0.15298-0.53780
   6   5  -8 7642.47  411.63   1 0.05001 0.11288 0.96579 0.35407-0.25443-0.92838
   6   5  -8 7751.37  390.27   1-0.78219-0.71702 0.62259 0.00964-0.02327-0.69697
   6  -5  -8 7019.29  336.62   1-0.80405-0.32413 0.54517 0.18845-0.23721-0.92704
  -6  -5   8 6416.17  413.98   1-0.78407-0.85154-0.60235 0.00954-0.14964 0.52418
  -6   5   8 8179.29  461.38   1 0.10651-0.37467-0.99415-0.63904-0.01759 0.67174
  -6  -5   8 6781.25  386.27   1 0.10411 0.03708-0.95921-0.34775 0.26281 0.93685
   6  -5  -7 3533.30  297.79   1 0.08602 0.52974 0.97802 0.67720 0.18992-0.51065
   6   5  -7 3856.77  274.39   1 0.05321 0.08171 0.97373 0.41724-0.22135-0.90511
   6   5  -7 2658.69  296.69   1-0.77326-0.74261 0.63382 0.07618 0.01825-0.66536
   6  -5  -7 3747.57  254.08   1-0.80311-0.35768 0.56235 0.26096-0.19686-0.89663
  -6  -5   7 2287.42  354.53   1-0.78952-0.82262-0.60243-0.04573-0.11710 0.56674
  -6   5   7 3774.97  277.95   1 0.10609-0.34054-0.99234-0.69244-0.06323 0.63604
  -6  -5   7 3690.22  278.43   1 0.10496 0.07249-0.96891-0.41266 0.22401 0.90799
   6  -5  -6  878.18  171.68   1 0.08865 0.49794 0.96874 0.72312 0.23167-0.47869
   6   5  -6  851.34  163.56   1 0.05689 0.05103 0.98164 0.48037-0.18200-0.87557
   6   5  -6  708.87  142.12   1-0.76129-0.76498 0.64510 0.14253 0.06542-0.62807
   6  -5  -6  811.58  136.00   1-0.79998-0.38903 0.58140 0.33534-0.14830-0.85801
  -6  -5   6 1077.35  168.05   1-0.79319-0.79191-0.60204-0.10053-0.09155 0.60229
  -6   5   6  805.56  166.95   1 0.10536-0.30673-0.98781-0.74312-0.11450 0.59470
  -6  -5   6  718.48  179.53   1 0.10575 0.10782-0.97829-0.47723 0.17820 0.87213
   6  -5  -5 3573.72  285.14   1 0.09139 0.46659 0.95628 0.76585 0.27778-0.44244
   6   5  -5 3950.51  295.36   1 0.06102 0.02080 0.98879 0.54274-0.13625-0.83964
   6   5  -5 2928.62  354.60   1-0.74550-0.78376 0.65589 0.20864 0.11843-0.58496
   6  -5  -5 3692.64  265.74   1-0.79355-0.41711 0.60164 0.41066-0.09106-0.81078
  -6  -5   5 4190.06  273.61   1-0.79556-0.75990-0.60150-0.15518-0.07263 0.63123
  -6   5   5 4055.68  362.39   1 0.10423-0.27333-0.97978-0.79029-0.17077 0.54838
  -6  -5   5 3868.87  307.58   1 0.10636 0.14310-0.98640-0.54047 0.12523 0.82910
   6  -5  -4  410.25  160.13   1 0.09411 0.43486 0.94039 0.80516 0.32679-0.40324
   6   5  -4  490.23  136.33   1 0.06554-0.00888 0.99428 0.60342-0.08420-0.79737
   6   5  -4  511.89  116.65   1-0.72540-0.79786 0.66535 0.27357 0.17630-0.53718
   6  -5  -4  414.56   98.36   1-0.78250-0.44059 0.62215 0.48648-0.02481-0.75446
  -6  -5   4  365.81  124.02   1-0.79697-0.72694-0.60101-0.20988-0.06005 0.65382
  -6  -5   4  176.87  121.91   1 0.10669 0.17797-0.99216-0.60142 0.06504 0.77885
   6  -5  -311904.34  517.26   1 0.09674 0.40333 0.92068 0.84055 0.37812-0.36164
   6   5  -311332.28  535.66   1 0.07035-0.03846 0.99718 0.66151-0.02597-0.74894
   6   5  -312557.89  483.58   1-0.70035-0.80737 0.67275 0.33629 0.23855-0.48482
   6  -5  -3 9886.08  433.87   1-0.76538-0.45802 0.64161 0.56116 0.05013-0.68942
  -6  -5   313156.63  501.69   1-0.79765-0.69324-0.60073-0.26479-0.05360 0.67029
  -6  -5   310898.49  441.56   1 0.10660 0.21242-0.99430-0.65877-0.00201 0.72173
   6  -5  -2 1294.42  206.92   1 0.09918 0.37133 0.89698 0.87205 0.43078-0.31878
   6   5  -2 1348.76  173.98   1 0.07534-0.06792 0.99643 0.71591 0.03785-0.69488
   6   5  -2 1015.43  143.68   1-0.67003-0.81161 0.67726 0.39614 0.30391-0.42935
   6  -5  -2 1109.51  166.51   1-0.74069-0.46788 0.65852 0.63339 0.13311-0.61635
  -6  -5   2 1160.51  178.35   1-0.79769-0.65892-0.60071-0.31996-0.05313 0.68076
  -6  -5   2 1506.13  165.89   1 0.10595 0.24630-0.99151-0.71119-0.07525 0.65842
   6  -5  -1  112.09  133.62   1 0.10136 0.33904 0.86915 0.89956 0.48403-0.27537
   6   5  -1  143.41  134.56   1-0.63431-0.81046 0.67821 0.45240 0.37104-0.37211
   6  -5  -1  161.80   85.85   1-0.70720-0.46864 0.67111 0.70154 0.22240-0.53684
  -6  -5   1  187.08  118.04   1-0.79713-0.62398-0.60095-0.37540-0.05855 0.68536
  -6  -5   1    3.40  120.96   1 0.10595 0.24630-0.99151-0.71119-0.07525 0.65842
   6  -5   0 6690.32  476.05   1 0.10322 0.30646 0.83744 0.92304 0.53668-0.23251
   6   5   0 6810.76  387.97   1 0.08535-0.12662 0.98003 0.80988 0.17958-0.57275
   6  -5   0 6546.16  387.35   1-0.66403-0.46003 0.67771 0.76347 0.31584-0.45329
  -6  -5   0 7808.46  383.28   1-0.79589-0.58836-0.60140-0.43104-0.06980 0.68412
   6  -5   1 2549.41  232.79   1 0.10472 0.27379 0.80185 0.94268 0.58826-0.19071
   6   5   1 2785.41  313.53   1 0.09007-0.15632 0.96267 0.84772 0.25524-0.50688
   6  -5   1 2327.84  233.97   1-0.61106-0.44163 0.67688 0.81796 0.41039-0.36863
  -6  -5  -1 2881.37  235.92   1-0.79381-0.55190-0.60193-0.48676-0.08684 0.67709
   6  -5   2 4905.60  392.15   1 0.10580 0.24044 0.76283 0.95886 0.63787-0.15089
   6   5   2 5255.68  347.45   1 0.09440-0.18618 0.93842 0.87852 0.33232-0.43992
  -6  -5  -2 5167.51  287.54   1-0.79064-0.51436-0.60236-0.54239-0.10969 0.66425
   6  -5   327752.17  883.49   1 0.10647 0.20649 0.72062 0.97185 0.68509-0.11342
   6   5   326519.50  883.13   1 0.09822-0.21647 0.90705 0.90233 0.40939-0.37273
  -6  -5  -328988.63  893.06   1-0.78606-0.47540-0.60245-0.59767-0.13838 0.64557
   6  -5   4 1163.96  163.14   1 0.10671 0.17228 0.67549 0.98190 0.72960-0.07867
   6   5   4 1395.94  196.01   1 0.10142-0.24775 0.86841 0.91903 0.48534-0.30659
  -6  -5  -4 1277.35  197.46   1-0.77962-0.43459-0.60188-0.65229-0.17298 0.62099
   6  -5   5  216.04  177.30   1 0.10652 0.13764 0.62777 0.98936 0.77107-0.04695
   6   5   5  217.35  168.57   1 0.10390-0.27971 0.82295 0.92876 0.55852-0.24321
  -6  -5  -5  313.85  137.82   1-0.77077-0.39136-0.60025-0.70585-0.21356 0.59042
   6  -5   5  239.49  138.92   1 0.07150 0.10081 0.63223 0.99380 0.77146-0.04671
   6  -6  -7 5497.24  398.54   1 0.09023 0.57542 0.96192 0.68667 0.25799-0.44425
   6   6  -7 5691.13  359.58   1 0.05152 0.03852 0.96967 0.38764-0.23891-0.92100
   6   6  -7 3993.91  481.16   1-0.76462-0.77524 0.64229 0.05879 0.05302-0.62892
   6  -6  -7 6228.18  337.00   1-0.80339-0.31646 0.55948 0.28366-0.20383-0.90519
  -6  -6   7 5404.16  416.81   1-0.79623-0.78780-0.60128-0.01897-0.06679 0.61562
  -6   6   7 5490.04  360.09   1 0.10537-0.38270-0.98787-0.71361-0.11404 0.58676
  -6  -6   7 5862.97  358.59   1 0.10477 0.11372-0.96669-0.38478 0.23351 0.91597
   6  -6  -645928.73 1114.70   1 0.09253 0.54364 0.95007 0.73003 0.29797-0.41411
   6   6  -648963.23 1046.73   1 0.05518 0.00782 0.97815 0.45135-0.20040-0.89231
   6  -6  -647929.12  941.18   1-0.80053-0.34809 0.57891 0.35843-0.15492-0.86623
  -6  -6   649010.94  989.43   1-0.79878-0.75598-0.60015-0.07303-0.04193 0.65050
  -6   6   647189.37 1017.49   1 0.10436-0.34916-0.98076-0.76171-0.16496 0.54578
  -6  -6   648321.04  975.14   1 0.10560 0.14910-0.97643-0.44972 0.18822 0.88063
   6  -6  -5 1872.49  244.21   1 0.09487 0.51154 0.93518 0.77033 0.34122-0.38066
   6   6  -5 2278.93  244.05   1 0.05931-0.02241 0.98605 0.51447-0.15549-0.85721
   6   6  -5 1261.12  292.76   1-0.73419-0.81355 0.66168 0.18896 0.15206-0.54992
   6  -6  -5 1328.50  205.22   1-0.79435-0.37643 0.59965 0.43427-0.09701-0.81835
  -6  -6   5 1880.08  204.08   1-0.80034-0.72316-0.59907-0.12714-0.02358 0.67886
  -6  -6   5 1775.01  196.08   1 0.10627 0.18444-0.98503-0.51344 0.13572 0.83806
   6  -6  -4 5889.93  376.54   1 0.09718 0.47968 0.91681 0.80706 0.38730-0.34430
   6   6  -4 5809.32  361.35   1 0.06383-0.05209 0.99250 0.57608-0.10423-0.81573
   6   6  -4 5614.97  325.96   1-0.71275-0.82667 0.66959 0.25219 0.20888-0.50299
   6  -6  -4 4801.46  398.54   1-0.78346-0.40006 0.62072 0.51066-0.02976-0.76103
  -6  -6   4 5639.07  341.48   1-0.80122-0.68967-0.59824-0.18151-0.01146 0.70099
  -6  -6   4 6211.84  358.51   1 0.10666 0.21937-0.99139-0.57501 0.07590 0.78818
   6  -6  -3  -15.39  164.27   1 0.09937 0.44743 0.89481 0.84026 0.43522-0.30618
   6   6  -3   82.51  108.64   1 0.06867-0.08163 0.99654 0.63533-0.04660-0.76791
   6   6  -3   30.22  115.77   1-0.68654-0.83503 0.67531 0.31323 0.26944-0.45231
   6  -6  -3  -29.00   75.97   1-0.76628-0.41745 0.64080 0.58596 0.04666-0.69453
  -6  -6   3  149.15  105.59   1 0.10664 0.25389-0.99425-0.63308 0.00904 0.73125
   6  -6  -2 1194.16  186.20   1 0.10138 0.41496 0.86900 0.86979 0.48430-0.26695
   6   6  -2 1485.45  181.88   1 0.07374-0.11095 0.99713 0.69112 0.01693-0.71417
   6   6  -2 1659.95  187.00   1-0.65531-0.83837 0.67814 0.37139 0.33267-0.39898
   6  -6  -2 1410.37  184.52   1-0.74119-0.42692 0.65825 0.65874 0.13159-0.61951
  -6  -6   2 1629.17  171.86   1-0.80163-0.62133-0.59778-0.29143-0.00515 0.72732
  -6  -6   2 1419.91  168.42   1 0.10608 0.28787-0.99227-0.68631-0.06424 0.66790
   6  -6  -1 1196.55  175.30   1 0.10312 0.38226 0.83957 0.89556 0.53336-0.22768
   6   6  -1 1217.84  184.71   1 0.07888-0.14027 0.99320 0.74229 0.08561-0.65522
   6   6  -1 1025.43  163.38   1-0.61901-0.83663 0.67748 0.42605 0.39728-0.34426
   6  -6  -1 1046.65  140.01   1-0.70681-0.42678 0.67121 0.72726 0.22333-0.53752
  -6  -6   1  957.53  161.37   1-0.80127-0.58659-0.59819-0.34703-0.01074 0.73175
  -6  -6   1  815.14  168.17   1 0.10483 0.32116-0.98416-0.73340-0.14295 0.59914
   6  -6   0 4805.22  451.41   1 0.10455 0.34953 0.80647 0.91768 0.58194-0.18887
   6   6   0 5812.98  354.73   1 0.08398-0.16947 0.98373 0.78801 0.15880-0.59186
   6  -6   0 5800.89  342.77   1-0.66211-0.41665 0.67783 0.78921 0.31959-0.45116
  -6  -6   0 5870.53  310.56   1-0.80046-0.55140-0.59897-0.40301-0.02207 0.73043
   6  -6   111214.19  492.65   1 0.10564 0.31618 0.77011 0.93652 0.62909-0.15150
   6   6   1 9791.50  557.19   1 0.08887-0.19900 0.96787 0.82735 0.23521-0.52524
  -6  -6  -110831.12  429.36   1-0.79903-0.51561-0.60000-0.45922-0.03916 0.72336
   6  -6   2  -20.95  119.30   1 0.10635 0.28228 0.73066 0.95229 0.67440-0.11600
  -6  -6  -2  -14.86  101.05   1-0.79676-0.47896-0.60110-0.51551-0.06201 0.71051
   6  -6   3  -13.97  109.22   1 0.10669 0.24816 0.68836 0.96518 0.71747-0.08268
  -6  -6  -3    9.76  106.44   1-0.79330-0.44112-0.60202-0.57164-0.09071 0.69183
   6  -6   4 1548.19  207.02   1 0.10663 0.21365 0.64352 0.97552 0.75795-0.05195
   6   6   4 1461.76  200.46   1 0.10082-0.28981 0.87687 0.90190 0.47003-0.32026
  -6  -6  -4 1627.52  191.06   1-0.78822-0.40167-0.60247-0.62728-0.12534 0.66721
   6  -6   4 1433.36  251.38   1 0.07338 0.17859 0.65039 0.98242 0.75603-0.05420
   6  -6   5 6223.10  403.92   1 0.10619 0.17876 0.59641 0.98359 0.79562-0.02403
   6   6   5 6320.94  400.86   1 0.10350-0.32157 0.83175 0.91198 0.54540-0.25468
  -6  -6  -5 5933.44  396.51   1-0.78099-0.36006-0.60206-0.68205-0.16605 0.63651
   6  -6   5 6420.13  380.42   1 0.06846 0.13916 0.60277 0.98995 0.79496-0.02491
   6   7  -7  102.89  117.83   1 0.05015-0.00435 0.96614 0.35858-0.25305-0.93348
   6  -7  -7  -11.37   80.98   1-0.80352-0.27510 0.55776 0.30753-0.20793-0.91090
  -6  -7   7   28.08  112.78   1 0.10463 0.15500-0.96511-0.35755 0.24000 0.92093
   6  -7  -6  496.33  156.45   1 0.09623 0.58907 0.92490 0.73034 0.36781-0.34583
   6   7  -6  505.34  154.95   1 0.05378-0.03508 0.97505 0.42272-0.21534-0.90558
   6   7  -6  585.77  201.74   1-0.73949-0.82613 0.65914 0.10534 0.13669-0.55353
   6  -7  -6  480.16  129.57   1-0.80082-0.30688 0.57753 0.38263-0.15853-0.87144
  -6  -7   6  527.42  202.47   1-0.80215-0.71801-0.59710-0.04440 0.00360 0.69461
  -6  -7   6  403.63  137.73   1 0.10549 0.19041-0.97508-0.42272 0.19514 0.88603
   6  -7  -5 3977.86  306.56   1 0.09814 0.55654 0.90783 0.76846 0.40767-0.31577
   6   7  -5 4815.10  314.88   1 0.05788-0.06534 0.98352 0.48641-0.17122-0.87127
   6   7  -5 4681.98  299.70   1-0.72107-0.84190 0.66693 0.16858 0.18775-0.51262
   6  -7  -5 3718.30  288.96   1-0.79472-0.33531 0.59870 0.45892-0.09980-0.82276
  -6  -7   5 3157.34  314.60   1-0.80301-0.68448-0.59557-0.09806 0.02137 0.72239
  -6  -7   5 4815.41  329.68   1 0.10619 0.22567-0.98400-0.48684 0.14300 0.84383
   6  -7  -4 4630.42  338.72   1 0.10000 0.52396 0.88742 0.80325 0.44997-0.28327
   6   7  -4 4157.27  298.98   1 0.06240-0.09519 0.99073 0.54884-0.12061-0.83048
   6   7  -4 4316.23  322.95   1-0.69834-0.85373 0.67318 0.23016 0.24319-0.46707
   6  -7  -4 3800.47  296.19   1-0.78377-0.35888 0.62025 0.53579-0.03139-0.76428
  -6  -7   4 5505.39  337.21   1-0.80344-0.65052-0.59446-0.15214 0.03304 0.74408
  -6  -7   4 4663.38  309.80   1 0.10663 0.26077-0.99078-0.54876 0.08351 0.79426
   6  -7  -341827.52 1155.63   1 0.10174 0.49123 0.86348 0.83465 0.49400-0.24909
   6   7  -340545.90  880.24   1 0.06726-0.12454 0.99569 0.60892-0.06375-0.78338
   6  -7  -340088.36  863.29   1-0.76627-0.37596 0.64081 0.61159 0.04669-0.69613
  -6  -7   343222.96  878.86   1 0.10667 0.29535-0.99415-0.60733 0.01681 0.73750
   6  -7  -222045.94  799.45   1 0.10329 0.45833 0.83619 0.86255 0.53861-0.21427
   6   7  -224426.86  713.87   1 0.07237-0.15382 0.99737 0.66581-0.00065-0.73008
   6   7  -221673.83  694.00   1-0.63891-0.86344 0.67830 0.34592 0.36289-0.36715
   6  -7  -222604.29  742.91   1-0.74047-0.38472 0.65863 0.68473 0.13377-0.61897
  -6  -7   217577.95  717.71   1-0.80361-0.58193-0.59388-0.26194 0.03882 0.76989
  -6  -7   222362.36  612.48   1 0.10617 0.32938-0.99273-0.66112-0.05652 0.67409
   6  -7  -1  402.60  161.18   1 0.10459 0.42546 0.80543 0.88703 0.58337-0.17928
   6  -7  -1  238.45   94.40   1-0.70478-0.38328 0.67172 0.75339 0.22816-0.53430
  -6  -7   1  441.00  127.94   1-0.80344-0.54738-0.59445-0.31769 0.03314 0.77423
  -6  -7   1  343.67  142.20   1 0.10498 0.36273-0.98519-0.70878-0.13555 0.60501
   6  -7   018678.69  648.02   1 0.10560 0.39204 0.77162 0.90841 0.62725-0.14519
   6   7   017794.37  606.68   1 0.08279-0.21226 0.98651 0.76523 0.14119-0.60775
   6  -7   011635.10  620.28   1-0.65806-0.37113 0.67804 0.81503 0.32742-0.44493
  -6  -7   014073.09  620.69   1-0.80303-0.51258-0.59552-0.37396 0.02181 0.77292
   6  -7   1 8633.46  472.71   1 0.10630 0.35830 0.73482 0.92681 0.66987-0.11236
   6   7   1 7237.61  494.80   1 0.08782-0.24153 0.97194 0.80586 0.21818-0.54060
  -6  -7  -1 6880.59  432.03   1-0.80222-0.47739-0.59700-0.43062 0.00481 0.76593
   6  -7   228833.83  947.82   1 0.10666 0.32404 0.69532 0.94254 0.71073-0.08130
   6   7   231096.67  960.44   1 0.09250-0.27102 0.95025 0.83918 0.29741-0.47150
  -6  -7  -233953.87  969.57   1-0.80078-0.44145-0.59869-0.48750-0.01781 0.75329
   6  -7   311074.18  496.79   1 0.10668 0.28960 0.65331 0.95571 0.74953-0.05225
   6   7   310987.51  525.83   1 0.09670-0.30092 0.92095 0.86507 0.37748-0.40135
  -6  -7  -3 9538.22  468.24   1-0.79836-0.40466-0.60038-0.54438-0.04635 0.73477
   6  -7   3 8801.14  668.12   1 0.07463 0.25576 0.66256 0.96505 0.74527-0.05704
   6  -7   4 7433.88  429.13   1 0.10634 0.25482 0.60905 0.96664 0.78596-0.02558
   6   7   4 6948.31  447.18   1 0.10029-0.33177 0.88380 0.88313 0.45697-0.33167
  -6  -7  -4 5907.81  386.94   1-0.79457-0.36649-0.60176-0.60096-0.08084 0.71029
   6  -7   4 6479.23  397.73   1 0.07005 0.21666 0.61817 0.97581 0.78291-0.02903
   6   8  -6 1188.49  202.49   1 0.05267-0.07769 0.97247 0.39460-0.22698-0.91556
   6   8  -6 1023.28  156.49   1-0.72586-0.85360 0.66518 0.08588 0.17507-0.51379
   6  -8  -6  937.05  150.60   1-0.80086-0.26542 0.57734 0.40802-0.15902-0.87353
  -6  -8   6 1095.21  156.40   1-0.80377-0.67810-0.59321-0.01491 0.04521 0.73481
  -6  -8   6 1120.16  176.12   1 0.10542 0.23177-0.97430-0.39629 0.19902 0.88838
   6  -8  -533753.67 1011.03   1 0.10108 0.60091 0.87332 0.75966 0.47654-0.24861
   6   8  -535724.97  893.21   1 0.05674-0.10799 0.98136 0.45871-0.18360-0.88199
   6   8  -533837.03  846.96   1-0.70603-0.86833 0.67141 0.14744 0.22521-0.47355
   6  -8  -534706.83  861.50   1-0.79465-0.29376 0.59888 0.48470-0.09928-0.82387
  -6  -8   537108.62  850.43   1-0.80402-0.64397-0.59131-0.06819 0.06238 0.76200
  -6  -8   535666.96  865.38   1 0.10615 0.26704-0.98339-0.46058 0.14718 0.84649
   6   8  -4   52.19  128.86   1 0.06125-0.13784 0.98912 0.52170-0.13371-0.84191
   6   8  -4  102.58  129.14   1-0.68204-0.87891 0.67595 0.20731 0.27908-0.42956
   6  -8  -4  146.40  108.65   1-0.78340-0.31704 0.62080 0.56194-0.02948-0.76400
  -6  -8   4   49.24  123.63   1-0.80406-0.60962-0.58996-0.12203 0.07360 0.78323
  -6  -8   4  209.51  158.75   1 0.10661 0.30218-0.99040-0.52273 0.08791 0.79713
   6  -8  -3 2365.13  292.09   1 0.10375 0.53470 0.82636 0.82311 0.55349-0.19125
   6   8  -3 2548.48  292.02   1 0.06610-0.16718 0.99479 0.58247-0.07749-0.79546
   6   8  -3 2595.79  267.15   1-0.65364-0.88508 0.67820 0.26487 0.33583-0.38271
   6  -8  -3 2090.16  243.29   1-0.76529-0.33351 0.64170 0.63809 0.05048-0.69397
  -6  -8   3 2833.24  259.26   1-0.80404-0.57522-0.58928-0.17654 0.07907 0.79871
  -6  -8   3 2791.06  260.13   1 0.10668 0.33679-0.99406-0.58160 0.02131 0.74047
   6  -8  -2 1329.66  194.18   1 0.10485 0.50162 0.79798 0.84996 0.59348-0.16101
   6   8  -2 1293.75  188.16   1 0.07124-0.19644 0.99734 0.64023-0.01486-0.74263
   6   8  -2 1416.51  195.51   1-0.62072-0.88672 0.67759 0.31959 0.39441-0.33402
   6  -8  -2 1686.10  199.96   1-0.73838-0.34115 0.65969 0.71141 0.13996-0.61441
  -6  -8   2 1700.68  184.62   1-0.80404-0.54084-0.58930-0.23175 0.07890 0.80856
  -6  -8   2 1722.90  207.25   1 0.10621 0.37086-0.99297-0.63572-0.05210 0.67699
   6  -8  -110259.77  530.07   1 0.10572 0.46806 0.76674 0.87391 0.63319-0.13109
   6   8  -110146.66  493.32   1 0.07651-0.22560 0.99563 0.69360 0.05336-0.68411
   6  -8  -1 8590.51  441.02   1-0.70090-0.33792 0.67263 0.77993 0.23728-0.52679
  -6  -8   1 9869.03  513.08   1-0.80406-0.50647-0.59002-0.28765 0.07318 0.81285
  -6  -8   110700.16  460.05   1 0.10505 0.40424-0.98573-0.68369-0.13146 0.60757
   6  -8   0 4400.60  339.76   1 0.10633 0.43406 0.73265 0.89509 0.67224-0.10193
   6   8   0 4642.57  325.16   1 0.08180-0.25473 0.98855 0.74170 0.12679-0.62047
   6  -8   0 3985.95  308.61   1-0.65153-0.32313 0.67825 0.84087 0.33980-0.43417
  -6  -8   0 4615.73  279.89   1-0.80402-0.47205-0.59136-0.34418 0.06191 0.81160
   6  -8   123530.84  772.42   1 0.10666 0.39994 0.69593 0.91356 0.71013-0.07378
   6   8   123086.51  793.43   1 0.08694-0.28388 0.97505 0.78340 0.20421-0.55289
  -6  -8  -124003.44  662.28   1-0.80376-0.43741-0.59323-0.40124 0.04507 0.80478
   6  -8   2   52.50  123.05   1 0.10669 0.36552 0.65679 0.92960 0.74648-0.04719
   6   8   2   16.25  155.69   1 0.09176-0.31323 0.95434 0.81768 0.28427-0.48298
  -6  -8  -2   54.19  145.29   1-0.80306-0.40233-0.59545-0.45865 0.02259 0.79231
   6  -8   2  190.78  106.03   1 0.07525 0.33230 0.66864 0.94159 0.73976-0.05461
   6  -8   3 1047.25  180.59   1 0.10641 0.33079 0.61544 0.94343 0.78096-0.02245
   6   8   3  865.85  202.45   1 0.09611-0.34297 0.92580 0.84435 0.36557-0.41162
  -6  -8  -3  888.67  143.03   1-0.80161-0.36638-0.59781-0.51621-0.00557 0.77413
   6  -8   3  843.52  234.28   1 0.07101 0.29353 0.62742 0.95551 0.77543-0.02857
   6  -8   4 2478.67  269.85   1 0.10582 0.29575 0.57208 0.95526 0.81333 0.00016
   6   8   4 3032.28  306.81   1 0.09986-0.37367 0.88911 0.86286 0.44665-0.34035
  -6  -8  -4 2845.07  226.32   1-0.79898-0.32938-0.60003-0.57362-0.03974 0.74997
   6  -8   4 1766.36  229.80   1 0.06649 0.25450 0.58380 0.96706 0.80916-0.00448
   6   9  -5 1076.36  206.10   1 0.05589-0.15034 0.97964 0.43147-0.19278-0.88950
   6   9  -5  792.63  203.66   1-0.68892-0.89269 0.67493 0.12534 0.26427-0.43287
   6  -9  -5  993.28  174.74   1-0.79412-0.25174 0.60024 0.51166-0.09526-0.82147
  -6  -9   5 1153.31  157.07   1-0.80376-0.60219-0.58661-0.03788 0.09925 0.79745
  -6  -9   5 1333.17  170.43   1 0.10613 0.30846-0.98323-0.43476 0.14828 0.84606
   6  -9  -4 2266.91  247.89   1 0.10449 0.61160 0.80824 0.77541 0.57949-0.15706
   6   9  -4 2372.73  359.93   1 0.06038-0.18022 0.98780 0.49485-0.14354-0.85008
   6   9  -4 2525.74  233.14   1-0.66374-0.90207 0.67773 0.18346 0.31641-0.39063
   6  -9  -4 2394.91  202.36   1-0.78230-0.27445 0.62243 0.58917-0.02382-0.75996
  -6  -9   4 1989.48  213.31   1-0.80347-0.56752-0.58507-0.09153 0.11003 0.81825
  -6  -9   4 2546.10  279.37   1 0.10661 0.34361-0.99029-0.49698 0.08913 0.79683
   6  -9  -3  783.58  156.80   1 0.10531 0.57799 0.78276 0.80513 0.61334-0.13300
   6   9  -3  865.02  179.40   1 0.06522-0.20956 0.99398 0.55611-0.08794-0.80424
   6   9  -3  566.70  159.80   1-0.63433-0.90724 0.67821 0.23926 0.37100-0.34593
   6  -9  -3  697.54  131.06   1-0.76321-0.28995 0.64350 0.66552 0.05834-0.68775
  -6  -9   3  972.64  150.27   1-0.80331-0.53306-0.58434-0.14624 0.11504 0.83333
  -6  -9   3  724.37  146.63   1 0.10669 0.37823-0.99403-0.55592 0.02255 0.74019
   6  -9  -221804.94  748.88   1 0.10598 0.54422 0.75436 0.83192 0.64784-0.10828
   6   9  -220388.75  706.90   1 0.07037-0.23880 0.99718 0.61452-0.02578-0.75188
   6  -9  -219739.67  773.15   1-0.73473-0.29572 0.66144 0.73904 0.15052-0.60527
  -6  -9   223048.23  631.67   1-0.80332-0.49868-0.58438-0.20147 0.11474 0.84304
  -6  -9   218271.54  765.93   1 0.10622 0.41230-0.99303-0.61013-0.05100 0.67656
   6  -9  -1   40.55  118.54   1 0.10644 0.51008 0.72319 0.85604 0.68238-0.08366
   6   9  -1  173.28  144.32   1 0.07567-0.26792 0.99624 0.66863 0.04216-0.69364
  -6  -9   1  163.73  108.98   1-0.80350-0.46439-0.58520-0.25722 0.10918 0.84744
  -6  -9   1   30.73   89.68   1 0.10507 0.44569-0.98583-0.65814-0.13071 0.60680
   6  -9   0  687.98  164.81   1 0.10668 0.47587 0.68947 0.87750 0.71641-0.05939
   6   9   0  644.39  195.01   1 0.08102-0.29699 0.98998 0.71757 0.11560-0.62998
  -6  -9   0  784.32  140.98   1-0.80379-0.43030-0.58677-0.31398 0.09803 0.84631
   6  -9   1 4521.01  540.74   1 0.10668 0.44141 0.65336 0.89657 0.74949-0.03606
   6   9   1 5286.81  332.67   1 0.08624-0.32604 0.97733 0.76010 0.19335-0.56208
  -6  -9  -1 4704.98  297.78   1-0.80403-0.39615-0.58898-0.37138 0.08142 0.83972
   6  -9   1 4230.72  303.29   1 0.07522 0.40818 0.66832 0.91171 0.74005-0.04638
   6  -9   218253.27  846.63   1 0.10641 0.40669 0.61505 0.91345 0.78127-0.01403
   6   9   217423.59  773.52   1 0.09118-0.35553 0.95733 0.79530 0.27421-0.49100
  -6  -9  -216144.54  622.34   1-0.80399-0.36174-0.59166-0.42925 0.05926 0.82757
   6  -9   219053.81  732.91   1 0.07130 0.36974 0.63029 0.92884 0.77307-0.02300
   6  -9   3 1191.35  175.68   1 0.10587 0.37170 0.57474 0.92832 0.81145 0.00639
   6   9   3 1293.87  199.17   1 0.09566-0.38489 0.92938 0.82235 0.35651-0.41903
  -6  -9  -3 1236.12  160.00   1-0.80339-0.32675-0.59462-0.48739 0.03141 0.80974
   6  -9   3 1388.34  186.19   1 0.06712 0.33105 0.58990 0.94361 0.80467-0.00103
   6  10  -4  352.36  165.53   1 0.05978-0.22232 0.98684 0.46836-0.15023-0.85510
   6  10  -4  327.77  138.24   1-0.64328-0.92309 0.67834 0.15844 0.35501-0.35042
   6 -10  -4  241.17  111.21   1-0.78035-0.23102 0.62517 0.61751-0.01410-0.75186
  -6 -10   4  224.64  135.50   1-0.80204-0.52468-0.58008-0.06119 0.14220 0.84909
  -6 -10   4  393.49  160.17   1 0.10662 0.38505-0.99046-0.47151 0.08718 0.79335
   6 -10  -3   31.94  125.38   1 0.10633 0.62032 0.73259 0.78066 0.67230-0.07588
   6  10  -3   45.44  150.88   1 0.06460-0.25167 0.99335 0.52993-0.09519-0.80983
   6  10  -3    1.68  105.36   1-0.61296-0.92734 0.67704 0.21247 0.40728-0.30804
  -6 -10   3  -22.66  103.63   1-0.80175-0.48999-0.57926-0.11555 0.14714 0.86403
  -6 -10   3   13.06  114.98   1 0.10668 0.41965-0.99408-0.53032 0.02053 0.73664
   6 -10  -2   44.26  140.04   1 0.10661 0.58615 0.70495 0.80820 0.70119-0.05674
   6  10  -2  506.21  136.23   1 0.06975-0.28092 0.99700 0.58878-0.03346-0.75790
  -6 -10   2  273.06  107.89   1-0.80177-0.45562-0.57932-0.17080 0.14673 0.87362
  -6 -10   2  406.22  144.73   1 0.10620 0.45371-0.99291-0.58437-0.05324 0.67279
   6 -10  -1 2085.67  223.83   1 0.10671 0.55181 0.67469 0.83313 0.73034-0.03735
   6  10  -1 2379.80  232.24   1 0.07506-0.31001 0.99659 0.64341 0.03419-0.69993
  -6 -10   1 2351.69  259.21   1-0.80211-0.42157-0.58027-0.22693 0.14104 0.87793
  -6 -10   1 2321.96  223.80   1 0.10502 0.48707-0.98548-0.63214-0.13336 0.60262
   6 -10   017208.27  822.52   1 0.10662 0.51727 0.64200 0.85562 0.75924-0.01819
   6  10   019313.73  774.06   1 0.08046-0.33903 0.99093 0.69295 0.10761-0.63629
  -6 -10   018078.21  649.24   1-0.80268-0.38775-0.58204-0.28388 0.13006 0.87695
   6 -10   018446.43  816.49   1 0.07447 0.48334 0.66099 0.87485 0.74668-0.03182
   6 -10   1 6140.03  407.94   1 0.10632 0.48251 0.60708 0.87588 0.78749 0.00030
   6  10   1 4738.01  473.01   1 0.08575-0.36802 0.97886 0.73607 0.18564-0.56811
  -6 -10  -1 5243.56  295.78   1-0.80335-0.35403-0.58453-0.34156 0.11374 0.87062
   6 -10   1 4362.39  336.08   1 0.07089 0.44525 0.62631 0.89532 0.77633-0.01180
   7   0  -5    7.98  169.79   1 0.08769 0.26147 0.97242 0.72786 0.21611-0.63391
   7   0  -5   24.69   98.21   1-0.75282-0.58433 0.65134 0.32508 0.09486-0.74355
  -7   0   5   34.72   97.00   1 0.10568-0.06434-0.98989-0.66523-0.09452 0.74385
   7   0  -410277.56  553.58   1 0.08529 0.21760 0.98020 0.71007 0.17869-0.66965
   7   0  -4 9063.43  534.70   1-0.73470-0.60036 0.66145 0.39073 0.15061-0.69777
  -7   0   410546.41  484.63   1 0.10471-0.03077-0.98332-0.71386-0.14871 0.69960
   7   0  -3   53.62  127.54   1 0.08848 0.18636 0.96943 0.75449 0.22885-0.62928
   7   0  -3   10.01   94.63   1-0.71185-0.61207 0.66985 0.45445 0.21110-0.64717
   7   0  -213381.95  587.89   1 0.09163 0.15543 0.95501 0.79518 0.28205-0.58610
   7   0  -212277.89  552.54   1-0.68381-0.61860 0.67571 0.51564 0.27533-0.59282
   7   0  -1  101.70  144.66   1 0.09466 0.12401 0.93664 0.83200 0.33724-0.54072
   7   0  -1   86.18  131.22   1-0.65025-0.61961 0.67828 0.57353 0.34220-0.53585
   7   0   0 9671.16  497.12   1 0.09749 0.09276 0.91400 0.86451 0.39380-0.49397
   7   0   0 7995.44  481.07   1-0.61107-0.61499 0.67688 0.62746 0.41037-0.47756
   7   0   1  -61.72  162.39   1 0.10004 0.06087 0.88693 0.89263 0.45093-0.44664
   7   0   2 1436.78  240.06   1 0.10225 0.02860 0.85526 0.91632 0.50799-0.39940
   7  -1  -512195.96  568.99   1 0.08473 0.29294 0.98177 0.68201 0.17013-0.67010
   7   1  -511610.83  559.97   1 0.07972 0.20483 0.99205 0.64116 0.09731-0.73956
   7   1  -511900.54  503.51   1-0.74717-0.62014 0.65491 0.30303 0.11320-0.72359
   7  -1  -510866.94  444.26   1-0.75753-0.54756 0.64801 0.34736 0.07880-0.76125
  -7   1   512643.66  505.33   1 0.10523-0.10622-0.98694-0.68792-0.12194 0.71796
  -7  -1   512824.13  529.88   1 0.10601-0.02258-0.99188-0.64158-0.07013 0.76672
   7  -1  -419864.57  830.41   1 0.08769 0.26147 0.97242 0.72786 0.21611-0.63391
   7   1  -420875.83  804.04   1 0.08300 0.17370 0.98604 0.69034 0.14434-0.70231
   7   1  -415616.27  972.89   1-0.72847-0.63560 0.66415 0.36780 0.16800-0.67876
   7  -1  -414238.89  945.73   1-0.73985-0.56444 0.65895 0.41362 0.13560-0.71436
  -7   1   421603.66  787.22   1 0.10411-0.07280-0.97890-0.73509-0.17580 0.67404
  -7  -1   421245.26  778.57   1 0.10518 0.01112-0.98662-0.69152-0.12452 0.72226
   7  -1  -3  776.62  188.25   1 0.09067 0.23003 0.95988 0.77051 0.26534-0.59446
   7   1  -3 1553.74  190.97   1 0.08636 0.14278 0.97695 0.73644 0.19520-0.66125
   7  -1  -3  774.35  172.27   1-0.71741-0.57616 0.66816 0.47838 0.19718-0.66270
   7   1  -3  978.29  158.48   1-0.70516-0.64686 0.67163 0.43061 0.22726-0.62939
  -7  -1   3 1299.42  166.95   1 0.10393 0.04441-0.97759-0.73769-0.18306 0.67366
   7  -1  -2 7740.68  485.38   1 0.09360 0.19886 0.94368 0.80944 0.31732-0.55250
   7   1  -2 7884.74  455.00   1 0.08971 0.11170 0.96428 0.77897 0.24922-0.61702
   7   1  -2 7610.80  432.32   1-0.67685-0.65312 0.67659 0.49089 0.28996-0.57658
   7  -1  -2 6454.51  445.38   1-0.68953-0.58285 0.67483 0.54038 0.26293-0.60684
   7  -1  -120553.50  745.98   1 0.09638 0.16756 0.92362 0.84451 0.37097-0.50864
   7   1  -120541.25  757.82   1 0.09297 0.08085 0.94753 0.81731 0.30582-0.57048
   7   1  -116906.98  689.13   1-0.64327-0.65410 0.67834 0.54796 0.35502-0.52141
   7  -1  -118705.00  619.19   1-0.65589-0.58378 0.67812 0.59900 0.33158-0.54808
   7  -1   0   35.72  116.17   1 0.09895 0.13569 0.89943 0.87552 0.42569-0.46373
   7   1   0  325.84  164.19   1 0.09603 0.04984 0.92645 0.85137 0.36395-0.52217
   7  -1   0  106.71  147.67   1-0.61632-0.57877 0.67730 0.65349 0.40175-0.48780
   7  -1   1 8697.09  539.23   1 0.10124 0.10350 0.87092 0.90236 0.48088-0.41836
   7   1   1 8915.75  479.56   1 0.09883 0.01820 0.90075 0.88087 0.42294-0.47299
   7  -1   2 1608.74  203.67   1 0.10318 0.07100 0.83823 0.92487 0.53545-0.37358
   7   1   2 1459.99  218.07   1 0.10129-0.01382 0.87023 0.90572 0.48210-0.42365
   7  -2  -5 3398.64  280.21   1 0.08740 0.33708 0.97345 0.69927 0.21152-0.63039
   7   2  -5 3399.49  308.78   1 0.07745 0.16108 0.99480 0.61835 0.06598-0.76921
   7  -2  -5 3022.27  254.18   1-0.76137-0.50993 0.64503 0.37000 0.06512-0.77657
  -7   2   5 3192.34  269.33   1 0.10463-0.14825-0.98276-0.70939-0.15239 0.68904
   7  -2  -413068.24  601.78   1 0.09015 0.30540 0.96231 0.74332 0.25655-0.59514
   7   2  -411896.69  589.28   1 0.08085 0.13007 0.99027 0.66901 0.11320-0.73178
   7   2  -412234.42  603.02   1-0.72114-0.66974 0.66690 0.34494 0.18755-0.65761
   7  -2  -411708.18  545.49   1-0.74408-0.52719 0.65669 0.43698 0.12283-0.72877
  -7  -2   414718.15  663.23   1-0.74449-0.79905-0.59223-0.27087-0.30819 0.53678
  -7  -2   413207.81  565.27   1 0.10554 0.05291-0.98903-0.66829-0.10325 0.74201
   7  -2  -3 4727.08  350.36   1 0.09291 0.27409 0.94788 0.78403 0.30475-0.55692
   7   2  -3 4258.61  363.99   1 0.08436 0.09930 0.98276 0.71669 0.16450-0.69028
   7   2  -3 3701.20  323.75   1-0.69731-0.68047 0.67339 0.40675 0.24554-0.60950
   7  -2  -3 4268.89  315.64   1-0.72188-0.53916 0.66665 0.50250 0.18563-0.67586
  -7  -2   3 4185.44  348.44   1-0.74639-0.76659-0.59292-0.32675-0.30219 0.55278
  -7  -2   3 4603.37  303.19   1 0.10442 0.08633-0.98122-0.71568-0.16213 0.69306
   7   2  -2   50.06  177.04   1 0.08788 0.06840 0.97170 0.76082 0.21923-0.64533
   7   2  -2   55.50   95.19   1-0.66865-0.68638 0.67738 0.46606 0.30668-0.55826
   7  -2  -2   15.38   90.05   1-0.69405-0.54590 0.67403 0.56520 0.25289-0.61848
  -7  -2   2  105.92  156.26   1-0.74663-0.73244-0.59301-0.38202-0.30146 0.56353
   7  -2  -1 8188.42  455.66   1 0.09810 0.21074 0.90822 0.85468 0.40682-0.47444
   7   2  -1 9213.34  479.83   1 0.09134 0.03775 0.95656 0.80076 0.27685-0.59779
   7   2  -1 8447.42  484.33   1-0.63496-0.68725 0.67822 0.52223 0.36991-0.50492
   7  -2  -1 7261.50  473.54   1-0.66019-0.54660 0.67794 0.62443 0.32333-0.55794
  -7  -2   1 8490.67  624.97   1-0.74523-0.69667-0.59250-0.43671-0.30587 0.56913
   7  -2   0  681.07  148.89   1 0.10040 0.17856 0.88243 0.88425 0.45958-0.43151
   7   2   0  375.16  233.93   1 0.09461 0.00658 0.93697 0.83637 0.33633-0.54812
   7  -2   0  423.48  149.13   1-0.62008-0.54106 0.67755 0.67937 0.39548-0.49567
  -7  -2   0  432.20  178.91   1-0.74217-0.65923-0.59138-0.49078-0.31534 0.56967
   7  -2   1  919.07  157.83   1 0.10240 0.14612 0.85270 0.90972 0.51225-0.38864
   7   2   1  485.28  162.05   1 0.09764-0.02445 0.91264 0.86719 0.39691-0.49737
   7  -3  -4 7130.06  428.33   1 0.09265 0.34974 0.94938 0.75592 0.30013-0.55340
   7   3  -4 7496.85  444.96   1 0.07885 0.08659 0.99323 0.64640 0.08524-0.75806
   7   3  -4 6156.00  357.90   1-0.71264-0.70271 0.66962 0.32203 0.20914-0.63441
   7  -3  -4 6392.52  356.49   1-0.74737-0.48901 0.65479 0.46069 0.11255-0.74068
  -7  -3   4 7333.84  412.57   1-0.75906-0.77210-0.59712-0.25015-0.25935 0.58419
  -7  -3   4 5853.55  429.83   1 0.10582 0.09462-0.99075-0.64436-0.08489 0.75884
   7  -3  -311319.02  567.07   1 0.09515 0.31779 0.93319 0.79492 0.34653-0.51681
   7   3  -311944.75  612.87   1 0.08249 0.05581 0.98716 0.69552 0.13676-0.71633
   7   3  -310625.19  563.53   1-0.68822-0.71285 0.67505 0.38278 0.26581-0.58762
   7  -3  -310363.56  520.17   1-0.72530-0.50111 0.66539 0.52687 0.17659-0.68650
  -7  -3   3 7973.98  588.67   1-0.76062-0.73929-0.59759-0.30581-0.25363 0.59993
  -7  -3   311639.00  510.68   1 0.10481 0.12815-0.98400-0.69282-0.14404 0.70963
   7  -3  -2 3804.24  280.31   1 0.09754 0.28609 0.91351 0.83036 0.39493-0.47817
   7   3  -2 4099.27  307.99   1 0.08616 0.02520 0.97759 0.74115 0.19203-0.67086
   7   3  -2 3128.21  282.75   1-0.65915-0.71835 0.67799 0.44104 0.32534-0.53799
   7  -3  -2 2997.55  296.13   1-0.69737-0.50775 0.67338 0.59018 0.24540-0.62759
  -7  -3   2 2712.49  310.54   1-0.76074-0.70503-0.59762-0.36103-0.25319 0.61038
   7  -3  -1 6563.51  423.87   1 0.09977 0.25388 0.89016 0.86220 0.44457-0.43833
   7   3  -1 4415.05  379.83   1 0.08978-0.00559 0.96398 0.78273 0.25035-0.62233
   7   3  -1 6655.85  459.66   1-0.62528-0.71905 0.67785 0.49623 0.38669-0.48653
   7  -3  -1 5797.51  384.97   1-0.66311-0.50806 0.67777 0.64989 0.31763-0.56524
  -7  -3   1 6531.01  449.80   1-0.75945-0.66936-0.59724-0.41584-0.25794 0.61564
   7  -3   022156.52  879.66   1 0.10178 0.22140 0.86295 0.89035 0.49493-0.39781
   7   3   021427.25  877.83   1 0.09326-0.03623 0.94581 0.81962 0.31103-0.57175
   7  -3   019578.47  808.70   1-0.62228-0.50179 0.67769 0.70513 0.39178-0.50098
  -7  -3   017661.86  718.09   1-0.75669-0.63223-0.59639-0.47019-0.26781 0.61579
   7  -3   1  269.72  130.55   1 0.10349 0.18867 0.83203 0.91463 0.54498-0.35755
   7   3   1  181.15  184.48   1 0.09648-0.06707 0.92279 0.85176 0.37302-0.51962
  -7  -3  -1   90.47  115.64   1-0.75235-0.59352-0.59499-0.52397-0.28273 0.61087
   7  -4  -4  274.31  133.59   1 0.09513 0.39368 0.93333 0.76544 0.34618-0.50901
   7   4  -4   87.14   89.07   1 0.07696 0.04328 0.99526 0.62361 0.05940-0.78053
   7  -4  -4  153.67  139.78   1-0.74977-0.44994 0.65332 0.48484 0.10488-0.74998
  -7  -4   4  402.11  164.88   1-0.77106-0.74258-0.60031-0.22774-0.21229 0.62984
   7  -4  -324006.33  772.49   1 0.09734 0.36179 0.91537 0.80259 0.39066-0.47428
   7   4  -323237.32  779.46   1 0.08077 0.01261 0.99041 0.67320 0.11206-0.73934
   7   4  -321196.34  702.48   1-0.67782-0.74393 0.67648 0.35859 0.28795-0.56388
   7  -4  -322507.19  806.30   1-0.72766-0.46200 0.66447 0.55157 0.17022-0.69449
  -7  -4   328433.69  861.30   1-0.77233-0.70947-0.60059-0.28321-0.20682 0.64531
  -7  -4   324767.06  694.96   1 0.10510 0.16987-0.98608-0.66925-0.12879 0.72335
   7  -4  -212976.01  611.82   1 0.09944 0.32945 0.89403 0.83646 0.43681-0.43794
   7   4  -210057.58  716.50   1 0.08457-0.01785 0.98220 0.72019 0.16768-0.69354
   7   4  -211216.67  530.64   1-0.64831-0.74898 0.67831 0.41574 0.34580-0.51591
   7  -4  -210967.17  547.36   1-0.69946-0.46837 0.67294 0.61536 0.24060-0.63399
  -7  -4   213724.27  641.29   1-0.77237-0.67513-0.60060-0.33841-0.20667 0.65548
   7  -4  -1  149.46  137.39   1 0.10137 0.29690 0.86910 0.86688 0.48413-0.40045
   7   4  -1   27.13  114.24   1 0.08834-0.04851 0.96996 0.76314 0.22661-0.64440
   7   4  -1   62.42  123.66   1-0.61421-0.74945 0.67714 0.46990 0.40523-0.46637
   7  -4  -1  118.42  140.54   1-0.66462-0.46809 0.67768 0.67542 0.31468-0.56981
  -7  -4   1  -71.51  106.14   1-0.77120-0.63959-0.60035-0.39334-0.21172 0.66045
   7  -4   021681.29  698.06   1 0.10306 0.26415 0.84068 0.89366 0.53162-0.36275
   7   4   023795.13  807.69   1 0.09198-0.07897 0.95314 0.80137 0.28819-0.59293
   7  -4   020675.55  841.60   1-0.62283-0.46087 0.67772 0.73079 0.39085-0.50352
  -7  -4   021657.55  929.54   1-0.76877-0.60278-0.59978-0.44797-0.22191 0.66027
   7  -4   1 2726.40  282.33   1 0.10447 0.23145 0.80865 0.91685 0.57893-0.32526
  -7  -4  -1 1975.76  254.29   1-0.76495-0.56459-0.59881-0.50219-0.23719 0.65500
   7  -5  -2 1308.15  207.69   1 0.10123 0.37266 0.87111 0.83927 0.48053-0.39590
   7  -5  -2 1375.27  189.83   1-0.70028-0.42772 0.67276 0.64081 0.23870-0.63750
  -7  -5   2 1576.59  182.38   1 0.10400 0.24474-0.97811-0.69084-0.18023 0.68032
   7  -5  -1  104.29  154.96   1 0.10283 0.33983 0.84493 0.86829 0.52488-0.36135
   7  -5  -1  106.59  123.23   1-0.66462-0.42662 0.67768 0.70104 0.31468-0.57142
   7  -5   0 6924.79  429.89   1 0.10421 0.30709 0.81533 0.89391 0.56953-0.32649
   7  -5   0 6356.02  389.16   1-0.62160-0.41817 0.67765 0.75634 0.39292-0.50306
;
_shelx_hkl_checksum              28609
_shelx_res_file
;
    811.res created by SHELXL-2014/7
TITL 2014ncs0811a
CELL 0.71073 5.6232 14.565 10.8572 90 96.045 90
ZERR 4 0.0005 0.0014 0.0011 0 0.002 0
LATT 1
SYMM -X,0.5+Y,0.5-Z
SFAC C H O S
UNIT 36 24 16 4
L.S. 8
PLAN  20
fmap 2
BOND $H
CONF
acta
REM Instructions for potential hydrogen bonds
EQIV $1 x-1, -y+1/2, z-1/2
HTAB C4 O4_$1
EQIV $2 -x+1, -y, -z+1
HTAB C9 O2_$2
mpla 9 c1 c2 c3 c4 c5 c6 c7 o1 s1 o2
mpla c8 c9 o3 o4
temp -173
htab
size 0.26 0.11 0.08
rem colourless block
rem EXTI    0.000000
WGHT    0.042300    0.328000
FVAR      10.19007
mole 1
C1    1    0.182998    0.030316    0.185457    11.00000    0.02458    0.02092 =
         0.01768    0.00147    0.00299   -0.00168
C2    1    0.151362    0.079461    0.384457    11.00000    0.01636    0.01584 =
         0.01807   -0.00027    0.00265   -0.00153
C3    1   -0.060216    0.116239    0.327167    11.00000    0.01938    0.01768 =
         0.01479    0.00005   -0.00043   -0.00227
C4    1   -0.218565    0.161300    0.396662    11.00000    0.01805    0.01938 =
         0.02025    0.00031   -0.00089    0.00186
AFIX  43
H4    2   -0.362500    0.187241    0.357996    11.00000   -1.20000
AFIX   0
C5    1   -0.160904    0.167463    0.524405    11.00000    0.01935    0.01850 =
         0.01955   -0.00198    0.00278   -0.00098
AFIX  43
H5    2   -0.265707    0.197867    0.574177    11.00000   -1.20000
AFIX   0
C6    1    0.050463    0.128936    0.578481    11.00000    0.02082    0.01775 =
         0.01374    0.00045    0.00068   -0.00549
C7    1    0.213901    0.084887    0.510799    11.00000    0.01581    0.01820 =
         0.01785    0.00185   -0.00084   -0.00170
AFIX  43
H7    2    0.359521    0.060076    0.549126    11.00000   -1.20000
AFIX   0
C8    1    0.260799    0.181638    0.766573    11.00000    0.02005    0.01816 =
         0.01628   -0.00202    0.00054    0.00035
C9    1    0.279158    0.165768    0.903428    11.00000    0.02868    0.02349 =
         0.01401   -0.00071    0.00068   -0.00092
AFIX 137
H9A   2    0.119707    0.153539    0.928403    11.00000   -1.50000
H9B   2    0.346452    0.220431    0.946705    11.00000   -1.50000
H9C   2    0.383338    0.112941    0.924797    11.00000   -1.50000
AFIX   0
O1    3    0.290074    0.033504    0.306385    11.00000    0.01900    0.02295 =
         0.01668   -0.00098    0.00245    0.00166
O2    3    0.273134   -0.009575    0.106313    11.00000    0.03359    0.03209 =
         0.01997   -0.00297    0.00757    0.00477
O3    3    0.086506    0.126844    0.708295    11.00000    0.02388    0.02508 =
         0.01281    0.00032    0.00063   -0.00755
O4    3    0.376943    0.233323    0.710882    11.00000    0.03174    0.03267 =
         0.01763   -0.00020    0.00076   -0.01395
S1    4   -0.091347    0.091032    0.168632    11.00000    0.02389    0.02219 =
         0.01374    0.00007   -0.00123    0.00119
HKLF 4
REM  2014ncs0811a
REM R1 =  0.0282 for    1903 Fo > 4sig(Fo)  and  0.0296 for all    2028 data
REM    128 parameters refined using      0 restraints
END
WGHT      0.0419      0.3339
REM Instructions for potential hydrogen bonds
HTAB C4 O4_$1
HTAB C9 O2_$2
REM Highest difference peak  0.332,  deepest hole -0.214,  1-sigma level  0.047
Q1    1   0.2642  0.1744  0.8386  11.00000  0.05    0.33
Q2    1   0.1245  0.1025  0.5449  11.00000  0.05    0.29
Q3    1  -0.1467  0.1283  0.3623  11.00000  0.05    0.28
Q4    1   0.0522  0.0963  0.3589  11.00000  0.05    0.27
Q5    1  -0.0443  0.1604  0.5497  11.00000  0.05    0.25
Q6    1  -0.1705  0.1722  0.4580  11.00000  0.05    0.24
Q7    1  -0.0813  0.1093  0.2617  11.00000  0.05    0.24
Q8    1   0.0732  0.1276  0.6440  11.00000  0.05    0.23
Q9    1   0.1941  0.0869  0.4480  11.00000  0.05    0.22
Q10   1   0.2653  0.0995  0.9249  11.00000  0.05    0.22
Q11   1   0.2017  0.0610  0.3550  11.00000  0.05    0.18
Q12   1   0.2379  0.0327  0.2477  11.00000  0.05    0.18
Q13   1   0.4440  0.1707  0.9435  11.00000  0.05    0.18
Q14   1   0.0706  0.0636  0.1834  11.00000  0.05    0.17
Q15   1   0.1998  0.2052  0.9466  11.00000  0.05    0.17
Q16   1  -0.0307  0.1512  0.1314  11.00000  0.05    0.16
Q17   1  -0.0418  0.0240  0.1642  11.00000  0.05    0.16
Q18   1   0.3043  0.2374  0.7404  11.00000  0.05    0.15
Q19   1  -0.1799  0.0315  0.1634  11.00000  0.05    0.15
Q20   1   0.1855  0.1473  0.7370  11.00000  0.05    0.15
;
_shelx_res_checksum              49481
loop_
_space_group_symop_operation_xyz
'x, y, z'
'-x, y+1/2, -z+1/2'
'-x, -y, -z'
'x, -y-1/2, z-1/2'
loop_
_atom_site_type_symbol
_atom_site_label
_atom_site_fract_x
_atom_site_fract_y
_atom_site_fract_z
_atom_site_U_iso_or_equiv
_atom_site_adp_type
_atom_site_calc_flag
_atom_site_occupancy
C C1 0.1830(2) 0.03032(8) 0.18546(11) 0.0210(2) Uani d 1
C C2 0.1514(2) 0.07946(8) 0.38446(11) 0.0167(2) Uani d 1
C C3 -0.0602(2) 0.11624(8) 0.32717(11) 0.0174(2) Uani d 1
C C4 -0.2186(2) 0.16130(8) 0.39666(11) 0.0194(2) Uani d 1
H H4 -0.3625 0.1872 0.3580 0.023 Uiso calc 1
C C5 -0.1609(2) 0.16746(8) 0.52441(11) 0.0191(2) Uani d 1
H H5 -0.2657 0.1979 0.5742 0.023 Uiso calc 1
C C6 0.0505(2) 0.12894(8) 0.57848(10) 0.0175(2) Uani d 1
C C7 0.2139(2) 0.08489(8) 0.51080(11) 0.0175(2) Uani d 1
H H7 0.3595 0.0601 0.5491 0.021 Uiso calc 1
C C8 0.2608(2) 0.18164(8) 0.76657(11) 0.0183(2) Uani d 1
C C9 0.2792(2) 0.16577(9) 0.90343(11) 0.0222(3) Uani d 1
H H9A 0.1197 0.1535 0.9284 0.033 Uiso calc 1
H H9B 0.3465 0.2204 0.9467 0.033 Uiso calc 1
H H9C 0.3833 0.1129 0.9248 0.033 Uiso calc 1
O O1 0.29007(15) 0.03350(6) 0.30638(8) 0.01950(19) Uani d 1
O O2 0.27313(17) -0.00958(7) 0.10631(8) 0.0282(2) Uani d 1
O O3 0.08651(15) 0.12684(6) 0.70829(7) 0.0207(2) Uani d 1
O O4 0.37694(17) 0.23332(7) 0.71088(8) 0.0275(2) Uani d 1
S S1 -0.09135(5) 0.09103(2) 0.16863(3) 0.02017(11) Uani d 1
loop_
_atom_site_aniso_label
_atom_site_aniso_U_11
_atom_site_aniso_U_22
_atom_site_aniso_U_33
_atom_site_aniso_U_12
_atom_site_aniso_U_13
_atom_site_aniso_U_23
C1 0.0246(6) 0.0209(6) 0.0177(6) -0.0017(5) 0.0030(4) 0.0015(4)
C2 0.0164(5) 0.0158(5) 0.0181(6) -0.0015(4) 0.0026(4) -0.0003(4)
C3 0.0194(5) 0.0177(5) 0.0148(5) -0.0023(4) -0.0004(4) 0.0001(4)
C4 0.0180(5) 0.0194(6) 0.0202(6) 0.0019(4) -0.0009(4) 0.0003(4)
C5 0.0194(5) 0.0185(6) 0.0196(6) -0.0010(4) 0.0028(4) -0.0020(4)
C6 0.0208(5) 0.0178(5) 0.0137(5) -0.0055(4) 0.0007(4) 0.0004(4)
C7 0.0158(5) 0.0182(6) 0.0178(6) -0.0017(4) -0.0008(4) 0.0019(4)
C8 0.0201(5) 0.0182(5) 0.0163(5) 0.0003(4) 0.0005(4) -0.0020(4)
C9 0.0287(6) 0.0235(6) 0.0140(5) -0.0009(5) 0.0007(4) -0.0007(4)
O1 0.0190(4) 0.0230(4) 0.0167(4) 0.0017(3) 0.0025(3) -0.0010(3)
O2 0.0336(5) 0.0321(5) 0.0200(5) 0.0048(4) 0.0076(4) -0.0030(4)
O3 0.0239(4) 0.0251(5) 0.0128(4) -0.0076(3) 0.0006(3) 0.0003(3)
O4 0.0317(5) 0.0327(5) 0.0176(4) -0.0140(4) 0.0008(4) -0.0002(4)
S1 0.02389(18) 0.02219(18) 0.01374(17) 0.00119(11) -0.00123(12) 0.00007(10)
loop_
_atom_type_symbol
_atom_type_description
_atom_type_scat_dispersion_real
_atom_type_scat_dispersion_imag
_atom_type_scat_source
C C 0.0033 0.0016 'International Tables Vol C Tables 4.2.6.8 and 6.1.1.4'
H H 0.0000 0.0000 'International Tables Vol C Tables 4.2.6.8 and 6.1.1.4'
O O 0.0106 0.0060 'International Tables Vol C Tables 4.2.6.8 and 6.1.1.4'
S S 0.1246 0.1234 'International Tables Vol C Tables 4.2.6.8 and 6.1.1.4'
loop_
_geom_angle_atom_site_label_1
_geom_angle_atom_site_label_2
_geom_angle_atom_site_label_3
_geom_angle
O2 C1 O1 121.54(12)
O2 C1 S1 126.88(10)
O1 C1 S1 111.57(8)
C7 C2 O1 122.33(10)
C7 C2 C3 122.57(11)
O1 C2 C3 115.05(10)
C2 C3 C4 120.37(11)
C2 C3 S1 110.57(9)
C4 C3 S1 128.97(9)
C3 C4 C5 118.37(11)
C3 C4 H4 120.8
C5 C4 H4 120.8
C6 C5 C4 119.62(11)
C6 C5 H5 120.2
C4 C5 H5 120.2
C5 C6 C7 123.14(11)
C5 C6 O3 117.42(10)
C7 C6 O3 119.12(10)
C2 C7 C6 115.92(11)
C2 C7 H7 122.0
C6 C7 H7 122.0
O4 C8 O3 122.31(11)
O4 C8 C9 127.77(11)
O3 C8 C9 109.92(10)
C8 C9 H9A 109.5
C8 C9 H9B 109.5
H9A C9 H9B 109.5
C8 C9 H9C 109.5
H9A C9 H9C 109.5
H9B C9 H9C 109.5
C2 O1 C1 112.32(9)
C8 O3 C6 118.24(9)
C3 S1 C1 90.43(6)
loop_
_geom_bond_atom_site_label_1
_geom_bond_atom_site_label_2
_geom_bond_distance
C1 O2 1.1936(15)
C1 O1 1.3864(15)
C1 S1 1.7709(13)
C2 C7 1.3820(17)
C2 O1 1.3835(14)
C2 C3 1.3905(16)
C3 C4 1.3908(16)
C3 S1 1.7506(12)
C4 C5 1.3936(16)
C4 H4 0.9500
C5 C6 1.3875(16)
C5 H5 0.9500
C6 C7 1.3923(16)
C6 O3 1.4030(13)
C7 H7 0.9500
C8 O4 1.2008(15)
C8 O3 1.3665(14)
C8 C9 1.4965(16)
C9 H9A 0.9800
C9 H9B 0.9800
C9 H9C 0.9800
loop_
_geom_hbond_atom_site_label_D
_geom_hbond_atom_site_label_H
_geom_hbond_atom_site_label_A
_geom_hbond_site_symmetry_A
_geom_hbond_distance_DH
_geom_hbond_distance_HA
_geom_hbond_distance_DA
_geom_hbond_angle_DHA
C4 H4 O4 4_465 0.95 2.35 3.2606(15) 159
C9 H9C O2 3_656 0.98 2.50 3.4030(16) 153
loop_
_geom_torsion_atom_site_label_1
_geom_torsion_atom_site_label_2
_geom_torsion_atom_site_label_3
_geom_torsion_atom_site_label_4
_geom_torsion
C7 C2 C3 C4 0.48(18)
O1 C2 C3 C4 177.81(10)
C7 C2 C3 S1 -176.35(9)
O1 C2 C3 S1 0.98(13)
C2 C3 C4 C5 -0.77(18)
S1 C3 C4 C5 175.41(9)
C3 C4 C5 C6 -0.02(17)
C4 C5 C6 C7 1.17(18)
C4 C5 C6 O3 -172.28(10)
O1 C2 C7 C6 -176.54(10)
C3 C2 C7 C6 0.60(17)
C5 C6 C7 C2 -1.43(17)
O3 C6 C7 C2 171.91(10)
C7 C2 O1 C1 174.88(10)
C3 C2 O1 C1 -2.46(14)
O2 C1 O1 C2 -177.20(11)
S1 C1 O1 C2 2.77(12)
O4 C8 O3 C6 2.67(17)
C9 C8 O3 C6 -177.05(10)
C5 C6 O3 C8 -111.17(12)
C7 C6 O3 C8 75.10(14)
C2 C3 S1 C1 0.52(9)
C4 C3 S1 C1 -175.96(12)
O2 C1 S1 C3 178.09(12)
O1 C1 S1 C3 -1.88(9)

_cod_database_fobs_code 2242335
