#------------------------------------------------------------------------------
#$Date: 2018-10-11 05:50:07 +0300 (Thu, 11 Oct 2018) $
#$Revision: 211388 $
#$URL: file:///home/coder/svn-repositories/cod/cif/2/24/26/2242668.cif $
#------------------------------------------------------------------------------
#
# This file is available in the Crystallography Open Database (COD),
# http://www.crystallography.net/. The original data for this entry
# were provided by IUCr Journals, http://journals.iucr.org/.
#
# The file may be used within the scientific community so long as
# proper attribution is given to the journal article from which the
# data were obtained.
#
data_2242668
loop_
_publ_author_name
'Gomes, Ligia R.'
'de Souza, Marcus V. N.'
'Da Costa, Cristiane F.'
'Wardell, James L.'
'Low, John Nicolson'
_publ_section_title
;
 Crystal structures and Hirshfeld surfaces of four methoxybenzaldehyde
 oxime derivatives, 2-MeO-<i>X</i>C~6~H~3~C=NOH (<i>X</i> = H and 2-, 3-
 and 4-MeO): different conformations and hydrogen-bonding patterns
;
_journal_coeditor_code           QM2129
_journal_issue                   11
_journal_name_full               'Acta Crystallographica Section E'
_journal_page_first              1553
_journal_page_last               1560
_journal_paper_doi               10.1107/S2056989018014020
_journal_volume                  74
_journal_year                    2018
_chemical_formula_iupac          'C9 H11 N O3'
_chemical_formula_moiety         'C9 H11 N O3'
_chemical_formula_sum            'C9 H11 N O3'
_chemical_formula_weight         181.19
_chemical_name_systematic        '2,4-Dimethoxybenzaldehyde oxime'
_space_group_crystal_system      triclinic
_space_group_IT_number           2
_space_group_name_Hall           '-P 1'
_space_group_name_H-M_alt        'P -1'
_symmetry_space_group_name_Hall  '-P 1'
_symmetry_space_group_name_H-M   'P -1'
_atom_sites_solution_hydrogens   mixed
_audit_creation_method           SHELXL-2017/1
_cell_angle_alpha                108.849(3)
_cell_angle_beta                 92.288(3)
_cell_angle_gamma                106.273(4)
_cell_formula_units_Z            2
_cell_length_a                   4.9441(2)
_cell_length_b                   8.2188(4)
_cell_length_c                   12.1308(3)
_cell_measurement_reflns_used    3758
_cell_measurement_temperature    100(2)
_cell_measurement_theta_max      69.8970
_cell_measurement_theta_min      3.8610
_cell_volume                     443.17(3)
_computing_cell_refinement
;
CrysAlis PRO (Rigaku OD, 2017)
;
_computing_data_collection
;
CrysAlis PRO (Rigaku OD, 2017)
;
_computing_data_reduction
;
CrysAlis PRO (Rigaku OD, 2017)
;
_computing_molecular_graphics
;
Mercury (Macrae <i>et al.</i>,  2006)
;
_computing_publication_material
;
OSCAIL (McArdle <i>et al.</i>,  2004),
SHELXL (Sheldrick, 2015b) and
PLATON (Spek, 2009)
;
_computing_structure_refinement
;
OSCAIL (McArdle <i>et al.</i>,  2004),
<i>ShelXle</i> (H\"ubschle <i>et al.</i>,  2011) and
SHELXL (Sheldrick, 2015b)
;
_computing_structure_solution
;
OSCAIL (McArdle <i>et al.</i>,  2004) and
SHELXT (Sheldrick, 2015a)
;
_diffrn_ambient_temperature      100(2)
_diffrn_detector                 'hybrid pixel detector'
_diffrn_detector_area_resol_mean 10
_diffrn_measured_fraction_theta_full 0.989
_diffrn_measured_fraction_theta_max 0.988
_diffrn_measurement_device       'four-circle diffractometer'
_diffrn_measurement_device_type
;
Rigaku 007HF equipped with Varimax confocal mirrors and an AFC11 goniometer
and HyPix 6000 detector
;
_diffrn_measurement_method       'profile data from \w-scans'
_diffrn_measurement_specimen_support 'MiTeGen loops'
_diffrn_radiation_probe          x-ray
_diffrn_radiation_type           'Cu K\a'
_diffrn_radiation_wavelength     1.54178
_diffrn_reflns_av_R_equivalents  0.0328
_diffrn_reflns_av_unetI/netI     0.0176
_diffrn_reflns_limit_h_max       5
_diffrn_reflns_limit_h_min       -5
_diffrn_reflns_limit_k_max       9
_diffrn_reflns_limit_k_min       -9
_diffrn_reflns_limit_l_max       13
_diffrn_reflns_limit_l_min       -14
_diffrn_reflns_number            7618
_diffrn_reflns_theta_full        67.684
_diffrn_reflns_theta_max         68.192
_diffrn_reflns_theta_min         3.891
_diffrn_source                   'Rotating anode'
_diffrn_source_current           30.0
_diffrn_source_power             1.2
_diffrn_source_voltage           40.0
_exptl_absorpt_coefficient_mu    0.858
_exptl_absorpt_correction_T_max  1.00000
_exptl_absorpt_correction_T_min  0.80185
_exptl_absorpt_correction_type   multi-scan
_exptl_absorpt_process_details
;
(CrysAlis PRO; Rigaku OD, 2017)
;
_exptl_crystal_colour            colourless
_exptl_crystal_density_diffrn    1.358
_exptl_crystal_description       block
_exptl_crystal_F_000             192
_exptl_crystal_size_max          0.200
_exptl_crystal_size_mid          0.100
_exptl_crystal_size_min          0.050
_refine_diff_density_max         0.197
_refine_diff_density_min         -0.190
_refine_ls_extinction_method     none
_refine_ls_goodness_of_fit_ref   0.877
_refine_ls_hydrogen_treatment    mixed
_refine_ls_matrix_type           full
_refine_ls_number_parameters     124
_refine_ls_number_reflns         1594
_refine_ls_number_restraints     0
_refine_ls_restrained_S_all      0.877
_refine_ls_R_factor_all          0.0368
_refine_ls_R_factor_gt           0.0347
_refine_ls_shift/su_max          0.000
_refine_ls_shift/su_mean         0.000
_refine_ls_structure_factor_coef Fsqd
_refine_ls_weighting_details
'w=1/[\s^2^(Fo^2^)+(0.0775P)^2^+0.1273P] where P=(Fo^2^+2Fc^2^)/3'
_refine_ls_weighting_scheme      calc
_refine_ls_wR_factor_gt          0.0985
_refine_ls_wR_factor_ref         0.1009
_reflns_number_gt                1462
_reflns_number_total             1594
_reflns_threshold_expression     'I > 2\s(I)'
_cod_data_source_file            qm2129sup1.cif
_cod_data_source_block           3
_cod_database_code               2242668
_shelx_space_group_comment
;
The symmetry employed for this shelxl refinement is uniquely defined
by the following loop, which should always be used as a source of
symmetry information in preference to the above space-group names.
They are only intended as comments.
;
_shelx_estimated_absorpt_t_min   0.847
_shelx_estimated_absorpt_t_max   0.958
_shelx_hkl_file
;
   0   0   1    0.24    0.26
   0   0  -1    0.64    0.30
   0   0   3 1453.58   27.29
   0   0   4 1651.55   31.20
   0   0   5  495.19   10.56
   0   0  -5  483.73   10.47
   0   0  -6  129.91    4.64
   0   0  -6  139.54    4.21
   0   0  -6  128.50    4.31
   0   0   6  144.22    4.38
   0   0  -7  149.21    5.04
   0   0  -7  151.11    5.49
   0   0  -8  201.93    7.03
   0   0  -8  210.53    6.46
   0   0  -8  223.50    7.41
   0   0  -8  231.94    7.44
   0   0  -9  248.06    8.47
   0   0  -9  236.88    7.21
   0   0  -9  254.74    8.44
   0   0  -9  235.98    8.20
   0   0 -10  249.09    8.59
   0   0 -10  247.76    8.48
   0   0 -10  248.46    8.70
   0   0 -11    8.24    2.56
   0   0 -11    4.99    1.35
   0   0 -11    6.31    2.37
   0   0 -11    7.41    2.28
   0   0 -12   44.71    3.42
   0   0 -12   40.02    3.38
   0   0 -13   12.60    1.87
   0   0 -13   12.69    1.82
   0   0 -13   13.82    1.95
   0   0 -13    9.87    1.44
   0   0  13    6.68    1.68
   0   1 -14   90.99    3.72
   0   1 -14   94.59    3.27
   0   1 -14   93.77    3.49
   0   1 -13  425.35   10.56
   0   1 -13  429.72   10.83
   0   1 -12    0.76    2.10
   0   1 -12    0.37    1.73
   0   1 -12    0.51    1.92
   0   1 -11  974.86   22.35
   0   1 -11  964.96   22.70
   0   1 -10   48.55    2.72
   0   1 -10   60.06    4.25
   0   1 -10   56.00    3.89
   0   1  -9   -0.42    1.62
   0   1  -9    0.45    1.83
   0   1  -9    0.15    1.09
   0   1  -9    1.03    1.41
   0   1  -8 1426.56   29.33
   0   1  -8 1415.86   28.54
   0   1  -8 1413.31   29.49
   0   1  -8 1393.63   28.00
   0   1  -7  759.23   17.17
   0   1  -7  748.30   17.29
   0   1  -7  763.30   16.99
   0   1  -7  745.14   16.20
   0  -1   7  868.19   16.83
   0   1  -7  776.80   16.87
   0  -1   7  836.25   16.68
   0  -1   6  670.71   13.33
   0  -1   6  677.02   13.28
   0   1  -6  568.53   13.78
   0   1  -6  597.26   13.55
   0   1  -6  618.97   13.83
   0  -1   5  656.10   13.24
   0  -1   4    0.23    0.36
   0  -1   4    1.54    0.56
   0  -1   4    0.71    0.36
   0  -1   1   88.99    2.17
   0  -1   1   89.79    2.17
   0   1  -1   88.84    2.19
   0  -1   1   94.84    1.85
   0   1  -1   87.67    2.18
   0   1   0 2127.94   39.06
   0  -1   0 2106.16   39.04
   0   1   0 2157.70   39.06
   0  -1  -3   22.58    0.78
   0  -1  -3   22.02    0.77
   0  -1  -3   21.61    1.30
   0  -1  -4 2036.31   39.42
   0   1   4 2144.25   39.60
   0  -1  -5 6010.18  114.58
   0  -1  -5 6207.55  114.79
   0  -1  -5 6180.19  114.88
   0  -1  -5 5992.73  114.53
   0  -1  -5 6201.74  115.16
   0  -1  -5 5980.14  114.86
   0  -1  -6  141.98    4.83
   0  -1  -6  150.30    5.43
   0  -1  -6  139.86    4.79
   0  -1  -6  154.17    5.28
   0  -1  -6  157.75    5.15
   0  -1  -6  148.10    5.30
   0  -1  -7  183.25    5.94
   0  -1  -7  161.42    5.37
   0  -1  -7  172.80    6.08
   0  -1  -7  154.15    5.29
   0  -1  -7  175.02    6.39
   0  -1  -8  346.34    9.47
   0  -1  -8  405.61   11.30
   0  -1  -8  410.51   10.48
   0  -1  -8  404.20   10.99
   0  -1  -8  341.83    9.45
   0  -1  -9   93.54    4.42
   0  -1  -9   98.35    5.10
   0  -1  -9   92.01    5.40
   0  -1 -10  479.16   13.13
   0  -1 -10  490.32   13.20
   0  -1 -11    0.30    1.97
   0  -1 -11    1.08    2.07
   0  -1 -11   -0.34    1.30
   0  -1 -11    1.01    1.87
   0   1  11    1.60    2.22
   0  -1 -12    9.82    1.89
   0   1  12    4.11    1.79
   0  -1 -12    7.76    1.88
   0  -1 -13    0.27    0.86
   0   1  13    0.62    1.28
   0  -1 -13    1.25    1.05
   0  -1 -13    0.31    1.06
   0   2 -14   41.52    2.59
   0   2 -14   41.98    2.49
   0   2 -13  826.66   18.67
   0   2 -13  834.00   18.96
   0   2 -13  792.83   17.84
   0   2 -13  851.85   19.07
   0   2 -12  786.61   17.72
   0   2 -12  834.02   18.93
   0   2 -12  801.57   19.10
   0   2 -12  836.85   18.61
   0   2 -11 3308.76   64.41
   0   2 -11 3379.75   63.94
   0   2 -11 3396.61   64.48
   0   2 -10  148.34    6.38
   0   2 -10  152.04    6.19
   0   2 -10  150.77    5.77
   0   2  -9  124.96    5.16
   0   2  -9  128.49    4.72
   0   2  -9  132.80    5.43
   0   2  -9  125.80    5.53
   0   2  -8    0.71    1.30
   0   2  -8    1.04    1.08
   0   2  -8    1.04    1.59
   0   2  -8    0.77    1.61
   0   2  -8    0.85    1.42
   0  -2   7  641.26   12.78
   0  -2   7  614.59   12.61
   0   2  -7  605.37   13.94
   0   2  -7  565.68   13.63
   0   2  -7  571.99   13.44
   0   2  -7  569.29   13.91
   0   2  -7  577.10   12.95
   0   2  -6  739.64   15.63
   0   2  -6  689.71   15.63
   0  -2   6  693.74   14.00
   0   2  -6  729.24   15.71
   0  -2   6  703.85   14.01
   0  -2   6  688.34   13.93
   0  -2   6  835.87   14.67
   0  -2   6  816.31   14.61
   0  -2   6  690.70   13.93
   0  -2   5   27.13    1.26
   0  -2   5   28.80    1.29
   0  -2   5   26.59    1.23
   0  -2   5   27.76    1.27
   0  -2   4   13.24    0.99
   0  -2   4   15.42    0.83
   0  -2   4   12.54    0.81
   0  -2   4   13.01    0.97
   0   2  -4   13.14    1.03
   0   2  -4   13.85    1.04
   0  -2   2   36.56    1.50
   0  -2   2   36.02    1.47
   0   2  -1  881.19   17.25
   0  -2   1  856.10   16.52
   0  -2   1  901.60   17.28
   0  -2   1  911.05   17.27
   0   2  -1  905.53   17.25
   0   2  -1  905.02   16.53
   0   2   0  125.08    3.29
   0   2   0  120.85    2.87
   0   2   0  129.19    3.32
   0   2   1 1904.12   36.02
   0   2   1 1929.46   35.90
   0  -2  -1 2019.25   36.14
   0  -2  -1 1856.04   35.92
   0   2   1 1859.12   36.00
   0  -2  -1 2026.41   36.16
   0  -2  -2  430.09    8.93
   0   2   2  390.33    8.61
   0  -2  -2  428.83    8.60
   0  -2  -2  426.01    8.60
   0   2   2  411.78    8.82
   0   2   2  403.56    8.62
   0  -2  -3 5799.04  104.58
   0   2   3 5771.67  103.76
   0  -2  -3 5413.35  104.66
   0  -2  -3 5549.65  105.05
   0  -2  -3 5725.22  103.72
   0  -2  -3 5524.15  104.97
   0  -2  -3 5812.54  103.66
   0  -2  -3 5547.68  105.00
   0  -2  -4 1163.51   23.04
   0  -2  -4 1136.78   21.14
   0  -2  -4 1146.47   21.14
   0  -2  -4 1171.79   23.41
   0  -2  -4 1248.17   23.36
   0  -2  -4 1024.91   21.13
   0  -2  -4 1226.17   23.34
   0  -2  -4 1203.94   22.96
   0  -2  -4 1200.28   23.07
   0  -2  -4 1250.41   22.86
   0  -2  -4 1040.23   21.15
   0  -2  -5  729.02   16.43
   0  -2  -5  730.43   16.53
   0  -2  -5  797.36   16.76
   0  -2  -5  736.23   16.54
   0  -2  -5  740.11   16.56
   0  -2  -5  731.38   16.79
   0  -2  -5  756.49   16.57
   0  -2  -6   84.85    4.07
   0  -2  -6   74.25    3.77
   0  -2  -6   85.70    4.03
   0  -2  -6   78.35    3.87
   0  -2  -7  784.27   18.49
   0  -2  -7  789.41   18.47
   0  -2  -7  843.66   19.20
   0  -2  -7  869.48   19.06
   0  -2  -8   95.86    5.00
   0  -2  -8   95.08    4.78
   0  -2  -8   86.85    4.31
   0   2   8   91.44    5.24
   0  -2  -8   84.94    4.22
   0  -2  -9  183.88    6.49
   0  -2  -9  220.63    7.42
   0  -2  -9  250.44    8.47
   0   2   9  223.62    8.26
   0  -2  -9  182.58    6.44
   0   2  10   83.13    4.93
   0  -2 -10   83.31    4.19
   0  -2 -10  101.24    5.02
   0  -2 -10   98.42    5.19
   0   2  11   48.00    3.41
   0   2  11   64.87    4.26
   0  -2 -11   66.04    3.66
   0  -2 -11   58.78    3.66
   0  -2 -11   46.04    2.64
   0  -2 -12   15.77    1.76
   0   2  12   14.28    2.05
   0  -2 -12   16.06    1.78
   0   3 -14    6.07    1.30
   0   3 -14    6.72    1.65
   0   3 -14    5.10    1.34
   0   3 -13  718.43   16.50
   0   3 -13  700.38   16.60
   0   3 -13  710.69   16.96
   0   3 -12  423.60   11.18
   0   3 -12  450.74   12.09
   0   3 -12  453.27   11.85
   0   3 -12  429.75   12.33
   0   3 -11  595.98   14.80
   0   3 -11  575.78   13.57
   0   3 -11  560.10   14.45
   0   3 -11  590.51   15.30
   0   3 -10 1305.62   28.32
   0   3 -10 1301.70   27.89
   0   3 -10 1270.22   27.87
   0   3 -10 1257.37   27.00
   0   3  -9    9.74    2.05
   0   3  -9    7.50    1.63
   0   3  -9    7.37    1.93
   0   3  -9    8.07    2.16
   0   3  -9    8.23    2.17
   0   3  -8  197.30    6.69
   0   3  -8  200.05    6.19
   0   3  -8  192.80    6.88
   0   3  -7 2771.70   52.23
   0   3  -7 2648.19   52.18
   0   3  -7 2650.46   51.48
   0   3  -6  843.89   17.60
   0   3  -6  815.69   17.67
   0  -3   6  814.23   16.23
   0   3  -6  787.33   16.90
   0   3  -6  794.65   16.26
   0  -3   6  779.75   16.19
   0   3  -6  806.05   17.18
   0  -3   6  801.71   15.48
   0  -3   6  794.86   15.45
   0   3  -5  995.14   21.37
   0  -3   5 1087.32   21.21
   0   3  -5 1028.78   22.23
   0  -3   5 1110.80   21.23
   0   3  -5 1140.63   22.76
   0  -3   5 1072.64   20.13
   0   3  -5 1086.32   21.33
   0   3  -5 1095.34   21.33
   0   3  -5 1034.17   21.86
   0  -3   5 1076.59   20.11
   0   3  -5 1097.34   22.16
   0   3  -4 2651.50   53.19
   0   3  -4 2973.29   52.72
   0  -3   4 2630.95   51.13
   0   3  -4 2910.80   52.65
   0  -3   4 3039.12   52.60
   0   3  -4 2827.41   53.49
   0  -3   4 2861.57   51.12
   0  -3   4 2994.75   52.60
   0   3  -4 2635.01   53.30
   0  -3   3   98.72    3.15
   0  -3   3  103.47    3.20
   0  -3   2 2337.76   40.60
   0  -3   2 2004.13   39.10
   0   3  -2 2155.66   39.11
   0   3  -2 2220.56   40.50
   0   3  -2 2121.39   40.44
   0  -3   2 2268.03   40.56
   0   3  -1 1333.71   24.15
   0   3  -1 1337.15   25.21
   0   3  -1 1336.31   25.23
   0   3   0   83.71    2.47
   0  -3   0   76.20    2.43
   0  -3   0   87.83    2.99
   0   3   0   81.68    2.90
   0   3   0   81.53    2.93
   0  -3   0   87.33    2.97
   0  -3  -1  131.80    4.43
   0  -3  -1  140.35    3.93
   0  -3  -1  125.05    4.41
   0   3   1  137.86    4.19
   0  -3  -1  144.84    4.14
   0   3   1  142.44    3.84
   0   3   1  138.89    4.15
   0  -3  -1  158.68    4.20
   0  -3  -1  133.29    4.46
   0   3   1  134.42    4.71
   0  -3  -2  755.59   14.59
   0   3   2  701.43   14.62
   0   3   2  687.98   14.62
   0  -3  -2  722.04   14.71
   0  -3  -2  744.77   14.56
   0   3   2  705.56   15.83
   0  -3  -2  686.16   15.40
   0  -3  -2  713.58   15.35
   0   3   2  665.23   15.73
   0  -3  -2  680.82   15.08
   0   3   2  728.25   14.60
   0  -3  -2  653.75   14.76
   0  -3  -2  685.63   15.37
   0   3   3    8.76    1.14
   0   3   3    9.62    1.91
   0  -3  -3    8.61    1.16
   0  -3  -3    7.71    1.44
   0  -3  -3    9.38    0.98
   0  -3  -3    9.45    0.98
   0  -3  -3    7.08    1.64
   0  -3  -3    7.38    1.51
   0   3   3    8.79    1.02
   0  -3  -4  129.92    4.88
   0  -3  -4  133.61    5.12
   0  -3  -4  113.11    3.26
   0   3   4  126.76    5.27
   0  -3  -4  139.75    4.90
   0  -3  -4  128.75    5.05
   0  -3  -4  143.01    5.25
   0  -3  -4  109.79    3.24
   0  -3  -4  104.29    3.19
   0  -3  -4  139.79    5.32
   0  -3  -5   15.02    2.14
   0  -3  -5   16.55    2.18
   0  -3  -5   16.22    2.55
   0   3   5   15.97    2.56
   0  -3  -5   16.41    2.21
   0  -3  -6   40.22    3.26
   0   3   6   41.06    3.55
   0  -3  -6   41.42    3.24
   0  -3  -6   38.74    3.18
   0  -3  -6   37.75    3.57
   0   3   7  154.32    6.83
   0  -3  -7  161.85    6.65
   0  -3  -7  165.62    6.62
   0  -3  -7  156.32    6.44
   0  -3  -7  150.11    6.31
   0  -3  -8    0.47    1.90
   0  -3  -8    1.14    1.99
   0   3   8    0.57    2.31
   0  -3  -8    0.31    1.60
   0  -3  -8   -0.73    1.58
   0  -3  -9  427.02   12.01
   0   3   9  414.17   12.02
   0   3   9  506.56   13.46
   0  -3  -9  426.40   11.46
   0  -3  -9  354.17   10.54
   0  -3  -9  362.84   10.60
   0  -3  -9  470.48   11.68
   0   3  10   92.49    5.01
   0  -3 -10   90.20    4.09
   0   3  10   65.80    3.87
   0  -3 -10   73.47    3.63
   0  -3 -10   79.17    4.16
   0   3  11  147.71    5.55
   0  -3 -11  149.55    4.69
   0   4 -14   26.16    1.83
   0   4 -14   26.17    1.92
   0   4 -14   26.47    2.29
   0   4 -13   97.82    4.63
   0   4 -13   91.08    4.09
   0   4 -13   87.56    3.99
   0   4 -13   91.69    4.13
   0   4 -12  140.12    5.97
   0   4 -12  152.08    5.94
   0   4 -12  147.12    5.33
   0   4 -12  154.76    6.54
   0   4 -12  149.24    5.87
   0   4 -11    6.54    2.51
   0   4 -11    6.66    2.02
   0   4 -11    4.89    2.01
   0   4 -11    3.37    2.35
   0   4 -10  549.20   14.48
   0   4 -10  567.58   15.22
   0   4 -10  535.65   13.39
   0   4  -9 1018.20   23.58
   0   4  -9 1014.10   22.73
   0   4  -8 1518.40   32.12
   0   4  -8 1561.01   32.87
   0   4  -7  419.30   10.77
   0   4  -7  362.44    9.44
   0   4  -7  388.95   10.37
   0   4  -7  403.13   10.97
   0   4  -7  386.02    9.90
   0   4  -6  222.94    6.37
   0   4  -6  216.08    6.33
   0   4  -6  245.08    7.52
   0   4  -6  231.87    7.15
   0   4  -6  244.18    7.57
   0  -4   6  230.73    6.37
   0   4  -6  247.31    7.37
   0   4  -6  226.19    6.53
   0   4  -6  259.53    8.01
   0   4  -6  220.00    6.66
   0   4  -5  310.91    9.07
   0   4  -5  301.06    7.95
   0   4  -5  313.74    8.75
   0   4  -5  311.79    8.04
   0  -4   5  326.06    7.97
   0   4  -5  311.65    8.79
   0   4  -5  291.98    8.21
   0   4  -5  327.56    8.69
   0   4  -4   93.13    3.62
   0   4  -4   85.90    3.90
   0   4  -4   89.05    4.01
   0   4  -4   88.67    4.10
   0   4  -4   97.41    4.00
   0   4  -4   82.10    3.98
   0  -4   4   98.22    3.56
   0   4  -4   83.40    3.74
   0   4  -4   90.31    3.55
   0   4  -3  719.63   13.49
   0   4  -3  807.26   13.70
   0   4  -3  802.54   13.05
   0   4  -3  790.38   13.14
   0  -4   3  861.76   12.87
   0   4  -3  828.85   13.23
   0  -4   3  865.87   12.80
   0  -4   2  119.47    3.21
   0   4  -2  153.14    4.80
   0  -4   2  143.37    4.60
   0   4  -2  160.99    5.12
   0   4  -2  150.14    4.81
   0   4  -2  142.92    5.12
   0   4  -2  131.53    3.22
   0   4  -2  159.28    4.87
   0  -4   2  164.50    4.79
   0   4  -2  152.21    5.14
   0  -4   2  163.57    4.79
   0  -4   2  148.92    4.59
   0   4  -2  152.96    5.28
   0  -4   2  144.60    4.59
   0  -4   1   54.03    1.96
   0  -4   1   65.04    2.85
   0  -4   1   59.68    2.91
   0   4  -1   59.10    3.35
   0  -4   1   58.69    2.95
   0   4  -1   57.58    3.13
   0   4  -1   61.23    2.91
   0  -4   1   63.96    2.81
   0   4  -1   63.05    2.02
   0   4  -1   57.81    2.85
   0  -4   1   54.42    2.87
   0   4  -1   54.66    3.09
   0  -4   0  106.49    4.16
   0   4   0  107.29    4.51
   0   4   0  103.58    3.90
   0  -4   0   97.27    3.15
   0  -4   0  118.41    3.94
   0  -4   0  101.55    4.14
   0   4   0  108.86    3.97
   0   4   0  104.85    3.15
   0   4   0  107.63    4.36
   0  -4   0  101.71    4.11
   0   4   1   77.81    3.83
   0   4   1   69.03    3.20
   0  -4  -1   69.50    3.07
   0   4   1   68.95    3.14
   0  -4  -1   85.42    4.00
   0  -4  -1   77.97    3.54
   0   4   1   77.71    3.97
   0  -4  -1   65.23    2.74
   0  -4  -1   80.43    3.23
   0  -4  -1   89.23    3.86
   0  -4  -1   83.28    3.98
   0   4   1   71.22    2.76
   0   4   2  473.07   12.33
   0   4   2  570.66   13.22
   0   4   2  504.38   12.02
   0  -4  -2  616.44   13.64
   0   4   2  595.10   13.96
   0  -4  -2  585.50   13.70
   0   4   2  625.39   14.34
   0  -4  -2  560.49   12.38
   0  -4  -2  538.63   12.41
   0  -4  -2  574.45   13.70
   0  -4  -2  537.90   12.56
   0  -4  -3  919.48   20.87
   0  -4  -3  906.27   19.81
   0   4   3  938.95   21.15
   0  -4  -3  910.08   20.84
   0  -4  -3  987.40   20.79
   0   4   3  976.51   21.70
   0  -4  -3  838.76   20.05
   0  -4  -4  294.36    9.04
   0   4   4  312.14    9.85
   0  -4  -4  321.14    9.65
   0   4   4  303.79   10.28
   0  -4  -5    7.50    2.21
   0  -4  -5    8.55    2.10
   0  -4  -5    6.32    2.39
   0   4   5    8.84    2.87
   0   4   5    5.45    2.53
   0  -4  -5    8.40    2.33
   0  -4  -6   35.96    3.47
   0   4   6   40.49    4.35
   0   4   6   35.44    3.71
   0  -4  -6   35.67    3.57
   0  -4  -6   32.47    3.23
   0  -4  -7   96.63    4.43
   0  -4  -7   90.95    4.95
   0  -4  -7   95.33    5.15
   0   4   7   93.08    5.27
   0  -4  -7   92.97    5.15
   0  -4  -8  174.04    6.73
   0  -4  -8  163.99    6.44
   0  -4  -8  156.59    6.34
   0   4   8  159.68    6.54
   0  -4  -8  179.79    6.01
   0   4   9   36.51    3.35
   0  -4  -9   20.00    2.06
   0   4   9   21.57    2.35
   0  -4  -9   29.57    2.19
   0  -4  -9   18.14    2.00
   0  -4  -9   28.41    2.51
   0   4  10    9.81    1.84
   0  -4 -10    8.48    1.32
   0   5 -14   39.99    2.52
   0   5 -13  168.01    6.04
   0   5 -13  166.92    5.83
   0   5 -13  159.86    5.36
   0   5 -12    1.84    1.61
   0   5 -12   -0.05    2.37
   0   5 -12    2.13    1.83
   0   5 -12    2.48    2.15
   0   5 -11    5.99    2.57
   0   5 -11    5.95    2.25
   0   5 -11    8.21    2.07
   0   5 -11    6.95    1.73
   0   5 -10    5.64    2.16
   0   5 -10    5.91    2.47
   0   5 -10    5.08    1.88
   0   5  -9    1.97    1.95
   0   5  -9    2.48    2.06
   0   5  -9    2.28    2.52
   0   5  -8  145.79    6.50
   0   5  -8  141.95    5.94
   0   5  -8  114.75    4.69
   0   5  -8  123.56    5.60
   0   5  -8  131.83    6.13
   0   5  -7  503.51   13.21
   0   5  -7  497.35   13.74
   0   5  -7  540.69   13.44
   0   5  -7  570.35   14.44
   0   5  -7  504.27   13.56
   0   5  -7  466.17   12.00
   0   5  -7  459.13   12.39
   0   5  -6  213.18    7.75
   0   5  -6  191.07    7.08
   0   5  -6  206.31    7.03
   0   5  -6  191.21    6.92
   0   5  -6  172.31    6.42
   0   5  -6  175.04    5.81
   0   5  -5    1.09    1.47
   0   5  -5    0.75    1.67
   0   5  -5    4.68    2.06
   0   5  -5    1.29    1.74
   0   5  -5    1.85    1.62
   0   5  -5    2.38    1.86
   0   5  -4  274.93    8.37
   0   5  -4  291.94    8.51
   0   5  -4  249.02    8.58
   0   5  -4  305.18    8.96
   0   5  -4  262.09    8.05
   0   5  -3    1.54    1.42
   0  -5   3    1.73    1.34
   0   5  -3    1.71    1.56
   0   5  -3    1.82    1.59
   0   5  -3    2.60    1.65
   0   5  -3    2.86    1.75
   0  -5   3    2.15    1.17
   0   5  -3    2.13    1.80
   0  -5   3    2.51    1.19
   0  -5   2 2080.01   42.92
   0  -5   2 2182.17   42.63
   0  -5   2 2121.39   42.95
   0   5  -2 2080.57   43.83
   0   5  -2 2363.92   43.89
   0   5  -2 2377.48   44.18
   0   5  -2 2064.05   42.73
   0   5  -2 2232.89   43.69
   0  -5   1    0.62    1.39
   0   5  -1   -0.19    1.70
   0   5  -1    0.95    1.57
   0  -5   1    0.37    1.34
   0  -5   1   -0.18    1.42
   0   5   0  555.06   14.05
   0   5   0  510.93   13.86
   0  -5   0  544.53   13.22
   0  -5   0  519.54   13.50
   0  -5   0  529.10   13.54
   0  -5   0  553.56   13.38
   0  -5  -1   80.80    4.32
   0   5   1   82.03    4.59
   0  -5  -1   81.72    4.50
   0   5   1   74.16    4.30
   0  -5  -1   83.39    4.45
   0  -5  -1   81.67    3.91
   0  -5  -2  144.12    5.89
   0  -5  -2  133.34    5.99
   0   5   2  135.28    5.43
   0  -5  -2  142.28    6.16
   0   5   2  130.70    6.11
   0  -5  -2  118.45    4.60
   0  -5  -3   58.42    4.26
   0   5   3   66.07    4.82
   0  -5  -3   56.96    4.26
   0   5   3   62.96    4.36
   0  -5  -3   65.88    4.29
   0   5   4  267.15    9.46
   0   5   4  280.01   10.26
   0  -5  -5   28.27    3.40
   0   5   5   26.32    3.28
   0   5   5   27.87    3.84
   0  -5  -6    3.92    2.24
   0   5   6    5.86    2.79
   0   5   6    5.21    2.26
   0  -5  -6    5.90    2.29
   0  -5  -6    4.16    2.35
   0  -5  -7    5.80    2.03
   0   5   7    7.26    2.53
   0  -5  -7    5.65    2.06
   0   5   7    5.98    1.99
   0  -5  -8   33.06    2.51
   0  -5  -8   35.13    2.54
   0  -5  -8   37.95    2.75
   0   6 -13   -0.38    0.97
   0   6 -13    0.07    1.60
   0   6 -13    0.60    1.46
   0   6 -12    1.86    0.93
   0   6 -12    3.82    1.51
   0   6 -12    5.60    1.95
   0   6 -11   19.29    2.42
   0   6 -11   19.18    2.91
   0   6 -10   36.75    3.28
   0   6 -10   41.78    3.49
   0   6 -10   40.18    4.14
   0   6  -9  342.83   10.54
   0   6  -9  357.08   11.22
   0   6  -9  364.71   11.57
   0   6  -9  332.17   11.10
   0   6  -9  316.73   10.32
   0   6  -8   54.91    3.95
   0   6  -8   52.38    4.27
   0   6  -8   45.92    3.35
   0   6  -8   58.88    4.68
   0   6  -8   50.78    4.09
   0   6  -8   50.16    4.48
   0   6  -7  194.11    7.90
   0   6  -7  181.08    7.11
   0   6  -7  152.94    6.36
   0   6  -7  152.15    7.34
   0   6  -7  172.42    6.92
   0   6  -7  146.69    5.42
   0   6  -6    8.80    2.72
   0   6  -6   12.35    3.12
   0   6  -6    6.99    1.69
   0   6  -6    9.80    2.33
   0   6  -6    8.90    2.74
   0   6  -6   10.32    2.39
   0   6  -6    8.53    2.48
   0   6  -5   18.26    2.67
   0   6  -5   22.14    3.21
   0   6  -5   21.90    2.82
   0   6  -5   16.42    2.74
   0   6  -5   16.43    3.05
   0   6  -5   13.52    2.69
   0   6  -4 1242.63   26.61
   0   6  -4 1078.93   24.58
   0   6  -4 1149.01   25.25
   0   6  -4 1098.66   26.23
   0   6  -4 1195.03   25.88
   0   6  -3  160.99    7.17
   0  -6   3  154.80    5.95
   0  -6   3  174.27    5.81
   0  -6   3  156.24    5.94
   0   6  -3  183.98    7.36
   0   6  -3  178.09    6.91
   0   6  -3  160.32    6.40
   0  -6   2  107.74    4.65
   0   6  -2  102.14    5.73
   0   6  -2  108.37    5.75
   0  -6   2  107.45    5.01
   0  -6   2  103.57    4.91
   0   6  -2  113.39    5.56
   0  -6   1  257.14    8.28
   0   6  -1  286.36    9.67
   0  -6   1  264.95    8.84
   0   6  -1  279.50    9.43
   0  -6   1  269.21    8.92
   0  -6   1  257.28    8.73
   0  -6   0  636.01   16.41
   0   6   0  666.15   16.62
   0   6   0  663.69   17.08
   0  -6   0  605.89   15.70
   0  -6   0  617.88   15.55
   0  -6   0  650.12   16.52
   0  -6  -1  178.32    7.41
   0   6   1  172.53    6.85
   0  -6  -1  169.13    6.86
   0   6   1  172.72    7.40
   0  -6  -1  179.56    7.44
   0  -6  -1  156.29    5.84
   0  -6  -2  777.63   19.55
   0   6   2  753.01   19.27
   0  -6  -2  760.50   18.91
   0  -6  -2  788.83   19.63
   0  -6  -3  718.62   18.30
   0  -6  -3  730.32   18.34
   0  -6  -3  698.16   17.59
   0  -6  -4  485.44   13.69
   0  -6  -4  494.33   13.76
   0  -6  -4  468.84   12.98
   0   6   4  490.26   13.78
   0   6   5    6.24    2.45
   0  -6  -5    4.11    2.17
   0   6   5    3.42    2.02
   0   6   6   17.17    2.51
   0  -6  -6   15.98    2.26
   0  -6  -6   14.04    2.20
   0   6   6   10.89    1.89
   0  -6  -6   12.48    2.18
   0  -6  -7  105.09    4.16
   0   6   7  120.47    4.66
   0  -6  -7  113.28    4.26
   0   7 -13  127.30    4.33
   0   7 -12    1.02    1.77
   0   7 -12    2.45    1.66
   0   7 -12   -0.06    1.04
   0   7 -11   12.05    1.91
   0   7 -11   11.18    2.53
   0   7 -10    7.86    2.53
   0   7 -10    5.86    2.51
   0   7 -10    7.61    1.97
   0   7 -10    7.10    2.56
   0  -7   9    6.76    1.74
   0   7  -9    6.02    2.65
   0   7  -9    8.21    2.73
   0   7  -9    6.44    2.74
   0   7  -9    5.57    2.06
   0   7  -8  252.96    9.38
   0   7  -8  224.19    8.81
   0   7  -8  221.83    8.15
   0   7  -8  237.52    8.55
   0   7  -7   47.41    3.86
   0   7  -7   51.94    4.04
   0   7  -7   51.06    3.95
   0   7  -7   48.42    4.30
   0   7  -7   53.02    4.61
   0   7  -6    2.13    2.01
   0   7  -6    1.84    2.13
   0   7  -6    0.18    2.22
   0   7  -6    2.52    2.72
   0   7  -6    1.71    2.27
   0   7  -5    4.53    2.35
   0   7  -5    6.21    1.99
   0   7  -5    8.71    2.93
   0   7  -5    6.64    2.42
   0   7  -4   15.41    3.19
   0   7  -4   18.09    3.00
   0   7  -4   13.97    2.56
   0   7  -4   18.01    3.32
   0  -7   3   18.25    2.36
   0  -7   3   14.00    2.16
   0   7  -3   24.24    3.45
   0   7  -3   21.86    3.16
   0  -7   3   25.81    3.54
   0  -7   3   15.90    2.13
   0   7  -3   25.26    3.49
   0  -7   2  149.02    6.18
   0  -7   2  147.50    6.17
   0  -7   2  151.67    6.71
   0   7  -2  172.51    7.33
   0   7  -2  163.57    7.29
   0   7  -2  162.72    7.01
   0  -7   2  141.36    5.65
   0  -7   1  309.18    9.97
   0   7  -1  338.12   10.79
   0  -7   1  307.34    9.72
   0  -7   1  296.94    9.24
   0   7  -1  338.88   10.76
   0   7  -1  353.20   11.10
   0  -7   1  301.81    9.86
   0  -7   0  142.33    6.40
   0  -7   0  146.48    6.46
   0  -7   0  130.90    5.35
   0  -7   0  142.75    5.97
   0   7   0  157.18    7.02
   0  -7  -1 3918.18   74.54
   0  -7  -1 3630.44   73.30
   0  -7  -1 3980.05   74.60
   0   7   1 3803.05   74.52
   0  -7  -1 3706.42   73.29
   0  -7  -2   77.57    4.77
   0  -7  -2   68.02    3.50
   0   7   2   80.23    4.74
   0  -7  -2   78.35    4.34
   0  -7  -2   76.84    4.73
   0  -7  -3  191.99    6.74
   0  -7  -3  195.67    7.35
   0  -7  -3  197.41    7.36
   0  -7  -4    1.69    1.64
   0  -7  -4    1.61    1.63
   0  -7  -4    0.85    1.65
   0   7   4    1.22    1.47
   0  -7  -5   94.92    3.83
   0   8 -11   87.48    3.81
   0  -8  11   72.35    3.42
   0   8 -11   88.24    3.80
   0   8 -11   64.45    2.81
   0   8 -10  286.67    8.31
   0   8 -10  291.95    8.48
   0  -8  10  262.21    8.08
   0   8 -10  273.89    8.07
   0   8  -9  416.22   10.97
   0  -8   9  374.02   11.00
   0   8  -9  415.62   11.28
   0   8  -9  387.88   10.47
   0  -8   9  347.86    9.57
   0   8  -9  358.37   10.01
   0   8  -8    1.33    2.20
   0  -8   8    0.64    1.57
   0   8  -8    1.30    1.92
   0   8  -8   -0.74    1.67
   0   8  -8    1.18    2.12
   0   8  -7  289.73    9.66
   0  -8   7  290.00    9.01
   0   8  -7  259.44    8.61
   0   8  -7  265.08    8.10
   0   8  -7  234.49    8.78
   0   8  -6  124.62    5.74
   0   8  -6  113.93    5.43
   0   8  -5   46.19    4.27
   0   8  -5   38.35    3.49
   0  -8   5   34.18    3.76
   0   8  -4   13.13    2.65
   0   8  -4   19.02    3.18
   0  -8   4   12.89    2.86
   0   8  -3  101.14    5.21
   0   8  -3   73.91    3.44
   0   8  -3   72.88    3.48
   0  -8   3   85.22    4.74
   0   8  -3  103.58    5.57
   0   8  -2  124.81    6.03
   0  -8   2  108.19    5.00
   0   8  -2  115.95    5.68
   0  -8   1  146.85    5.27
   0  -8   1  136.86    5.15
   0  -8   1  183.30    6.69
   0  -8   1  153.85    5.96
   0   8  -1  171.25    6.76
   0  -8   1  154.23    5.95
   0   8  -1  172.33    6.81
   0  -8   0   92.70    4.51
   0  -8   0   94.86    4.46
   0  -8   0   89.29    4.43
   0   8   0   94.24    4.80
   0  -8   0   84.94    3.91
   0  -8  -1   40.85    2.96
   0  -8  -1   34.29    2.50
   0   8   1   40.11    3.03
   0   8   1   43.71    3.21
   0  -8  -1   38.10    2.89
   0  -8  -2   80.66    3.43
   0   8   2   89.50    4.05
   0   8   2   74.93    3.53
   0  -8  -2   94.40    4.09
   0  -8  -2   88.71    3.99
   0  -8  -3   77.48    3.06
   0  -8  -3   90.60    3.61
   0   8   3   91.19    3.63
   0  -8  -3   82.42    3.48
   0  -9   9   71.30    3.42
   0   9  -9   85.33    3.56
   0   9  -8  102.10    4.21
   0  -9   8  100.34    3.73
   0  -9   8   91.73    4.10
   0  -9   7    1.85    1.40
   0   9  -7    3.97    1.67
   0   9  -7    1.61    1.20
   0  -9   6    8.37    2.02
   0  -9   6   13.69    2.03
   0   9  -6    7.77    1.62
   0   9  -6   11.59    2.11
   0   9  -5   56.64    3.19
   0  -9   5   51.77    3.24
   0   9  -4   19.22    2.41
   0   9  -4   17.08    2.09
   0  -9   4   16.45    2.05
   0   9  -3   -0.37    1.30
   0   9  -3    0.29    1.50
   0  -9   3    1.09    1.39
   0  -9   3   -2.52    1.41
   0   9  -2   98.43    4.17
   0   9  -2  104.48    4.34
   0   9  -1   14.56    1.73
  -1   9   1  359.95    8.89
  -1   9   1  388.83    8.97
  -1   9   1  369.24    9.38
  -1   9   0   45.88    2.98
  -1   9   0   46.17    2.56
  -1   9   0   45.19    2.52
   1  -9   1 1494.60   32.47
   1  -9   1 1812.45   33.22
  -1   9  -1 1806.19   34.33
  -1   9  -1 1627.40   32.94
  -1   9  -1 1669.73   32.88
  -1   9  -2    2.35    1.88
   1  -9   2    2.91    1.54
  -1   9  -2    3.02    1.25
  -1   9  -2    2.91    1.20
   1  -9   2    3.13    1.68
   1  -9   3   23.00    2.54
   1  -9   3   20.02    2.59
  -1   9  -3   13.90    1.58
  -1   9  -3   14.28    1.61
  -1   9  -3   24.77    2.71
  -1   9  -4   51.48    3.24
   1  -9   4   49.24    3.58
   1  -9   5   27.12    2.77
  -1   9  -5   25.23    2.57
   1  -9   6    1.09    1.59
   1  -9   6    0.83    1.63
  -1   9  -6    0.78    1.57
   1  -9   6    1.67    1.97
   1  -9   7   29.04    2.95
   1  -9   7   32.45    2.69
   1  -9   7   31.47    2.97
  -1   9  -7   31.22    2.63
   1  -9   8    4.12    1.89
  -1   9  -8    2.65    1.51
   1  -9   8    1.59    1.83
   1  -9   8    3.39    1.36
  -1   9  -9   36.43    2.45
   1  -9   9   35.01    2.86
   1  -9   9   28.30    2.40
  -1   9  -9   36.99    2.49
  -1   9 -10   33.83    2.12
  -1   9 -10   30.98    2.06
  -1   8   4   31.60    2.23
  -1   8   4   32.38    2.25
  -1   8   4   32.80    2.21
  -1   8   3   37.57    2.77
   1  -8  -3   28.01    2.06
   1  -8  -2   92.54    3.81
  -1   8   2  104.19    4.90
   1  -8  -1  348.84    9.44
   1  -8  -1  352.42    9.49
   1  -8   0  214.07    7.31
   1  -8   0  200.48    7.07
  -1   8  -1  143.55    6.03
   1  -8   1  148.92    6.30
   1  -8   1  174.30    6.80
  -1   8  -1  168.46    6.97
  -1   8  -2  172.31    6.90
  -1   8  -2  183.32    6.69
   1  -8   2  195.42    7.59
  -1   8  -2  174.53    6.51
  -1   8  -2  187.74    7.56
   1  -8   2  168.31    7.18
   1  -8   3  152.60    5.85
  -1   8  -3  161.60    6.05
  -1   8  -3  187.29    7.49
  -1   8  -3  182.11    7.16
  -1   8  -3  160.48    5.95
   1  -8   3  162.81    7.24
   1  -8   4   75.82    5.12
  -1   8  -4   75.43    4.69
  -1   8  -4   85.96    5.14
  -1   8  -4   68.38    3.48
   1  -8   4   80.45    4.60
  -1   8  -4   66.54    3.49
  -1   8  -5  310.28   10.17
   1  -8   5  312.35   10.51
   1  -8   5  309.21   10.76
  -1   8  -5  328.44   10.51
  -1   8  -6  138.00    6.31
   1  -8   6  148.08    6.35
   1  -8   6  137.35    6.68
  -1   8  -7    2.31    1.93
   1  -8   7    5.90    2.13
   1  -8   7    5.74    2.79
  -1   8  -7    4.41    1.70
  -1   8  -7    7.44    2.37
  -1   8  -8   36.03    2.74
   1  -8   8   43.49    3.18
   1  -8   8   42.95    3.84
  -1   8  -8   40.90    3.43
  -1   8  -8   43.39    3.58
   1  -8   9   13.35    2.63
  -1   8  -9   17.17    2.61
  -1   8  -9   16.10    2.54
   1  -8   9   11.78    1.78
  -1   8 -10   36.88    3.06
  -1   8 -10   37.08    2.97
   1  -8  10   28.54    2.67
  -1   8 -10   39.89    3.03
  -1   8 -11   98.10    4.09
  -1   8 -11   99.45    4.22
  -1   8 -11  101.76    4.30
   1  -7  -6   -0.27    1.10
  -1   7   6    0.75    1.18
  -1   7   5   -0.75    1.62
   1  -7  -5   -0.07    1.44
   1  -7  -5    0.40    1.53
   1  -7  -5    0.36    1.47
   1  -7  -4   29.40    2.75
  -1   7   4   27.01    3.01
   1  -7  -3   78.42    4.31
   1  -7  -3   88.94    5.08
  -1   7   3   88.40    5.04
   1  -7  -3   92.26    5.18
   1  -7  -2  121.24    6.07
   1  -7  -2  103.56    4.46
   1  -7  -2  125.04    6.15
   1  -7  -2  107.86    4.99
  -1   7   2  114.59    5.91
   1  -7  -2   90.92    4.39
  -1   7   1   84.05    5.24
   1  -7  -1   79.81    4.58
   1  -7  -1   80.44    4.26
   1  -7  -1   96.07    5.48
   1  -7  -1   90.80    5.33
  -1   7   1   68.63    4.14
   1  -7  -1   80.46    4.54
  -1   7   0   20.73    3.28
   1  -7   0   19.14    2.93
   1  -7   0   16.95    2.23
   1  -7   0   22.61    3.15
   1  -7   0   21.00    2.94
  -1   7   0   18.03    2.63
   1  -7   0   21.81    3.12
   1  -7   1  107.30    5.78
  -1   7  -1  111.02    5.90
   1  -7   1  111.49    5.93
   1  -7   1  106.04    5.76
  -1   7  -1  100.87    5.23
   1  -7   1  118.87    5.84
   1  -7   2  299.78    9.15
  -1   7  -2  318.76   10.40
   1  -7   2  303.34    9.90
   1  -7   2  322.58   10.49
   1  -7   2  308.32   10.00
  -1   7  -2  294.53    9.77
  -1   7  -3  131.89    6.42
  -1   7  -3  130.51    6.12
  -1   7  -4  363.12   10.24
  -1   7  -4  364.62   10.17
  -1   7  -4  425.77   12.29
   1  -7   4  400.75   12.54
  -1   7  -4  403.96   12.16
  -1   7  -5    9.15    2.77
  -1   7  -5    8.55    1.62
  -1   7  -5   14.23    2.87
   1  -7   5    8.07    3.26
  -1   7  -5    8.29    1.55
  -1   7  -5    8.35    2.24
  -1   7  -5   14.61    2.96
   1  -7   5   14.24    2.75
   1  -7   6   70.04    5.33
   1  -7   6   78.02    4.75
  -1   7  -6   68.33    4.08
  -1   7  -6   79.46    5.00
  -1   7  -6   71.39    5.12
  -1   7  -6   63.99    4.47
  -1   7  -6   84.36    5.18
  -1   7  -7    0.26    2.28
  -1   7  -7    0.28    1.78
  -1   7  -7   -0.45    2.32
   1  -7   7    0.17    1.88
  -1   7  -7    1.63    2.64
  -1   7  -8   73.10    5.27
   1  -7   8   71.50    4.95
   1  -7   8   71.13    4.09
  -1   7  -8   79.73    4.97
  -1   7  -8   73.92    4.86
  -1   7  -8   68.16    4.07
  -1   7  -9  302.25    9.87
  -1   7  -9  282.96   10.02
   1  -7   9  283.46    9.38
  -1   7  -9  277.50    9.71
  -1   7 -10   40.59    3.74
  -1   7 -10   39.82    3.52
   1  -7  10   29.89    3.06
  -1   7 -11   11.52    2.58
  -1   7 -11   11.19    2.31
  -1   7 -12    6.63    1.81
  -1   7 -12    6.74    1.57
  -1   7 -12    6.72    1.97
  -1   7 -13   10.00    1.29
  -1   7 -13    9.86    1.53
   1  -6  -8   16.26    1.63
  -1   6   8   16.46    1.69
   1  -6  -7    2.32    1.56
   1  -6  -7    1.75    1.35
   1  -6  -7    0.90    1.32
  -1   6   7    2.02    1.62
   1  -6  -6  191.09    7.19
  -1   6   6  212.30    7.60
   1  -6  -6  209.13    7.16
   1  -6  -6  191.72    7.21
   1  -6  -5   24.02    3.03
   1  -6  -5   20.54    2.99
  -1   6   5   27.20    3.32
   1  -6  -5   21.84    3.04
  -1   6   4    4.39    2.61
   1  -6  -4    3.93    2.29
   1  -6  -3    0.22    1.17
   1  -6  -3    0.43    1.49
   1  -6  -3    0.86    2.32
  -1   6   3    1.23    2.41
   1  -6  -3    0.05    2.04
   1  -6  -3    0.07    2.26
   1  -6  -2  282.46    8.92
   1  -6  -2  277.08    9.06
  -1   6   2  317.35   10.22
   1  -6  -2  283.03    8.83
   1  -6  -2  309.24   10.32
   1  -6  -2  312.78   10.26
  -1   6   2  254.27    8.59
  -1   6   1  352.07   10.57
   1  -6  -1  298.84    9.15
   1  -6  -1  316.36    9.65
   1  -6  -1  316.72   10.43
   1  -6  -1  335.65    9.82
  -1   6   1  276.73    9.17
   1  -6  -1  327.12   10.49
  -1   6   0  422.82   11.85
   1  -6   0  398.42   11.71
   1  -6   0  416.10   11.59
   1  -6   0  405.88   11.38
   1  -6   0  362.21   10.20
   1  -6   0  401.53   11.81
  -1   6   0  368.68   10.86
  -1   6  -1   -0.68    1.70
   1  -6   1    0.68    2.10
   1  -6   1    0.27    1.68
   1  -6   1   -0.54    1.74
   1  -6   1    0.21    1.26
  -1   6  -1   -0.32    1.88
   1  -6   2   70.70    4.15
  -1   6  -2   65.94    4.05
  -1   6  -2   69.78    4.23
   1  -6   2   71.51    4.10
  -1   6  -3  102.70    5.08
  -1   6  -3  100.27    5.01
   1  -6   3  100.84    5.51
  -1   6  -3  104.16    5.13
  -1   6  -4  290.15    9.27
  -1   6  -4  269.44    7.85
  -1   6  -4  281.09    8.38
  -1   6  -4  265.83    7.90
  -1   6  -4  279.49    9.08
  -1   6  -5   83.63    5.10
  -1   6  -5   93.18    4.61
  -1   6  -5   82.34    3.58
  -1   6  -5   90.01    4.90
  -1   6  -5   91.03    5.03
  -1   6  -5   81.90    3.62
  -1   6  -6   29.86    3.12
   1  -6   6   33.28    3.02
  -1   6  -6   31.93    3.36
  -1   6  -6   30.72    3.26
  -1   6  -6   20.46    3.33
   1  -6   7   35.06    2.99
  -1   6  -7   21.63    3.51
  -1   6  -7   29.62    3.02
  -1   6  -7   28.60    3.29
  -1   6  -7   30.65    3.40
  -1   6  -7   27.73    3.32
   1  -6   8  203.87    6.96
  -1   6  -8  214.11    8.37
  -1   6  -8  223.26    8.40
  -1   6  -8  211.76    7.49
  -1   6  -9  242.24    8.79
  -1   6  -9  225.82    7.87
  -1   6  -9  223.06    8.71
  -1   6 -10 1292.63   28.72
  -1   6 -10 1342.54   28.89
  -1   6 -10 1373.39   29.23
  -1   6 -11   63.41    4.31
  -1   6 -12  125.17    5.48
  -1   6 -13    0.87    1.48
  -1   6 -13   -0.17    1.23
  -1   5   9   66.41    3.35
  -1   5   8   91.24    4.65
   1  -5  -8   72.29    3.63
   1  -5  -8   94.20    4.41
   1  -5  -8   71.99    3.58
   1  -5  -7  354.34   10.24
  -1   5   7  348.48   10.61
   1  -5  -7  328.44    8.58
   1  -5  -7  294.37    9.53
   1  -5  -7  285.93    9.45
   1  -5  -6   24.01    3.19
  -1   5   6   20.37    3.28
   1  -5  -6   16.63    2.71
   1  -5  -6   18.23    2.09
   1  -5  -6   18.52    2.85
   1  -5  -5   47.16    3.94
  -1   5   5   45.83    4.15
   1  -5  -5   42.91    3.87
   1  -5  -5   49.84    3.96
   1  -5  -4  101.44    4.42
   1  -5  -4  122.86    6.01
  -1   5   4  118.66    6.13
   1  -5  -4  118.57    5.94
   1  -5  -4  121.00    5.68
   1  -5  -3  188.47    6.42
   1  -5  -3  198.27    7.01
   1  -5  -3  167.30    5.87
  -1   5   3  165.50    6.22
  -1   5   3  197.06    7.50
   1  -5  -2   13.14    2.10
   1  -5  -2   12.14    2.39
   1  -5  -2   12.76    2.18
   1  -5  -2   12.05    2.42
   1  -5  -2    9.14    1.85
  -1   5   2   10.79    1.94
  -1   5   2   10.21    2.31
   1  -5  -1   28.05    2.98
  -1   5   1   25.62    2.47
   1  -5  -1   26.80    2.68
   1  -5  -1   25.96    2.44
   1  -5  -1   26.25    2.86
  -1   5   1   31.07    2.94
   1  -5   0  255.56    8.13
  -1   5   0  236.97    7.42
   1  -5   0  252.85    7.20
   1  -5   0  253.54    8.12
  -1   5   0  263.41    8.12
   1  -5   0  251.36    8.09
   1  -5   0  259.25    7.20
  -1   5  -1   13.75    1.93
   1  -5   1   15.88    2.11
  -1   5  -1   11.33    2.09
  -1   5  -1   12.70    1.66
   1  -5   1   14.11    2.04
   1  -5   1   14.09    1.62
  -1   5  -1   13.20    2.09
   1  -5   2  174.22    6.11
  -1   5  -2  158.58    6.21
  -1   5  -2  174.44    6.03
  -1   5  -2  186.55    6.24
  -1   5  -2  165.75    5.75
  -1   5  -2  176.01    6.31
   1  -5   2  175.28    6.14
  -1   5  -3  938.46   21.11
  -1   5  -3  970.61   21.02
  -1   5  -3  944.09   20.97
  -1   5  -3  963.67   20.32
  -1   5  -4  164.77    6.24
  -1   5  -4  191.20    6.63
  -1   5  -4  199.59    6.56
  -1   5  -4  191.42    6.25
  -1   5  -4  186.54    5.66
  -1   5  -4  156.37    6.61
  -1   5  -4  183.96    5.57
  -1   5  -4  170.89    5.82
  -1   5  -5  406.79   10.48
  -1   5  -5  358.97    8.94
  -1   5  -5  404.70   10.62
  -1   5  -5  342.78   10.64
  -1   5  -5  382.76   10.57
  -1   5  -5  357.93    8.98
  -1   5  -6  266.77    8.54
  -1   5  -6  239.88    8.48
   1  -5   6  253.81    7.79
  -1   5  -6  263.47    8.34
  -1   5  -6  268.01    8.42
  -1   5  -7  660.54   15.83
  -1   5  -7  604.20   14.90
   1  -5   7  598.01   14.49
  -1   5  -7  613.98   15.65
  -1   5  -7  614.75   15.75
  -1   5  -8 1435.48   29.97
  -1   5  -8 1389.47   30.13
  -1   5  -8 1372.63   30.01
  -1   5  -8 1327.46   29.06
  -1   5  -8 1328.77   29.82
  -1   5  -9  150.63    6.47
  -1   5  -9  157.31    6.86
  -1   5  -9  136.41    6.76
  -1   5 -10    1.25    2.05
  -1   5 -10   -0.19    2.47
  -1   5 -11   23.49    3.44
  -1   5 -11   24.67    3.32
  -1   5 -12  991.23   21.99
  -1   5 -12  896.66   21.30
  -1   5 -13  155.29    5.52
  -1   5 -13  151.13    5.90
  -1   5 -14  282.46    7.29
  -1   5 -14  283.41    7.20
   1  -4 -10   46.20    2.81
   1  -4 -10   50.35    2.66
  -1   4  10   45.06    2.98
   1  -4  -9  196.90    6.36
  -1   4   9  187.02    7.20
  -1   4   8    9.20    2.76
   1  -4  -8    4.56    1.66
   1  -4  -8    3.97    1.67
   1  -4  -8    7.70    1.99
   1  -4  -7  103.16    5.50
   1  -4  -7   80.16    4.64
   1  -4  -7   84.00    4.70
   1  -4  -7  100.28    4.75
  -1   4   7   94.78    5.60
   1  -4  -7   93.11    5.32
   1  -4  -6   90.60    4.39
   1  -4  -6   87.70    5.09
   1  -4  -6   81.40    4.71
  -1   4   6   90.70    5.42
   1  -4  -6   81.85    4.74
   1  -4  -6   86.04    5.04
   1  -4  -5  721.27   17.30
   1  -4  -5  709.28   17.16
   1  -4  -5  714.87   15.98
   1  -4  -5  729.58   17.12
  -1   4   5  731.48   17.72
   1  -4  -5  704.37   17.14
   1  -4  -4    1.78    1.75
   1  -4  -4    1.25    1.26
   1  -4  -4    1.57    1.40
  -1   4   4    2.01    1.94
   1  -4  -4    3.97    1.82
   1  -4  -4    1.83    1.71
   1  -4  -4    0.90    1.56
   1  -4  -3 2310.63   42.56
   1  -4  -3 2249.41   43.52
   1  -4  -3 1891.75   41.76
   1  -4  -3 2355.93   44.01
  -1   4   3 2149.22   42.91
   1  -4  -3 2088.15   42.60
  -1   4   3 2489.16   44.67
   1  -4  -3 2469.02   43.80
  -1   4   2    2.05    0.88
   1  -4  -2   16.08    1.38
   1  -4  -2    3.76    1.48
   1  -4  -2    2.38    1.39
   1  -4  -2   15.96    1.73
  -1   4   2   14.91    1.27
  -1   4   2    3.41    1.38
  -1   4   2    3.24    1.64
  -1   4   2    2.43    0.96
  -1   4   2    2.52    0.81
  -1   4   1 3300.85   64.41
   1  -4  -1 3492.26   64.31
   1  -4  -1 3402.32   65.02
  -1   4   1 3634.17   65.36
   1  -4  -1 3487.39   65.45
  -1   4   1 3278.25   63.35
   1  -4  -1 3459.94   64.33
   1  -4  -1 3574.25   64.65
   1  -4  -1 3466.15   65.42
  -1   4   1 3464.12   63.37
  -1   4   1 3332.17   64.40
  -1   4   1 3293.28   64.42
   1  -4   0 1129.82   23.83
  -1   4   0 1201.84   23.80
   1  -4   0 1122.16   22.89
  -1   4   0 1089.61   23.15
  -1   4   0 1180.62   21.82
   1  -4   0 1211.06   23.96
  -1   4   0 1101.87   21.79
   1  -4   0 1202.36   23.26
  -1   4   0 1089.96   23.70
   1  -4   0 1238.49   23.31
   1  -4   0 1128.13   23.83
  -1   4   0 1103.61   23.17
  -1   4  -1   31.69    2.03
  -1   4  -1   28.72    2.18
   1  -4   1   29.52    2.21
  -1   4  -1   25.71    2.24
  -1   4  -1   28.02    0.95
   1  -4   1   26.12    2.14
  -1   4  -1   24.97    0.90
  -1   4  -1   27.50    1.93
  -1   4  -1   30.34    2.20
   1  -4   2   37.89    2.39
   1  -4   2   46.80    2.35
  -1   4  -2   40.23    2.64
  -1   4  -2   44.94    2.36
   1  -4   2   44.41    2.29
   1  -4   2   39.71    2.47
  -1   4  -2   41.45    2.32
  -1   4  -2   41.50    2.48
  -1   4  -2   35.16    2.49
  -1   4  -2   35.21    2.30
  -1   4  -3   15.57    1.87
   1  -4   3   16.09    1.50
  -1   4  -3   15.88    1.84
  -1   4  -3   12.74    1.91
   1  -4   3   16.25    1.51
  -1   4  -3   16.66    1.77
  -1   4  -4   50.46    2.84
  -1   4  -4   43.60    2.76
  -1   4  -4   49.34    2.98
  -1   4  -4   45.52    2.42
  -1   4  -4   42.31    2.18
   1  -4   4   43.84    2.30
  -1   4  -4   45.73    2.40
  -1   4  -4   44.76    2.80
   1  -4   4   47.35    2.38
  -1   4  -4   41.00    2.93
  -1   4  -4   44.11    2.18
  -1   4  -5 1611.07   31.05
  -1   4  -5 1619.66   32.12
  -1   4  -5 1708.91   32.18
  -1   4  -5 1580.20   31.49
  -1   4  -5 1492.97   30.37
  -1   4  -5 1506.28   30.42
  -1   4  -5 1571.90   30.97
   1  -4   5 1553.66   30.78
  -1   4  -5 1620.99   31.87
  -1   4  -6  200.12    5.87
  -1   4  -6  231.52    7.19
   1  -4   6  221.11    6.29
  -1   4  -6  233.15    7.13
  -1   4  -6  222.01    6.53
  -1   4  -6  197.75    5.84
   1  -4   6  190.95    5.66
  -1   4  -6  238.58    7.30
  -1   4  -7  307.95    8.83
  -1   4  -7  299.52    8.67
  -1   4  -7  322.42    8.77
  -1   4  -7  289.81    7.78
  -1   4  -7  293.37    8.88
  -1   4  -8   10.23    2.29
  -1   4  -8    9.69    2.23
  -1   4  -8   14.98    2.35
  -1   4  -9  111.93    5.68
  -1   4  -9  122.23    5.37
  -1   4  -9  117.49    5.64
  -1   4 -10   -0.17    2.07
  -1   4 -10   -0.17    2.31
  -1   4 -10    0.73    2.44
  -1   4 -10    0.52    1.78
  -1   4 -11  288.42    9.71
  -1   4 -11  263.54    9.03
  -1   4 -12    8.46    2.31
  -1   4 -12    8.04    2.58
   1  -4  13 2255.96   46.82
  -1   4 -13 2510.92   47.24
  -1   4 -14   10.15    1.41
  -1   4 -14   10.41    1.53
   1  -3 -11   10.21    1.73
   1  -3 -11    7.35    1.56
  -1   3  11    7.47    1.77
   1  -3 -10   91.74    5.04
   1  -3 -10   94.33    4.55
  -1   3  10   99.92    5.14
   1  -3 -10  106.94    4.74
  -1   3   9   75.58    4.95
   1  -3  -9   84.45    4.61
   1  -3  -9   76.22    4.56
   1  -3  -9   75.91    4.83
   1  -3  -8  196.82    6.97
   1  -3  -8  195.64    6.96
   1  -3  -8  261.81    8.30
   1  -3  -8  259.18    8.98
  -1   3   8  265.24    9.10
   1  -3  -7   91.08    5.04
   1  -3  -7   78.31    4.20
   1  -3  -7   80.38    4.25
   1  -3  -7   85.91    4.50
   1  -3  -6 1082.96   24.49
   1  -3  -6 1182.67   25.43
   1  -3  -6 1153.28   24.42
   1  -3  -6 1218.55   25.23
   1  -3  -6 1063.70   24.44
   1  -3  -5  145.53    5.49
   1  -3  -5  132.74    4.66
   1  -3  -5  130.10    5.32
   1  -3  -5  149.65    5.67
   1  -3  -5  133.88    4.96
   1  -3  -5  126.22    5.23
   1  -3  -4  100.20    4.25
   1  -3  -4   83.52    2.75
   1  -3  -4   99.86    4.30
   1  -3  -4   79.88    2.71
   1  -3  -4  106.91    3.92
   1  -3  -4   94.22    3.77
   1  -3  -4  102.37    4.26
   1  -3  -4  107.00    4.29
   1  -3  -3 4188.91   78.74
   1  -3  -3 4465.48   80.36
  -1   3   3 4465.91   79.36
   1  -3  -3 4454.50   79.94
   1  -3  -3 4277.96   80.22
  -1   3   3 4485.37   79.30
  -1   3   3 3867.88   78.84
   1  -3  -3 4212.88   79.30
   1  -3  -3 4337.34   80.22
   1  -3  -3 4147.20   78.71
  -1   3   3 4544.35   80.44
  -1   3   3 4061.12   78.83
   1  -3  -3 4369.09   79.92
  -1   3   2  753.65   14.97
  -1   3   2  745.90   15.16
   1  -3  -2  758.20   15.76
  -1   3   2  697.78   14.99
   1  -3  -2  708.78   15.81
  -1   3   2  675.98   15.04
   1  -3  -2  756.53   15.04
   1  -3  -2  768.60   15.06
   1  -3  -2  728.08   15.56
  -1   3   2  776.39   15.98
   1  -3  -1   55.48    2.73
   1  -3  -1   56.80    2.74
  -1   3   1   61.18    2.48
  -1   3   1   65.28    2.15
   1  -3  -1   63.74    2.45
  -1   3   1   65.09    2.54
   1  -3  -1   63.90    2.45
  -1   3   1   62.31    2.12
  -1   3   0 4257.31   80.24
  -1   3   0 4283.84   80.21
  -1   3   0 4729.67   81.43
  -1   3   0 4652.09   81.39
  -1   3  -1 3021.74   53.87
  -1   3  -1 2924.83   52.34
  -1   3  -1 2771.98   52.30
   1  -3   1 2883.16   53.66
  -1   3  -1 2941.70   53.80
   1  -3   1 2892.97   53.64
   1  -3   2 3819.91   71.32
   1  -3   2 3883.10   71.35
   1  -3   3 2619.27   50.52
  -1   3  -3 2745.01   50.71
  -1   3  -3 2790.99   50.75
   1  -3   3 2660.24   50.52
  -1   3  -4 2673.40   50.59
   1  -3   4 2677.14   49.79
  -1   3  -4 2775.51   49.96
  -1   3  -4 2773.80   49.95
   1  -3   4 2729.82   49.82
  -1   3  -5 4269.77   57.83
  -1   3  -5 4200.66   56.28
   1  -3   5 4239.58   56.18
  -1   3  -5 3978.43   57.75
  -1   3  -5 3980.41   57.69
   1  -3   5 4098.83   56.15
  -1   3  -5 4115.78   56.24
  -1   3  -5 4206.05   58.06
  -1   3  -6  958.73   18.95
  -1   3  -6  824.91   17.15
  -1   3  -6  914.80   17.74
  -1   3  -6  914.24   18.95
  -1   3  -6  869.05   17.45
  -1   3  -6  943.04   18.80
   1  -3   6  843.22   17.10
  -1   3  -6  796.93   17.09
   1  -3   6  789.84   17.03
  -1   3  -7    1.66    1.46
  -1   3  -7    1.99    1.61
  -1   3  -7    2.35    1.19
  -1   3  -7    1.75    1.44
  -1   3  -7    1.53    0.55
  -1   3  -7    1.55    0.55
  -1   3  -8    6.88    1.79
  -1   3  -8    7.95    2.00
  -1   3  -8    6.41    1.56
  -1   3  -8    5.79    2.05
  -1   3  -8    5.15    2.05
  -1   3  -9  118.58    4.73
  -1   3  -9  115.90    4.66
  -1   3  -9  107.08    5.55
  -1   3  -9  122.82    5.50
  -1   3  -9  108.36    5.37
  -1   3 -10  596.12   16.04
  -1   3 -10  640.80   15.84
  -1   3 -10  590.85   15.39
  -1   3 -11  132.43    5.91
  -1   3 -11  133.86    6.41
  -1   3 -11  114.17    5.36
   1  -3  12   80.25    4.53
  -1   3 -13  166.48    5.05
  -1   3 -14    3.72    1.57
   1  -2 -12    2.98    1.47
   1  -2 -12    1.70    1.07
  -1   2  12    2.35    1.39
   1  -2 -11   -0.39    1.50
   1  -2 -11    1.33    1.82
  -1   2  11    0.35    1.86
   1  -2 -10    2.12    2.17
   1  -2 -10    1.64    1.86
   1  -2  -9   44.25    3.64
   1  -2  -9   46.51    3.65
   1  -2  -9   46.78    3.88
   1  -2  -8  197.19    7.23
   1  -2  -8  186.67    7.07
   1  -2  -8  197.56    7.20
   1  -2  -7  715.17   16.79
   1  -2  -7  726.84   16.85
   1  -2  -6    7.10    1.43
   1  -2  -6    7.70    1.50
   1  -2  -6    6.36    1.38
   1  -2  -6    6.81    1.68
   1  -2  -5   64.58    3.16
   1  -2  -5   56.98    2.94
   1  -2  -5   52.85    2.75
   1  -2  -5   60.75    2.71
   1  -2  -5   55.58    2.79
   1  -2  -4   19.80    1.88
   1  -2  -4   18.54    1.69
   1  -2  -4   18.97    1.03
   1  -2  -4   19.90    1.71
  -1   2   4   21.71    1.65
   1  -2  -4   20.82    1.83
  -1   2   4   21.44    1.65
  -1   2   4   19.29    1.12
  -1   2   4   18.82    1.11
   1  -2  -4   19.52    1.04
  -1   2   3  198.06    5.19
   1  -2  -3  205.39    4.76
  -1   2   3  212.41    5.29
  -1   2   3  208.35    4.91
  -1   2   3  198.62    4.88
   1  -2  -3  207.03    4.77
  -1   2   2  823.10   16.72
  -1   2   2  889.23   16.90
   1  -2  -2  896.61   16.79
   1  -2  -2  900.23   16.79
  -1   2   2  813.36   16.66
  -1   2   2  831.30   16.85
  -1   2   1 1347.89   25.51
  -1   2   1 1291.72   25.22
  -1   2   1 1269.95   25.29
   1  -2  -1 1393.89   25.51
  -1   2   1 1379.28   25.54
   1  -2  -1 1415.00   25.54
   1  -2   3 2528.99   46.43
  -1   2  -3 2582.27   47.15
  -1   2  -3 2459.95   46.40
   1  -2   3 2652.46   47.20
  -1   2  -3 2559.94   47.13
   1  -2   3 2598.64   47.16
  -1   2  -4   65.09    1.87
  -1   2  -4   68.04    2.23
   1  -2   4   61.85    1.85
   1  -2   4   64.45    2.17
   1  -2   4   66.40    2.18
  -1   2  -4   65.72    2.19
   1  -2   5  173.72    4.29
  -1   2  -5  174.66    5.21
   1  -2   5  186.81    4.33
  -1   2  -5  184.18    5.38
  -1   2  -5  182.15    4.36
  -1   2  -5  185.35    4.28
   1  -2   5  180.27    4.31
  -1   2  -5  180.11    4.36
  -1   2  -6  263.87    6.86
   1  -2   6  176.27    4.52
  -1   2  -6  227.90    5.96
  -1   2  -6  189.95    4.59
   1  -2   6  244.48    5.26
  -1   2  -6  246.09    6.17
  -1   2  -6  190.59    4.59
  -1   2  -6  240.84    5.20
  -1   2  -6  237.67    6.41
   1  -2   6  182.22    4.52
  -1   2  -6  236.59    6.61
  -1   2  -6  229.69    6.63
  -1   2  -7   61.84    2.63
  -1   2  -7   70.58    3.59
  -1   2  -7   70.62    3.06
  -1   2  -7   59.02    2.62
  -1   2  -7   67.88    3.21
  -1   2  -7   69.60    3.68
  -1   2  -7   62.81    2.40
  -1   2  -7   58.13    3.44
  -1   2  -8    0.53    1.75
  -1   2  -8    0.19    1.54
  -1   2  -8    0.54    1.50
  -1   2  -8    1.45    1.72
  -1   2  -9  121.28    5.87
  -1   2  -9  135.26    5.46
  -1   2  -9  131.09    5.68
  -1   2  -9  126.54    5.33
  -1   2 -10  263.39    8.80
  -1   2 -11    2.12    1.93
  -1   2 -11    3.69    2.17
  -1   2 -12   54.47    3.77
  -1   2 -12   53.25    3.71
  -1   2 -13   21.48    2.70
  -1   2 -13   22.32    2.28
  -1   2 -13   20.57    2.00
  -1   2 -14   12.53    1.45
   1  -1 -13  244.60    7.18
   1  -1 -13  274.54    7.01
   1  -1 -12  374.24    9.50
   1  -1 -12  388.03   10.82
   1  -1 -11   98.04    4.48
   1  -1 -11   97.00    4.73
   1  -1 -11   94.48    5.20
   1  -1 -10  165.92    6.59
   1  -1 -10  175.51    7.05
   1  -1 -10  174.15    6.54
   1  -1  -9 1294.43   27.67
   1  -1  -9 1256.75   27.23
   1  -1  -9 1278.34   27.13
   1  -1  -9 1195.43   26.59
   1  -1  -8  766.53   17.42
   1  -1  -8  750.93   17.82
   1  -1  -8  759.94   17.46
   1  -1  -8  712.40   16.95
   1  -1  -7  892.17   19.95
   1  -1  -7  856.91   19.32
   1  -1  -7  938.64   19.24
   1  -1  -7  876.42   19.57
   1  -1  -7  942.78   19.91
   1  -1  -6  680.84   15.11
   1  -1  -6  693.04   14.97
   1  -1  -6  688.87   14.92
   1  -1  -6  683.65   15.43
  -1   1   5  424.16    8.40
   1  -1  -5  376.75    8.35
   1  -1  -5  367.99    8.04
  -1   1   5  436.13    8.43
  -1   1   4 1134.32   21.48
  -1   1   4 1101.29   21.47
   1  -1  -4 1173.26   22.85
   1  -1  -4 1104.91   21.41
   1  -1  -4 1103.42   21.43
  -1   1   3 1747.20   34.06
   1  -1  -3 1824.00   33.52
  -1   1   3 1826.92   33.55
  -1   1   3 1774.75   34.06
  -1   1   3 1814.97   33.57
   1  -1  -3 1817.24   33.52
   1  -1  -2 2315.23   42.67
  -1   1   2 2327.74   42.69
  -1   1   2 2304.42   42.68
   1  -1  -2 2303.05   42.65
  -1   1   1 1072.56   19.92
  -1   1   1 1080.68   19.94
   1  -1   1  147.24    3.36
   1  -1   1  150.22    3.59
   1  -1   1  150.58    3.61
  -1   1  -1  160.88    3.39
   1  -1   2  368.76    7.73
  -1   1  -2  393.82    7.63
   1  -1   2  370.83    7.73
  -1   1  -2  380.46    7.72
   1  -1   2  389.09    7.62
  -1   1  -2  376.55    7.71
   1  -1   4 2825.56   54.04
  -1   1  -4 3128.28   54.49
   1  -1   4 3022.36   54.44
  -1   1  -4 2885.12   53.95
  -1   1  -4 2949.62   53.98
   1  -1   4 2924.84   53.98
  -1   1  -5  182.68    5.25
  -1   1  -5  176.31    5.40
  -1   1  -5  180.33    5.09
   1  -1   5  167.78    3.79
  -1   1  -5  163.06    3.76
   1  -1   5  195.42    4.71
  -1   1  -5  163.44    3.76
  -1   1  -5  179.72    5.26
   1  -1   5  174.85    3.81
  -1   1  -6 2870.80   52.09
  -1   1  -6 2756.90   53.05
  -1   1  -6 2725.07   53.27
  -1   1  -6 2685.16   52.90
   1  -1   6 2750.66   52.09
  -1   1  -6 2771.66   52.78
  -1   1  -6 2918.29   52.51
  -1   1  -6 2704.24   52.34
  -1   1  -6 2696.46   52.37
  -1   1  -7 1151.23   24.28
  -1   1  -7 1151.14   24.31
  -1   1  -7 1224.88   25.32
  -1   1  -7 1181.58   24.78
  -1   1  -7 1294.62   24.88
  -1   1  -7 1196.52   25.67
  -1   1  -7 1286.43   25.38
  -1   1  -8  202.08    6.13
  -1   1  -8  220.10    7.30
  -1   1  -8  196.02    6.06
  -1   1  -8  244.56    7.50
  -1   1  -8  228.47    7.73
  -1   1  -9  583.62   15.16
  -1   1  -9  618.30   15.33
  -1   1 -10    2.62    2.33
  -1   1 -10    1.22    1.87
  -1   1 -11    3.35    2.25
  -1   1 -11    1.86    1.86
  -1   1 -12  207.87    7.90
  -1   1 -12  211.32    7.33
  -1   1 -12  220.77    7.57
  -1   1 -13    4.98    1.41
  -1   1 -13    4.20    1.43
  -1   1 -13    5.55    1.65
   1   0 -13    2.66    1.47
   1   0 -13    1.77    1.29
   1   0 -13    1.40    1.38
   1   0 -12   43.12    3.17
   1   0 -12   39.55    3.28
   1   0 -12   37.76    2.85
   1   0 -12   33.28    2.46
   1   0 -12   38.91    3.13
   1   0 -11 1130.46   24.18
   1   0 -11 1065.42   23.58
   1   0 -11 1073.99   23.05
   1   0 -11 1106.82   24.40
   1   0 -10 3199.47   63.48
   1   0 -10 3362.58   64.11
   1   0 -10 3295.09   63.22
   1   0 -10 3284.22   64.20
   1   0 -10 3181.14   63.29
   1   0  -9 2473.33   48.13
   1   0  -9 2487.19   48.63
   1   0  -9 2459.26   48.82
   1   0  -9 2393.11   48.05
   1   0  -9 2380.71   48.10
   1   0  -8   57.86    3.29
   1   0  -8   58.24    3.01
   1   0  -8   55.22    3.12
   1   0  -8   55.11    3.15
   1   0  -8   56.17    3.36
   1   0  -7  169.26    5.48
   1   0  -7  158.64    5.22
   1   0  -7  166.24    5.32
   1   0  -7  178.06    5.53
   1   0  -7  155.59    4.92
   1   0  -7  160.16    5.52
   1   0  -6  121.74    4.12
  -1   0   6  131.14    4.28
   1   0  -6  127.43    4.41
   1   0  -6  145.29    4.68
   1   0  -6  119.50    4.14
   1   0  -6  128.29    4.41
  -1   0   6  144.24    4.43
  -1   0   5  323.35    6.70
  -1   0   5  319.60    6.70
   1   0  -5  318.31    7.89
  -1   0   5  330.76    6.65
  -1   0   5  322.67    6.64
  -1   0   4 1514.83   28.59
  -1   0   4 1504.40   28.66
  -1   0   4 1474.28   27.92
  -1   0   4 1506.69   27.92
   1   0  -3 1816.87   34.00
  -1   0   3 1841.73   34.33
  -1   0   3 1855.40   34.01
   1   0  -3 1794.81   34.00
  -1   0   3 1856.52   34.00
  -1   0   2 2504.07   46.21
   1   0  -2 2470.45   46.22
   1   0  -2 2600.44   46.35
  -1   0   2 2506.30   46.21
  -1   0   2 2518.26   46.30
   1   0  -2 2467.50   46.21
  -1   0   0   27.05    1.22
  -1   0   0   29.18    1.21
   1   0   0   27.33    1.18
  -1   0   0   28.81    1.27
   1   0   0   26.80    1.24
   1   0   0   27.22    1.25
   1   0   1  428.44    8.56
   1   0   1  417.05    8.54
   1   0   1  424.22    8.55
   1   0   2  320.83    6.49
   1   0   2  312.83    6.47
   1   0   2  313.50    6.65
  -1   0  -2  300.82    6.36
  -1   0  -3 3196.05   59.09
   1   0   3 3249.78   59.68
   1   0   3 3241.24   59.19
  -1   0  -3 3222.28   59.09
  -1   0  -4  373.72    8.85
  -1   0  -4  376.83    9.25
   1   0   4  411.48    8.72
  -1   0  -4  378.62    7.75
  -1   0  -4  377.61    7.76
  -1   0  -4  387.26    7.69
  -1   0  -4  385.99    7.68
  -1   0  -5 1532.58   30.91
  -1   0  -5 1628.90   31.71
  -1   0  -5 1529.75   30.94
  -1   0  -5 1570.95   31.17
  -1   0  -5 1586.47   30.92
   1   0   5 1493.43   30.54
  -1   0  -5 1691.31   30.84
  -1   0  -5 1607.96   31.16
  -1   0  -6  978.43   20.20
  -1   0  -6  970.86   20.26
  -1   0  -6  975.68   20.06
  -1   0  -6  889.98   19.62
  -1   0  -6 1009.95   20.79
  -1   0  -6  882.19   19.62
  -1   0  -6  904.45   19.14
  -1   0  -7  135.17    4.58
  -1   0  -7  147.71    5.46
  -1   0  -7  133.11    4.91
  -1   0  -7  154.79    6.11
  -1   0  -7  151.25    5.77
  -1   0  -7  132.28    4.88
  -1   0  -7  152.18    5.61
  -1   0  -8  253.53    7.69
  -1   0  -8  286.00    8.68
  -1   0  -8  256.82    7.76
  -1   0  -8  239.96    7.10
  -1   0  -8  296.48    8.85
  -1   0  -8  298.78    9.31
  -1   0  -9  285.49    8.48
  -1   0  -9  323.23    9.85
  -1   0  -9  283.62    8.48
  -1   0  -9  337.68   10.44
  -1   0  -9  338.00   10.20
  -1   0 -10  312.33    9.99
  -1   0 -10  287.16    9.46
  -1   0 -11  181.26    6.85
  -1   0 -11  185.13    7.18
  -1   0 -12   98.50    4.60
  -1   0 -12   90.89    4.30
   1   0  12   90.77    4.89
   1   0  13   14.32    1.96
  -1   0 -13   19.16    1.72
   1   1 -14    8.20    1.22
   1   1 -13   92.58    4.21
   1   1 -13   90.96    3.58
   1   1 -13   93.03    4.01
   1   1 -13   90.49    3.70
   1   1 -12   72.19    3.78
   1   1 -12   69.55    3.88
   1   1 -12   63.93    3.64
   1   1 -12   67.98    3.76
   1   1 -12   74.38    4.07
   1   1 -12   64.98    3.19
   1   1 -11  964.10   21.56
   1   1 -11  994.80   21.84
   1   1 -11  967.54   21.85
   1   1 -11  984.87   22.17
   1   1 -11  928.50   21.53
   1   1 -11  964.38   21.04
   1   1 -10  438.46   11.54
   1   1 -10  441.90   11.85
   1   1 -10  434.02   11.32
   1   1 -10  425.91   11.64
   1   1 -10  449.79   12.08
   1   1  -9 1236.71   25.37
   1   1  -9 1201.89   25.69
   1   1  -9 1198.43   25.10
   1   1  -9 1218.41   25.71
   1   1  -9 1239.96   26.03
   1   1  -9 1165.41   24.95
   1   1  -9 1206.94   24.98
   1   1  -9 1182.05   25.36
   1   1  -8  807.72   17.75
   1   1  -8  808.88   18.03
   1   1  -8  795.15   17.90
   1   1  -8  830.78   18.22
   1   1  -8  802.43   17.73
   1   1  -8  826.84   17.91
   1   1  -8  817.94   17.88
   1   1  -8  792.84   17.73
   1   1  -7  334.35    8.63
   1   1  -7  349.44    8.97
   1   1  -7  329.16    8.67
   1   1  -7  330.45    8.74
   1   1  -7  336.06    8.52
   1   1  -7  352.70    8.99
   1   1  -7  350.31    9.04
  -1  -1   6    4.45    0.88
   1   1  -6    2.95    1.31
   1   1  -6    3.39    1.14
   1   1  -6    3.01    1.16
  -1  -1   6    3.72    0.56
   1   1  -6    2.83    1.02
   1   1  -6    3.77    1.22
  -1  -1   6    4.39    0.89
   1   1  -6    3.38    1.36
  -1  -1   6    3.03    0.55
  -1  -1   6    3.35    0.53
   1   1  -6    5.14    1.46
  -1  -1   6    3.06    0.55
   1   1  -5 9831.49  176.91
  -1  -1   5 9999.00  176.10
  -1  -1   5 9879.79  175.64
  -1  -1   4   22.41    1.28
  -1  -1   4   23.15    1.29
  -1  -1   4   22.37    1.28
  -1  -1   4   21.32    1.23
  -1  -1   4   22.21    1.23
  -1  -1   3  128.70    3.35
  -1  -1   3  127.03    3.40
  -1  -1   3  125.58    3.45
  -1  -1   3  127.41    3.47
  -1  -1   3  129.57    3.41
  -1  -1   2 4325.90   78.12
  -1  -1   2 4228.25   78.35
  -1  -1   2 4232.06   78.35
  -1  -1   1   95.23    2.74
  -1  -1   1   95.81    2.76
  -1  -1   1   90.72    2.74
  -1  -1   1   94.67    2.58
  -1  -1   0 4450.10   81.47
  -1  -1  -1 1345.43   25.38
   1   1   1 1350.99   25.49
  -1  -1  -1 1369.86   25.47
  -1  -1  -1 1331.57   25.52
  -1  -1  -1 1309.99   25.48
  -1  -1  -1 1326.70   25.35
  -1  -1  -2   20.55    1.35
  -1  -1  -2   18.85    1.20
  -1  -1  -2   16.56    1.07
   1   1   2   19.05    1.32
  -1  -1  -2   19.02    1.19
  -1  -1  -2   16.92    1.11
  -1  -1  -3  912.21   18.54
   1   1   3  947.27   19.22
  -1  -1  -3  991.15   20.22
  -1  -1  -3  999.75   18.68
  -1  -1  -3 1022.34   19.34
  -1  -1  -3  926.82   18.58
  -1  -1  -3  989.96   18.68
  -1  -1  -4   60.28    2.64
  -1  -1  -4   60.53    2.90
  -1  -1  -4   58.12    1.84
   1   1   4   60.06    2.58
  -1  -1  -4   62.86    3.34
  -1  -1  -4   61.26    2.89
  -1  -1  -4   58.15    2.85
  -1  -1  -4   56.01    2.74
  -1  -1  -4   60.92    1.93
  -1  -1  -4   61.22    1.92
  -1  -1  -4   58.63    1.83
  -1  -1  -4   57.26    2.76
  -1  -1  -5    1.00    0.21
  -1  -1  -5    2.69    1.32
  -1  -1  -5    2.78    1.29
  -1  -1  -5    0.99    0.21
  -1  -1  -5    3.58    1.28
  -1  -1  -5    1.04    0.21
  -1  -1  -5    1.98    1.45
  -1  -1  -5    2.76    1.10
  -1  -1  -5    0.98    0.21
  -1  -1  -5    2.37    1.74
  -1  -1  -5    2.57    1.25
  -1  -1  -6   85.89    4.00
  -1  -1  -6   90.38    3.97
  -1  -1  -6   83.88    3.95
  -1  -1  -6   79.88    3.81
  -1  -1  -6   81.55    4.17
  -1  -1  -6   87.79    4.18
  -1  -1  -7   30.08    3.06
  -1  -1  -7   33.55    2.79
  -1  -1  -7   30.96    2.65
  -1  -1  -7   31.11    3.00
  -1  -1  -7   33.39    2.79
  -1  -1  -7   28.26    2.42
  -1  -1  -8    5.93    1.66
  -1  -1  -8    8.36    2.67
  -1  -1  -8    5.39    1.83
  -1  -1  -8    9.59    2.53
  -1  -1  -8    7.24    1.90
  -1  -1  -8    7.00    1.86
  -1  -1  -9  152.02    6.71
  -1  -1  -9  140.20    5.49
  -1  -1  -9  150.04    6.13
  -1  -1  -9  135.47    5.39
  -1  -1 -10    2.44    1.26
  -1  -1 -10    4.76    1.87
   1   1  10    6.30    2.98
  -1  -1 -10    5.20    2.39
  -1  -1 -10    2.27    1.25
  -1  -1 -11  627.07   15.33
  -1  -1 -11  613.79   14.87
   1   1  11  587.24   15.72
  -1  -1 -12    7.22    1.40
  -1  -1 -12    6.19    1.49
   1   1  12    6.48    1.92
   1   2 -13  207.15    6.41
   1   2 -13  219.89    6.28
   1   2 -13  225.56    6.84
   1   2 -13  218.75    6.36
   1   2 -12   33.76    2.59
   1   2 -12   33.42    2.86
   1   2 -12   35.82    2.79
   1   2 -12   31.38    2.35
   1   2 -12   36.29    2.71
   1   2 -11  225.96    7.69
   1   2 -11  226.77    7.17
   1   2 -11  225.34    6.99
   1   2 -11  222.81    6.71
   1   2 -11  218.16    7.10
   1   2 -11  221.37    6.82
   1   2 -11  225.16    7.57
   1   2 -11  229.46    7.31
   1   2 -10   14.93    2.22
   1   2 -10   12.46    1.90
   1   2 -10   14.61    2.09
   1   2 -10   15.92    2.11
   1   2 -10   15.51    2.09
   1   2 -10   13.87    2.00
   1   2 -10   14.88    2.06
   1   2 -10   12.25    2.32
   1   2 -10   13.10    2.24
   1   2  -9  288.96    8.24
   1   2  -9  291.69    8.73
   1   2  -9  274.38    8.00
   1   2  -9  283.78    8.27
   1   2  -9  273.18    8.25
   1   2  -9  274.86    8.08
   1   2  -9  275.96    8.57
   1   2  -9  297.35    8.20
   1   2  -9  256.81    8.39
   1   2  -8  671.08   15.23
   1   2  -8  676.80   15.15
   1   2  -8  650.00   14.93
   1   2  -8  691.36   15.87
   1   2  -8  666.12   15.19
   1   2  -8  670.79   15.49
   1   2  -8  675.44   16.01
   1   2  -8  692.17   16.00
   1   2  -7 2858.02   54.61
   1   2  -7 2772.68   54.52
   1   2  -7 2860.27   54.50
   1   2  -7 2859.78   55.32
   1   2  -7 2920.21   55.55
   1   2  -7 2895.19   55.07
  -1  -2   7 2830.31   53.98
   1   2  -7 2728.39   54.12
  -1  -2   7 2976.94   54.36
   1   2  -7 3014.32   55.84
  -1  -2   6 1812.74   34.27
   1   2  -6 1720.78   34.84
   1   2  -6 1763.94   35.74
  -1  -2   6 1888.62   34.27
  -1  -2   6 1861.61   34.23
   1   2  -6 1730.86   34.67
   1   2  -6 1670.20   34.31
   1   2  -6 1807.62   35.43
  -1  -2   6 1754.33   34.41
  -1  -2   6 1824.16   34.25
  -1  -2   6 1857.48   34.38
   1   2  -6 1820.81   35.63
   1   2  -6 1783.53   35.84
   1   2  -6 1797.05   34.90
  -1  -2   5  377.18    8.48
  -1  -2   5  343.42    8.19
   1   2  -5  389.37    9.40
   1   2  -5  336.63    8.57
  -1  -2   5  375.50    8.20
  -1  -2   5  380.74    8.50
  -1  -2   5  386.38    8.43
  -1  -2   5  383.63    8.43
  -1  -2   4  961.03   18.59
  -1  -2   4  963.17   18.60
   1   2  -4  979.88   18.20
   1   2  -4  826.32   19.07
  -1  -2   4  922.62   18.12
   1   2  -4  834.95   18.94
  -1  -2   4  942.52   18.63
  -1  -2   4  934.88   18.63
  -1  -2   3  111.65    3.44
   1   2  -3  114.07    3.11
  -1  -2   3  116.22    3.14
  -1  -2   3  106.60    3.45
  -1  -2   3  112.00    3.45
  -1  -2   3  106.57    3.46
  -1  -2   2  604.18   12.84
   1   2  -2  635.14   12.48
  -1  -2   2  622.68   12.89
  -1  -2   2  624.12   12.98
  -1  -2   2  628.15   12.45
  -1  -2   2  609.73   12.95
  -1  -2   1 1549.33   30.17
  -1  -2   1 1541.14   29.74
   1   2  -1 1615.77   29.82
  -1  -2   1 1572.58   30.30
  -1  -2   1 1613.62   30.23
  -1  -2   1 1568.47   30.28
  -1  -2   0   49.19    2.20
  -1  -2   0   47.18    2.12
   1   2   0   49.25    2.00
  -1  -2   0   49.88    2.01
  -1  -2   0   51.04    2.19
  -1  -2   0   47.74    2.12
  -1  -2  -1   54.47    2.25
  -1  -2  -1   54.61    2.27
   1   2   1   52.12    2.19
  -1  -2  -1   54.47    2.33
  -1  -2  -1   55.74    2.34
  -1  -2  -1   55.23    2.26
  -1  -2  -2    0.53    1.04
  -1  -2  -2    0.76    1.02
  -1  -2  -2    0.73    0.67
  -1  -2  -2    1.27    1.08
  -1  -2  -2    2.03    0.86
  -1  -2  -2    1.47    0.69
  -1  -2  -2    0.80    0.73
  -1  -2  -2    0.88    0.72
   1   2   2    2.63    1.52
  -1  -2  -3    9.84    1.62
  -1  -2  -3   10.04    1.20
   1   2   3   11.02    2.02
  -1  -2  -3   10.06    1.55
  -1  -2  -3    9.84    1.06
  -1  -2  -3    9.09    1.52
  -1  -2  -3    8.99    1.02
  -1  -2  -3   10.21    1.28
  -1  -2  -3   11.70    1.68
  -1  -2  -3    8.29    0.96
  -1  -2  -3    8.39    0.92
  -1  -2  -3    8.00    1.38
   1   2   4 1063.80   21.96
  -1  -2  -4  968.36   20.99
  -1  -2  -4 1012.01   20.71
  -1  -2  -4  960.76   18.97
  -1  -2  -4  992.79   19.02
  -1  -2  -4  969.28   20.12
  -1  -2  -4 1001.48   20.35
  -1  -2  -4  887.58   18.71
  -1  -2  -4 1076.85   20.91
  -1  -2  -4  925.82   18.78
  -1  -2  -5  772.76   18.30
  -1  -2  -5  812.99   18.33
  -1  -2  -5  793.36   18.20
  -1  -2  -5  751.92   17.36
  -1  -2  -5  845.84   18.19
  -1  -2  -5  770.71   17.76
  -1  -2  -5  826.78   17.97
  -1  -2  -6  265.01    9.07
  -1  -2  -6  278.46    8.62
  -1  -2  -6  287.80    8.80
  -1  -2  -6  302.49    9.15
  -1  -2  -6  301.19    9.09
   1   2   6  286.90    9.73
  -1  -2  -6  263.64    8.22
  -1  -2  -6  282.05    8.53
   1   2   7    2.18    2.83
  -1  -2  -7    3.60    1.63
  -1  -2  -7    4.17    2.26
  -1  -2  -7    2.81    2.16
  -1  -2  -7    3.77    1.89
  -1  -2  -7    2.50    1.79
  -1  -2  -7    2.88    1.82
  -1  -2  -7    1.66    2.23
  -1  -2  -8   56.00    3.57
  -1  -2  -8   62.03    3.99
  -1  -2  -8   63.24    4.01
  -1  -2  -8   59.90    3.88
  -1  -2  -8   63.89    4.54
   1   2   8   65.22    5.12
  -1  -2  -9  267.19    8.41
   1   2   9  340.73   11.02
  -1  -2  -9  306.17    9.13
  -1  -2  -9  302.01    9.11
  -1  -2  -9  325.03    9.60
  -1  -2  -9  356.06   10.58
  -1  -2 -10    6.13    1.31
  -1  -2 -10    7.34    1.49
  -1  -2 -10    9.86    1.86
   1   2  10   10.20    2.70
  -1  -2 -10    7.70    1.48
   1   2  11    0.52    1.73
  -1  -2 -11    0.64    1.03
  -1  -2 -11    1.42    1.30
   1   3 -13   38.07    2.31
   1   3 -13   38.14    2.36
   1   3 -13   40.27    2.77
   1   3 -12  144.14    5.67
   1   3 -12  130.79    5.05
   1   3 -12  140.27    5.13
   1   3 -12  135.71    5.41
   1   3 -12  141.01    5.03
   1   3 -11  231.54    7.61
   1   3 -11  225.96    7.11
   1   3 -11  214.77    7.11
   1   3 -11  224.82    7.87
   1   3 -11  221.62    7.12
   1   3 -11  237.92    7.93
   1   3 -10   52.94    2.90
   1   3 -10   58.64    3.96
   1   3 -10   48.44    3.11
   1   3 -10   48.99    2.71
   1   3 -10   53.15    3.82
   1   3 -10   58.21    3.59
   1   3 -10   45.93    2.62
   1   3 -10   54.12    3.32
   1   3 -10   52.82    3.90
   1   3  -9  105.73    5.21
   1   3  -9  104.38    5.06
   1   3  -9  104.43    4.17
   1   3  -9   97.80    3.87
   1   3  -9  108.01    4.89
   1   3  -9  105.50    5.27
   1   3  -9  102.38    4.46
   1   3  -8   19.65    2.48
   1   3  -8   20.65    1.96
   1   3  -8   17.76    1.66
   1   3  -8   21.64    2.13
   1   3  -8   18.71    2.67
   1   3  -8   18.73    2.44
   1   3  -8   20.73    2.74
   1   3  -7    3.11    1.65
   1   3  -7    3.33    1.13
   1   3  -7    2.35    1.62
   1   3  -7    1.84    1.18
   1   3  -7    2.27    1.26
   1   3  -6  465.35   11.33
   1   3  -6  400.47    9.81
   1   3  -6  420.16   10.03
  -1  -3   6  440.45    9.92
  -1  -3   6  399.20    9.05
  -1  -3   6  440.92    9.92
  -1  -3   6  381.56    9.07
   1   3  -6  378.84    9.85
  -1  -3   6  421.12    9.83
   1   3  -5  965.51   20.65
  -1  -3   5 1077.43   20.93
  -1  -3   5  982.81   19.76
   1   3  -5  987.02   21.64
  -1  -3   5 1051.36   20.88
   1   3  -5  949.84   20.57
   1   3  -5  976.62   21.38
   1   3  -5  945.00   20.84
  -1  -3   5 1094.72   20.96
   1   3  -5 1070.15   22.04
  -1  -3   5 1092.36   20.91
   1   3  -5  960.46   21.66
  -1  -3   4  743.82   15.37
  -1  -3   4  742.67   15.35
   1   3  -4  647.65   15.79
  -1  -3   4  716.41   14.30
   1   3  -4  768.75   14.47
   1   3  -4  666.01   15.10
   1   3  -4  728.07   16.09
   1   3  -4  696.35   15.86
   1   3  -4  651.19   15.58
   1   3  -4  650.00   15.38
  -1  -3   4  742.82   15.36
  -1  -3   4  744.71   15.35
   1   3  -3   29.58    2.04
   1   3  -3   22.30    2.11
   1   3  -3   20.95    2.01
   1   3  -3   24.17    2.09
  -1  -3   3   23.42    1.34
  -1  -3   3   25.66    1.79
  -1  -3   3   23.14    1.74
  -1  -3   3   26.81    1.86
   1   3  -3   19.76    2.08
   1   3  -3   23.70    1.35
  -1  -3   3   26.28    1.80
  -1  -3   2 3022.06   55.96
  -1  -3   2 3126.79   56.27
   1   3  -2 2867.49   56.07
  -1  -3   2 3055.69   56.02
   1   3  -2 2859.15   56.01
  -1  -3   2 2873.11   55.01
   1   3  -2 3106.28   55.09
   1   3  -2 2880.73   56.32
  -1  -3   2 3295.53   56.40
   1   3  -2 2597.60   56.06
   1   3  -2 2883.65   56.08
  -1  -3   1  674.01   14.84
   1   3  -1  733.82   14.40
  -1  -3   1  689.26   14.87
  -1  -3   1  677.81   14.27
   1   3  -1  709.32   15.09
   1   3  -1  702.92   15.40
  -1  -3   1  722.49   15.38
  -1  -3   0 4992.42   91.48
  -1  -3   0 5179.21   91.61
   1   3   0 4955.19   90.98
  -1  -3   0 4701.47   90.95
  -1  -3   0 5028.48   91.47
  -1  -3   0 4665.32   91.72
  -1  -3   0 5280.09   91.71
  -1  -3   0 4794.24   92.04
  -1  -3   0 4700.63   91.68
   1   3   0 4889.66   91.79
   1   3   0 5021.53   92.07
  -1  -3  -1  567.61   12.44
  -1  -3  -1  556.42   13.09
   1   3   1  518.90   12.09
   1   3   1  571.67   13.81
  -1  -3  -1  516.27   12.09
  -1  -3  -1  559.17   13.06
  -1  -3  -1  565.68   12.48
  -1  -3  -1  594.54   12.62
   1   3   1  573.00   13.00
  -1  -3  -1  567.14   13.27
  -1  -3  -1  582.10   12.59
   1   3   1  593.22   13.27
  -1  -3  -2  137.19    4.42
  -1  -3  -2  142.62    5.19
  -1  -3  -2  123.02    4.22
  -1  -3  -2  136.96    5.16
  -1  -3  -2  124.40    4.21
   1   3   2  138.32    5.66
  -1  -3  -2  141.05    4.46
   1   3   2  137.29    4.80
   1   3   2  128.88    5.24
  -1  -3  -3  217.01    6.13
  -1  -3  -3  261.16    7.90
  -1  -3  -3  235.13    6.68
   1   3   3  270.90    8.44
  -1  -3  -3  230.75    6.60
  -1  -3  -3  256.20    7.35
  -1  -3  -3  214.00    6.02
  -1  -3  -3  276.20    8.02
  -1  -3  -3  246.01    6.40
  -1  -3  -4  127.25    4.86
  -1  -3  -4  136.65    5.38
  -1  -3  -4  121.65    4.70
   1   3   4  140.68    6.19
  -1  -3  -4  124.97    5.58
  -1  -3  -5  102.56    4.58
  -1  -3  -5  111.54    4.85
   1   3   5  122.09    6.20
  -1  -3  -5  121.89    5.38
  -1  -3  -5  122.82    5.43
   1   3   6  255.31    9.47
  -1  -3  -6  249.09    8.72
  -1  -3  -6  253.56    8.60
  -1  -3  -6  254.45    8.78
  -1  -3  -6  249.60    8.37
   1   3   7   -0.58    2.75
  -1  -3  -7    0.50    1.84
  -1  -3  -7    0.39    1.44
  -1  -3  -7    0.29    1.84
  -1  -3  -7    0.46    1.95
  -1  -3  -8   42.52    3.19
  -1  -3  -8   40.10    2.98
  -1  -3  -8   44.03    3.42
  -1  -3  -8   45.22    3.48
   1   3   8   49.83    4.47
   1   3   9    4.13    2.58
  -1  -3  -9    4.30    1.54
  -1  -3  -9    4.04    1.60
  -1  -3  -9    5.38    1.48
  -1  -3  -9    4.51    1.62
   1   3  10   38.19    2.88
  -1  -3 -10   39.27    2.28
   1   4 -13   -0.53    1.31
   1   4 -13   -0.28    1.13
   1   4 -13   -0.24    1.51
   1   4 -12    0.61    1.68
   1   4 -12   -0.85    1.76
   1   4 -12    0.86    1.17
   1   4 -12    1.79    1.39
   1   4 -12   -0.25    1.89
   1   4 -11   10.49    1.79
   1   4 -11   10.33    2.37
   1   4 -11    7.95    1.41
   1   4 -11   11.19    2.50
   1   4 -11   12.64    2.21
   1   4 -11   13.00    2.74
   1   4 -10    6.30    2.24
   1   4 -10    4.16    2.28
   1   4 -10    4.09    1.59
   1   4 -10    3.06    1.16
   1   4 -10    6.23    2.13
   1   4 -10    5.88    2.49
   1   4  -9  118.04    5.00
   1   4  -9  127.87    5.95
   1   4  -9  122.48    5.98
   1   4  -9  115.16    4.38
   1   4  -9  128.49    5.72
   1   4  -8  152.28    5.57
   1   4  -8  163.60    6.67
   1   4  -8  148.45    6.13
   1   4  -8  135.59    4.91
   1   4  -8  134.94    4.98
   1   4  -7  782.42   18.04
   1   4  -7  833.82   19.42
   1   4  -7  880.18   19.88
   1   4  -7  774.78   17.42
   1   4  -7  884.00   19.81
   1   4  -7  763.45   17.97
   1   4  -6   89.31    3.93
   1   4  -6   89.46    3.79
   1   4  -6   91.17    4.72
   1   4  -6  103.28    5.05
   1   4  -6   92.17    4.86
   1   4  -6   81.60    4.03
   1   4  -6   86.17    4.54
   1   4  -5  588.67   14.14
   1   4  -5  630.24   15.15
   1   4  -5  618.05   15.09
   1   4  -5  608.38   13.99
   1   4  -5  602.13   15.14
   1   4  -5  616.21   14.76
   1   4  -4  301.55    8.37
  -1  -4   4  291.55    7.86
   1   4  -4  291.31    8.34
   1   4  -4  277.45    8.44
   1   4  -4  284.15    8.25
   1   4  -4  286.70    7.74
  -1  -4   3  156.03    5.10
   1   4  -3  141.35    5.35
   1   4  -3  141.27    5.24
   1   4  -3  151.27    5.51
  -1  -4   3  153.89    5.30
   1   4  -3  138.04    5.47
   1   4  -3  142.98    4.94
   1   4  -2 1796.39   33.22
  -1  -4   2 1411.90   31.55
  -1  -4   2 1720.63   32.65
   1   4  -2 1608.03   33.82
   1   4  -2 1536.14   31.57
  -1  -4   2 1686.20   32.57
   1   4  -2 1609.26   33.23
   1   4  -2 1923.18   34.20
  -1  -4   2 1854.54   33.62
   1   4  -2 1790.89   33.25
   1   4  -1   15.97    2.38
   1   4  -1   18.05    2.09
   1   4  -1   12.84    1.24
  -1  -4   1   16.67    1.82
  -1  -4   1   14.30    1.62
  -1  -4   1   16.46    1.80
  -1  -4   1   12.27    1.22
   1   4  -1   14.45    2.20
  -1  -4   1   16.90    2.18
   1   4  -1   12.13    1.81
   1   4  -1   15.13    1.91
  -1  -4   0   10.75    1.77
   1   4   0    8.38    1.97
  -1  -4   0    7.26    1.35
   1   4   0    8.76    1.67
  -1  -4   0    8.45    2.06
   1   4   0   12.24    1.99
   1   4   0   11.63    2.26
  -1  -4   0   10.00    1.77
   1   4   1 1089.74   23.58
  -1  -4  -1 1027.38   22.65
   1   4   1  978.45   22.76
  -1  -4  -1 1014.50   22.59
  -1  -4  -1 1069.00   22.77
   1   4   1 1011.26   22.80
  -1  -4  -2 1101.88   24.18
   1   4   2 1137.06   25.01
  -1  -4  -2 1101.98   24.15
   1   4   2 1081.82   23.67
  -1  -4  -2 1135.66   24.13
   1   4   2 1084.72   24.37
  -1  -4  -3  209.32    7.69
  -1  -4  -3  211.06    7.67
   1   4   3  214.76    8.32
  -1  -4  -3  203.87    7.05
   1   4   3  198.61    7.80
  -1  -4  -4 1998.58   41.11
   1   4   4 1990.52   42.10
  -1  -4  -4 2035.90   41.26
  -1  -4  -4 1948.20   40.09
   1   4   4 1886.45   41.58
  -1  -4  -5  361.20   10.60
   1   4   5  342.97   11.69
   1   4   5  349.07   11.58
   1   4   6  666.87   17.87
   1   4   6  683.25   17.72
  -1  -4  -6  621.33   16.41
  -1  -4  -7  210.03    7.74
  -1  -4  -7  212.90    7.71
   1   4   7  204.45    8.17
   1   4   7  228.58    8.37
  -1  -4  -7  195.94    7.15
   1   4   8   48.49    3.62
  -1  -4  -8   41.16    3.10
  -1  -4  -8   44.67    3.16
   1   4   8   51.33    3.76
  -1  -4  -8   44.45    2.95
  -1  -4  -9   28.99    1.86
  -1  -4  -9   27.46    1.97
   1   4   9   33.50    2.52
  -1  -4  -9   27.02    1.96
   1   5 -13  296.36    7.78
   1   5 -13  279.72    7.72
   1   5 -13  295.08    8.12
   1   5 -12  132.15    4.94
   1   5 -12  135.96    5.56
   1   5 -12  134.02    5.41
   1   5 -12  143.76    5.89
   1   5 -11  114.39    5.36
   1   5 -11  103.04    5.30
   1   5 -11  103.35    4.85
   1   5 -11  110.59    5.61
   1   5 -10    2.55    1.47
   1   5 -10    4.19    2.33
   1   5 -10    1.75    2.21
   1   5  -9   20.53    2.38
   1   5  -9   20.63    2.11
   1   5  -9   26.81    3.37
   1   5  -9   27.55    3.41
   1   5  -9   25.72    3.62
   1   5  -8   37.65    2.97
   1   5  -8   36.79    2.89
   1   5  -8   44.93    4.13
   1   5  -8   42.34    4.13
   1   5  -8   44.88    4.16
   1   5  -7    1.95    1.50
   1   5  -7    4.30    2.48
   1   5  -7    2.38    1.76
   1   5  -7    3.30    2.60
   1   5  -7    3.68    2.52
  -1  -5   7    1.61    1.57
   1   5  -7    3.73    2.50
   1   5  -6  843.02   20.13
   1   5  -6  832.56   19.18
   1   5  -6  843.70   19.65
  -1  -5   6  806.75   17.88
   1   5  -6  778.07   19.40
   1   5  -6  772.53   18.63
  -1  -5   5    0.04    1.62
   1   5  -5    0.69    1.99
   1   5  -5    1.33    1.90
   1   5  -5    0.92    1.50
   1   5  -5    1.45    2.09
   1   5  -5    0.93    2.01
   1   5  -4  107.84    5.07
   1   5  -4  113.91    5.46
   1   5  -4  103.07    5.08
  -1  -5   4  110.79    4.85
   1   5  -4   99.07    4.58
   1   5  -3   21.77    2.61
   1   5  -3   19.52    2.74
   1   5  -3   23.45    2.67
   1   5  -3   27.42    3.03
  -1  -5   3   28.48    2.81
   1   5  -3   23.57    2.41
   1   5  -2   53.22    4.03
  -1  -5   2   47.80    2.98
   1   5  -2   51.87    3.86
   1   5  -2   43.74    3.14
   1   5  -2   38.88    3.42
  -1  -5   2   44.96    2.92
   1   5  -2   44.17    3.09
  -1  -5   2   45.97    3.48
   1   5  -1    1.47    1.60
  -1  -5   1    0.09    1.39
   1   5  -1    1.29    2.25
   1   5  -1    1.49    1.90
  -1  -5   1   -1.32    1.97
  -1  -5   1    0.04    1.41
   1   5   0  195.96    7.80
  -1  -5   0  184.83    6.79
  -1  -5   0  179.45    6.67
   1   5   0  194.13    7.34
  -1  -5   0  192.89    7.09
   1   5   0  178.86    6.85
   1   5   1 1463.96   30.85
  -1  -5  -1 1360.89   29.40
   1   5   1 1319.11   29.59
  -1  -5  -1 1354.67   29.43
  -1  -5  -1 1224.78   27.69
  -1  -5  -1 1458.69   29.76
   1   5   1 1414.49   29.45
   1   5   2 1800.59   37.61
  -1  -5  -2 1842.42   38.41
   1   5   2 1956.54   39.62
  -1  -5  -2 1851.85   38.38
  -1  -5  -2 1901.11   38.47
   1   5   2 1883.68   38.65
  -1  -5  -3 3547.61   68.96
  -1  -5  -3 3237.97   67.10
   1   5   3 3637.41   69.95
  -1  -5  -3 3530.98   69.03
   1   5   3 3385.45   68.94
  -1  -5  -3 3744.60   68.94
   1   5   4  463.39   13.75
  -1  -5  -4  465.17   13.28
  -1  -5  -4  460.25   13.18
   1   5   4  428.65   13.24
   1   5   5   -0.90    2.20
  -1  -5  -5    1.13    2.07
  -1  -5  -5    1.06    2.06
   1   5   5    1.24    2.48
   1   5   6  166.00    6.85
   1   5   6  162.51    6.66
  -1  -5  -6  165.69    6.17
  -1  -5  -7   46.43    2.86
   1   5   7   48.13    3.30
  -1  -5  -7   50.91    3.22
  -1  -5  -7   49.87    3.18
   1   5   7   49.07    3.31
   1   6 -13  133.72    4.43
   1   6 -13  142.37    4.77
   1   6 -12   69.10    3.84
   1   6 -12   72.34    3.65
   1   6 -11  414.24   11.47
   1   6 -11  414.61   11.16
   1   6 -10  117.44    5.66
   1   6 -10  117.62    5.81
   1   6 -10  105.90    5.32
   1   6 -10  113.98    5.73
   1   6  -9  458.88   12.92
   1   6  -9  514.54   13.15
   1   6  -9  628.63   15.75
   1   6  -9  594.73   15.51
   1   6  -9  625.53   15.52
   1   6  -8  292.71    9.95
   1   6  -8  314.87   10.53
   1   6  -8  304.53    9.87
   1   6  -8  296.74    9.93
   1   6  -7 1570.20   32.80
   1   6  -7 1600.53   32.88
   1   6  -7 1627.03   32.78
   1   6  -6  406.83   12.27
   1   6  -6  440.88   12.65
   1   6  -6  451.65   12.48
  -1  -6   6  395.41   10.76
   1   6  -6  415.75   12.27
   1   6  -5   69.72    4.87
   1   6  -5   63.87    4.48
   1   6  -5   68.83    4.61
  -1  -6   5   68.96    3.95
   1   6  -5   64.13    3.95
   1   6  -4  153.90    7.31
   1   6  -4  164.90    6.58
   1   6  -4  173.07    6.86
  -1  -6   4  173.01    6.52
   1   6  -4  169.40    7.64
   1   6  -4  160.64    6.44
   1   6  -3   71.31    5.10
   1   6  -3   55.61    4.34
   1   6  -3   59.58    3.73
  -1  -6   3   62.28    4.17
   1   6  -3   61.47    4.70
   1   6  -3   58.87    3.87
  -1  -6   2  126.00    5.36
  -1  -6   2  113.38    5.14
  -1  -6   2  125.34    5.85
   1   6  -2  131.55    6.58
   1   6  -2  123.81    5.67
  -1  -6   1  462.35   12.90
  -1  -6   1  474.72   12.46
  -1  -6   1  465.67   12.88
  -1  -6   1  476.42   13.25
   1   6  -1  464.41   13.08
   1   6  -1  493.80   14.17
   1   6   0    0.11    1.89
  -1  -6   0    0.28    2.23
  -1  -6   0    1.61    1.89
   1   6   0    2.61    2.86
   1   6   0    6.93    2.34
  -1  -6   0    0.51    1.80
   1   6   1   17.30    3.54
   1   6   1   14.92    2.69
   1   6   1   11.32    2.52
  -1  -6  -1   14.59    2.89
  -1  -6  -1   16.01    2.72
  -1  -6  -1   15.24    2.68
   1   6   2  188.59    8.14
  -1  -6  -2  176.90    7.30
  -1  -6  -2  181.90    7.30
  -1  -6  -2  186.73    7.38
   1   6   2  166.41    7.15
   1   6   3    1.22    1.94
  -1  -6  -3    1.59    2.02
  -1  -6  -3    1.60    2.17
  -1  -6  -3    0.06    1.95
   1   6   3    2.58    2.49
  -1  -6  -4  338.14   10.22
   1   6   4  332.84   10.43
  -1  -6  -4  329.68   10.13
   1   6   4  320.88    9.83
  -1  -6  -4  315.08    9.59
   1   6   5   89.90    4.50
  -1  -6  -5   86.20    4.27
  -1  -6  -5   88.32    4.31
   1   6   5   83.27    4.11
   1   6   6    0.45    1.10
   1   6   6    0.82    1.32
   1   7 -12   81.91    3.34
   1   7 -12   87.10    3.79
   1   7 -11   44.43    2.96
   1   7 -11   44.21    3.08
   1   7 -11   44.37    3.15
   1   7 -10  325.64    9.84
   1   7 -10  340.42    9.88
   1   7 -10  336.79    9.81
   1   7  -9 2675.04   46.07
   1   7  -9 2725.87   46.75
   1   7  -9 2679.85   45.92
   1   7  -8  739.74   17.23
   1   7  -8  687.74   17.00
   1   7  -8  696.24   16.12
   1   7  -8  770.65   17.02
   1   7  -7   71.56    4.67
   1   7  -7   74.35    4.55
   1   7  -7   82.27    5.05
   1   7  -7   80.56    4.64
   1   7  -6  124.70    5.73
   1   7  -6  124.84    5.59
   1   7  -6  127.70    6.22
   1   7  -5    3.02    2.83
  -1  -7   5    1.68    1.60
   1   7  -5    1.68    1.81
   1   7  -5    1.49    1.59
   1   7  -5    2.90    1.87
  -1  -7   4    1.86    1.71
   1   7  -4    1.15    2.69
   1   7  -4    1.62    2.45
   1   7  -4   -0.41    1.72
   1   7  -3   97.25    6.06
  -1  -7   3   88.47    4.51
   1   7  -3   84.36    4.66
   1   7  -2  191.37    7.58
   1   7  -2  179.77    8.02
  -1  -7   2  165.04    6.06
  -1  -7   2  161.20    6.34
   1   7  -2  142.77    6.22
  -1  -7   1  150.95    6.10
  -1  -7   1  140.31    5.76
  -1  -7   1  137.28    5.74
   1   7  -1  173.33    7.63
   1   7  -1  174.92    6.94
   1   7  -1  143.18    6.01
   1   7   0   31.65    3.12
  -1  -7   0   30.27    2.95
  -1  -7   0   28.69    2.95
  -1  -7   0   36.25    3.20
   1   7   0   31.95    2.97
  -1  -7  -1   21.93    2.60
  -1  -7  -1   19.57    2.64
   1   7   1   28.38    3.35
  -1  -7  -1   24.17    2.87
   1   7   1   20.74    2.52
   1   7   2   19.27    2.72
  -1  -7  -2   17.75    2.27
  -1  -7  -2   17.17    2.24
   1   7   2   15.00    2.15
  -1  -7  -2   19.94    2.39
   1   7   3  134.80    5.29
  -1  -7  -3  121.38    4.83
  -1  -7  -3  128.31    4.95
  -1  -7  -3  130.65    4.76
  -1  -7  -4  112.34    3.85
  -1  -7  -4   94.87    3.84
   1   7   4  108.10    4.05
  -1  -7  -4   98.92    3.89
   1   8 -10   58.49    3.05
   1   8 -10   62.42    3.12
   1   8 -10   58.36    3.00
   1   8  -9   25.79    2.38
  -1  -8   9   20.76    1.86
   1   8  -9   26.51    2.28
   1   8  -8  339.92    9.10
   1   8  -8  319.71    8.76
   1   8  -7   74.89    3.64
   1   8  -6   29.37    2.23
  -1  -8   6   44.86    3.46
   1   8  -5   16.40    1.72
   1   8  -5   22.57    3.24
   1   8  -5   21.06    2.70
  -1  -8   5   18.43    2.59
   1   8  -4 1214.16   23.19
   1   8  -4 1219.63   23.93
   1   8  -3   27.13    2.32
   1   8  -3   42.43    3.65
   1   8  -3   41.97    3.29
  -1  -8   3   28.53    2.25
  -1  -8   3   26.24    2.23
   1   8  -2    4.47    1.42
   1   8  -2    7.38    2.23
  -1  -8   2    6.46    1.60
  -1  -8   1  181.71    5.46
   1   8  -1  175.61    6.28
  -1  -8   1  133.03    4.76
   1   8  -1  124.11    4.69
   1   8   0    9.81    1.43
  -1  -8   0   12.01    1.58
   1   8   1   78.73    3.48
  -1  -8  -1   62.00    2.70
  -2   9   1   22.46    1.95
  -2   9   0   47.63    2.81
  -2   9   0   47.69    2.83
   2  -9   0   40.28    2.63
   2  -9   0   38.07    2.30
  -2   9   0   42.29    2.79
   2  -9   1   34.56    2.48
  -2   9  -1   32.14    2.48
   2  -9   1   30.88    2.72
  -2   9  -1   31.97    2.53
  -2   9  -1   28.04    2.61
  -2   9  -2    0.84    1.56
   2  -9   2    0.70    1.51
   2  -9   2   -0.04    1.79
  -2   9  -2    0.21    1.31
  -2   9  -2   -0.36    1.33
  -2   9  -3  109.08    4.99
  -2   9  -3  107.06    4.19
  -2   9  -3  105.71    4.19
  -2   9  -4   41.34    3.23
   2  -9   4   48.34    3.32
  -2   9  -4   31.06    2.19
   2  -9   4   43.21    3.59
  -2   9  -4   32.30    2.22
   2  -9   4   30.34    2.45
  -2   9  -5   70.94    3.99
   2  -9   5   74.75    4.01
   2  -9   5   69.67    4.25
  -2   9  -5   63.41    3.43
   2  -9   5   59.73    3.65
  -2   9  -6   71.74    3.93
   2  -9   6   79.16    3.96
   2  -9   6   72.23    4.14
  -2   9  -6   66.87    3.44
   2  -9   6   70.91    4.18
  -2   9  -7   14.29    2.10
   2  -9   7   14.13    2.39
  -2   9  -7   12.06    1.82
   2  -9   7   13.18    1.90
   2  -9   7   15.36    2.34
  -2   9  -8   33.50    2.52
   2  -9   8   30.24    2.82
  -2   9  -8   26.18    2.13
   2  -9   8   29.19    2.52
   2  -9   8   24.66    2.04
   2  -9   9    4.53    1.30
  -2   9  -9    9.73    1.58
  -2   8   4   80.23    3.40
  -2   8   4   80.85    3.33
  -2   8   3   15.42    2.08
  -2   8   3   14.18    2.02
  -2   8   3   13.49    1.88
  -2   8   2    6.29    1.89
  -2   8   2   12.28    2.20
   2  -8  -2    7.61    1.74
  -2   8   2    9.57    2.09
  -2   8   1   11.07    2.22
   2  -8  -1    9.09    1.80
   2  -8  -1   11.23    2.26
   2  -8   0  107.19    5.48
   2  -8   0  102.01    4.88
  -2   8   0  103.19    5.19
   2  -8   1   97.37    4.94
  -2   8  -1   91.79    4.89
   2  -8   1   91.33    5.43
  -2   8  -1   92.76    5.00
  -2   8  -1   94.41    5.07
  -2   8  -2  269.54    8.57
  -2   8  -2  267.71    8.66
  -2   8  -2  269.64    9.07
  -2   8  -3   48.52    3.46
  -2   8  -3   46.64    3.35
   2  -8   3   43.49    4.34
   2  -8   3   40.28    3.51
   2  -8   3   47.36    4.08
  -2   8  -3   46.63    3.87
   2  -8   4    3.39    2.43
  -2   8  -4    3.13    2.32
   2  -8   4    5.21    2.74
  -2   8  -4    4.41    1.70
   2  -8   4    5.63    2.47
  -2   8  -4    2.49    1.57
  -2   8  -5   39.81    3.63
   2  -8   5   33.66    3.41
   2  -8   5   31.88    3.77
  -2   8  -5   29.07    2.42
  -2   8  -5   31.70    2.48
   2  -8   5   36.62    3.88
  -2   8  -6  126.64    5.81
  -2   8  -6  112.36    4.78
  -2   8  -6   90.68    3.77
  -2   8  -6  119.28    5.36
  -2   8  -6   94.29    3.83
   2  -8   6  130.04    5.63
   2  -8   6  119.98    5.90
   2  -8   6  118.29    6.53
  -2   8  -7    1.73    1.99
   2  -8   7   -0.05    2.10
  -2   8  -7    3.79    2.09
  -2   8  -7    1.88    1.56
   2  -8   7    1.18    1.72
  -2   8  -8    0.61    1.78
  -2   8  -8    1.65    1.90
   2  -8   8    0.93    1.91
   2  -8   8    0.67    1.40
  -2   8  -8    1.55    1.54
  -2   8  -9    2.27    1.50
   2  -8   9    2.85    2.42
  -2   8  -9    3.61    1.79
   2  -8   9    2.53    1.62
  -2   8  -9    2.45    1.74
  -2   8 -10  337.46    9.25
  -2   8 -10  330.66    8.63
   2  -8  10  327.70    9.76
   2  -8  10  319.71    9.84
  -2   8 -11    4.46    1.24
   2  -8  11    4.65    1.76
   2  -8  11    5.14    2.01
  -2   8 -11    4.52    1.32
   2  -7  -6   53.71    2.59
  -2   7   6   54.63    2.64
  -2   7   6   54.02    2.68
   2  -7  -5  163.33    5.45
  -2   7   5  183.05    6.11
  -2   7   5  185.46    6.23
  -2   7   5  155.32    5.61
   2  -7  -4   80.97    3.91
  -2   7   4  106.35    5.08
  -2   7   4   99.16    4.86
  -2   7   4   82.29    4.35
   2  -7  -3    8.66    1.89
  -2   7   3    9.75    2.23
   2  -7  -3   10.03    2.15
   2  -7  -2   13.07    2.06
   2  -7  -2   11.35    1.91
   2  -7  -2   15.36    2.68
  -2   7   2   12.53    2.46
   2  -7  -1   84.58    4.70
   2  -7  -1   93.48    5.29
  -2   7   1   84.81    4.92
   2  -7   0   28.82    3.30
   2  -7   0   31.00    3.76
  -2   7   0   29.92    3.30
   2  -7   1  183.36    7.58
  -2   7  -1  190.40    7.32
  -2   7  -1  192.69    7.41
  -2   7  -1  185.49    7.30
  -2   7  -2    6.28    2.31
   2  -7   2    6.86    2.33
  -2   7  -2    6.59    2.05
  -2   7  -2    7.47    2.14
   2  -7   3   14.09    2.91
  -2   7  -3   12.03    2.62
  -2   7  -3   15.51    2.40
   2  -7   3   13.06    3.34
  -2   7  -3   11.61    2.21
   2  -7   3   13.84    2.96
   2  -7   4   33.32    3.51
  -2   7  -4   35.69    3.48
   2  -7   4   31.84    3.87
  -2   7  -4   31.90    2.85
   2  -7   4   34.73    4.02
  -2   7  -4   35.22    2.99
  -2   7  -5  462.61   12.81
  -2   7  -5  411.07   11.10
  -2   7  -5  390.38   11.24
   2  -7   5  454.10   12.46
   2  -7   5  424.88   12.72
  -2   7  -5  417.70   11.09
  -2   7  -5  379.05   11.45
  -2   7  -6    2.28    1.76
  -2   7  -6    0.66    1.27
   2  -7   6    1.66    2.42
   2  -7   6    1.95    1.95
  -2   7  -6    0.77    1.25
  -2   7  -6    3.11    2.23
  -2   7  -6    1.59    2.23
  -2   7  -7  368.32   11.01
   2  -7   7  321.72    9.98
  -2   7  -7  352.24   10.60
   2  -7   7  326.19   10.34
  -2   7  -7  341.29   10.14
  -2   7  -7  325.16   10.63
  -2   7  -8   13.83    2.62
  -2   7  -8   12.74    2.39
  -2   7  -8   10.18    2.64
   2  -7   8    7.30    2.22
   2  -7   8    9.10    1.90
  -2   7  -8   13.12    2.97
  -2   7  -9   25.80    3.10
  -2   7  -9   19.81    2.66
  -2   7  -9   21.54    2.84
   2  -7   9   13.56    2.18
  -2   7  -9   21.54    3.19
  -2   7 -10  594.25   14.63
   2  -7  10  561.78   15.10
  -2   7 -10  558.08   14.02
  -2   7 -10  542.37   14.52
   2  -7  11    0.74    2.05
  -2   7 -11    0.50    1.52
  -2   7 -11    0.49    1.46
  -2   7 -12   96.95    3.76
  -2   7 -12   91.15    3.65
   2  -7  12   95.91    4.56
   2  -6  -8   24.10    1.89
  -2   6   7  146.73    4.97
  -2   6   7  154.31    4.98
  -2   6   7  149.18    5.06
   2  -6  -6   18.90    2.46
  -2   6   6   23.77    2.57
  -2   6   6   21.59    2.45
  -2   6   6   21.08    2.39
  -2   6   5    2.90    1.85
   2  -6  -5    3.92    2.01
   2  -6  -5    2.89    1.50
   2  -6  -4  220.36    7.59
   2  -6  -4  217.33    7.42
  -2   6   4  201.45    7.64
   2  -6  -3   71.08    4.10
   2  -6  -3   74.58    4.49
   2  -6  -3   67.19    3.54
  -2   6   3   67.13    4.33
  -2   6   2   16.04    2.61
   2  -6  -2   15.34    2.20
   2  -6  -2   13.51    2.21
   2  -6  -2   17.23    2.96
   2  -6  -1 1876.87   39.24
   2  -6  -1 1959.25   40.67
  -2   6   1 1971.92   40.78
   2  -6   0  581.23   15.20
   2  -6   0  583.94   14.44
  -2   6   0  584.20   14.90
   2  -6   1  455.60   12.73
  -2   6  -1  478.00   12.64
   2  -6   2  239.23    8.38
   2  -6   2  228.88    8.42
   2  -6   2  240.05    8.55
  -2   6  -2  233.03    7.84
  -2   6  -2  238.85    8.01
  -2   6  -2  223.51    7.81
   2  -6   3   87.18    4.96
  -2   6  -3   90.26    4.50
   2  -6   3   96.28    5.46
  -2   6  -3   91.68    4.44
   2  -6   3   90.33    5.14
  -2   6  -3   88.25    4.72
   2  -6   4  109.14    5.41
  -2   6  -4  114.99    4.86
   2  -6   4  103.62    5.77
  -2   6  -4  101.88    4.62
  -2   6  -4  116.90    4.93
  -2   6  -4  110.36    5.11
  -2   6  -4  107.85    5.28
  -2   6  -5    0.06    1.86
  -2   6  -5    0.32    1.56
   2  -6   5   -0.42    1.73
   2  -6   5    3.96    2.33
  -2   6  -5    0.79    1.39
  -2   6  -5    0.41    1.33
  -2   6  -5    2.16    2.15
  -2   6  -6  287.26    9.27
  -2   6  -6  276.18    8.63
   2  -6   6  270.26    8.59
   2  -6   6  258.29    8.97
  -2   6  -6  256.11    7.74
  -2   6  -6  260.67    7.75
  -2   6  -6  268.84    9.34
  -2   6  -7   58.59    4.11
   2  -6   7   64.37    4.11
  -2   6  -7   46.46    2.73
  -2   6  -7   57.57    3.84
  -2   6  -7   47.45    2.75
  -2   6  -7   47.13    4.24
   2  -6   7   50.55    3.44
  -2   6  -8   12.98    2.64
  -2   6  -8   11.10    2.37
   2  -6   8    7.24    2.05
   2  -6   8    7.24    1.74
  -2   6  -8   12.40    3.15
  -2   6  -9  221.16    8.07
  -2   6  -9  223.55    8.69
  -2   6 -10   11.31    2.50
  -2   6 -10   11.43    2.40
   2  -6  10   11.75    2.87
  -2   6 -10   11.59    3.01
  -2   6 -11   19.50    2.50
  -2   6 -11   17.66    2.54
   2  -6  11   18.42    2.73
  -2   6 -12    0.70    1.58
  -2   6 -12    0.97    1.39
   2  -6  12    2.97    2.44
  -2   6 -13  297.49    7.61
  -2   6 -13  292.11    7.36
   2  -5  -9    7.74    1.60
   2  -5  -9    7.29    1.37
   2  -5  -8  142.56    5.55
   2  -5  -8  143.08    5.25
   2  -5  -8  143.19    4.93
   2  -5  -7  300.52    8.95
  -2   5   7  250.88    7.96
   2  -5  -7  303.03    8.16
  -2   5   7  249.70    7.86
  -2   5   7  239.76    8.07
  -2   5   6    1.95    1.84
   2  -5  -6    0.69    2.07
   2  -5  -6    0.47    1.40
  -2   5   5   10.52    2.31
   2  -5  -5   14.69    2.64
   2  -5  -5   11.43    2.05
   2  -5  -5   10.43    2.40
   2  -5  -5   10.40    2.20
   2  -5  -5   10.51    2.52
   2  -5  -4  504.45   13.00
   2  -5  -4  501.52   13.60
   2  -5  -4  516.55   12.06
   2  -5  -4  496.87   13.03
   2  -5  -4  513.28   13.72
  -2   5   4  467.33   12.75
   2  -5  -3  400.47   10.78
   2  -5  -3  379.52    9.87
   2  -5  -3  355.32   10.05
   2  -5  -3  398.69   11.60
   2  -5  -3  397.33   11.33
   2  -5  -3  399.39   11.66
  -2   5   3  376.51   10.79
   2  -5  -2  394.51   10.31
   2  -5  -2  363.80   10.39
   2  -5  -2  411.24   11.34
  -2   5   2  381.95   10.64
   2  -5  -1  876.58   19.45
   2  -5  -1  901.25   20.45
   2  -5  -1  975.90   21.48
   2  -5  -1  908.53   20.10
   2  -5  -1  961.46   21.50
  -2   5   1  895.10   20.28
   2  -5   0  422.25   11.23
   2  -5   0  436.93   11.50
  -2   5   0  408.68   10.94
  -2   5  -1    5.00    1.58
   2  -5   1    4.76    1.98
   2  -5   1    4.82    1.99
   2  -5   2 1014.40   22.10
   2  -5   2  990.04   22.73
  -2   5  -2 1019.35   21.68
   2  -5   2  950.37   22.09
  -2   5  -2 1046.27   21.85
  -2   5  -2  973.79   21.61
   2  -5   3 1405.42   29.39
  -2   5  -3 1427.38   28.95
  -2   5  -3 1422.61   28.84
   2  -5   3 1414.44   29.58
  -2   5  -3 1336.63   28.72
  -2   5  -3 1389.92   29.08
  -2   5  -4 1123.29   24.07
  -2   5  -4 1056.70   23.25
  -2   5  -4 1095.10   23.48
   2  -5   4 1100.88   23.95
  -2   5  -4 1113.01   23.47
   2  -5   4 1152.52   24.28
  -2   5  -4 1135.59   23.91
  -2   5  -5 2803.63   52.66
  -2   5  -5 2660.79   51.85
   2  -5   5 2526.01   51.97
  -2   5  -5 2629.16   51.50
  -2   5  -5 2657.64   51.47
   2  -5   5 2633.88   52.25
  -2   5  -5 2710.36   52.69
  -2   5  -6    3.40    1.82
  -2   5  -6    4.26    1.78
  -2   5  -6    2.34    1.30
  -2   5  -6    3.86    2.07
   2  -5   6    3.35    1.80
   2  -5   6    3.86    1.57
  -2   5  -6    3.09    1.30
  -2   5  -6    3.80    2.31
  -2   5  -7  591.23   14.48
  -2   5  -7  579.59   15.01
  -2   5  -7  559.60   13.97
   2  -5   7  506.50   13.02
  -2   5  -7  532.22   12.65
   2  -5   7  484.33   13.23
  -2   5  -7  528.36   12.68
  -2   5  -7  579.46   14.28
  -2   5  -8  475.29   12.97
  -2   5  -8  452.40   12.76
  -2   5  -8  431.63   13.45
  -2   5  -9  158.08    6.70
  -2   5  -9  155.76    7.36
  -2   5 -10   19.91    2.82
  -2   5 -10   17.87    2.91
   2  -5  10   17.41    2.91
  -2   5 -11    6.67    2.03
  -2   5 -11    5.36    2.30
   2  -5  11    5.32    3.10
  -2   5 -12   77.55    4.41
  -2   5 -12   90.32    4.21
   2  -5  12   88.32    5.02
  -2   5 -13   46.62    2.64
  -2   5 -13   44.24    2.92
  -2   5 -13   42.73    2.59
   2  -4 -10   -0.86    1.27
   2  -4 -10    1.10    1.30
   2  -4  -9    2.75    1.74
   2  -4  -9    1.75    1.82
   2  -4  -9    1.82    1.70
  -2   4   8    7.02    1.99
   2  -4  -8    9.46    2.23
   2  -4  -8    9.51    2.54
   2  -4  -7  207.63    6.93
   2  -4  -7  278.26    8.40
   2  -4  -7  261.73    8.67
  -2   4   7  217.54    7.76
  -2   4   6    7.35    2.05
   2  -4  -6    8.55    2.39
   2  -4  -6    7.01    2.18
   2  -4  -6    7.36    1.93
   2  -4  -6    4.49    1.93
   2  -4  -6    6.33    1.87
   2  -4  -5  361.48   10.30
   2  -4  -5  352.86    9.73
   2  -4  -5  327.25   10.00
   2  -4  -5  338.49    9.99
   2  -4  -5  331.52   10.05
  -2   4   5  316.85    9.71
   2  -4  -4  159.32    5.88
   2  -4  -4  151.16    5.49
   2  -4  -4  144.82    5.94
   2  -4  -4  134.30    4.80
   2  -4  -4  149.94    6.02
   2  -4  -4  143.56    5.96
  -2   4   4  134.91    5.43
   2  -4  -3  354.51    9.48
   2  -4  -3  338.02    9.05
   2  -4  -3  372.17    9.31
   2  -4  -3  350.20   10.04
   2  -4  -3  376.51   10.21
   2  -4  -3  321.37    8.70
   2  -4  -3  345.45   10.01
  -2   4   3  328.16    9.27
   2  -4  -2   83.17    3.66
  -2   4   2   83.47    3.06
  -2   4   2   73.92    3.40
   2  -4  -2   81.44    4.15
   2  -4  -2   81.89    3.53
   2  -4  -2   85.38    4.35
   2  -4  -2   83.72    3.74
  -2   4   2   77.70    2.95
   2  -4  -2   79.70    4.14
   2  -4  -2   76.31    3.67
  -2   4   2   77.90    3.62
   2  -4  -1   14.07    1.56
   2  -4  -1   14.82    1.85
   2  -4  -1   14.13    1.96
  -2   4   1   15.56    1.65
  -2   4   1   14.92    1.17
  -2   4   1   13.80    1.12
  -2   4   1   13.69    1.69
  -2   4   0    1.33    0.89
  -2   4   0    2.04    1.00
  -2   4   0    1.73    1.12
   2  -4   0    1.13    1.53
   2  -4   0    4.43    1.41
  -2   4   0    5.24    0.69
  -2   4   0    1.69    0.56
   2  -4   0    2.54    1.61
  -2   4  -1   38.83    2.55
   2  -4   1   40.58    2.62
   2  -4   1   36.50    2.98
  -2   4  -1   32.64    2.16
  -2   4  -1   40.12    1.38
   2  -4   1   42.05    2.88
  -2   4  -1   39.56    1.37
  -2   4  -1   37.28    2.55
   2  -4   1   36.70    2.69
  -2   4  -1   35.12    2.28
  -2   4  -1   34.99    2.29
  -2   4  -1   35.66    2.37
   2  -4   2 5514.72  102.96
  -2   4  -2 5630.45  101.69
   2  -4   2 5558.84  103.02
  -2   4  -2 5508.86  102.55
   2  -4   2 5460.12  102.65
  -2   4  -2 5372.17  102.56
  -2   4  -3 8957.90  162.66
  -2   4  -3 9032.04  161.51
  -2   4  -3 8438.55  162.41
  -2   4  -3 8900.91  162.59
   2  -4   3 9184.22  162.88
  -2   4  -3 8996.63  162.85
   2  -4   3 8959.32  162.86
  -2   4  -3 8891.51  162.63
  -2   4  -4 6221.46  111.82
  -2   4  -4 5854.64  111.17
   2  -4   4 6028.50  111.61
  -2   4  -4 6135.22  111.48
  -2   4  -4 5654.53  111.25
  -2   4  -4 6049.43  110.41
  -2   4  -4 6144.75  111.42
   2  -4   4 5719.93  111.73
  -2   4  -4 6172.49  112.06
  -2   4  -5  311.90    8.43
  -2   4  -5  253.47    7.44
  -2   4  -5  290.89    7.84
  -2   4  -5  289.66    8.03
  -2   4  -5  278.60    7.09
   2  -4   5  272.43    7.84
  -2   4  -5  281.92    7.74
   2  -4   5  299.20    7.93
  -2   4  -5  272.11    8.73
  -2   4  -6  139.02    5.38
  -2   4  -6  137.71    5.21
  -2   4  -6  137.96    4.48
  -2   4  -6  138.52    5.48
  -2   4  -6  133.18    4.74
  -2   4  -6  132.25    4.75
   2  -4   6  132.63    4.79
  -2   4  -6  127.50    5.81
  -2   4  -7  299.71    8.98
  -2   4  -7  289.49    8.11
  -2   4  -7  287.99    7.87
  -2   4  -7  306.99    9.16
  -2   4  -7  295.63    8.10
  -2   4  -7  289.09    9.60
  -2   4  -8   38.84    3.37
  -2   4  -8   36.44    3.27
  -2   4  -8   35.06    2.41
  -2   4  -8   34.43    3.33
  -2   4  -8   34.37    2.38
  -2   4  -8   37.47    2.55
  -2   4  -9   12.97    2.67
   2  -4   9   12.92    2.63
  -2   4  -9   11.71    1.92
  -2   4  -9   15.73    2.60
  -2   4 -10   72.24    4.35
  -2   4 -10   60.51    4.51
  -2   4 -10   69.62    3.49
  -2   4 -11    3.53    1.98
  -2   4 -11    2.73    2.36
   2  -4  11    6.75    3.09
  -2   4 -12   54.24    3.37
  -2   4 -12   53.49    3.85
   2  -4  12   50.37    3.77
  -2   4 -13    1.46    1.26
  -2   4 -13    1.69    1.68
  -2   4 -13    1.49    1.12
   2  -3 -11  124.82    4.68
   2  -3 -11  131.67    4.86
   2  -3 -11  138.37    4.84
   2  -3 -10  462.55   12.04
   2  -3 -10  463.37   12.28
   2  -3  -9   -0.40    2.05
   2  -3  -8 1140.89   23.25
   2  -3  -8 1017.73   23.43
   2  -3  -8  908.81   21.35
   2  -3  -8 1101.10   23.40
  -2   3   8  891.80   21.80
   2  -3  -7  237.45    8.18
   2  -3  -7  234.56    7.87
   2  -3  -7  224.22    8.17
   2  -3  -7  202.04    7.12
  -2   3   7  200.65    7.19
   2  -3  -6  633.42   15.16
   2  -3  -6  621.50   14.78
   2  -3  -6  598.81   15.26
   2  -3  -6  597.45   14.68
   2  -3  -5 1298.35   27.33
   2  -3  -5 1336.76   27.47
   2  -3  -5 1250.60   26.73
   2  -3  -5 1320.82   26.80
   2  -3  -5 1321.77   27.48
   2  -3  -5 1221.30   26.69
  -2   3   5 1205.32   26.34
   2  -3  -4    0.76    0.66
  -2   3   4    1.18    1.21
   2  -3  -4    0.93    1.27
   2  -3  -4    1.39    0.99
   2  -3  -4    0.52    1.40
   2  -3  -4    2.23    1.43
   2  -3  -4    1.79    1.40
   2  -3  -4    1.67    1.18
   2  -3  -4    0.58    1.55
   2  -3  -4    2.14    1.31
   2  -3  -3   12.80    1.71
  -2   3   3   10.11    1.46
   2  -3  -3   11.81    1.69
  -2   3   3   11.89    1.31
   2  -3  -3   12.69    1.75
   2  -3  -3   11.41    1.67
  -2   3   3   10.17    1.20
   2  -3  -3   11.99    1.95
   2  -3  -3   10.32    1.53
  -2   3   3   12.86    1.36
  -2   3   3   11.03    1.26
   2  -3  -3   10.58    1.71
   2  -3  -3   10.17    1.17
   2  -3  -2   19.87    1.75
   2  -3  -2   20.61    1.55
   2  -3  -2   19.97    1.88
  -2   3   2   19.95    1.61
   2  -3  -2   23.00    1.94
   2  -3  -2   20.97    2.09
  -2   3   2   23.35    1.51
  -2   3   2   24.38    1.58
  -2   3   2   19.66    1.58
   2  -3  -2   22.28    1.60
   2  -3  -1  765.05   15.98
  -2   3   1  729.92   15.97
   2  -3  -1  769.52   16.02
  -2   3   1  788.01   15.33
   2  -3  -1  780.95   16.87
   2  -3  -1  722.22   16.34
  -2   3   1  773.54   15.33
   2  -3  -1  773.85   16.70
  -2   3   1  713.80   15.94
   2  -3  -1  768.92   15.98
   2  -3   0 1256.02   25.65
  -2   3   0 1208.30   25.09
  -2   3   0 1247.05   24.90
   2  -3   0 1272.24   25.55
  -2   3   0 1219.42   25.20
  -2   3   0 1217.60   23.87
  -2   3   0 1201.31   24.85
   2  -3   1   47.13    2.58
  -2   3  -1   73.40    2.98
   2  -3   1   53.13    2.46
  -2   3  -1   51.00    1.77
  -2   3  -1   68.11    2.85
  -2   3  -1   45.27    2.34
   2  -3   1   48.09    2.72
  -2   3  -1   48.48    2.42
   2  -3   1   53.00    2.47
   2  -3   2  356.62    8.25
   2  -3   2  349.16    8.45
  -2   3  -2  348.51    6.93
   2  -3   2  363.99    8.43
   2  -3   2  368.62    8.32
  -2   3  -3    1.99    1.12
  -2   3  -3    1.92    1.07
   2  -3   3    1.59    1.11
  -2   3  -3    1.65    0.85
  -2   3  -3    0.76    1.16
  -2   3  -3    5.49    0.60
   2  -3   3    1.19    0.81
   2  -3   3    1.11    0.45
   2  -3   3    5.34    1.32
  -2   3  -3    1.92    1.15
   2  -3   3    1.99    0.87
  -2   3  -3    0.83    0.81
  -2   3  -3    2.39    1.71
  -2   3  -4  188.54    5.45
  -2   3  -4  180.28    5.20
   2  -3   4  174.66    5.01
  -2   3  -4  187.99    5.20
  -2   3  -4  170.07    4.90
   2  -3   4  189.78    5.43
   2  -3   4  188.77    5.07
  -2   3  -4  140.85    3.71
   2  -3   4  135.83    3.72
  -2   3  -4  164.71    4.85
  -2   3  -4  184.74    5.36
  -2   3  -4  193.91    6.03
   2  -3   4  182.94    5.04
  -2   3  -4  184.71    5.34
  -2   3  -5 1671.66   30.45
  -2   3  -5 1699.55   30.30
  -2   3  -5 1670.54   30.40
  -2   3  -5 1657.37   30.07
   2  -3   5 1631.39   29.92
  -2   3  -5 1470.78   29.23
  -2   3  -5 1665.57   30.03
  -2   3  -5 1635.51   29.67
  -2   3  -5 1412.44   29.13
  -2   3  -5 1569.13   31.08
   2  -3   5 1468.95   29.18
  -2   3  -6 1410.79   25.77
  -2   3  -6 1284.30   25.26
  -2   3  -6 1003.29   23.34
  -2   3  -6 1307.88   25.22
  -2   3  -6 1307.61   24.67
  -2   3  -6 1269.12   24.64
  -2   3  -6  989.09   23.33
  -2   3  -6 1263.37   24.47
  -2   3  -7    9.29    1.92
  -2   3  -7    5.72    1.88
   2  -3   7    9.03    2.20
  -2   3  -7    6.29    1.75
  -2   3  -7    7.37    1.58
  -2   3  -7    8.03    2.13
  -2   3  -7    6.46    1.48
  -2   3  -8 1415.63   30.58
  -2   3  -8 1439.37   29.16
  -2   3  -8 1436.37   29.10
  -2   3  -8 1497.26   30.37
  -2   3  -8 1437.80   29.44
  -2   3  -9   13.60    2.45
  -2   3  -9   11.62    2.79
  -2   3  -9   13.60    2.27
  -2   3  -9   10.14    1.56
  -2   3  -9   10.75    1.59
   2  -3   9   15.03    3.58
  -2   3 -10    0.67    2.48
  -2   3 -10    0.96    1.91
   2  -3  10    1.56    2.90
  -2   3 -10    2.61    2.05
  -2   3 -11  270.88    8.55
  -2   3 -11  262.51    9.26
   2  -3  11  249.07    8.90
  -2   3 -12   17.93    2.21
  -2   3 -12   14.50    2.07
  -2   3 -12   14.20    2.65
  -2   3 -13   11.00    1.69
  -2   3 -13    8.12    1.96
  -2   3 -13   11.69    1.54
   2  -2 -12  150.27    4.86
   2  -2 -12  151.34    5.06
   2  -2 -11  134.47    5.43
   2  -2 -11  139.38    5.69
   2  -2 -10  778.55   17.86
   2  -2 -10  791.33   18.19
   2  -2  -9  324.79    9.81
   2  -2  -9  296.01    9.59
   2  -2  -8 4176.20   83.16
   2  -2  -8 4280.30   82.52
   2  -2  -7 1334.63   28.45
   2  -2  -7 1351.79   28.33
   2  -2  -7 1265.38   28.24
   2  -2  -7 1320.04   28.10
   2  -2  -6   44.98    3.28
   2  -2  -6   41.71    3.02
   2  -2  -6   48.10    3.29
   2  -2  -6   47.09    3.32
   2  -2  -5   66.63    3.13
   2  -2  -5   66.18    3.42
   2  -2  -5   62.19    3.33
   2  -2  -5   65.41    3.60
   2  -2  -5   68.31    3.50
   2  -2  -5   53.83    2.24
   2  -2  -4  322.88    8.42
   2  -2  -4  295.52    7.86
   2  -2  -4  301.07    7.86
  -2   2   4  293.26    7.49
   2  -2  -4  283.02    7.23
   2  -2  -4  291.49    7.83
   2  -2  -4  287.63    7.84
  -2   2   4  275.13    6.94
  -2   2   4  302.11    7.55
  -2   2   4  276.70    6.96
   2  -2  -4  269.79    6.85
   2  -2  -4  274.72    6.85
   2  -2  -3  138.20    4.53
   2  -2  -3  148.28    4.91
   2  -2  -3  135.02    4.45
   2  -2  -3  137.51    4.67
  -2   2   3  148.12    4.35
   2  -2  -3  136.58    4.57
  -2   2   3  135.59    4.15
  -2   2   3  153.70    4.45
   2  -2  -3  142.77    4.21
  -2   2   3  138.95    4.20
   2  -2  -3  140.44    4.18
   2  -2  -2    6.01    0.97
   2  -2  -2    8.08    1.33
  -2   2   2    7.51    1.28
   2  -2  -2    5.33    1.22
   2  -2  -2    5.48    1.52
   2  -2  -2    8.40    1.44
  -2   2   2    5.94    0.95
  -2   2   2    8.10    1.25
  -2   2   2    5.16    1.01
   2  -2  -2    5.94    1.29
  -2   2   2    6.39    1.08
  -2   2   2    6.23    0.98
   2  -2  -2    5.99    1.73
   2  -2  -2    5.72    0.94
   2  -2  -1  609.69   12.63
   2  -2  -1  571.59   12.83
  -2   2   1  604.82   12.20
   2  -2  -1  603.74   13.16
   2  -2  -1  609.30   13.27
  -2   2   1  608.42   12.63
  -2   2   1  588.76   12.57
   2  -2  -1  597.31   12.58
   2  -2   0 2922.52   52.33
   2  -2   0 2609.69   51.74
  -2   2   0 2937.44   51.69
  -2   2   0 2751.19   52.21
   2  -2   0 2661.39   52.50
  -2   2   0 2713.40   52.17
   2  -2   0 2883.01   52.29
   2  -2   1  138.25    4.74
   2  -2   1  135.85    4.39
  -2   2  -1  135.28    4.31
   2  -2   1  154.65    4.30
   2  -2   1  135.50    3.68
  -2   2  -1  157.86    3.78
  -2   2  -1  136.95    4.29
   2  -2   1  153.08    4.27
   2  -2   2  104.56    4.11
   2  -2   2  109.04    3.79
  -2   2  -2  103.17    3.68
  -2   2  -2  113.44    3.71
   2  -2   2  117.26    3.64
   2  -2   2  101.36    3.02
  -2   2  -2  117.33    3.11
  -2   2  -2  114.39    3.57
  -2   2  -2  110.22    3.51
   2  -2   2  118.93    3.64
  -2   2  -2  102.47    3.69
   2  -2   3   58.10    3.20
   2  -2   3   58.96    2.16
   2  -2   3   64.39    2.60
  -2   2  -3   66.47    2.25
  -2   2  -3   64.90    2.53
   2  -2   3   63.60    2.80
  -2   2  -3   65.36    2.88
  -2   2  -3   64.03    2.53
   2  -2   3   67.50    2.63
  -2   2  -4   53.33    2.65
   2  -2   4   53.35    2.52
  -2   2  -4   50.73    2.62
   2  -2   4   46.79    2.99
  -2   2  -4   50.52    2.63
  -2   2  -4   46.41    2.14
  -2   2  -4   52.00    2.64
   2  -2   4   44.59    2.00
  -2   2  -4   53.20    2.66
  -2   2  -4   52.15    2.02
  -2   2  -4   54.67    2.73
   2  -2   4   52.85    2.35
  -2   2  -4   48.39    2.18
   2  -2   4   54.18    2.33
  -2   2  -5  465.86   10.66
   2  -2   5  470.74   10.88
  -2   2  -5  456.19   10.57
  -2   2  -5  482.65   10.62
  -2   2  -5  458.31   10.54
  -2   2  -5  407.55    9.40
   2  -2   5  372.06    9.24
  -2   2  -5  459.25   10.54
  -2   2  -5  393.19    9.22
  -2   2  -5  461.73   10.71
  -2   2  -5  398.63    9.38
   2  -2   5  414.16    9.51
  -2   2  -6  420.37   10.24
  -2   2  -6  411.17   10.55
   2  -2   6  426.71   10.15
  -2   2  -6  432.46   10.26
  -2   2  -6  415.76   10.25
  -2   2  -6  323.88    8.36
  -2   2  -6  401.40    9.25
  -2   2  -6  425.60   10.17
  -2   2  -6  350.57    8.81
  -2   2  -7  167.70    6.43
  -2   2  -7  177.29    6.00
  -2   2  -7  170.18    6.09
  -2   2  -7  168.31    5.31
  -2   2  -7  174.32    5.94
  -2   2  -7  171.68    6.20
   2  -2   7  186.38    7.45
  -2   2  -8  165.61    6.41
  -2   2  -8  171.30    6.95
  -2   2  -8  166.53    5.96
  -2   2  -8  184.89    6.55
  -2   2  -8  166.96    5.95
   2  -2   8  189.35    7.66
  -2   2  -9  109.87    5.28
  -2   2  -9  102.31    6.03
  -2   2  -9  106.31    4.40
  -2   2  -9  118.15    5.40
  -2   2  -9  104.85    4.38
   2  -2   9  111.79    5.95
  -2   2 -10   71.43    4.40
  -2   2 -10   74.89    5.32
  -2   2 -10   86.71    4.68
   2  -2  10   70.64    4.53
  -2   2 -11  111.09    5.15
  -2   2 -11  113.06    5.90
  -2   2 -11  102.18    4.93
  -2   2 -12  307.66    8.76
  -2   2 -12  292.89    8.46
  -2   2 -12  296.57    9.35
   2  -2  13   66.69    3.59
  -2   2 -13   74.74    3.24
  -2   2 -13   72.36    3.02
   2  -1 -13    6.65    1.34
   2  -1 -13    8.59    1.27
   2  -1 -12    6.89    1.71
   2  -1 -12    6.36    1.69
   2  -1 -11   60.87    3.78
   2  -1 -11   52.70    3.50
   2  -1 -10   90.90    4.80
   2  -1 -10   79.94    4.50
   2  -1  -9 1156.22   26.04
   2  -1  -9 1145.15   25.37
   2  -1  -8  111.07    4.26
   2  -1  -8  110.13    5.06
   2  -1  -7  930.35   21.26
   2  -1  -7  930.72   20.79
   2  -1  -6  478.26   11.89
   2  -1  -6  470.72   11.68
   2  -1  -6  459.59   11.58
   2  -1  -6  497.62   12.31
   2  -1  -5 1275.43   25.42
   2  -1  -5 1391.58   26.97
   2  -1  -5 1365.80   27.09
   2  -1  -5 1305.69   25.82
   2  -1  -5 1333.79   26.48
   2  -1  -5 1447.77   27.42
  -2   1   5 1312.25   25.53
  -2   1   5 1277.54   25.53
   2  -1  -5 1232.24   25.37
   2  -1  -4  696.97   14.40
   2  -1  -4  682.53   14.66
   2  -1  -4  672.51   14.69
   2  -1  -4  713.67   15.32
   2  -1  -4  724.93   15.53
  -2   1   4  693.37   14.36
   2  -1  -4  682.72   15.08
  -2   1   4  678.87   14.32
   2  -1  -4  708.77   14.41
   2  -1  -3 4634.74   84.05
   2  -1  -3 4637.97   84.99
   2  -1  -3 4444.02   84.54
   2  -1  -3 4503.00   84.86
   2  -1  -3 4398.36   84.55
  -2   1   3 4566.84   84.03
  -2   1   3 4575.14   84.02
   2  -1  -3 4399.65   84.36
   2  -1  -3 4691.64   84.07
   2  -1  -2  106.03    3.40
   2  -1  -2  102.31    3.60
   2  -1  -2   99.88    3.69
   2  -1  -2   95.69    3.43
  -2   1   2  104.51    3.34
  -2   1   2  106.45    3.38
   2  -1  -2  105.10    3.37
   2  -1  -2  107.57    3.35
   2  -1  -1  721.06   15.09
  -2   1   1  744.32   15.04
  -2   1   1  741.40   15.25
   2  -1   0  625.87   12.99
  -2   1   0  631.09   12.86
   2  -1   0  655.69   13.30
  -2   1   0  615.35   13.14
   2  -1   0  654.05   13.24
  -2   1   0  625.52   13.16
  -2   1  -1  530.40   10.71
   2  -1   1  520.59   11.03
   2  -1   1  518.78   10.98
   2  -1   2 1451.87   27.01
  -2   1  -2 1486.45   26.68
  -2   1  -2 1305.82   27.12
  -2   1  -2 1381.31   27.16
   2  -1   2 1339.31   26.62
  -2   1  -2 1291.07   27.06
   2  -1   2 1396.00   28.10
  -2   1  -2 1353.83   26.77
  -2   1  -2 1374.57   26.78
   2  -1   2 1452.35   26.97
   2  -1   3  889.35   17.30
   2  -1   3  799.53   17.05
  -2   1  -3  873.92   17.11
   2  -1   3  850.14   18.66
  -2   1  -3  831.25   17.02
  -2   1  -3  824.14   17.02
   2  -1   3  875.24   17.25
   2  -1   4  107.28    3.50
  -2   1  -4   99.48    3.66
  -2   1  -4  111.88    4.21
  -2   1  -4  108.45    4.08
   2  -1   4  105.68    3.47
   2  -1   4   96.15    3.48
  -2   1  -4  108.15    4.05
  -2   1  -4  112.69    3.61
  -2   1  -4  100.78    3.69
  -2   1  -4  104.56    3.31
   2  -1   4  116.09    4.84
  -2   1  -4   97.55    3.22
  -2   1  -5  258.68    7.26
  -2   1  -5  284.09    7.87
  -2   1  -5  257.86    6.73
  -2   1  -5  288.72    7.68
   2  -1   5  233.87    6.59
  -2   1  -5  241.00    6.06
  -2   1  -5  290.21    7.66
   2  -1   5  293.71    8.61
  -2   1  -5  243.76    6.08
  -2   1  -6    6.11    1.53
  -2   1  -6    5.47    1.95
  -2   1  -6    5.32    1.54
  -2   1  -6    4.29    1.48
  -2   1  -6    4.95    1.54
   2  -1   6    6.53    2.24
  -2   1  -7   19.23    2.27
  -2   1  -7   19.84    2.89
  -2   1  -7   20.64    2.31
  -2   1  -7   21.48    2.24
  -2   1  -7   21.39    2.34
   2  -1   7   21.67    2.92
  -2   1  -8    1.31    1.75
  -2   1  -8   -0.85    2.44
  -2   1  -8    1.21    1.45
  -2   1  -8    0.33    1.55
  -2   1  -8    1.34    1.43
   2  -1   8    2.88    2.30
  -2   1  -9   46.86    3.59
  -2   1  -9   42.88    4.44
  -2   1  -9   43.43    2.97
  -2   1  -9   41.65    3.27
  -2   1  -9   42.68    2.94
  -2   1 -10    7.86    2.27
  -2   1 -10    9.47    3.15
  -2   1 -10    6.99    1.55
  -2   1 -10    7.64    1.86
  -2   1 -10    6.92    1.55
  -2   1 -11  242.81    7.94
  -2   1 -11  237.32    7.53
   2  -1  12   59.19    3.85
  -2   1 -12   51.79    3.06
  -2   1 -12   53.28    2.82
   2   0 -13   20.69    1.93
   2   0 -13   21.89    1.86
   2   0 -13   20.21    1.63
   2   0 -12   46.56    2.98
   2   0 -12   36.27    2.58
   2   0 -12   41.95    2.92
   2   0 -12   39.72    3.05
   2   0 -11  266.27    8.24
   2   0 -11  256.82    8.21
   2   0 -11  246.23    8.15
   2   0 -10  155.73    6.25
   2   0 -10  146.70    6.12
   2   0 -10  131.27    5.61
   2   0 -10  155.14    6.49
   2   0 -10  135.36    5.40
   2   0  -9  143.48    6.13
   2   0  -9  135.34    5.25
   2   0  -9  145.68    5.98
   2   0  -9  133.35    5.54
   2   0  -9  159.85    6.46
   2   0  -9  153.20    6.05
   2   0  -8    7.14    1.81
   2   0  -8    7.60    2.00
   2   0  -8    9.45    2.11
   2   0  -8    5.13    1.55
   2   0  -8    6.67    2.02
   2   0  -8    6.54    2.10
   2   0  -7  903.15   20.35
   2   0  -7  882.47   19.88
   2   0  -7  901.06   20.01
   2   0  -6  215.93    7.01
   2   0  -6  203.82    6.48
   2   0  -6  212.57    6.07
   2   0  -6  212.30    6.48
   2   0  -5 2666.62   50.22
   2   0  -5 2534.84   50.02
   2   0  -5 2574.56   50.74
   2   0  -5 2490.82   49.42
  -2   0   5 2704.98   50.03
  -2   0   5 2493.53   49.29
   2   0  -5 2682.85   50.44
  -2   0   5 2689.14   49.28
  -2   0   5 2690.34   49.28
   2   0  -4 1458.74   28.60
  -2   0   4 1539.99   28.71
   2   0  -4 1402.75   29.13
   2   0  -4 1479.49   29.77
   2   0  -4 1540.95   28.98
   2   0  -4 1446.89   29.11
  -2   0   4 1507.44   28.91
   2   0  -4 1374.09   28.93
   2   0  -4 1499.92   29.66
   2   0  -4 1439.05   28.58
   2   0  -4 1460.01   29.44
  -2   0   4 1534.85   28.70
   2   0  -3  545.62   11.56
   2   0  -3  544.93   11.57
   2   0  -3  516.09   11.78
  -2   0   3  552.69   11.54
   2   0  -3  513.69   11.76
   2   0  -3  568.40   11.68
   2   0  -3  517.87   11.70
   2   0  -3  518.10   11.80
  -2   0   3  548.14   11.52
   2   0  -3  500.07   11.96
   2   0  -3  513.20   12.11
  -2   0   3  536.24   11.49
   2   0  -2  368.90    9.44
  -2   0   2  404.25    8.97
   2   0  -2  379.68    9.24
   2   0  -2  402.97    8.93
  -2   0   2  411.13    8.87
   2   0  -2  401.78    9.06
  -2   0   2  399.78    8.94
   2   0  -1   75.68    2.81
   2   0  -1   74.01    2.78
   2   0  -1   69.90    2.63
  -2   0   1   73.49    2.60
  -2   0   1   71.21    2.67
  -2   0   1   67.51    2.61
   2   0   0 1185.70   22.56
   2   0   0 1077.77   22.15
   2   0   0 1182.71   22.55
   2   0   0 1089.66   23.04
   2   0   1  993.62   18.64
  -2   0  -1  854.88   18.48
  -2   0  -1  907.82   18.28
  -2   0  -1  844.84   18.50
   2   0   1  892.61   18.73
   2   0   1  929.43   18.34
   2   0   1  926.08   19.21
  -2   0  -1  899.04   18.49
   2   0   1  957.75   18.60
  -2   0  -1  911.11   18.26
   2   0   2  512.56   10.76
  -2   0  -2  463.16   10.98
   2   0   2  501.30   10.71
  -2   0  -2  467.77   10.83
   2   0   2  486.47   10.97
   2   0   2  453.71   10.56
  -2   0  -2  484.00   10.54
  -2   0  -2  459.64   10.93
  -2   0  -2  483.38   10.44
   2   0   2  494.86   11.61
  -2   0  -2  473.65   10.40
  -2   0  -3  258.59    6.43
   2   0   3  266.91    6.68
  -2   0  -3  268.47    7.10
  -2   0  -3  268.43    7.30
   2   0   3  268.98    6.94
   2   0   3  251.30    6.74
  -2   0  -3  269.92    7.63
  -2   0  -3  259.62    6.76
  -2   0  -3  266.52    7.26
   2   0   3  273.86    7.75
  -2   0  -3  258.99    6.44
  -2   0  -4   70.61    3.18
  -2   0  -4   84.86    4.02
  -2   0  -4   76.60    3.48
  -2   0  -4   75.08    2.76
   2   0   4   82.00    3.99
  -2   0  -4   72.62    2.71
  -2   0  -4   70.46    2.62
  -2   0  -4   72.05    2.64
  -2   0  -4   72.07    2.89
  -2   0  -5   11.14    1.68
  -2   0  -5   12.51    2.25
  -2   0  -5    9.11    1.30
  -2   0  -5   12.87    2.02
  -2   0  -5   11.95    1.89
  -2   0  -5   13.06    1.88
   2   0   5   10.15    2.14
  -2   0  -6  870.52   20.06
  -2   0  -6  945.95   20.56
  -2   0  -6  901.05   20.33
  -2   0  -6  948.77   20.25
  -2   0  -6  937.84   20.51
   2   0   6  862.47   20.36
  -2   0  -6  925.80   21.62
  -2   0  -7  218.74    7.40
  -2   0  -7  213.35    8.61
  -2   0  -7  222.81    7.46
  -2   0  -7  230.08    7.68
  -2   0  -7  210.58    7.04
  -2   0  -7  240.15    7.61
  -2   0  -7  215.97    7.38
   2   0   7  190.92    7.00
  -2   0  -8  219.43    7.92
  -2   0  -8  219.46    9.07
  -2   0  -8  218.26    7.69
  -2   0  -8  239.67    8.29
  -2   0  -8  220.97    7.46
  -2   0  -8  228.59    7.70
  -2   0  -8  223.83    7.70
  -2   0  -9   49.00    3.80
  -2   0  -9   50.21    3.49
  -2   0  -9   56.74    4.35
  -2   0  -9   51.42    3.38
  -2   0  -9   51.59    3.46
   2   0  10    4.29    2.82
  -2   0 -10    1.85    1.94
  -2   0 -10    0.04    1.27
  -2   0 -10    1.15    1.33
  -2   0 -10    0.45    1.25
   2   0  11  227.96    8.14
  -2   0 -11  239.37    7.32
  -2   0 -11  225.44    6.72
   2   0  12   10.59    1.95
   2   1 -13   25.29    1.78
   2   1 -12    1.71    1.47
   2   1 -12    1.16    1.07
   2   1 -12    1.15    1.38
   2   1 -12    0.30    1.49
   2   1 -11  161.15    6.03
   2   1 -11  152.37    5.88
   2   1 -11  153.46    5.88
   2   1 -11  149.03    5.44
   2   1 -10  122.87    5.54
   2   1 -10  121.86    5.33
   2   1 -10  113.88    5.02
   2   1 -10  115.36    5.15
   2   1 -10  110.85    4.66
   2   1 -10  125.65    5.31
   2   1  -9  489.85   12.68
   2   1  -9  474.87   12.58
   2   1  -9  460.67   12.07
   2   1  -9  420.99   11.31
   2   1  -9  473.50   12.44
   2   1  -9  502.40   12.76
   2   1  -9  449.37   11.87
   2   1  -8   76.86    4.14
   2   1  -8   84.98    4.48
   2   1  -8   76.53    3.88
   2   1  -8   71.04    3.33
   2   1  -8   77.86    4.02
   2   1  -8   86.53    4.56
   2   1  -8   79.74    4.18
   2   1  -7  440.74   11.22
   2   1  -7  444.73   11.82
   2   1  -7  407.27   10.69
   2   1  -7  404.78   10.99
   2   1  -7  455.78   11.82
   2   1  -7  422.07   11.37
   2   1  -6    0.66    1.60
  -2  -1   6    0.37    0.68
   2   1  -6    3.62    1.40
   2   1  -6    0.56    1.00
   2   1  -6    3.28    1.44
   2   1  -6    1.21    1.59
   2   1  -5  118.85    4.22
  -2  -1   5  126.94    4.15
   2   1  -5  116.99    4.41
   2   1  -5  115.14    4.19
  -2  -1   5  125.11    4.04
   2   1  -5  138.63    5.13
  -2  -1   5  121.17    4.13
   2   1  -5  133.73    5.12
  -2  -1   5  114.18    4.04
  -2  -1   5  127.19    4.04
   2   1  -4  225.90    6.49
   2   1  -4  251.90    6.29
  -2  -1   4  229.20    6.10
  -2  -1   4  233.03    6.08
   2   1  -4  221.23    6.44
   2   1  -4  212.12    6.29
   2   1  -4  231.92    6.96
  -2  -1   4  235.07    6.28
   2   1  -4  226.11    6.93
   2   1  -4  219.05    6.85
  -2  -1   4  225.53    6.24
  -2  -1   4  226.27    6.08
   2   1  -3 1964.34   38.85
   2   1  -3 1897.90   39.29
   2   1  -3 2074.61   38.52
  -2  -1   3 2052.56   38.48
   2   1  -3 1919.28   38.92
  -2  -1   3 2133.89   38.77
   2   1  -3 2013.66   39.33
  -2  -1   3 2012.79   38.83
  -2  -1   3 1957.42   38.79
  -2  -1   3 2041.49   38.65
   2   1  -2  185.53    5.84
   2   1  -2  190.16    5.65
  -2  -1   2  203.48    5.32
  -2  -1   2  211.44    5.60
   2   1  -2  200.83    5.87
  -2  -1   2  203.00    5.67
   2   1  -2  198.78    6.22
  -2  -1   2  202.86    5.52
   2   1  -1   78.25    3.34
   2   1  -1   79.99    3.37
  -2  -1   1   78.56    2.90
  -2  -1   1   81.50    3.09
  -2  -1   1   79.97    3.14
   2   1  -1   80.96    3.68
   2   1  -1   80.53    3.22
  -2  -1   1   80.61    3.05
   2   1   0 4876.36   94.51
  -2  -1   0 4967.59   94.25
  -2  -1   0 5072.43   93.97
   2   1   0 5024.57   94.10
   2   1   0 5282.75   94.82
  -2  -1   0 5100.71   93.96
  -2  -1   0 4997.55   94.21
  -2  -1   0 5244.26   94.41
   2   1   0 5102.10   95.07
  -2  -1   0 5240.36   94.20
   2   1   1 4702.97   85.90
  -2  -1  -1 4563.13   85.14
  -2  -1  -1 4661.34   85.10
  -2  -1  -1 4579.88   85.61
   2   1   1 4292.99   85.09
  -2  -1  -1 4540.41   85.11
  -2  -1  -1 4524.95   85.55
  -2  -1  -1 4674.69   85.36
   2   1   1 4652.98   86.17
  -2  -1  -1 4667.83   85.32
  -2  -1  -1 4467.06   85.71
   2   1   1 4727.78   85.78
  -2  -1  -1 4629.56   85.07
  -2  -1  -2 1349.81   27.13
  -2  -1  -2 1321.99   26.52
  -2  -1  -2 1338.49   26.22
   2   1   2 1230.69   26.43
   2   1   2 1367.69   26.93
  -2  -1  -2 1315.34   26.53
  -2  -1  -2 1352.02   27.08
  -2  -1  -2 1361.58   26.51
   2   1   2 1321.60   27.39
  -2  -1  -2 1341.81   26.49
  -2  -1  -2 1407.78   26.93
   2   1   2 1332.56   27.57
  -2  -1  -2 1293.50   26.13
   2   1   3  336.65    9.22
  -2  -1  -3  294.79    7.99
  -2  -1  -3  284.31    7.40
  -2  -1  -3  310.20    8.08
  -2  -1  -3  330.39    8.68
   2   1   3  327.21    8.09
  -2  -1  -3  324.26    8.60
  -2  -1  -3  298.52    7.60
   2   1   3  308.13    8.63
  -2  -1  -3  303.25    7.61
  -2  -1  -3  320.41    8.34
  -2  -1  -3  286.52    7.35
  -2  -1  -4    8.71    1.01
  -2  -1  -4   10.75    1.69
  -2  -1  -4   10.26    1.75
  -2  -1  -4   12.58    1.95
  -2  -1  -4   13.22    1.97
  -2  -1  -4   13.15    1.96
   2   1   4   11.50    1.93
  -2  -1  -5  618.39   14.40
  -2  -1  -5  614.37   14.33
   2   1   5  567.46   14.09
  -2  -1  -5  572.71   13.67
  -2  -1  -6   67.03    3.98
  -2  -1  -6   71.56    4.15
  -2  -1  -6   69.25    4.10
  -2  -1  -6   66.04    3.33
  -2  -1  -6   71.68    4.15
  -2  -1  -6   60.93    3.30
  -2  -1  -7  267.49    8.66
  -2  -1  -7  275.02    8.80
  -2  -1  -7  275.80    8.87
  -2  -1  -7  250.67    7.64
  -2  -1  -7  292.89    8.95
  -2  -1  -7  278.55    8.80
   2   1   8   36.57    4.36
  -2  -1  -8   30.86    3.13
  -2  -1  -8   31.81    3.52
  -2  -1  -8   31.05    3.17
  -2  -1  -8   28.17    2.43
  -2  -1  -8   28.19    3.24
  -2  -1  -8   31.02    3.13
  -2  -1  -9   20.49    2.71
   2   1   9   17.81    3.54
  -2  -1  -9   20.20    2.43
  -2  -1  -9   15.44    2.85
  -2  -1  -9   17.72    2.05
  -2  -1  -9   19.77    2.42
   2   1  10   60.96    4.37
  -2  -1 -10   55.31    2.94
  -2  -1 -10   57.38    2.94
   2   1  11   33.59    2.85
   2   1  11   32.09    2.52
   2   2 -12   -0.03    1.32
   2   2 -12    0.07    1.28
   2   2 -11   23.59    2.62
   2   2 -11   28.44    2.57
   2   2 -11   25.95    2.32
   2   2 -11   25.01    2.63
   2   2 -11   19.84    2.31
   2   2 -10   17.58    2.67
   2   2 -10   17.48    2.12
   2   2 -10   20.58    2.34
   2   2 -10   19.83    2.74
   2   2 -10   22.11    2.58
   2   2 -10   18.12    2.55
   2   2  -9    4.62    1.73
   2   2  -9    3.35    1.42
   2   2  -9    5.95    1.99
   2   2  -9    4.41    1.54
   2   2  -9    5.10    2.26
   2   2  -9    5.30    2.22
   2   2  -9    4.73    2.18
   2   2  -8    0.41    1.28
   2   2  -8    0.89    1.68
   2   2  -8    0.21    1.27
   2   2  -8    1.02    2.02
   2   2  -8    0.41    1.44
   2   2  -8    1.08    2.02
   2   2  -8    0.83    2.05
   2   2  -7  440.40   11.22
   2   2  -7  487.10   12.74
   2   2  -7  485.02   11.87
   2   2  -7  436.79   10.83
   2   2  -7  430.83   10.89
   2   2  -7  482.87   12.71
   2   2  -6  830.36   18.23
   2   2  -6  849.48   18.60
  -2  -2   6  815.94   17.79
   2   2  -6  894.55   19.34
   2   2  -6  780.73   18.04
   2   2  -6  879.94   19.70
   2   2  -5  733.51   16.29
   2   2  -5  729.06   17.07
   2   2  -5  747.22   16.88
  -2  -2   5  739.95   15.95
   2   2  -5  684.72   16.14
   2   2  -4  523.90   12.27
   2   2  -4  527.32   13.00
   2   2  -4  536.08   11.87
  -2  -2   4  496.07   11.60
   2   2  -4  498.14   12.38
   2   2  -4  540.08   12.83
  -2  -2   4  558.75   12.36
   2   2  -4  539.38   13.29
  -2  -2   4  534.90   12.17
   2   2  -3  401.92    9.84
   2   2  -3  401.10    9.91
   2   2  -3  391.57   10.27
   2   2  -3  397.23    9.30
  -2  -2   3  371.06    9.11
   2   2  -3  395.64   10.06
  -2  -2   3  412.56    9.86
  -2  -2   3  422.48    9.85
   2   2  -3  388.10   10.52
  -2  -2   3  378.49    9.53
   2   2  -2 1008.89   20.60
   2   2  -2  943.32   20.56
   2   2  -2  952.40   19.79
  -2  -2   2  910.13   19.62
   2   2  -2  983.72   20.70
   2   2  -2  971.41   20.50
   2   2  -2  970.21   20.33
  -2  -2   2 1011.81   20.44
   2   2  -2  929.24   20.99
  -2  -2   2 1012.29   20.27
  -2  -2   2  975.44   20.12
   2   2  -1 1472.96   28.26
   2   2  -1 1328.77   27.77
   2   2  -1 1450.84   28.29
  -2  -2   1 1387.97   27.36
   2   2  -1 1314.28   27.25
  -2  -2   1 1335.25   27.18
  -2  -2   1 1329.26   26.81
   2   2  -1 1446.45   28.36
  -2  -2   1 1370.54   27.31
   2   2  -1 1440.13   27.51
   2   2  -1 1393.33   28.51
   2   2   0  437.39   10.64
   2   2   0  362.20    9.43
  -2  -2   0  411.95    9.83
  -2  -2   0  364.94    9.03
   2   2   0  362.09    9.37
  -2  -2   0  375.23    9.36
   2   2   0  418.07   10.41
  -2  -2   0  402.12    9.76
  -2  -2   0  434.25    9.95
  -2  -2   0  421.22    9.82
   2   2   0  411.62   10.51
  -2  -2   0  450.70   10.51
  -2  -2   0  400.92    9.63
   2   2   1  194.23    6.54
  -2  -2  -1  181.46    5.83
  -2  -2  -1  163.86    5.07
  -2  -2  -1  184.09    5.84
   2   2   1  193.70    6.12
  -2  -2  -1  184.02    5.45
   2   2   1  171.71    6.10
  -2  -2  -1  192.46    6.06
   2   2   1  150.11    5.18
  -2  -2  -1  177.00    5.32
   2   2   2    3.28    1.35
  -2  -2  -2    2.68    1.56
   2   2   2    1.94    1.88
  -2  -2  -2    1.77    0.81
  -2  -2  -2    2.17    1.28
  -2  -2  -2    2.61    1.41
   2   2   2    1.27    1.32
  -2  -2  -2    3.66    1.46
   2   2   2    5.51    1.67
   2   2   3 1138.72   24.98
  -2  -2  -3 1163.40   23.91
  -2  -2  -3 1109.36   22.79
  -2  -2  -3 1132.79   23.76
   2   2   3 1176.46   23.21
  -2  -2  -3 1176.31   23.65
  -2  -2  -4 1290.93   26.90
  -2  -2  -4 1308.60   27.61
  -2  -2  -4 1227.85   26.41
  -2  -2  -4 1284.56   27.55
  -2  -2  -4 1254.60   26.84
  -2  -2  -5   61.61    3.81
  -2  -2  -5   61.15    3.75
  -2  -2  -5   66.28    4.15
  -2  -2  -5   54.06    3.55
  -2  -2  -6 3052.13   59.68
  -2  -2  -6 3116.05   59.55
   2   2   7   13.35    3.42
  -2  -2  -7    6.45    1.79
  -2  -2  -7    8.07    2.52
  -2  -2  -7    9.10    2.53
  -2  -2  -7    8.52    2.47
   2   2   8  155.00    7.43
  -2  -2  -8  156.93    6.21
  -2  -2  -8  157.14    6.22
   2   2   8  159.44    6.64
  -2  -2  -9  235.08    7.33
  -2  -2  -9  237.39    7.30
   2   2   9  252.16    8.82
   2   2   9  245.13    8.14
   2   2  10  202.01    6.84
   2   2  10  202.10    6.31
   2   3 -12  334.02    9.08
   2   3 -12  317.07    8.12
   2   3 -12  347.17    9.00
   2   3 -12  309.61    8.76
   2   3 -11  193.33    6.30
   2   3 -11  199.75    7.29
   2   3 -11  208.07    7.19
   2   3 -11  185.18    6.96
   2   3 -10  345.73    9.82
   2   3 -10  380.64   11.35
   2   3 -10  369.25   10.86
   2   3 -10  373.99   11.03
   2   3  -9   46.38    3.16
   2   3  -9   47.59    3.33
   2   3  -9   51.66    4.17
   2   3  -9   54.04    4.05
   2   3  -9   53.64    4.22
   2   3  -8    7.64    1.95
   2   3  -8    7.41    2.04
   2   3  -8    7.61    1.60
   2   3  -8   10.34    2.79
   2   3  -7  146.35    5.81
   2   3  -7  143.24    5.61
   2   3  -7  143.72    6.55
   2   3  -7  147.02    6.22
   2   3  -7  136.83    5.35
   2   3  -6  455.32   11.86
   2   3  -6  440.03   12.27
   2   3  -6  437.59   11.83
   2   3  -6  403.27   11.16
   2   3  -6  425.54   11.21
   2   3  -5  124.93    5.18
   2   3  -5  110.23    5.11
   2   3  -5  110.07    4.91
   2   3  -5  119.46    5.45
   2   3  -5  121.79    4.89
   2   3  -5  117.32    5.59
   2   3  -4  675.30   15.83
   2   3  -4  673.60   16.19
   2   3  -4  657.61   15.66
   2   3  -4  652.86   15.81
   2   3  -4  662.35   16.47
   2   3  -3   65.03    3.78
   2   3  -3   61.88    3.72
   2   3  -3   62.81    3.63
   2   3  -3   66.45    4.04
   2   3  -2  761.28   17.05
   2   3  -2  715.56   16.32
   2   3  -2  713.82   16.15
  -2  -3   2  683.92   15.25
   2   3  -2  747.55   16.87
   2   3  -2  689.57   16.88
  -2  -3   2  686.88   15.30
   2   3  -1  386.68   10.57
  -2  -3   1  352.00    9.30
   2   3  -1  346.84    9.40
  -2  -3   1  361.53    9.33
   2   3  -1  375.45    9.44
   2   3  -1  396.23   10.46
   2   3  -1  343.57   10.08
  -2  -3   1  396.45   10.35
   2   3   0    1.77    1.13
   2   3   0    1.54    1.86
  -2  -3   0    2.02    1.34
  -2  -3   0    2.06    1.32
   2   3   0    1.76    1.63
   2   3   0    0.65    1.60
   2   3   1  243.38    8.24
  -2  -3  -1  226.91    7.25
  -2  -3  -1  229.83    7.26
   2   3   1  243.10    7.64
   2   3   2    6.92    1.86
   2   3   2    7.23    2.63
  -2  -3  -2    6.62    2.29
  -2  -3  -2    7.79    1.98
   2   3   2    6.36    1.87
  -2  -3  -2    5.95    1.92
  -2  -3  -3 1462.01   29.76
  -2  -3  -3 1263.28   27.45
  -2  -3  -3 1443.96   29.64
  -2  -3  -3 1433.05   29.26
   2   3   3 1257.67   28.65
  -2  -3  -4 4902.18   87.33
  -2  -3  -4 4169.76   84.57
  -2  -3  -4 4591.38   85.99
  -2  -3  -4 4944.60   87.29
   2   3   4 4301.98   86.03
  -2  -3  -4 4311.26   85.71
  -2  -3  -5 1033.81   22.89
  -2  -3  -5  858.92   20.42
  -2  -3  -5 1034.23   22.20
  -2  -3  -5 1026.10   22.79
   2   3   5  856.67   21.64
  -2  -3  -5  876.24   21.20
   2   3   6  124.34    7.09
  -2  -3  -6  106.10    4.91
  -2  -3  -6  125.51    5.86
   2   3   6  122.16    5.92
  -2  -3  -6  110.02    5.05
   2   3   7   19.56    3.45
  -2  -3  -7   14.72    2.05
  -2  -3  -7   16.94    2.60
  -2  -3  -7   16.49    2.59
   2   3   7   17.49    2.71
   2   3   8  391.30   10.75
  -2  -3  -8  380.32    9.72
  -2  -3  -8  379.94    9.69
   2   3   8  366.27    9.76
   2   3   9    0.20    1.16
  -2  -3  -9   -0.39    0.99
  -2  -3  -9    0.30    0.96
   2   3   9    1.27    1.58
   2   4 -13   12.69    1.48
   2   4 -12   72.07    3.80
   2   4 -12   72.00    3.65
   2   4 -12   66.61    3.66
   2   4 -11  288.37    7.72
   2   4 -11  312.27    9.59
   2   4 -11  304.69    9.10
   2   4 -11  323.93    9.61
   2   4 -10   22.24    2.46
   2   4 -10   25.19    2.37
   2   4 -10   25.68    3.38
   2   4 -10   27.20    3.24
   2   4 -10   25.54    3.47
   2   4  -9  629.09   15.79
   2   4  -9  640.58   15.30
   2   4  -8   83.28    4.63
   2   4  -8   82.10    5.38
   2   4  -8   88.80    5.22
   2   4  -8   78.14    4.22
   2   4  -8   76.37    4.08
   2   4  -7 2778.96   55.61
   2   4  -7 2658.80   54.43
   2   4  -7 2750.61   56.26
   2   4  -7 2919.95   55.98
   2   4  -7 2976.63   56.89
   2   4  -7 2675.84   54.76
   2   4  -6   47.59    3.88
   2   4  -6   43.72    3.38
   2   4  -6   47.35    3.91
   2   4  -6   42.63    3.96
   2   4  -6   42.50    3.40
   2   4  -6   48.53    4.18
   2   4  -5 1815.76   37.66
   2   4  -5 1719.49   36.56
   2   4  -5 1839.58   37.72
   2   4  -5 1776.39   37.34
   2   4  -5 1758.56   37.23
   2   4  -5 1860.28   38.18
   2   4  -4 1893.67   39.43
   2   4  -4 1900.40   39.01
   2   4  -4 1852.99   38.88
   2   4  -4 1926.54   39.65
   2   4  -3  233.18    8.28
   2   4  -3  217.34    7.53
   2   4  -3  230.22    7.72
   2   4  -3  229.55    8.20
   2   4  -3  223.56    8.18
  -2  -4   3  243.50    8.07
   2   4  -2    1.34    1.98
   2   4  -2    0.42    1.56
  -2  -4   2    1.09    1.17
   2   4  -2    1.60    1.91
  -2  -4   2    2.00    2.03
   2   4  -2    0.84    1.70
  -2  -4   2    1.30    1.24
   2   4  -2    0.59    1.92
   2   4  -1    4.55    1.33
   2   4  -1    9.95    2.58
  -2  -4   1    6.96    2.47
  -2  -4   1    6.87    1.71
   2   4  -1    7.49    2.26
  -2  -4   1    5.75    1.72
   2   4  -1    6.10    2.09
   2   4   0   83.48    5.27
  -2  -4   0   80.86    4.34
  -2  -4   0   80.00    4.33
   2   4   0   70.67    4.02
   2   4   0   86.42    4.69
  -2  -4   0   73.07    4.73
   2   4   0   63.88    3.46
  -2  -4  -1  501.73   13.14
  -2  -4  -1  503.49   13.12
   2   4   1  510.32   13.23
  -2  -4  -2   50.34    3.88
  -2  -4  -2   55.61    3.99
   2   4   2   50.87    3.62
   2   4   2   45.21    3.34
  -2  -4  -3  140.61    6.26
  -2  -4  -3  118.31    5.49
  -2  -4  -3  132.90    6.14
  -2  -4  -3  129.35    6.02
   2   4   3  109.07    5.33
   2   4   4   10.77    2.37
   2   4   4   18.60    3.52
  -2  -4  -4   11.30    2.61
  -2  -4  -4   18.18    2.91
  -2  -4  -4   12.31    2.63
  -2  -4  -4   14.23    2.80
   2   4   5   19.89    3.55
   2   4   5   15.30    2.44
  -2  -4  -5   19.76    2.82
  -2  -4  -5   19.27    2.65
  -2  -4  -5   20.77    2.87
  -2  -4  -5   18.43    2.64
   2   4   6  315.01    9.30
  -2  -4  -6  312.35    8.98
  -2  -4  -7   64.19    2.96
   2   4   7   65.24    3.30
   2   5 -12   19.24    2.22
   2   5 -12   17.13    2.04
   2   5 -12   19.43    2.24
   2   5 -11  138.41    5.57
   2   5 -11  146.67    5.89
   2   5 -10  367.93   10.15
   2   5  -9  916.03   21.44
   2   5  -9  929.92   21.01
   2   5  -9  924.75   21.58
  -2  -5   9  905.22   19.51
   2   5  -8    3.04    2.20
  -2  -5   8    1.33    1.98
   2   5  -8    3.29    2.84
   2   5  -8    3.10    1.84
   2   5  -8    6.71    3.01
   2   5  -8    0.76    2.82
   2   5  -7 4625.35   89.77
   2   5  -7 4702.51   90.08
   2   5  -7 4731.14   89.60
   2   5  -7 4745.86   90.39
  -2  -5   7 4578.86   88.55
   2   5  -7 4423.94   88.90
   2   5  -6  438.20   13.19
   2   5  -6  438.28   12.95
   2   5  -6  448.60   12.78
   2   5  -6  446.42   13.21
  -2  -5   6  416.37   12.11
   2   5  -6  420.82   12.62
   2   5  -5   11.29    2.85
  -2  -5   5   11.14    2.59
   2   5  -5   11.67    2.64
   2   5  -5   10.95    2.78
   2   5  -5   17.88    3.20
   2   5  -4  329.61   11.00
   2   5  -4  301.70    9.85
   2   5  -4  303.36   10.36
   2   5  -4  332.81   10.56
   2   5  -4  335.49   11.01
  -2  -5   4  325.81   10.25
   2   5  -3    6.74    2.76
  -2  -5   3    9.73    2.76
   2   5  -3    5.81    2.00
   2   5  -3   13.79    3.00
   2   5  -3    6.35    2.21
   2   5  -3    6.77    2.49
   2   5  -2   94.31    6.02
   2   5  -2   80.61    4.61
   2   5  -2   90.38    4.87
   2   5  -2  112.98    5.96
  -2  -5   2  108.42    5.58
   2   5  -1   -0.20    1.26
  -2  -5   1    1.29    2.48
   2   5  -1    0.21    2.49
  -2  -5   1    0.14    1.39
   2   5  -1    0.64    2.26
  -2  -5   1    0.75    1.47
  -2  -5   0  149.09    6.01
  -2  -5   0  145.30    5.90
   2   5   0  151.27    6.88
  -2  -5   0  164.88    6.83
  -2  -5  -1  526.24   13.40
  -2  -5  -1  524.26   13.33
   2   5   1  495.29   13.59
  -2  -5  -2   27.84    3.00
  -2  -5  -2   28.45    2.78
  -2  -5  -2   33.06    3.19
   2   5   2   18.88    2.40
   2   5   2   21.84    2.58
   2   5   3    5.86    1.76
  -2  -5  -3    7.10    2.19
  -2  -5  -3    8.57    2.08
  -2  -5  -3    7.71    2.18
   2   5   3    7.87    2.95
   2   5   4    9.84    1.85
   2   5   4   13.07    2.92
  -2  -5  -4   15.96    2.43
  -2  -5  -4   13.59    2.33
  -2  -5  -4   14.99    2.38
   2   5   5   92.11    4.76
  -2  -5  -5   79.59    4.04
  -2  -5  -5   85.94    4.13
  -2  -5  -5   74.53    3.61
  -2  -5  -6  124.65    4.08
  -2  -5  -6  128.69    4.71
  -2  -5  -6  126.53    4.66
   2   6 -12   25.61    1.95
   2   6 -12   27.92    2.14
   2   6 -11   86.12    3.98
   2   6 -11   76.77    3.67
   2   6 -10    0.96    1.35
   2   6 -10    0.52    1.81
   2   6 -10    1.02    1.98
   2   6  -9   15.72    2.37
   2   6  -9   15.91    2.70
   2   6  -9   19.70    2.87
   2   6  -9   12.40    1.90
   2   6  -9   14.82    2.82
   2   6  -8  125.96    5.42
   2   6  -8  123.98    5.80
   2   6  -8  130.02    6.00
   2   6  -8  127.69    5.95
   2   6  -8  137.01    6.20
  -2  -6   8  113.28    4.72
   2   6  -7   20.14    3.14
   2   6  -7   18.32    2.98
   2   6  -7   18.47    2.71
   2   6  -7   14.99    3.09
   2   6  -7   23.32    3.27
  -2  -6   7   19.64    2.55
   2   6  -6  511.51   14.17
   2   6  -6  524.11   14.73
   2   6  -6  557.70   14.94
  -2  -6   6  517.76   13.79
   2   6  -6  557.53   14.91
   2   6  -5   89.13    5.52
   2   6  -5   76.03    4.75
   2   6  -5   68.71    4.23
   2   6  -5   79.39    4.89
  -2  -6   5   78.31    4.57
   2   6  -4  373.09   11.82
   2   6  -4  354.52   10.64
  -2  -6   4  353.57   10.60
   2   6  -4  361.48   11.67
   2   6  -3  459.14   13.57
  -2  -6   3  421.97   12.20
   2   6  -3  463.50   13.29
   2   6  -2  929.07   23.03
  -2  -6   2  889.19   21.51
  -2  -6   1   92.38    4.34
  -2  -6   1   95.12    4.35
  -2  -6   1  111.00    5.46
   2   6  -1  120.92    5.75
   2   6   0  257.21    8.39
  -2  -6   0  212.11    7.39
  -2  -6   0  216.23    7.39
  -2  -6   0  247.86    8.31
  -2  -6  -1   15.12    2.23
   2   6   1   13.64    2.19
  -2  -6  -1   13.62    2.20
  -2  -6  -1   20.16    2.71
   2   6   2    0.91    2.14
  -2  -6  -2   -0.40    1.46
  -2  -6  -2    0.83    1.75
  -2  -6  -2    0.31    1.51
   2   6   3   74.39    4.20
  -2  -6  -3   65.86    3.49
  -2  -6  -3   62.47    3.41
   2   6   4    0.30    1.41
  -2  -6  -4    0.75    1.13
  -2  -6  -4    0.94    1.10
  -2  -6  -4    1.07    1.13
   2   7 -10   93.72    3.89
   2   7 -10   95.55    3.91
   2   7  -9    4.17    1.43
   2   7  -9    5.16    1.70
   2   7  -9    5.81    1.75
   2   7  -8   80.82    3.70
   2   7  -8   74.62    3.94
   2   7  -8   73.57    3.81
   2   7  -8   75.68    3.94
   2   7  -7   66.24    3.84
   2   7  -7   67.09    4.02
   2   7  -7   63.79    3.45
   2   7  -7   60.37    3.65
   2   7  -6  155.26    5.82
  -2  -7   6  143.16    5.21
   2   7  -5    2.51    2.23
  -2  -7   5    1.70    1.63
   2   7  -5    2.56    2.05
   2   7  -4  249.90    8.12
   2   7  -4  238.13    8.31
  -2  -7   4  210.84    6.50
  -2  -7   4  194.65    6.69
   2   7  -3    0.97    2.12
  -2  -7   3    1.17    1.67
   2   7  -3    0.92    1.83
  -2  -7   2   13.80    2.11
   2   7  -2   12.68    2.35
   2   7  -1  180.68    6.19
  -2  -7   1  171.63    5.92
  -2  -7   0    2.31    1.47
   2   7   1   26.36    2.46
  -2  -7  -1   27.99    2.14
   2   8  -5   29.86    2.32
   2   8  -5   30.34    2.30
   3  -9   0    6.36    1.57
   3  -9   1    1.24    1.22
  -3   9  -1    1.06    1.18
  -3   9  -1    1.20    1.20
  -3   9  -2    4.61    1.23
   3  -9   2    7.01    1.66
  -3   9  -2    6.37    1.49
  -3   9  -2    7.60    1.52
  -3   9  -3   78.94    3.50
   3  -9   3   83.74    4.27
  -3   9  -3   77.83    3.46
  -3   9  -4   41.65    2.58
   3  -9   4   44.93    2.90
  -3   9  -4   47.74    2.56
  -3   9  -4   42.11    2.41
   3  -9   4   46.27    3.38
  -3   9  -5   55.42    2.91
  -3   9  -5   54.24    2.53
   3  -9   5   70.66    3.59
  -3   9  -5   52.38    2.48
   3  -9   5   65.91    3.64
   3  -9   5   63.06    3.58
  -3   9  -6    5.87    1.38
   3  -9   6    8.51    1.64
   3  -9   6    7.41    1.86
   3  -9   6    5.00    1.77
  -3   9  -7   66.57    2.92
   3  -9   7   57.88    2.85
   3  -9   7   66.60    3.54
  -3   9  -8    2.31    1.18
  -3   8   3    0.33    1.15
   3  -8  -3   -0.27    1.11
  -3   8   3    1.48    1.24
  -3   8   2  194.13    6.42
  -3   8   2  190.43    6.30
   3  -8  -2  173.84    6.11
   3  -8  -1   27.69    2.43
  -3   8   1   33.46    2.88
   3  -8  -1   29.01    2.99
  -3   8   1   34.31    2.91
  -3   8   0  223.28    7.30
  -3   8   0  218.03    7.21
  -3   8  -1  518.32   13.70
   3  -8   1  670.18   15.51
  -3   8  -2  504.66   13.10
  -3   8  -2  519.55   13.09
  -3   8  -3   14.13    2.14
  -3   8  -3   15.16    2.38
   3  -8   3   14.11    2.68
  -3   8  -3   16.81    2.35
   3  -8   3   14.39    2.67
   3  -8   3   14.74    3.08
  -3   8  -4    4.29    1.72
   3  -8   4    4.94    2.22
   3  -8   4    4.36    2.42
  -3   8  -4    5.16    1.79
   3  -8   4    5.38    2.58
  -3   8  -4    4.51    1.78
  -3   8  -5    9.26    1.93
  -3   8  -5    7.92    1.72
   3  -8   5   11.14    2.83
   3  -8   5    8.23    2.47
   3  -8   5    5.64    2.16
  -3   8  -5    5.78    1.62
  -3   8  -6   34.47    2.79
   3  -8   6   36.66    3.15
  -3   8  -6   39.17    3.35
  -3   8  -6   31.81    2.32
  -3   8  -6   34.28    2.34
   3  -8   6   33.62    3.27
   3  -8   6   26.86    2.73
  -3   8  -7   30.90    2.60
   3  -8   7   26.33    2.55
  -3   8  -7   32.44    2.98
   3  -8   7   22.71    2.54
   3  -8   7   24.64    2.81
  -3   8  -8  112.74    4.48
   3  -8   8  116.35    5.39
   3  -8   8   79.28    3.59
   3  -8   8   92.58    4.82
  -3   8  -9    6.30    1.40
   3  -8   9   10.12    2.19
   3  -8   9    6.04    1.99
  -3   8 -10   12.62    1.35
   3  -8  10   11.74    1.85
   3  -8  10    8.70    1.84
  -3   7   5  144.80    4.83
  -3   7   5  146.57    4.82
  -3   7   4   21.48    2.34
  -3   7   4   22.48    2.35
   3  -7  -4   17.27    2.20
  -3   7   3  173.62    6.65
  -3   7   3  171.51    6.51
   3  -7  -3  163.18    6.57
  -3   7   2   21.83    2.87
   3  -7  -2   17.14    2.30
  -3   7   2   21.21    2.80
   3  -7  -2   17.04    3.02
  -3   7   1  105.07    5.40
   3  -7  -1   93.28    4.86
  -3   7   1  103.36    5.24
   3  -7   0  274.04    9.09
  -3   7   0  298.34    9.33
  -3   7   0  295.12    9.37
   3  -7   1  197.17    7.83
   3  -7   1  197.65    7.52
   3  -7   2  233.77    9.05
   3  -7   2  236.01    8.65
  -3   7  -3   -0.35    1.66
   3  -7   3   -0.07    2.50
   3  -7   3    0.99    2.29
  -3   7  -3    1.90    1.95
   3  -7   3    0.39    2.64
  -3   7  -3    0.58    1.90
  -3   7  -4  160.99    6.37
   3  -7   4  190.03    7.45
   3  -7   4  176.41    7.99
  -3   7  -4  176.53    6.71
   3  -7   4  175.79    7.42
  -3   7  -4  180.51    6.81
   3  -7   4  151.49    6.27
  -3   7  -5 1030.71   23.41
  -3   7  -5 1087.90   23.47
  -3   7  -5 1068.73   23.35
   3  -7   5 1053.63   24.25
   3  -7   5 1121.35   24.54
  -3   7  -6   26.52    2.79
  -3   7  -6   25.70    2.45
   3  -7   6   26.83    2.97
   3  -7   6   28.72    4.06
  -3   7  -6   29.46    3.42
  -3   7  -6   24.83    2.43
   3  -7   6   22.64    2.95
   3  -7   6   19.31    3.37
  -3   7  -7 1006.33   21.46
   3  -7   7 1035.80   23.54
  -3   7  -7  915.86   20.11
   3  -7   7  907.65   21.12
  -3   7  -7 1058.45   22.11
  -3   7  -7  931.32   20.11
   3  -7   7  787.60   20.27
   3  -7   7  957.06   23.09
  -3   7  -8  133.32    5.45
   3  -7   8  132.31    6.49
  -3   7  -8  134.36    5.77
   3  -7   8  120.80    6.46
  -3   7  -9    1.36    1.45
   3  -7   9    0.43    2.16
   3  -7   9    2.38    2.60
  -3   7 -10   57.12    2.95
   3  -7  10   48.41    3.30
  -3   7 -11   95.98    3.42
   3  -6  -7    2.09    1.25
   3  -6  -6    2.34    1.43
  -3   6   6    1.58    1.23
   3  -6  -6    0.79    1.36
  -3   6   6    1.00    1.17
   3  -6  -5  161.95    5.68
  -3   6   5  164.38    6.05
   3  -6  -5  162.79    6.14
  -3   6   5  157.33    6.05
   3  -6  -4  173.92    6.10
  -3   6   4  192.02    7.08
  -3   6   4  191.94    6.99
   3  -6  -4  177.44    7.19
   3  -6  -3   -0.59    1.37
   3  -6  -3    0.69    1.35
  -3   6   3    1.19    1.94
   3  -6  -3    0.56    2.38
  -3   6   3    0.16    1.88
  -3   6   2   18.15    2.88
   3  -6  -2   16.13    2.54
  -3   6   2   13.36    1.96
  -3   6   2   22.53    2.97
   3  -6  -2   15.03    2.13
  -3   6   1   99.34    5.43
   3  -6  -1   87.46    5.04
   3  -6  -1   85.48    4.74
  -3   6   1   98.73    5.30
  -3   6   0   50.76    4.02
   3  -6   0   44.86    3.83
  -3   6   0   52.66    4.06
   3  -6   0   46.11    4.48
   3  -6   0   47.04    3.95
  -3   6   0   38.15    2.88
  -3   6  -1   46.29    3.83
   3  -6   1   39.32    3.94
  -3   6  -1   42.42    3.67
   3  -6   1   40.80    4.22
  -3   6  -1   33.96    2.74
   3  -6   2  202.64    8.24
   3  -6   2  204.71    8.02
   3  -6   2  199.07    8.37
  -3   6  -3  555.05   14.63
   3  -6   3  639.85   16.44
  -3   6  -3  660.91   15.80
   3  -6   3  598.74   16.43
   3  -6   3  586.63   15.52
  -3   6  -3  653.08   15.85
  -3   6  -4  676.68   17.12
   3  -6   4  764.16   18.51
  -3   6  -4  763.88   17.95
  -3   6  -4  769.78   17.88
   3  -6   4  693.02   18.28
   3  -6   4  776.49   18.65
  -3   6  -5 3529.78   70.72
  -3   6  -5 3783.71   71.03
   3  -6   5 3772.85   73.68
  -3   6  -5 3750.53   71.05
   3  -6   5 3746.37   71.88
   3  -6   5 3748.75   72.80
  -3   6  -6  577.28   14.62
   3  -6   6  629.51   16.96
  -3   6  -6  593.05   14.47
   3  -6   6  575.31   14.96
  -3   6  -6  607.91   15.26
  -3   6  -6  606.93   14.49
   3  -6   6  517.47   14.14
   3  -6   6  550.60   16.64
  -3   6  -7    1.24    1.77
   3  -6   7    6.64    3.09
   3  -6   7    3.39    1.73
  -3   6  -7    1.07    1.43
  -3   6  -7    3.11    2.43
  -3   6  -7    1.94    1.53
   3  -6   7    4.98    3.39
  -3   6  -8   43.89    3.31
   3  -6   8   41.32    4.21
  -3   6  -8   40.00    2.66
  -3   6  -8   45.22    3.78
  -3   6  -8   40.19    2.62
  -3   6  -9  122.72    5.06
  -3   6  -9  118.25    4.70
   3  -6   9  105.58    5.62
  -3   6 -10   15.73    1.96
  -3   6 -10   14.77    1.95
   3  -6  10   13.95    2.36
   3  -6  10   19.44    3.35
  -3   6 -11   30.59    2.17
   3  -6  11   29.18    3.16
   3  -5  -8   61.85    3.26
   3  -5  -8   54.65    2.76
   3  -5  -7    8.94    2.01
   3  -5  -7    8.76    1.70
   3  -5  -7    5.95    1.79
   3  -5  -6 1360.59   26.84
  -3   5   6 1077.14   25.59
  -3   5   6 1112.48   25.60
   3  -5  -6 1389.56   26.22
   3  -5  -6 1295.30   26.92
   3  -5  -5   43.22    3.41
  -3   5   5   42.96    3.26
   3  -5  -5   43.09    2.93
   3  -5  -5   38.78    3.62
  -3   5   5   42.11    3.29
   3  -5  -4  108.27    4.89
  -3   5   4  113.75    5.34
   3  -5  -4   92.79    4.34
  -3   5   4  111.69    5.22
   3  -5  -4  109.20    4.45
   3  -5  -4  108.79    5.83
   3  -5  -3  498.86   12.47
  -3   5   3  549.07   13.95
   3  -5  -3  459.80   12.54
   3  -5  -3  467.48   12.91
  -3   5   3  540.90   13.74
   3  -5  -2   13.16    2.34
   3  -5  -2   12.31    2.44
   3  -5  -2   13.29    1.88
  -3   5   2   12.04    2.45
  -3   5   2   12.36    2.45
   3  -5  -1   54.91    4.04
   3  -5  -1   52.87    3.85
  -3   5   1   62.12    4.06
  -3   5   1   60.13    4.07
   3  -5  -1   59.46    4.44
   3  -5   0   21.79    3.09
  -3   5   0   23.32    2.79
  -3   5   0   18.69    2.18
  -3   5   0   24.69    2.82
   3  -5   0   18.46    3.08
   3  -5   1   36.76    3.70
  -3   5  -1   38.48    3.26
   3  -5   1   42.55    3.53
  -3   5  -1   36.51    3.26
   3  -5   1   36.37    3.60
  -3   5  -1   36.58    2.59
   3  -5   1   31.74    2.81
   3  -5   2  185.86    7.20
  -3   5  -2  197.95    6.03
   3  -5   2  181.85    7.22
   3  -5   2  180.39    6.99
  -3   5  -3   19.48    2.05
   3  -5   3   21.74    2.78
   3  -5   3   19.18    3.35
  -3   5  -3   21.54    2.13
   3  -5   3   20.98    2.78
   3  -5   3   22.21    3.25
  -3   5  -4   30.85    2.58
   3  -5   4   30.98    4.00
   3  -5   4   35.04    3.22
  -3   5  -4   35.52    2.48
  -3   5  -4   39.66    3.10
  -3   5  -4   37.54    3.03
   3  -5   4   37.38    3.23
   3  -5   4   37.17    4.05
  -3   5  -5    1.31    1.46
   3  -5   5    1.24    2.72
   3  -5   5    1.00    1.79
  -3   5  -5    1.81    1.33
  -3   5  -5    2.24    1.70
   3  -5   5    1.17    1.76
  -3   5  -5    1.08    1.58
   3  -5   5    3.88    3.08
  -3   5  -6  102.38    4.80
   3  -5   6   98.06    5.98
  -3   5  -6  116.14    5.03
   3  -5   6   92.82    4.73
  -3   5  -6   90.79    3.91
  -3   5  -6  126.99    5.58
  -3   5  -6  116.56    5.00
   3  -5   6   96.67    6.51
  -3   5  -7  498.62   12.72
  -3   5  -7  501.22   12.19
   3  -5   7  501.60   14.15
  -3   5  -7  491.90   12.44
   3  -5   7  414.70   11.81
  -3   5  -7  432.87   11.08
  -3   5  -7  505.11   13.15
  -3   5  -7  498.18   12.42
  -3   5  -8  478.41   12.26
  -3   5  -8  447.25   11.79
   3  -5   8  447.45   12.98
  -3   5  -8  462.21   11.67
  -3   5  -8  397.55   10.54
  -3   5  -8  472.25   12.62
  -3   5  -8  456.91   11.59
   3  -5   8  518.26   15.00
  -3   5  -9   75.31    4.00
  -3   5  -9   72.26    4.02
   3  -5   9   70.21    4.25
  -3   5  -9   68.85    3.31
  -3   5  -9   69.18    3.28
   3  -5   9   69.98    5.87
  -3   5 -10  302.75    8.51
   3  -5  10  303.46   10.23
  -3   5 -11    2.48    1.28
  -3   5 -11    2.10    1.55
   3  -5  11    2.67    2.29
  -3   5 -12   32.20    1.91
   3  -5  12   23.37    2.33
   3  -4 -10    2.87    1.24
   3  -4 -10    2.81    1.08
   3  -4  -9   65.76    3.60
   3  -4  -9   64.65    3.33
   3  -4  -8 1323.88   26.91
   3  -4  -8 1306.05   26.55
   3  -4  -7    2.21    2.15
   3  -4  -7    1.87    1.87
   3  -4  -7    0.10    1.97
   3  -4  -6 2963.07   58.39
   3  -4  -6 3089.57   58.31
   3  -4  -5  399.74   11.14
  -3   4   5  362.56   10.49
  -3   4   5  366.57   10.43
   3  -4  -5  407.77   10.91
   3  -4  -5  401.31   11.84
   3  -4  -4   79.92    4.25
  -3   4   4   81.08    4.30
   3  -4  -4   77.55    4.14
   3  -4  -4   76.28    3.92
  -3   4   4   80.81    4.24
   3  -4  -4   84.80    4.15
   3  -4  -4   84.71    5.08
   3  -4  -3   21.89    2.30
   3  -4  -3   19.47    2.54
   3  -4  -3   17.03    2.27
  -3   4   3   18.33    2.44
   3  -4  -3   22.58    2.21
  -3   4   3   18.30    2.48
   3  -4  -2    0.29    1.56
   3  -4  -2    0.47    1.26
  -3   4   2    1.38    1.59
   3  -4  -2   -0.61    1.17
   3  -4  -2    0.05    1.87
   3  -4  -2    0.44    2.05
  -3   4   2    1.48    1.53
   3  -4  -1  191.62    7.31
   3  -4  -1  194.65    6.99
  -3   4   1  195.38    6.83
   3  -4  -1  204.05    7.44
  -3   4   1  196.21    6.90
   3  -4   0  383.56   11.05
  -3   4   0  378.39   10.40
  -3   4   0  370.17    9.78
  -3   4   0  368.32   10.26
   3  -4   0  379.79   10.75
   3  -4   0  341.18    9.60
   3  -4   1    3.30    1.71
  -3   4  -1    1.84    1.57
  -3   4  -1    3.57    1.70
   3  -4   1    2.21    1.87
  -3   4  -1    2.86    1.58
   3  -4   1    2.55    1.87
   3  -4   2  473.66   13.29
  -3   4  -2  474.27   12.35
   3  -4   2  489.19   12.70
  -3   4  -2  523.35   11.93
  -3   4  -2  473.78   12.30
   3  -4   2  480.16   12.40
   3  -4   3   28.77    3.32
   3  -4   3   32.02    2.86
  -3   4  -3   30.26    2.54
   3  -4   3   28.65    2.61
   3  -4   3   27.98    3.44
  -3   4  -4   36.98    2.52
   3  -4   4   35.99    3.78
  -3   4  -4   40.94    2.82
  -3   4  -4   40.41    3.03
   3  -4   4   43.15    3.20
  -3   4  -4   39.17    2.98
   3  -4   4   36.71    2.74
   3  -4   4   35.41    4.02
  -3   4  -5   86.24    4.04
   3  -4   5   82.79    5.29
  -3   4  -5   94.28    4.53
   3  -4   5   90.84    4.42
  -3   4  -5   85.80    4.03
  -3   4  -5   80.92    4.27
  -3   4  -5   85.89    4.37
  -3   4  -6   10.67    1.88
  -3   4  -6   13.03    2.07
   3  -4   6   13.20    2.92
   3  -4   6    8.71    1.89
  -3   4  -6    8.96    1.94
  -3   4  -6    7.76    1.90
  -3   4  -6   10.76    2.28
  -3   4  -6   10.43    1.99
   3  -4   6   10.07    3.71
  -3   4  -7   35.89    2.87
  -3   4  -7   36.47    2.99
   3  -4   7   29.99    3.41
  -3   4  -7   37.73    3.03
  -3   4  -7   37.04    2.87
  -3   4  -7   36.60    3.27
  -3   4  -7   37.20    3.01
   3  -4   7   37.96    4.89
  -3   4  -8  106.05    4.87
  -3   4  -8  108.02    5.16
  -3   4  -8  110.74    4.87
  -3   4  -8  110.61    4.72
  -3   4  -8  113.50    4.87
   3  -4   8   97.69    5.10
   3  -4   8  117.72    7.14
  -3   4  -9   31.46    2.75
  -3   4  -9   29.78    3.17
  -3   4  -9   31.74    2.48
  -3   4  -9   34.12    2.70
  -3   4  -9   32.56    2.48
   3  -4   9   33.04    4.39
  -3   4 -10   89.75    4.19
  -3   4 -10   89.90    4.65
  -3   4 -10   92.18    3.99
   3  -4  10   95.04    5.61
  -3   4 -11   48.02    2.82
  -3   4 -11   53.10    3.30
  -3   4 -12    1.96    0.99
  -3   4 -12    1.25    0.90
   3  -3 -10    4.58    1.76
   3  -3 -10    6.56    1.69
   3  -3  -9   45.77    3.52
   3  -3  -9   50.47    3.61
   3  -3  -9   45.80    3.40
   3  -3  -9   46.83    2.89
   3  -3  -8  103.08    5.23
   3  -3  -8  112.37    5.40
   3  -3  -8  100.59    5.17
   3  -3  -8  100.16    5.14
   3  -3  -7  921.97   21.96
   3  -3  -7  973.34   22.21
   3  -3  -7  967.65   22.00
   3  -3  -7  947.18   22.35
   3  -3  -6    0.44    1.41
   3  -3  -6    1.43    2.08
   3  -3  -6    2.38    2.26
   3  -3  -6    0.26    1.81
   3  -3  -6    0.47    2.15
   3  -3  -5  285.20    8.64
   3  -3  -5  267.83    8.44
   3  -3  -5  237.14    7.46
   3  -3  -5  295.20    8.96
  -3   3   5  242.78    7.51
   3  -3  -5  288.08    8.64
   3  -3  -5  295.60    9.39
  -3   3   5  241.60    7.55
   3  -3  -4  655.72   15.26
  -3   3   4  619.01   14.85
   3  -3  -4  663.05   15.93
   3  -3  -4  597.75   14.93
  -3   3   4  614.98   14.77
   3  -3  -4  668.85   15.33
   3  -3  -3  758.62   17.26
   3  -3  -3  795.67   18.44
   3  -3  -3  779.31   17.89
  -3   3   3  763.83   17.41
   3  -3  -3  768.57   17.43
  -3   3   3  773.45   17.52
   3  -3  -3  824.62   18.88
   3  -3  -2  746.42   16.36
   3  -3  -2  769.85   18.24
   3  -3  -2  768.02   17.40
  -3   3   2  746.07   16.91
  -3   3   2  745.40   16.86
   3  -3  -2  711.07   16.57
   3  -3  -2  769.11   17.89
   3  -3  -2  733.53   16.49
  -3   3   1  666.64   15.32
   3  -3  -1  661.09   15.69
  -3   3   1  648.87   15.18
   3  -3  -1  692.08   15.93
   3  -3  -1  628.95   15.21
   3  -3   0    0.39    1.45
  -3   3   0    0.17    1.48
  -3   3   0    2.06    1.32
  -3   3   0    0.64    0.63
   3  -3   0    0.33    1.60
  -3   3   0    2.47    1.40
   3  -3   0    0.77    1.69
   3  -3   1  109.47    5.04
  -3   3  -1  102.85    4.39
   3  -3   1  107.74    4.65
  -3   3  -1  100.81    4.33
  -3   3  -1   93.63    3.25
  -3   3  -1  100.77    4.32
   3  -3   1  105.51    4.45
   3  -3   1   97.58    4.91
   3  -3   2  164.29    6.45
  -3   3  -2  161.61    5.70
  -3   3  -2  179.82    5.81
   3  -3   2  178.57    6.12
  -3   3  -2  168.11    5.74
   3  -3   2  172.84    5.64
   3  -3   2  161.22    6.61
   3  -3   3  143.31    6.11
  -3   3  -3  149.14    5.54
   3  -3   3  149.08    5.66
  -3   3  -3  152.88    5.46
  -3   3  -3  145.91    5.47
   3  -3   4  435.67   12.09
   3  -3   4  448.94   11.48
  -3   3  -4  435.43   11.20
  -3   3  -4  414.22   10.79
   3  -3   5  217.35    7.81
  -3   3  -5  227.72    7.51
  -3   3  -5  211.07    6.55
   3  -3   5  218.62    7.14
  -3   3  -5  222.75    7.12
  -3   3  -5  222.91    7.02
  -3   3  -5  230.80    7.49
   3  -3   5  243.84    9.05
  -3   3  -6  146.15    5.31
  -3   3  -6  145.71    5.79
   3  -3   6  133.31    5.95
  -3   3  -6  159.98    6.12
  -3   3  -6  154.24    5.82
  -3   3  -6  144.54    5.64
  -3   3  -6  155.34    6.04
   3  -3   6  147.70    7.59
  -3   3  -7    0.70    1.41
   3  -3   7   -0.05    1.64
  -3   3  -7    0.50    1.85
  -3   3  -7    0.23    1.88
  -3   3  -7    0.10    1.61
  -3   3  -7    0.20    1.56
   3  -3   7    1.54    3.11
  -3   3  -8    7.10    1.85
  -3   3  -8    6.82    2.38
  -3   3  -8    7.36    2.24
  -3   3  -8    8.60    2.01
  -3   3  -8    8.54    2.01
   3  -3   8    5.69    3.28
  -3   3  -9    6.41    1.82
  -3   3  -9    5.93    2.38
  -3   3  -9    6.77    2.21
  -3   3  -9    4.59    1.53
  -3   3  -9    5.07    1.54
   3  -3   9    5.27    2.92
  -3   3 -10    6.30    1.67
  -3   3 -10    6.79    2.27
  -3   3 -10    5.78    1.96
  -3   3 -10    5.13    1.27
  -3   3 -10    4.68    1.25
   3  -3  10    4.72    2.40
  -3   3 -11   43.24    2.63
  -3   3 -11   39.41    2.49
   3  -3  12    1.99    1.41
   3  -2 -11   38.62    2.66
   3  -2 -10   96.04    4.63
   3  -2 -10   91.97    4.55
   3  -2 -10   92.37    4.48
   3  -2  -9  261.31    8.63
   3  -2  -9  265.24    8.66
   3  -2  -9  253.62    8.47
   3  -2  -8  179.97    7.19
   3  -2  -8  177.62    7.18
   3  -2  -8  182.94    7.17
   3  -2  -8  171.23    7.36
   3  -2  -7    2.47    1.74
   3  -2  -7    4.35    2.36
   3  -2  -7    4.23    2.50
   3  -2  -7    3.54    2.21
   3  -2  -7    5.55    2.51
   3  -2  -6  102.52    5.08
   3  -2  -6   96.80    4.92
   3  -2  -6  104.94    5.26
   3  -2  -6  103.24    5.07
   3  -2  -6  109.94    5.62
   3  -2  -5  592.85   14.24
   3  -2  -5  590.91   14.79
   3  -2  -5  587.03   14.49
   3  -2  -5  576.42   14.32
   3  -2  -4   10.48    2.28
   3  -2  -4   12.06    2.06
   3  -2  -4    9.59    1.85
  -3   2   4    8.31    1.47
   3  -2  -4   10.16    2.01
   3  -2  -4   10.99    2.38
  -3   2   4    7.81    1.45
   3  -2  -4    8.68    1.66
   3  -2  -3 1358.11   28.03
   3  -2  -3 1403.20   29.38
  -3   2   3 1316.83   27.55
   3  -2  -3 1378.67   28.45
  -3   2   3 1326.39   27.52
   3  -2  -3 1392.32   28.24
   3  -2  -3 1430.82   29.09
   3  -2  -3 1354.63   28.15
   3  -2  -2  363.10    9.29
  -3   2   2  363.11    9.32
   3  -2  -2  370.54    9.93
  -3   2   2  357.93    9.24
   3  -2  -2  372.46   10.07
   3  -2  -2  367.28    9.95
   3  -2  -1  281.52    7.43
   3  -2  -1  307.87    8.98
  -3   2   1  280.67    7.79
  -3   2   1  284.92    7.78
   3  -2  -1  285.06    8.25
  -3   2   1  263.10    7.66
   3  -2  -1  291.13    8.52
   3  -2   0    3.58    1.84
   3  -2   0    5.27    1.58
  -3   2   0    2.81    1.27
   3  -2   0    1.89    0.87
  -3   2   0    2.42    0.81
   3  -2   0    3.23    1.51
  -3   2   0    2.44    1.25
  -3   2   0    3.18    1.03
   3  -2   0    3.46    1.82
   3  -2   1  252.25    7.77
  -3   2  -1  242.45    7.04
   3  -2   1  257.34    7.49
   3  -2   1  198.35    6.02
  -3   2  -1  214.05    6.00
  -3   2  -1  237.01    6.97
   3  -2   1  241.69    6.82
   3  -2   1  255.42    7.96
  -3   2  -2  249.09    7.56
   3  -2   2  263.27    7.88
  -3   2  -2  254.72    7.58
   3  -2   2  270.68    8.22
   3  -2   3  864.69   19.21
  -3   2  -3  846.19   18.75
   3  -2   3  876.00   18.89
  -3   2  -3  844.75   18.70
   3  -2   4  195.67    6.80
   3  -2   4  204.05    6.61
  -3   2  -4  183.51    5.82
   3  -2   4  209.53    7.92
  -3   2  -5  361.96    9.94
   3  -2   5  330.16    9.71
   3  -2   5  348.52    9.50
   3  -2   5  367.98   11.53
  -3   2  -6  311.50    8.69
  -3   2  -6  337.51    9.87
  -3   2  -6  349.03   10.03
  -3   2  -6  294.90    8.41
  -3   2  -6  352.68   10.00
   3  -2   6  321.82   11.16
  -3   2  -7   40.22    2.88
  -3   2  -7   42.00    3.68
  -3   2  -7   42.79    3.42
  -3   2  -7   41.26    2.68
  -3   2  -7   41.98    3.38
   3  -2   7   39.85    4.27
  -3   2  -8  301.29    8.72
  -3   2  -8  305.72    9.97
  -3   2  -8  312.45    9.25
  -3   2  -8  319.00    9.26
   3  -2   8  294.63   10.15
  -3   2  -9   61.37    3.60
  -3   2  -9   64.07    3.56
  -3   2  -9   66.08    4.17
  -3   2  -9   62.30    3.52
   3  -2   9   56.95    4.12
  -3   2 -10   66.97    3.42
  -3   2 -10   60.63    3.06
  -3   2 -10   70.35    3.90
  -3   2 -10   60.27    3.14
  -3   2 -10   62.09    3.06
   3  -2  10   51.80    3.42
   3  -2  11   74.74    4.02
  -3   2 -11   83.09    3.35
   3  -1 -12  104.21    3.86
   3  -1 -11   63.90    3.56
   3  -1 -11   41.62    2.50
   3  -1 -10   25.34    2.87
   3  -1 -10   22.14    2.54
   3  -1  -9  132.06    6.06
   3  -1  -9  133.30    5.91
   3  -1  -9  130.24    5.92
   3  -1  -8   84.03    4.92
   3  -1  -8   68.89    4.15
   3  -1  -8   76.31    4.66
   3  -1  -8   82.47    5.07
   3  -1  -7  999.68   22.84
   3  -1  -7  924.60   22.53
   3  -1  -7  969.15   22.58
   3  -1  -6   24.79    2.80
   3  -1  -6   19.84    2.75
   3  -1  -6   18.50    1.93
   3  -1  -6   20.40    2.60
   3  -1  -6   16.77    2.10
   3  -1  -5  116.96    5.07
   3  -1  -5  114.40    5.42
   3  -1  -5  105.46    4.54
   3  -1  -5  117.35    5.07
   3  -1  -5  118.34    5.55
   3  -1  -5  110.23    4.75
   3  -1  -4    2.52    1.85
   3  -1  -4    3.13    1.73
   3  -1  -4    2.92    1.45
   3  -1  -4    4.43    1.72
   3  -1  -4    2.96    1.94
   3  -1  -4    3.25    1.63
   3  -1  -3  152.71    5.38
  -3   1   3  135.84    4.52
   3  -1  -3  154.69    5.58
  -3   1   3  138.54    4.53
   3  -1  -3  150.65    5.69
   3  -1  -3  152.53    5.78
   3  -1  -2    7.04    1.97
   3  -1  -2    3.67    1.39
  -3   1   2    2.96    1.09
   3  -1  -2    4.35    1.66
  -3   1   2    3.00    1.10
   3  -1  -2    5.89    1.89
  -3   1   2    5.24    1.14
   3  -1  -1 1135.28   23.71
  -3   1   1 1148.61   23.76
  -3   1   1 1171.69   24.07
   3  -1  -1 1218.79   24.76
  -3   1   1 1145.13   23.72
   3  -1  -1 1229.34   25.12
   3  -1  -1 1141.82   24.13
   3  -1  -1 1198.95   25.43
  -3   1   1 1088.83   23.83
   3  -1   0  156.07    4.86
   3  -1   0  160.77    5.88
  -3   1   0  152.27    5.14
  -3   1   0  155.28    5.32
   3  -1   0  160.19    5.70
  -3   1   0  155.26    5.15
   3  -1   0  138.60    4.96
   3  -1   1 1158.90   23.91
  -3   1  -1 1087.00   23.08
  -3   1  -1 1117.64   23.12
   3  -1   1 1140.58   23.72
  -3   1  -1 1081.01   23.02
   3  -1   1 1203.60   24.55
  -3   1  -2 1044.91   22.77
  -3   1  -2 1040.09   22.51
   3  -1   2 1089.57   23.08
  -3   1  -2 1045.24   22.70
   3  -1   2 1049.82   22.98
  -3   1  -3 3391.19   65.40
  -3   1  -3 3391.01   65.07
   3  -1   3 3492.25   65.36
  -3   1  -3 3395.61   65.34
   3  -1   3 3554.70   66.63
  -3   1  -4   20.08    2.43
  -3   1  -4   19.20    2.53
   3  -1   4   19.46    2.13
  -3   1  -4   21.99    2.50
   3  -1   4   20.82    3.09
  -3   1  -5   17.25    2.57
   3  -1   5   15.94    3.09
  -3   1  -6   72.32    3.65
  -3   1  -6   77.32    4.52
  -3   1  -6   82.63    4.67
  -3   1  -6   72.26    3.86
  -3   1  -6   81.07    4.58
   3  -1   6   81.47    5.02
  -3   1  -7  378.05   10.51
  -3   1  -7  416.02   11.71
  -3   1  -7  423.21   11.66
  -3   1  -7  396.94   10.77
  -3   1  -7  418.12   11.66
   3  -1   7  384.79   11.89
  -3   1  -8   95.59    4.45
  -3   1  -8  104.51    5.00
  -3   1  -8  100.51    5.29
  -3   1  -8   90.13    4.22
  -3   1  -8   99.81    4.87
   3  -1   8   92.72    5.03
   3  -1   9  107.43    5.77
  -3   1  -9  110.56    4.66
  -3   1  -9  119.85    4.96
  -3   1  -9  117.03    4.88
   3  -1  10    1.89    2.19
  -3   1 -10    1.14    1.24
  -3   1 -10    0.97    1.14
  -3   1 -10    0.83    1.15
   3  -1  11   64.65    3.48
   3   0 -12   -0.09    1.28
   3   0 -11    9.92    2.07
   3   0 -11    6.56    1.74
   3   0 -10    0.85    1.45
   3   0 -10    0.20    1.85
   3   0 -10    3.41    1.97
   3   0  -9   70.22    4.24
   3   0  -9   79.66    4.85
   3   0  -8  188.09    7.25
   3   0  -8  178.06    7.20
   3   0  -8  194.62    7.69
   3   0  -7   88.39    4.74
   3   0  -7   78.81    4.82
   3   0  -7   76.04    4.13
   3   0  -6   78.11    4.38
   3   0  -6   73.90    4.72
   3   0  -6   67.56    3.54
   3   0  -6   86.34    5.05
   3   0  -6   80.37    4.34
   3   0  -5  224.75    7.52
   3   0  -5  217.65    7.23
   3   0  -5  235.40    7.93
   3   0  -4 1167.53   24.88
   3   0  -4 1172.81   25.86
   3   0  -4 1149.43   24.98
   3   0  -4 1216.64   25.77
   3   0  -4 1147.11   25.56
   3   0  -3  122.10    4.82
   3   0  -3  121.97    5.39
   3   0  -3  120.02    5.04
   3   0  -3  131.05    5.28
   3   0  -3  124.97    5.49
   3   0  -2 1454.43   29.65
   3   0  -2 1515.52   30.72
  -3   0   2 1420.78   28.99
  -3   0   2 1442.41   29.54
  -3   0   2 1432.89   28.96
   3   0  -2 1535.90   30.36
   3   0  -1   23.71    2.15
  -3   0   1   24.13    2.00
  -3   0   1   23.46    2.28
   3   0  -1   23.01    2.50
   3   0  -1   25.85    2.49
  -3   0   1   23.59    1.96
   3   0  -1   26.36    2.38
   3   0   0  125.84    5.13
   3   0   0  120.28    4.67
  -3   0   0  131.67    4.81
  -3   0   0  132.75    4.91
   3   0   0  130.95    5.27
  -3   0   0  128.01    4.73
   3   0   0  133.41    5.69
   3   0   1 1068.56   24.22
   3   0   1 1174.92   25.19
  -3   0  -1 1226.91   25.18
  -3   0  -1 1179.69   24.83
   3   0   1 1269.68   25.78
  -3   0  -1 1218.17   25.11
   3   0   1 1325.54   26.65
   3   0   2   34.11    2.69
   3   0   2   30.47    2.51
  -3   0  -2   39.16    2.88
  -3   0  -2   36.44    2.85
   3   0   2   38.56    2.91
  -3   0  -2   35.54    2.76
   3   0   2   35.69    3.33
  -3   0  -2   35.12    2.43
   3   0   3  492.68   13.07
  -3   0  -3  550.80   13.63
  -3   0  -3  516.18   12.88
   3   0   3  561.37   13.23
  -3   0  -3  556.50   13.59
   3   0   3  576.79   14.44
  -3   0  -3  446.63   11.72
   3   0   4    6.53    2.17
  -3   0  -4    5.66    2.11
  -3   0  -4    6.96    2.10
   3   0   4    4.36    1.51
  -3   0  -4    7.81    2.07
   3   0   4    5.04    2.55
   3   0   5  455.43   13.17
  -3   0  -5  483.83   12.59
   3   0   5  455.50   13.12
   3   0   6 1538.33   34.28
  -3   0  -6 1622.28   33.37
  -3   0  -6 1646.14   33.10
   3   0   6 1500.06   33.57
   3   0   7  122.86    6.52
  -3   0  -7  120.82    4.93
  -3   0  -7  135.62    5.95
  -3   0  -7  133.13    5.99
  -3   0  -7  136.82    5.69
  -3   0  -7  133.31    5.90
   3   0   7  111.70    5.34
   3   0   8 1744.37   40.09
  -3   0  -8 1767.65   37.88
  -3   0  -8 2029.54   39.46
  -3   0  -8 2017.84   39.53
  -3   0  -8 1904.83   38.59
  -3   0  -8 2068.30   39.44
  -3   0  -9  269.19    7.93
  -3   0  -9  259.22    8.03
  -3   0  -9  259.93    7.82
   3   0  10   24.17    2.57
  -3   0 -10   23.52    1.79
  -3   0 -10   26.72    1.86
   3   1 -12  179.84    5.46
   3   1 -12  157.05    4.96
   3   1 -11   12.80    1.93
   3   1 -11   15.61    2.23
   3   1 -11   16.26    2.25
   3   1 -10 1085.56   23.43
   3   1 -10 1048.41   23.52
   3   1  -9    2.05    2.17
   3   1  -9    2.72    2.39
   3   1  -9    1.77    1.70
   3   1  -8  253.45    9.10
   3   1  -8  236.90    8.39
   3   1  -7  120.58    5.59
   3   1  -7  123.21    6.27
   3   1  -7  129.12    6.20
   3   1  -7  108.70    4.66
   3   1  -7  119.40    5.86
   3   1  -6    3.33    2.12
   3   1  -6    3.17    1.61
   3   1  -6    3.98    2.42
   3   1  -6    4.10    2.20
   3   1  -5   78.11    4.18
   3   1  -5   79.63    4.80
   3   1  -5   76.58    4.01
   3   1  -5   78.65    4.55
   3   1  -5   78.43    4.75
   3   1  -4  570.29   13.86
   3   1  -4  556.33   14.67
   3   1  -4  530.21   13.84
   3   1  -4  577.28   14.46
   3   1  -4  571.38   14.78
   3   1  -3  998.31   21.38
   3   1  -3  979.30   22.16
   3   1  -3 1031.91   21.81
   3   1  -2    0.15    1.71
   3   1  -2    1.98    1.67
  -3  -1   2    0.60    1.47
  -3  -1   2    0.58    1.03
   3   1  -2    0.71    1.62
   3   1  -2    1.11    1.68
  -3  -1   2    0.94    1.03
   3   1  -2    3.40    2.05
   3   1  -1  103.20    4.77
   3   1  -1  121.51    4.87
  -3  -1   1  100.09    4.18
  -3  -1   1  118.45    4.45
   3   1  -1  106.99    4.91
  -3  -1   1   99.40    4.14
   3   1  -1  101.02    4.22
   3   1  -1  110.38    5.41
   3   1   0  421.93   11.42
   3   1   0  461.10   12.15
  -3  -1   0  501.29   12.14
  -3  -1   0  485.33   11.79
   3   1   0  508.70   12.84
  -3  -1   0  501.65   12.10
   3   1   0  536.58   13.65
   3   1   1  391.21   10.79
   3   1   1  375.95   10.46
  -3  -1  -1  435.36   11.21
  -3  -1  -1  399.99   10.54
   3   1   1  447.33   11.62
  -3  -1  -1  441.60   11.20
   3   1   1  454.33   12.32
  -3  -1  -1  407.20   10.84
   3   1   2   88.89    4.73
  -3  -1  -2   99.40    4.73
  -3  -1  -2   89.02    4.22
   3   1   2  100.87    4.69
  -3  -1  -2   97.65    4.67
   3   1   2  100.16    5.27
  -3  -1  -2   88.87    4.27
   3   1   3  615.44   16.27
  -3  -1  -3  684.89   16.29
  -3  -1  -3  617.61   15.24
  -3  -1  -3  689.63   16.28
   3   1   3  681.08   15.83
   3   1   3  677.78   16.76
  -3  -1  -3  595.36   14.96
   3   1   4  597.00   15.56
  -3  -1  -4  637.69   15.40
  -3  -1  -4  579.13   14.37
  -3  -1  -4  640.37   15.38
   3   1   4  583.04   15.20
   3   1   5  154.20    7.14
  -3  -1  -5  181.99    7.00
  -3  -1  -5  167.20    6.34
  -3  -1  -5  182.99    7.00
   3   1   5  161.85    6.49
   3   1   6 3282.65   65.50
  -3  -1  -6 3414.20   63.83
   3   1   7   79.21    5.27
  -3  -1  -7   91.32    4.89
  -3  -1  -7   89.67    4.72
  -3  -1  -7   89.26    4.60
  -3  -1  -7   91.71    4.88
   3   1   8    9.82    1.75
   3   1   8   11.17    2.71
  -3  -1  -8   18.40    2.42
  -3  -1  -8   16.57    2.45
  -3  -1  -8   22.95    2.54
   3   1   9    4.43    1.92
  -3  -1  -9    5.17    1.38
  -3  -1  -9    6.44    1.44
   3   2 -12   21.66    1.88
   3   2 -12   15.93    1.59
   3   2 -12   21.11    2.02
   3   2 -11   79.47    3.94
   3   2 -11   78.74    4.11
   3   2 -11   83.84    4.24
   3   2 -10   59.49    3.75
   3   2 -10   60.87    4.12
   3   2 -10   55.49    3.97
   3   2 -10   52.50    3.54
   3   2  -9  567.02   14.73
   3   2  -9  607.17   15.90
   3   2  -9  574.33   15.36
   3   2  -8   49.61    4.29
   3   2  -8   41.74    4.03
   3   2  -7  275.08    9.38
   3   2  -7  282.91    9.79
   3   2  -6  456.52   12.41
   3   2  -6  458.13   13.43
   3   2  -6  465.22   12.90
   3   2  -6  466.36   13.58
   3   2  -5 4964.28   93.09
   3   2  -5 4943.45   94.39
   3   2  -5 4886.60   93.47
   3   2  -5 4764.73   93.24
   3   2  -4 1842.63   37.79
   3   2  -4 1815.39   38.58
   3   2  -4 1812.43   37.84
   3   2  -4 1818.26   38.19
   3   2  -4 1943.77   39.44
   3   2  -3  210.07    7.14
   3   2  -3  196.74    7.34
   3   2  -3  198.90    6.86
   3   2  -3  200.11    7.82
   3   2  -2  929.57   22.69
   3   2  -2 1149.69   24.31
   3   2  -2 1144.12   24.12
  -3  -2   2  998.57   22.23
   3   2  -2 1168.33   24.70
   3   2  -2 1137.63   23.33
   3   2  -2 1199.27   25.31
   3   2  -1  431.47   11.61
   3   2  -1  432.91   11.82
  -3  -2   1  435.07   11.20
  -3  -2   1  418.10   10.67
   3   2  -1  496.81   12.77
  -3  -2   1  450.70   11.27
   3   2  -1  488.33   13.12
   3   2   0  104.39    4.90
  -3  -2   0  103.34    4.63
  -3  -2   0   98.19    4.13
  -3  -2   0  107.66    4.70
   3   2   0  121.94    5.61
   3   2   0  114.82    5.70
  -3  -2   0  108.41    5.10
   3   2   1  146.41    6.24
  -3  -2  -1  151.76    5.91
  -3  -2  -1  151.09    5.88
   3   2   1  162.34    6.44
   3   2   1  150.83    6.55
  -3  -2  -1  152.81    6.12
   3   2   2   24.63    3.11
  -3  -2  -2   26.73    2.83
  -3  -2  -2   23.81    2.42
  -3  -2  -2   27.28    2.86
   3   2   2   28.38    2.86
   3   2   2   26.46    3.11
  -3  -2  -2   20.93    2.73
   3   2   3   79.06    4.93
  -3  -2  -3   77.71    4.53
  -3  -2  -3   67.50    3.75
  -3  -2  -3   79.06    4.52
   3   2   3   72.64    4.00
   3   2   3   68.35    4.25
  -3  -2  -3   67.32    3.97
   3   2   4   -1.41    2.70
  -3  -2  -4   -0.09    1.58
  -3  -2  -4   -0.94    1.75
  -3  -2  -4    0.06    2.04
  -3  -2  -4   -0.40    1.99
   3   2   5  189.41    8.03
  -3  -2  -5  220.09    7.86
  -3  -2  -5  182.33    6.55
  -3  -2  -5  209.49    7.69
   3   2   6    7.57    2.78
  -3  -2  -6    4.34    1.26
  -3  -2  -6    6.31    2.03
  -3  -2  -6    8.78    2.36
  -3  -2  -6   10.59    2.41
   3   2   7   90.96    4.94
  -3  -2  -7   79.59    3.86
  -3  -2  -8  189.84    5.93
  -3  -2  -8  187.81    5.88
   3   3 -12   44.86    2.31
   3   3 -12   48.66    2.66
   3   3 -12   52.65    2.76
   3   3 -11  257.84    7.31
   3   3 -11  272.75    8.19
   3   3 -11  268.99    8.02
   3   3 -10   44.46    3.21
   3   3 -10   43.02    3.69
   3   3 -10   45.85    3.58
   3   3  -9    1.67    1.96
   3   3  -9    2.49    2.46
   3   3  -9    2.97    2.49
   3   3  -8  257.44    8.51
   3   3  -8  269.83    9.61
   3   3  -8  269.70    9.25
   3   3  -8  284.85    9.85
   3   3  -7 2325.59   45.91
   3   3  -7 2256.63   44.95
   3   3  -6  605.18   16.39
   3   3  -6  613.66   15.90
   3   3  -6  580.11   15.41
   3   3  -5 3902.82   69.81
   3   3  -5 3867.77   70.80
   3   3  -5 3623.13   69.76
   3   3  -5 3664.80   69.98
   3   3  -5 4041.77   71.79
   3   3  -4  487.07   12.82
   3   3  -4  488.18   13.29
   3   3  -4  466.70   12.53
   3   3  -4  494.80   14.07
   3   3  -3   22.39    2.69
   3   3  -3   33.77    3.31
   3   3  -3   30.54    3.08
   3   3  -3   31.97    3.49
   3   3  -3   36.82    3.99
   3   3  -2  216.66    7.91
   3   3  -2  217.02    7.84
   3   3  -2  240.59    7.58
   3   3  -2  256.02    8.99
   3   3  -2  266.56    9.33
   3   3  -1    2.94    2.02
  -3  -3   1    1.73    1.46
   3   3  -1    4.37    2.29
  -3  -3   1    4.02    1.55
   3   3  -1    4.27    2.44
   3   3   0  246.92    8.85
  -3  -3   0  256.76    8.30
  -3  -3   0  255.08    8.26
   3   3   0  275.77    9.27
   3   3   0  251.23    8.96
  -3  -3   0  267.36    8.99
   3   3   1  198.23    7.85
  -3  -3  -1  215.41    7.53
  -3  -3  -1  203.78    7.38
   3   3   1  221.74    7.93
   3   3   1  183.77    7.34
  -3  -3  -1  206.53    7.65
   3   3   2    4.10    2.48
  -3  -3  -2    4.15    2.17
  -3  -3  -2    7.36    2.23
   3   3   2    4.32    1.97
  -3  -3  -2    5.87    2.20
   3   3   2    3.66    1.88
   3   3   3  203.07    8.32
  -3  -3  -3  236.00    8.35
  -3  -3  -3  241.02    8.37
  -3  -3  -3  200.52    7.31
   3   3   4   46.23    4.08
  -3  -3  -4   50.27    3.90
  -3  -3  -4   49.14    3.69
  -3  -3  -4   48.44    3.86
  -3  -3  -4   40.75    3.04
   3   3   5   60.21    4.32
  -3  -3  -5   71.10    4.22
  -3  -3  -5   72.93    4.08
  -3  -3  -5   70.50    4.21
   3   3   6  123.42    5.58
  -3  -3  -6  136.38    5.34
  -3  -3  -6  140.71    5.22
  -3  -3  -6  142.44    5.42
   3   3   7   -0.37    1.48
   3   4 -12    3.69    1.24
   3   4 -12    2.96    1.27
   3   4 -11   29.61    2.60
   3   4 -11   28.86    2.53
   3   4 -10    1.23    1.88
   3   4  -9   76.41    4.76
   3   4  -9   81.58    4.69
   3   4  -8   28.27    3.53
   3   4  -8   31.13    3.49
   3   4  -8   27.31    2.74
   3   4  -7    6.03    2.69
   3   4  -7    7.73    2.69
   3   4  -7    6.74    3.01
   3   4  -6  330.70   10.60
   3   4  -6  331.89   10.32
   3   4  -6  332.62   10.29
   3   4  -6  348.85   11.27
   3   4  -5    3.63    1.86
  -3  -4   5    6.77    2.76
   3   4  -5    5.76    2.52
   3   4  -5    5.68    2.46
   3   4  -5    4.77    2.42
   3   4  -5    7.82    3.05
   3   4  -4  265.23    9.26
   3   4  -4  291.62    9.68
   3   4  -4  309.98    9.67
   3   4  -4  334.30   10.96
  -3  -4   4  334.40   10.33
   3   4  -3  250.02    8.98
   3   4  -3  247.09    8.59
   3   4  -3  274.55    8.78
   3   4  -3  327.74   10.40
   3   4  -3  299.55   10.16
  -3  -4   3  314.41    9.88
   3   4  -2  376.44   11.69
  -3  -4   2  391.67   11.64
   3   4  -1  996.89   23.71
  -3  -4   1  977.78   22.10
  -3  -4   1  975.97   22.04
   3   4  -1  998.71   23.49
   3   4   0  184.41    7.57
  -3  -4   0  185.04    6.71
  -3  -4   0  184.71    6.68
   3   4   0  175.19    6.84
   3   4   1    0.96    2.26
  -3  -4  -1    1.69    2.16
  -3  -4  -1    0.51    1.67
   3   4   1    2.45    1.86
  -3  -4  -1    0.80    1.74
   3   4   2  270.88    9.40
  -3  -4  -2  278.71    8.69
  -3  -4  -2  261.06    8.23
  -3  -4  -2  271.46    8.59
   3   4   2  251.61    8.05
  -3  -4  -2  254.09    8.49
   3   4   3    0.99    2.24
  -3  -4  -3    0.25    1.68
  -3  -4  -3    1.35    1.64
  -3  -4  -3    0.89    1.76
  -3  -4  -3    1.29    1.68
   3   4   4   31.10    3.11
  -3  -4  -4   28.12    2.58
  -3  -4  -4   30.68    2.58
  -3  -4  -4   30.05    2.59
  -3  -4  -4   23.27    2.27
   3   4   5   16.74    2.23
  -3  -4  -5   10.05    1.31
  -3  -4  -5   15.20    1.85
  -3  -4  -5   15.16    1.85
   3   5 -11   42.81    2.54
   3   5 -10   92.56    4.23
   3   5 -10   90.57    4.16
  -3  -5  10   81.70    3.34
   3   5  -9  315.79    8.96
   3   5  -9  307.42    8.83
   3   5  -9  302.89    9.02
  -3  -5   9  296.80    7.96
   3   5  -8   33.37    3.21
   3   5  -8   33.21    3.20
   3   5  -8   33.90    3.49
  -3  -5   8   34.00    2.89
   3   5  -8   31.99    2.66
   3   5  -7   89.51    4.92
   3   5  -7   84.77    4.90
   3   5  -7   95.04    5.43
  -3  -5   7   93.57    4.65
   3   5  -7   93.39    4.76
   3   5  -6    1.09    1.53
  -3  -5   6    0.71    2.03
   3   5  -6    1.64    2.02
   3   5  -6    2.39    2.14
   3   5  -6    1.23    1.96
   3   5  -6    1.62    2.43
   3   5  -5   31.24    3.12
   3   5  -5   35.89    3.20
   3   5  -5   34.71    3.32
   3   5  -5   39.62    3.78
  -3  -5   5   40.86    3.61
   3   5  -4  221.19    7.99
   3   5  -4  222.54    7.62
   3   5  -4  243.40    8.65
   3   5  -4  254.77    9.15
  -3  -5   4  248.59    8.50
   3   5  -3   12.59    2.54
  -3  -5   3   11.41    2.85
   3   5  -3   12.76    2.86
   3   5  -3    8.75    2.45
   3   5  -2   85.20    4.96
   3   5  -2   81.95    4.45
   3   5  -2  100.19    5.34
  -3  -5   2   98.95    5.22
   3   5  -1   10.22    2.47
  -3  -5   1   15.42    2.67
   3   5  -1   12.98    2.60
   3   5   0   69.21    4.35
  -3  -5   0   57.14    3.15
  -3  -5   0   60.56    3.25
  -3  -5   0   57.75    3.13
   3   5   0   64.74    3.97
   3   5   1  125.01    5.66
  -3  -5  -1  113.57    4.60
  -3  -5  -1  117.65    4.49
  -3  -5  -1  113.61    4.57
   3   5   1  126.60    4.76
   3   5   2    0.93    1.73
  -3  -5  -2    0.14    1.45
  -3  -5  -2   -0.46    1.17
  -3  -5  -2    0.18    1.24
  -3  -5  -2    0.66    1.24
  -3  -5  -3   93.71    3.83
  -3  -5  -3   96.81    3.82
  -3  -5  -3   99.39    3.75
   3   6  -9   42.07    2.51
   3   6  -9   45.25    2.65
   3   6  -9   44.17    2.76
   3   6  -8   48.69    2.67
   3   6  -8   51.63    2.90
   3   6  -8   55.87    3.03
   3   6  -8   53.60    3.22
  -3  -6   8   47.64    2.59
   3   6  -7   40.72    2.68
   3   6  -7   49.09    3.02
   3   6  -7   48.63    3.31
  -3  -6   7   47.86    2.87
   3   6  -7   53.74    3.10
   3   6  -6   73.33    3.44
   3   6  -6   70.74    3.88
  -3  -6   6   74.01    3.62
   3   6  -6   77.70    3.96
   3   6  -5    0.19    1.43
  -3  -6   5    0.48    1.66
   3   6  -5    0.44    1.54
   3   6  -4   91.41    4.37
   3   6  -4   80.41    3.95
  -3  -6   4  106.28    4.53
   3   6  -4  117.45    5.03
   3   6  -3    6.14    1.85
  -3  -6   3    8.94    1.94
   3   6  -3    8.61    2.06
   3   6  -2   -0.21    1.51
  -3  -6   2    0.11    1.60
   3   6  -2    0.37    1.50
   3   6  -1   11.86    1.97
  -3  -6   1   11.07    1.84
   3   6  -1   10.06    1.80
   3   6   0    0.11    1.35
  -4   8   2  101.98    3.62
   4  -8  -2  110.74    3.98
  -4   8   1   25.58    2.06
  -4   8   1   24.40    2.05
   4  -8   0    2.98    1.40
  -4   8   0    2.82    1.42
   4  -8   0    1.84    1.67
  -4   8   0    3.13    1.39
   4  -8   1    2.88    1.35
   4  -8   1    3.19    1.59
  -4   8  -1    3.34    1.53
   4  -8   1    3.79    1.97
  -4   8  -1    3.67    1.54
   4  -8   2   -0.04    1.52
   4  -8   2   -0.94    1.76
   4  -8   3   -0.59    1.78
   4  -8   3    1.07    1.59
  -4   8  -3    0.34    1.35
   4  -8   3    0.17    1.81
  -4   8  -3    0.41    1.37
   4  -8   4   68.07    4.22
  -4   8  -4   66.87    3.44
   4  -8   4   78.67    3.96
  -4   8  -4   71.20    3.61
  -4   8  -4   66.43    3.43
   4  -8   4   64.38    3.59
  -4   8  -5  546.59   12.23
   4  -8   5  561.65   12.93
  -4   8  -5  555.68   12.55
  -4   8  -5  515.97   12.05
   4  -8   6    9.79    1.64
  -4   8  -6    8.82    1.38
  -4   8  -6   11.11    1.84
  -4   8  -6    7.71    1.32
   4  -8   7  997.12   21.41
  -4   8  -7  985.23   20.45
  -4   7   4  448.22   10.46
  -4   7   4  428.53   10.36
  -4   7   3  178.59    5.73
  -4   7   3  174.84    5.68
   4  -7  -3  181.12    6.30
   4  -7  -2    0.15    1.32
  -4   7   2    1.31    1.47
  -4   7   2    1.64    1.45
  -4   7   1  158.04    5.95
   4  -7  -1  137.92    5.61
  -4   7   1  157.03    5.90
   4  -7  -1  156.17    6.43
   4  -7   0    7.75    2.11
   4  -7   0    9.97    2.20
  -4   7   0   10.02    2.19
   4  -7   0    8.86    2.52
  -4   7   0   10.07    2.14
   4  -7   1   20.88    3.02
  -4   7  -1   28.25    2.96
  -4   7  -1   26.66    2.88
   4  -7   1   23.75    3.22
   4  -7   2    0.18    2.23
   4  -7   2    0.40    2.00
  -4   7  -2    0.80    1.72
   4  -7   2   -0.94    2.17
  -4   7  -2    1.08    1.80
   4  -7   3   -0.62    2.42
   4  -7   3   -0.34    1.97
   4  -7   3    0.89    2.05
  -4   7  -4   33.93    2.91
   4  -7   4   35.32    3.29
  -4   7  -4   31.35    2.91
  -4   7  -4   34.35    2.92
   4  -7   4   26.15    2.89
   4  -7   5    1.68    2.35
   4  -7   5    1.05    1.75
  -4   7  -5    1.32    1.53
  -4   7  -5    0.84    1.79
   4  -7   5    1.52    1.53
  -4   7  -5    1.30    1.58
   4  -7   5    0.47    1.62
   4  -7   6   10.70    2.64
   4  -7   6    9.13    1.93
  -4   7  -6   10.56    1.80
  -4   7  -6    9.39    2.06
  -4   7  -6   10.09    1.78
   4  -7   6    9.76    2.24
   4  -7   7    1.54    1.99
   4  -7   7    1.83    1.25
  -4   7  -7   -0.03    1.13
  -4   7  -7    0.50    1.52
  -4   7  -7    0.21    1.11
   4  -7   7   -0.04    1.89
   4  -7   8   20.07    2.44
   4  -7   8   20.73    2.43
   4  -7   9  173.02    5.21
   4  -7   9  146.11    5.35
   4  -6  -6  744.06   16.08
  -4   6   5   77.76    3.20
   4  -6  -5   79.71    4.05
  -4   6   4 1169.32   26.13
  -4   6   4 1387.68   25.92
  -4   6   4 1190.65   26.17
   4  -6  -4 1371.19   27.85
  -4   6   3   42.57    3.17
  -4   6   3   46.67    2.88
   4  -6  -3   36.05    2.84
  -4   6   3   45.59    3.21
   4  -6  -2    4.56    1.89
   4  -6  -2    5.59    1.98
  -4   6   2    5.08    1.67
  -4   6   2    5.93    1.99
   4  -6  -2    4.84    2.64
  -4   6   2    5.14    1.95
   4  -6  -1   44.03    3.68
  -4   6   1   45.50    3.65
  -4   6   1   40.94    2.88
   4  -6  -1   47.01    3.74
  -4   6   1   47.12    3.63
   4  -6  -1   45.48    4.12
   4  -6   0   99.37    5.64
  -4   6   0  107.51    5.39
   4  -6   0   95.35    5.38
  -4   6   0   90.53    4.10
  -4   6   0  106.30    5.28
   4  -6   0   98.91    5.65
   4  -6   1    1.57    2.52
  -4   6  -1    1.85    1.41
  -4   6  -1    2.34    2.09
   4  -6   1    1.86    2.37
  -4   6  -1    3.51    2.13
  -4   6  -2  139.00    6.10
   4  -6   2  138.25    6.53
  -4   6  -2  118.28    4.50
  -4   6  -2  133.90    5.98
   4  -6   2  132.72    6.14
   4  -6   3   21.34    3.12
  -4   6  -3   16.12    1.86
   4  -6   3   21.38    2.82
   4  -6   3   16.97    2.60
   4  -6   4   67.58    5.20
   4  -6   4   65.70    4.48
  -4   6  -4   59.17    3.86
   4  -6   4   56.08    3.66
   4  -6   4   59.78    4.24
   4  -6   5   51.42    4.50
  -4   6  -5   50.42    3.55
   4  -6   5   50.96    3.72
  -4   6  -5   45.38    3.36
  -4   6  -5   51.17    3.54
   4  -6   5   40.22    4.10
   4  -6   6    2.92    2.54
   4  -6   6   -0.05    1.56
  -4   6  -6   -0.05    1.54
  -4   6  -6    1.07    1.80
  -4   6  -6    1.25    1.55
   4  -6   6   -0.06    2.54
   4  -6   7    7.31    2.43
  -4   6  -7    7.44    1.72
  -4   6  -7    7.38    1.91
  -4   6  -7    6.51    1.67
   4  -6   7    5.46    2.65
   4  -6   8    9.90    2.15
  -4   6  -8    9.79    1.55
  -4   6  -8    8.86    1.53
   4  -6   9    3.87    1.40
   4  -6  10   26.15    2.30
   4  -5  -7   39.85    2.35
  -4   5   7   43.31    2.77
   4  -5  -7   43.86    2.84
   4  -5  -6  151.62    5.04
   4  -5  -6  146.20    5.97
   4  -5  -5  277.39    7.77
   4  -5  -5  283.06    9.24
   4  -5  -4    0.67    1.52
   4  -5  -4    1.48    1.41
  -4   5   4    0.26    1.88
  -4   5   4    0.39    1.46
  -4   5   4    0.13    1.42
   4  -5  -3   71.16    4.33
  -4   5   3   72.35    4.13
  -4   5   3   77.90    4.28
   4  -5  -3   65.56    3.99
  -4   5   3   71.46    4.07
   4  -5  -3   75.01    5.07
   4  -5  -2  602.03   16.29
  -4   5   2  634.21   15.81
  -4   5   2  668.37   15.50
   4  -5  -2  595.97   16.10
  -4   5   2  629.53   15.71
   4  -5  -2  621.80   16.90
   4  -5  -1   82.86    5.35
  -4   5   1   90.76    4.85
  -4   5   1   85.27    4.41
   4  -5  -1   80.14    4.96
  -4   5   1   81.36    4.60
   4  -5  -1   81.72    5.31
   4  -5   0  318.89   11.09
  -4   5   0  322.19   10.11
  -4   5   0  316.77    9.23
  -4   5   0  316.07   10.01
   4  -5   0  312.93   10.42
  -4   5  -1  110.59    5.57
   4  -5   1  115.94    6.04
  -4   5  -1  122.42    5.07
  -4   5  -1  110.19    5.50
   4  -5   1  111.71    5.75
   4  -5   1   96.70    4.92
   4  -5   2    0.93    2.92
   4  -5   2    0.38    2.22
  -4   5  -2    0.50    1.74
  -4   5  -2    2.32    2.14
   4  -5   2    0.56    1.98
  -4   5  -2    1.31    2.02
   4  -5   2    2.24    2.17
   4  -5   3   71.93    5.36
  -4   5  -3   67.72    4.37
   4  -5   3   71.15    4.67
  -4   5  -3   66.17    3.73
  -4   5  -3   66.99    4.31
   4  -5   3   56.12    3.78
   4  -5   3   68.59    4.68
   4  -5   4   75.25    5.43
   4  -5   4   76.68    4.60
  -4   5  -4   69.54    3.67
  -4   5  -4   61.69    3.78
   4  -5   4   72.28    5.09
  -4   5  -5   16.64    2.64
   4  -5   5   20.27    3.38
  -4   5  -5   17.04    2.18
   4  -5   5   18.75    2.63
  -4   5  -5   16.71    2.33
  -4   5  -5   20.02    2.71
   4  -5   5   17.00    3.53
   4  -5   6  277.33    9.54
  -4   5  -6  304.53    9.04
  -4   5  -6  253.79    7.54
   4  -5   6  245.54    8.16
  -4   5  -6  260.22    8.04
  -4   5  -6  293.01    8.88
   4  -5   6  251.31   10.04
   4  -5   7    1.15    2.01
  -4   5  -7    0.16    1.35
  -4   5  -7    0.73    1.54
  -4   5  -7    0.45    1.50
  -4   5  -8   16.99    2.00
   4  -5   8   14.50    2.24
  -4   5  -8   13.70    1.65
  -4   5  -8   17.66    1.99
   4  -5   8   16.17    3.10
  -4   5  -9    7.67    1.24
  -4   5  -9    8.37    1.30
   4  -5   9    8.76    2.41
   4  -5  10   21.94    2.32
   4  -4  -8   49.64    2.89
   4  -4  -8   48.60    2.97
   4  -4  -7  223.66    7.05
   4  -4  -7  225.20    7.90
   4  -4  -6   23.36    2.53
   4  -4  -6   22.65    3.17
   4  -4  -5    3.02    1.86
   4  -4  -5    4.16    1.78
   4  -4  -5    2.46    1.41
   4  -4  -4   90.64    4.40
   4  -4  -4   88.04    5.00
  -4   4   4   82.56    4.06
   4  -4  -4   85.95    4.42
  -4   4   4   87.09    4.15
   4  -4  -4   99.38    5.75
   4  -4  -3  154.67    6.94
  -4   4   3  149.38    5.93
   4  -4  -3  145.80    6.38
  -4   4   3  149.54    5.91
   4  -4  -3  163.68    7.34
   4  -4  -2    7.53    2.67
   4  -4  -2    6.25    2.17
  -4   4   2    6.31    2.35
  -4   4   2    1.90    1.77
   4  -4  -2    9.49    2.83
  -4   4   2    3.41    1.84
  -4   4   1  663.13   16.40
  -4   4   1  693.69   16.38
   4  -4  -1  675.72   17.29
  -4   4   1  665.62   16.38
   4  -4  -1  685.94   17.23
  -4   4   0    3.22    2.21
  -4   4   0    2.98    1.91
   4  -4   0    3.10    2.26
  -4   4   0    1.24    1.81
   4  -4   0    2.23    1.98
   4  -4   1   54.59    4.79
  -4   4  -1   53.25    3.86
  -4   4  -1   58.46    3.88
   4  -4   1   56.59    4.28
  -4   4  -1   54.56    3.85
   4  -4   1   52.76    3.75
   4  -4   1   53.62    4.09
   4  -4   2    1.47    2.67
   4  -4   2    3.47    2.32
  -4   4  -2    2.27    2.06
  -4   4  -2    1.45    2.06
   4  -4   2    1.40    1.70
  -4   4  -2    1.74    2.00
   4  -4   2    2.23    2.38
   4  -4   3   76.58    5.32
  -4   4  -3   72.52    4.48
  -4   4  -3   77.25    4.26
   4  -4   3   76.55    4.68
  -4   4  -3   60.95    3.39
  -4   4  -3   71.84    4.45
   4  -4   3   68.21    5.06
   4  -4   4   47.81    4.37
  -4   4  -4   50.79    3.54
   4  -4   4   50.69    3.84
  -4   4  -4   39.11    2.85
   4  -4   4   42.41    4.53
   4  -4   5  707.68   17.81
  -4   4  -5  718.20   16.28
   4  -4   5  689.13   16.88
  -4   4  -6   19.81    2.65
   4  -4   6   17.02    2.75
  -4   4  -6   17.36    2.45
   4  -4   6   14.61    2.13
  -4   4  -6   18.61    2.64
   4  -4   6   16.74    3.83
   4  -4   7   53.56    3.70
  -4   4  -7   71.03    4.09
  -4   4  -7   66.43    3.69
  -4   4  -7   75.18    4.12
   4  -4   7   59.54    4.99
  -4   4  -8  169.37    5.95
  -4   4  -8  149.27    5.40
  -4   4  -8  168.28    5.90
   4  -4   8  160.67    7.01
  -4   4  -9  143.61    4.73
  -4   4  -9  141.55    4.72
  -4   4  -9  148.43    4.79
   4  -4   9  133.30    5.85
   4  -4  10   25.03    2.36
   4  -3  -9   51.92    2.95
   4  -3  -9   43.69    2.72
   4  -3  -8  118.99    4.93
   4  -3  -8  105.40    5.14
   4  -3  -7    2.03    1.50
   4  -3  -7    0.97    1.83
   4  -3  -7    1.77    2.48
   4  -3  -6  220.05    7.60
   4  -3  -6  204.47    7.45
   4  -3  -5  531.76   13.55
   4  -3  -5  511.34   14.03
   4  -3  -5  559.79   14.98
   4  -3  -4  143.86    5.79
   4  -3  -4  146.50    6.77
   4  -3  -4  137.35    5.99
   4  -3  -4  151.51    7.03
   4  -3  -3   13.28    3.02
   4  -3  -3   13.28    2.06
   4  -3  -3   15.60    2.55
  -4   3   3   11.81    1.92
   4  -3  -3   11.93    2.95
  -4   3   3   13.19    1.94
   4  -3  -3   12.76    1.99
  -4   3   2   21.47    2.44
   4  -3  -2   25.91    3.08
  -4   3   2   20.96    2.39
   4  -3  -2   22.23    3.12
   4  -3  -2   21.00    2.69
   4  -3  -1    0.87    2.50
  -4   3   1    0.90    1.58
   4  -3  -1   -0.55    2.05
  -4   3   1    2.35    1.69
   4  -3  -1   -0.46    2.05
   4  -3   0   54.99    4.55
  -4   3   0   49.07    3.45
   4  -3   0   53.88    4.16
  -4   3   0   50.10    3.47
   4  -3   0   48.63    3.55
   4  -3   0   46.91    4.08
   4  -3   1  157.56    7.31
  -4   3  -1  147.40    6.16
   4  -3   1  162.21    6.83
  -4   3  -1  149.46    6.17
   4  -3   1  139.16    5.68
   4  -3   1  154.94    7.02
   4  -3   2  217.62    8.66
  -4   3  -2  211.04    7.71
   4  -3   2  230.61    8.23
  -4   3  -2  211.29    7.67
   4  -3   2  218.60    8.81
   4  -3   3 1608.64   35.40
  -4   3  -3 1624.66   34.56
  -4   3  -3 1677.21   34.19
   4  -3   3 1615.41   34.76
  -4   3  -3 1630.90   34.48
   4  -3   4    3.77    2.43
  -4   3  -4    4.15    2.32
   4  -3   4    4.35    2.04
  -4   3  -4    2.72    2.27
  -4   3  -4    3.49    2.22
   4  -3   5  722.97   18.50
   4  -3   5  734.42   18.08
   4  -3   6   -0.64    1.65
  -4   3  -6    0.79    2.05
  -4   3  -6   -0.17    1.96
  -4   3  -6    0.65    1.90
   4  -3   6    1.29    2.81
  -4   3  -7  105.64    5.04
  -4   3  -7   98.62    4.74
  -4   3  -7  104.56    4.98
   4  -3   7   96.21    5.79
  -4   3  -8   89.08    4.23
  -4   3  -8   88.84    4.23
  -4   3  -8   86.52    4.19
   4  -3   8   82.47    4.96
  -4   3  -9  180.71    5.48
  -4   3  -9  179.38    5.69
  -4   3  -9  178.68    5.45
  -4   3 -10  107.43    3.67
   4  -2 -10   24.06    2.18
   4  -2 -10   19.34    1.85
   4  -2  -9   17.53    2.30
   4  -2  -9   15.37    2.31
   4  -2  -8   59.24    3.76
   4  -2  -8   60.20    4.17
   4  -2  -7    2.71    1.96
   4  -2  -7    2.67    2.06
   4  -2  -6  187.67    6.94
   4  -2  -6  185.30    7.47
   4  -2  -6  199.67    8.30
   4  -2  -5  174.36    6.72
   4  -2  -5  179.84    7.62
   4  -2  -5  166.79    6.52
   4  -2  -4  330.38    9.55
   4  -2  -4  326.99   10.89
   4  -2  -4  307.94    9.86
   4  -2  -4  327.17   10.77
   4  -2  -3    6.17    1.91
  -4   2   3    4.42    2.52
   4  -2  -3    5.57    2.17
  -4   2   3    3.91    1.45
   4  -2  -3    5.86    2.53
  -4   2   3    3.93    1.46
   4  -2  -3    5.62    2.18
   4  -2  -2  254.03    7.74
   4  -2  -2  271.27    9.62
  -4   2   2  256.60    7.86
  -4   2   2  273.60    8.63
  -4   2   2  252.02    7.79
   4  -2  -2  258.33    8.77
   4  -2  -2  244.22    8.92
   4  -2  -1  119.73    6.30
  -4   2   1  118.03    5.05
  -4   2   1  115.81    5.40
   4  -2  -1  116.91    5.76
  -4   2   1  108.79    4.86
   4  -2  -1  114.61    5.32
   4  -2  -1  115.24    6.11
   4  -2   0  786.92   19.55
  -4   2   0  751.60   17.99
  -4   2   0  782.44   18.32
   4  -2   0  819.27   19.35
  -4   2   0  759.32   17.98
   4  -2   0  719.73   17.70
   4  -2   0  807.89   19.77
   4  -2   1  242.48    8.89
  -4   2  -1  235.79    8.09
  -4   2  -1  258.63    8.34
   4  -2   1  260.66    8.88
  -4   2  -1  238.20    8.05
   4  -2   2   86.32    5.07
  -4   2  -2   86.08    4.76
  -4   2  -2   91.42    4.95
   4  -2   2   93.62    5.10
  -4   2  -2   90.25    4.80
   4  -2   3  172.29    7.05
  -4   2  -3  184.30    7.21
  -4   2  -3  196.53    7.37
   4  -2   3  180.50    7.18
  -4   2  -3  183.41    7.14
   4  -2   3  177.67    8.48
   4  -2   4   37.60    3.23
  -4   2  -4   52.91    4.01
   4  -2   4   45.48    3.45
  -4   2  -4   47.83    3.86
   4  -2   4   49.59    4.76
  -4   2  -5  340.08   10.33
  -4   2  -5  340.94   10.29
   4  -2   5  318.40   11.40
  -4   2  -6    1.78    1.28
   4  -2   6    0.48    2.67
  -4   2  -7  414.63   11.27
  -4   2  -7  416.62   11.24
  -4   2  -8 1127.87   23.38
  -4   2  -8 1129.17   23.33
  -4   2  -9  540.16   11.59
  -4   2  -9  547.85   11.58
   4  -1 -10    1.81    1.50
   4  -1 -10    1.29    1.46
   4  -1  -9   61.12    3.64
   4  -1  -9   57.33    3.78
   4  -1  -8 1079.25   23.05
   4  -1  -8  959.93   22.84
   4  -1  -7   58.28    4.06
   4  -1  -7   59.90    4.37
   4  -1  -7   57.24    4.71
   4  -1  -6  118.19    5.50
   4  -1  -6  121.30    6.22
   4  -1  -6  104.50    4.74
   4  -1  -6  127.97    6.57
   4  -1  -6   94.89    4.68
   4  -1  -5  135.50    5.81
   4  -1  -5  123.60    5.59
   4  -1  -5  141.15    6.82
   4  -1  -5  117.01    5.62
   4  -1  -4   93.65    4.78
  -4   1   4   89.91    4.94
   4  -1  -4   92.43    5.02
   4  -1  -4   85.90    5.09
   4  -1  -3   34.98    3.08
   4  -1  -3   37.44    3.98
  -4   1   3   38.56    3.53
   4  -1  -3   37.76    3.47
   4  -1  -3   46.06    3.89
   4  -1  -3   41.08    3.78
   4  -1  -2    3.56    2.60
   4  -1  -2    2.50    1.76
  -4   1   2    3.12    2.42
  -4   1   2    2.13    1.46
   4  -1  -2    3.99    2.35
  -4   1   2    1.88    1.40
   4  -1  -2    4.26    2.63
   4  -1  -1  629.25   15.61
   4  -1  -1  686.86   17.68
  -4   1   1  671.36   16.07
  -4   1   1  662.81   16.43
   4  -1  -1  733.29   17.70
  -4   1   1  670.54   15.99
   4  -1  -1  691.44   16.64
   4  -1  -1  727.61   18.30
   4  -1   0  177.62    7.38
  -4   1   0  180.74    6.64
  -4   1   0  181.88    6.89
   4  -1   0  194.68    7.55
  -4   1   0  182.68    6.61
   4  -1   1  611.34   16.31
  -4   1  -1  653.04   16.04
  -4   1  -1  626.66   15.87
   4  -1   1  675.32   16.79
  -4   1  -1  643.62   15.92
   4  -1   1  661.95   18.06
   4  -1   2    4.58    2.05
  -4   1  -2    5.29    2.46
   4  -1   2    6.42    2.17
  -4   1  -2    5.49    2.16
  -4   1  -2    6.56    2.17
   4  -1   2    6.88    3.18
   4  -1   3   19.38    2.51
  -4   1  -3   24.29    3.00
  -4   1  -3   23.70    3.13
   4  -1   3   21.84    2.70
  -4   1  -3   26.79    3.05
   4  -1   3   24.12    3.89
  -4   1  -4    3.55    2.37
  -4   1  -4    4.70    2.25
   4  -1   4    3.94    1.82
  -4   1  -4    6.45    2.28
   4  -1   4    5.64    3.04
  -4   1  -5  332.78   10.23
  -4   1  -5  304.35    9.66
  -4   1  -5  324.57   10.10
   4  -1   5  318.81   10.95
  -4   1  -6  900.07   19.23
   4  -1   6  867.29   20.18
   4  -1   7   49.34    3.23
  -4   1  -7   65.91    3.77
  -4   1  -7   63.66    3.80
  -4   1  -7   51.95    2.91
  -4   1  -7   66.45    3.78
   4  -1   7   58.45    3.89
  -4   1  -8 1185.01   24.62
  -4   1  -8 1165.70   24.47
  -4   1  -8 1169.14   24.54
  -4   1  -9   14.93    1.53
  -4   1  -9   17.45    1.82
  -4   1  -9   15.93    1.53
   4   0 -11    3.09    1.20
   4   0 -10    0.29    1.26
   4   0 -10    0.99    1.59
  -4   0  10    1.55    1.39
   4   0 -10    1.04    1.61
   4   0  -9   54.07    3.54
   4   0  -9   46.99    3.41
   4   0  -8   92.89    4.82
   4   0  -8   92.02    5.16
   4   0  -8   88.43    5.22
   4   0  -7  577.89   14.29
   4   0  -7  597.11   15.47
  -4   0   7  547.15   13.62
   4   0  -7  606.56   15.35
   4   0  -7  454.99   12.65
   4   0  -7  483.61   13.53
   4   0  -6  138.96    6.01
  -4   0   6  119.23    5.49
   4   0  -6  119.30    5.35
   4   0  -6  134.24    6.61
   4   0  -6  125.12    5.95
   4   0  -5    6.24    2.96
   4   0  -5    4.64    2.45
  -4   0   5    6.87    2.41
   4   0  -5    5.66    2.07
   4   0  -5    6.99    2.79
   4   0  -5    5.06    2.66
   4   0  -4 1853.27   37.73
   4   0  -4 1910.55   39.68
  -4   0   4 1729.49   37.19
   4   0  -4 1764.19   38.28
   4   0  -4 1897.69   38.84
   4   0  -4 1872.71   39.30
   4   0  -3 2192.42   43.43
   4   0  -3 2213.41   45.28
   4   0  -3 2187.17   44.27
   4   0  -3 2232.88   45.44
   4   0  -2 2575.40   50.77
   4   0  -2 2550.66   49.01
  -4   0   2 2415.69   48.13
  -4   0   2 2381.72   48.76
   4   0  -2 2571.70   50.50
  -4   0   2 2441.12   48.09
   4   0  -2 2387.38   49.12
   4   0  -1  101.31    5.53
   4   0  -1   94.08    4.64
  -4   0   1   94.51    4.45
  -4   0   1   93.59    4.76
   4   0  -1   98.98    5.42
  -4   0   1   96.79    4.43
   4   0   0   96.88    5.16
  -4   0   0   99.92    4.79
  -4   0   0   96.81    4.88
   4   0   0  108.49    5.57
  -4   0   0  102.13    4.79
   4   0   0  102.66    6.30
  -4   0   0   94.10    4.51
   4   0   1   65.76    4.13
  -4   0  -1   74.20    4.29
  -4   0  -1   69.65    4.26
   4   0   1   79.00    4.73
  -4   0  -1   75.94    4.29
   4   0   1   79.93    5.58
  -4   0  -1   65.58    3.52
  -4   0  -2   54.47    3.84
  -4   0  -2   48.41    3.65
   4   0   2   45.17    3.69
  -4   0  -2   49.43    3.66
   4   0   2   55.79    4.89
  -4   0  -3   34.11    3.27
  -4   0  -3   28.82    3.11
   4   0   3   32.67    3.00
  -4   0  -3   34.27    3.31
   4   0   3   32.18    3.93
  -4   0  -4   71.19    4.44
  -4   0  -4   65.88    4.13
  -4   0  -4   72.78    4.43
   4   0   4   67.44    3.71
   4   0   4   72.25    4.97
   4   0   5   -0.77    1.47
  -4   0  -5   -0.09    2.00
  -4   0  -5    0.53    1.91
  -4   0  -5   -1.39    1.99
  -4   0  -5    1.57    1.90
   4   0   5    1.33    2.34
  -4   0  -6   54.63    3.55
  -4   0  -6   51.52    3.44
  -4   0  -6   54.24    3.25
  -4   0  -6   56.28    3.55
   4   0   6   47.74    3.41
  -4   0  -7   37.39    2.77
  -4   0  -7   33.68    2.31
  -4   0  -8    1.32    1.28
  -4   0  -8    1.25    1.18
  -4   0  -8    1.57    1.18
   4   1 -11    0.65    1.12
   4   1 -11    1.16    1.21
   4   1 -10   20.38    2.21
   4   1  -9  225.59    7.04
   4   1  -9  216.43    7.38
   4   1  -9  217.46    7.22
   4   1  -8  157.60    6.18
   4   1  -8  156.66    6.86
  -4  -1   8  137.75    5.09
   4   1  -8  155.94    6.52
   4   1  -8  133.43    5.82
   4   1  -7  374.66   10.51
  -4  -1   7  317.04    9.06
   4   1  -7  360.05   10.83
   4   1  -7  308.81    9.32
   4   1  -7  339.14   10.64
   4   1  -6   28.25    3.23
   4   1  -6   34.19    4.04
  -4  -1   6   25.23    2.60
   4   1  -6   25.84    3.42
   4   1  -6   29.53    2.97
   4   1  -6   29.23    3.57
   4   1  -5 1580.19   32.72
   4   1  -5 1614.24   34.30
   4   1  -5 1557.55   32.99
   4   1  -5 1500.97   32.96
   4   1  -4 1381.29   28.28
   4   1  -4 1340.08   29.54
   4   1  -4 1318.38   28.79
   4   1  -4 1285.35   28.11
   4   1  -3 2086.74   41.93
   4   1  -3 2076.32   40.66
   4   1  -2  443.20   12.83
  -4  -1   2  397.85   11.15
   4   1  -2  460.77   13.06
   4   1  -2  417.91   11.24
   4   1  -2  475.99   13.97
   4   1  -1   44.16    3.68
  -4  -1   1   45.19    3.01
  -4  -1   1   40.16    3.18
   4   1  -1   49.57    4.07
  -4  -1   1   45.00    3.01
   4   1  -1   52.62    4.69
  -4  -1   1   42.51    3.51
   4   1   0   27.45    2.91
  -4  -1   0   28.70    2.69
  -4  -1   0   24.08    2.72
   4   1   0   32.75    3.36
  -4  -1   0   26.71    2.65
   4   1   0   27.88    3.89
  -4  -1   0   24.16    2.70
  -4  -1  -1   74.60    4.21
  -4  -1  -1   64.76    3.80
  -4  -1  -1   73.46    4.17
   4   1   1   77.83    4.71
   4   1   1   77.64    5.28
  -4  -1  -1   61.07    3.71
  -4  -1  -2   15.32    2.09
  -4  -1  -2   24.90    2.76
  -4  -1  -2   19.87    2.55
  -4  -1  -2   26.51    2.83
   4   1   2   24.73    2.90
   4   1   2   23.57    3.41
  -4  -1  -3  233.85    7.99
  -4  -1  -3  207.92    7.13
  -4  -1  -3  226.76    7.89
   4   1   3  223.21    7.46
   4   1   3  226.78    8.42
  -4  -1  -4  104.49    4.97
  -4  -1  -4   91.90    4.35
  -4  -1  -4  107.85    4.99
   4   1   4   96.23    4.93
   4   1   5    0.93    1.42
  -4  -1  -5    0.48    1.63
  -4  -1  -5    1.56    1.74
  -4  -1  -5    1.65    1.72
  -4  -1  -5    1.81    1.70
   4   1   6   -0.10    1.25
  -4  -1  -6    0.19    1.47
  -4  -1  -6    0.30    1.52
  -4  -1  -6    0.34    1.49
  -4  -1  -6    0.83    1.52
  -4  -1  -7   12.67    1.53
   4   2 -10    0.04    1.55
   4   2 -10    0.39    1.41
   4   2  -9   56.46    3.64
   4   2  -9   46.91    3.22
   4   2  -8   50.64    3.59
   4   2  -8   50.55    3.72
   4   2  -8   38.08    2.54
   4   2  -8   44.91    3.64
   4   2  -7    3.31    2.65
   4   2  -7    2.58    2.25
   4   2  -7    0.98    1.56
   4   2  -7    3.22    2.27
   4   2  -7    3.55    2.47
   4   2  -6    1.85    2.54
   4   2  -6    2.14    2.28
   4   2  -6    1.83    1.81
   4   2  -6    1.68    2.12
   4   2  -6    1.71    2.57
   4   2  -5    2.10    2.46
   4   2  -5    4.33    2.43
   4   2  -5    2.27    2.11
   4   2  -5    1.79    2.11
   4   2  -4  288.93   10.01
   4   2  -4  272.77    8.93
   4   2  -3   48.94    4.04
   4   2  -3   46.06    3.25
   4   2  -3   51.17    4.28
   4   2  -3   52.96    4.83
  -4  -2   3   46.96    4.01
   4   2  -2   82.53    4.79
   4   2  -2   96.20    5.94
  -4  -2   2   89.23    4.96
   4   2  -1  575.64   15.54
   4   2  -1  772.57   17.73
   4   2  -1  713.61   18.06
  -4  -2   1  615.41   16.24
  -4  -2   0   44.65    3.08
  -4  -2   0   36.77    2.62
  -4  -2   0   46.86    3.11
   4   2   0   49.38    3.91
   4   2   0   44.16    4.07
  -4  -2   0   40.85    3.31
  -4  -2  -1  805.88   17.82
  -4  -2  -1  637.05   16.11
  -4  -2  -1  819.71   17.84
   4   2   1  840.76   18.67
   4   2   1  797.63   18.97
  -4  -2  -1  682.47   17.18
  -4  -2  -2   25.26    2.64
  -4  -2  -2   20.55    2.13
  -4  -2  -2   25.72    2.67
   4   2   2   26.40    2.67
   4   2   2   24.76    3.09
  -4  -2  -2   18.47    2.13
   4   2   3   27.87    2.57
  -4  -2  -3   42.16    3.25
  -4  -2  -3   32.20    2.34
  -4  -2  -3   44.49    3.25
   4   2   3   31.47    2.93
  -4  -2  -3   26.13    2.12
   4   2   4   74.58    3.73
  -4  -2  -4  104.64    4.67
  -4  -2  -4   81.73    3.41
  -4  -2  -4  107.07    4.69
   4   2   5    1.73    1.17
  -4  -2  -5    2.58    1.43
  -4  -2  -5    3.06    1.44
  -4  -2  -6   18.65    1.69
  -4  -2  -6   17.37    1.65
   4   3 -10  224.99    6.54
   4   3  -9   24.07    2.58
   4   3  -9   22.99    2.41
   4   3  -9   20.63    2.40
   4   3  -8    2.10    1.96
   4   3  -8    1.24    1.21
   4   3  -8    3.07    1.96
   4   3  -8    2.50    2.08
   4   3  -7  285.40    9.25
   4   3  -7  287.32    8.85
   4   3  -7  265.65    8.23
   4   3  -6   33.76    3.47
   4   3  -6   35.51    3.19
   4   3  -6   35.65    3.16
   4   3  -5  118.55    5.72
   4   3  -5  114.59    5.24
   4   3  -5  128.09    5.81
   4   3  -5  117.92    6.30
   4   3  -4   29.01    3.05
   4   3  -4   28.93    2.73
   4   3  -4   34.90    3.93
  -4  -3   3   -0.31    2.11
   4   3  -3    1.12    1.80
   4   3  -3   -0.24    2.19
   4   3  -3    0.27    2.43
   4   3  -2  109.71    5.62
   4   3  -2  102.75    5.76
  -4  -3   2   96.49    5.18
  -4  -3   1    0.29    1.95
   4   3  -1    0.68    2.02
   4   3  -1    1.74    2.42
  -4  -3   0   85.47    3.85
  -4  -3   0   87.72    3.88
   4   3   0   94.75    4.85
   4   3   0   88.54    4.91
  -4  -3   0   85.02    4.35
  -4  -3  -1    3.10    1.63
  -4  -3  -1    2.70    1.43
   4   3   1    4.33    1.77
  -4  -3  -1    2.41    1.41
   4   3   1    2.22    1.79
  -4  -3  -2  117.86    4.64
  -4  -3  -2  118.02    4.75
  -4  -3  -2  119.17    4.65
  -4  -3  -3   26.40    2.20
  -4  -3  -3   29.40    2.37
  -4  -3  -3   26.56    2.21
  -4  -3  -4    1.27    1.04
  -4  -3  -4    1.30    1.16
  -4  -3  -4    0.98    1.03
  -4  -4   9    2.85    1.24
   4   4  -9    2.76    1.37
   4   4  -9    2.39    1.27
   4   4  -9    2.20    1.34
  -4  -4   8    3.23    1.52
   4   4  -8    3.52    1.63
   4   4  -8    2.69    1.07
   4   4  -8    3.51    1.53
   4   4  -7   90.10    4.31
   4   4  -7   97.17    4.12
   4   4  -7   89.68    4.65
  -4  -4   7   99.25    4.33
   4   4  -7   94.67    4.07
   4   4  -6   28.54    2.63
   4   4  -6   26.58    2.37
   4   4  -6   30.05    3.07
   4   4  -6   28.79    2.68
  -4  -4   6   32.09    2.81
   4   4  -5   75.72    3.82
   4   4  -5   85.29    4.72
  -4  -4   5   83.44    4.28
   4   4  -4  133.93    5.95
   4   4  -4  143.03    5.88
   4   4  -3   30.74    3.12
   4   4  -3   35.25    3.11
   4   4  -2   35.86    3.07
   4   4  -2   38.25    3.19
  -4  -4   2   32.59    2.84
   4   4  -1   14.95    2.17
   4   4  -1   19.99    2.44
  -4  -4   1   19.49    2.26
  -4  -4   0    0.45    1.38
  -4  -4   0    0.72    1.30
   4   4   0    0.18    1.32
  -4  -4  -1    4.64    1.29
  -4  -4  -1    5.10    1.35
  -4  -4  -2    1.59    1.02
   4   5  -6   93.70    3.90
  -4  -5   6  101.88    3.80
   4   5  -6  105.02    3.88
   4   5  -5   89.39    3.79
  -4  -5   5   97.55    3.81
  -4  -5   4  148.85    4.86
   4   5  -4  158.90    5.29
   4   5  -3   15.24    1.82
   4   5  -2    0.37    1.03
  -5   7   1   58.17    2.55
  -5   7   1   53.59    2.45
   5  -7   0  207.65    6.07
  -5   7   0  216.76    5.98
   5  -7   0  192.40    6.06
  -5   7   0  206.63    5.88
   5  -7   0  206.35    6.13
   5  -7   1   -0.14    1.38
  -5   7  -1    0.40    1.09
   5  -7   1    0.93    1.23
  -5   7  -1    0.54    1.11
   5  -7   2   72.49    3.69
  -5   7  -2   83.28    3.50
   5  -7   2   71.34    3.52
  -5   7  -2   78.52    3.42
  -5   7  -3   26.87    2.09
   5  -7   3   23.44    2.15
  -5   7  -3   23.01    2.00
   5  -7   4   -0.15    1.41
   5  -7   4   -0.83    1.18
   5  -7   5   48.11    2.79
  -5   7  -5   47.93    2.40
  -5   7  -5   41.64    2.25
   5  -6  -3   22.96    2.30
   5  -6  -2    7.93    1.66
  -5   6   2    7.69    1.34
   5  -6  -2    9.41    1.58
  -5   6   2    8.57    1.39
   5  -6  -2    9.53    1.98
  -5   6   2    8.81    1.38
   5  -6  -1  105.83    4.67
  -5   6   1  105.65    4.18
  -5   6   1  107.58    3.71
   5  -6  -1   96.30    4.45
  -5   6   1  108.77    4.21
   5  -6  -1  106.56    4.63
   5  -6   0   -0.53    1.80
  -5   6   0   -0.39    1.19
  -5   6   0    0.49    1.32
   5  -6   0    0.61    1.64
  -5   6   0    0.11    1.29
  -5   6  -1  266.54    7.49
  -5   6  -1  213.95    5.98
   5  -6   1  246.38    7.78
  -5   6  -1  254.21    7.33
   5  -6   1  203.86    6.75
  -5   6  -2   33.47    2.65
  -5   6  -2   28.88    1.87
   5  -6   2   31.40    2.87
  -5   6  -2   33.95    2.63
   5  -6   3    2.61    1.98
   5  -6   3    2.90    1.67
  -5   6  -3    2.14    1.52
  -5   6  -3    2.36    1.45
   5  -6   4    1.36    1.86
   5  -6   4    0.04    1.42
   5  -6   4    0.32    1.41
   5  -6   5    1.24    1.64
   5  -6   5    0.20    1.19
   5  -6   5   -0.29    1.49
  -5   6  -6   71.13    3.09
  -5   6  -6   71.79    3.05
  -5   5   5    7.99    1.48
   5  -5  -5    9.13    1.82
   5  -5  -4  269.24    7.39
  -5   5   4  362.30    8.08
   5  -5  -4  328.48    8.81
   5  -5  -3   39.17    3.03
  -5   5   3   49.66    3.01
   5  -5  -3   40.88    2.71
   5  -5  -3   45.23    3.31
   5  -5  -2   35.34    3.25
  -5   5   2   28.83    2.31
  -5   5   2   32.98    2.75
   5  -5  -2   30.75    2.74
  -5   5   2   29.79    2.29
   5  -5  -2   32.88    3.04
  -5   5   1   16.26    2.09
   5  -5  -1   17.11    2.79
  -5   5   1   18.07    2.29
   5  -5  -1   19.31    2.56
  -5   5   1   18.58    2.15
   5  -5  -1   14.09    2.46
  -5   5   0   28.35    2.59
  -5   5   0   25.03    2.56
  -5   5   0   25.33    2.50
   5  -5   0   21.04    2.58
  -5   5  -1   15.16    2.26
   5  -5   1   16.13    2.95
  -5   5  -1   14.53    2.18
   5  -5   1   16.81    2.60
  -5   5  -1   16.24    2.24
   5  -5   1   13.51    2.14
   5  -5   1   11.46    2.00
   5  -5   2  148.73    6.54
  -5   5  -2  156.26    5.93
  -5   5  -2  139.45    5.20
   5  -5   2  147.94    6.19
  -5   5  -2  157.31    5.87
   5  -5   2  135.04    5.66
   5  -5   3   27.71    3.19
  -5   5  -3   30.01    2.76
  -5   5  -3   24.05    2.29
   5  -5   3   24.73    2.78
  -5   5  -3   29.57    2.78
   5  -5   3   22.17    2.83
   5  -5   4    4.32    2.09
  -5   5  -4    3.32    1.48
   5  -5   4    3.51    1.72
  -5   5  -4    3.57    1.68
  -5   5  -4    3.92    1.66
   5  -5   4    4.31    2.12
   5  -5   5  713.61   16.73
  -5   5  -5  737.33   15.45
   5  -5   5  692.41   16.03
   5  -5   5  732.69   17.24
   5  -5   6   51.15    2.94
  -5   5  -6   67.90    3.28
  -5   5  -6   53.84    2.49
  -5   5  -6   70.16    3.32
   5  -5   6   56.85    3.57
  -5   5  -7   69.66    2.93
  -5   5  -7   63.41    2.81
   5  -4  -6  122.28    4.88
   5  -4  -5  140.81    5.23
   5  -4  -5  163.57    6.12
   5  -4  -4   13.65    2.41
  -5   4   4   18.47    2.43
   5  -4  -4   13.62    1.88
   5  -4  -4   16.35    2.75
   5  -4  -3   62.46    4.21
  -5   4   3   67.90    3.93
   5  -4  -3   62.95    3.73
   5  -4  -3   62.61    4.18
  -5   4   2  178.99    6.07
  -5   4   2  205.58    6.89
   5  -4  -2  193.41    7.20
  -5   4   2  182.38    6.06
   5  -4  -2  185.85    7.11
  -5   4   1   54.34    3.37
  -5   4   1   61.20    3.83
  -5   4   1   57.04    3.39
   5  -4  -1   53.39    3.72
   5  -4   0   38.34    3.86
  -5   4   0   32.10    2.83
  -5   4   0   33.83    3.17
   5  -4   0   36.45    3.45
  -5   4   0   32.54    2.83
   5  -4   0   28.87    2.79
   5  -4   0   29.67    2.95
   5  -4   1  218.80    8.36
  -5   4  -1  218.41    7.42
  -5   4  -1  209.63    7.17
   5  -4   1  208.71    7.97
  -5   4  -1  217.13    7.31
   5  -4   1  202.38    7.62
   5  -4   2   55.25    4.25
  -5   4  -2   54.59    3.68
  -5   4  -2   51.79    3.54
   5  -4   2   57.45    4.05
  -5   4  -2   56.77    3.71
   5  -4   2   52.87    4.13
   5  -4   3   54.82    3.97
  -5   4  -3   58.80    3.73
  -5   4  -3   55.75    3.45
   5  -4   3   53.94    3.76
  -5   4  -3   59.52    3.69
   5  -4   3   53.97    4.22
   5  -4   4  111.10    5.15
  -5   4  -4  128.53    5.30
  -5   4  -4  113.82    4.65
   5  -4   4  106.59    4.83
  -5   4  -4  127.62    5.21
   5  -4   4  109.98    5.80
   5  -4   5    0.36    1.48
  -5   4  -5    1.12    1.56
   5  -4   5    1.43    1.26
  -5   4  -5    2.12    1.59
  -5   4  -5    0.04    1.58
  -5   4  -6   49.29    2.70
  -5   4  -7  126.67    4.15
  -5   4  -7  103.07    3.57
  -5   4  -7  118.87    4.04
   5  -4   7   97.32    4.43
  -5   3   7  303.82    7.90
   5  -3  -7  286.78    8.14
  -5   3   6  388.63    9.73
   5  -3  -6  367.55   10.18
   5  -3  -5   40.34    3.29
  -5   3   5   40.43    3.18
   5  -3  -5   32.36    2.37
   5  -3  -5   43.40    3.60
   5  -3  -4   79.27    4.81
  -5   3   4   87.34    4.53
   5  -3  -4   81.00    4.12
   5  -3  -4   89.42    4.91
  -5   3   3   23.67    3.04
   5  -3  -3   23.64    2.75
   5  -3  -3   26.66    3.13
  -5   3   2   18.00    2.09
   5  -3  -2   19.97    3.20
   5  -3  -2   18.83    2.75
  -5   3   2   19.12    2.08
   5  -3  -2   20.84    2.92
   5  -3  -2   18.08    2.50
   5  -3  -1   76.77    5.13
  -5   3   1   72.26    3.90
  -5   3   1   73.66    3.88
   5  -3  -1   74.11    4.33
   5  -3  -1   72.29    4.45
   5  -3   0  349.44   11.32
  -5   3   0  356.72   10.11
   5  -3   0  358.92   11.15
  -5   3   0  349.98   10.01
   5  -3   0  336.86   10.81
   5  -3   1   31.54    3.57
  -5   3  -1   35.07    3.06
   5  -3   1   37.24    3.55
  -5   3  -1   32.29    2.98
   5  -3   1   38.08    3.85
   5  -3   2   36.69    3.48
  -5   3  -2   38.17    3.19
   5  -3   2   39.90    3.45
  -5   3  -2   40.49    3.20
   5  -3   2   39.46    4.08
  -5   3  -3  349.72    9.99
   5  -3   3  331.20    9.92
  -5   3  -3  361.48   10.05
   5  -3   4   27.93    2.64
  -5   3  -4   35.95    2.98
   5  -3   4   28.97    2.59
  -5   3  -4   36.53    2.94
  -5   3  -5   17.30    2.16
  -5   3  -5   17.19    2.16
   5  -3   5   14.92    2.75
  -5   3  -6   42.27    2.63
   5  -3   6   44.80    3.41
  -5   3  -7    6.27    1.33
  -5   3  -7    8.33    1.32
  -5   3  -7    8.22    1.31
   5  -3   7    5.94    1.69
  -5   2   8   22.80    1.94
   5  -2  -7    0.11    1.36
   5  -2  -7    1.54    1.22
  -5   2   7    1.09    1.56
   5  -2  -7    0.88    1.65
   5  -2  -6  198.77    5.77
   5  -2  -6  189.02    6.70
  -5   2   6  192.31    6.23
   5  -2  -6  195.82    6.78
   5  -2  -5  163.90    5.39
   5  -2  -5  157.74    6.66
  -5   2   5  163.28    6.09
   5  -2  -5  145.53    5.50
   5  -2  -5  167.31    6.55
   5  -2  -4    0.66    1.38
  -5   2   4    0.99    2.16
   5  -2  -4    0.49    1.69
   5  -2  -4    0.21    2.11
   5  -2  -4    1.24    1.64
   5  -2  -3   44.07    4.04
  -5   2   3   37.91    3.49
   5  -2  -3   41.68    3.44
   5  -2  -3   41.02    3.53
   5  -2  -3   33.90    3.21
   5  -2  -2 2603.47   51.43
  -5   2   2 2574.10   49.71
   5  -2  -2 2422.65   49.52
   5  -2  -2 2390.97   50.13
   5  -2  -1  152.25    7.04
  -5   2   1  146.08    5.52
  -5   2   1  143.85    6.15
   5  -2  -1  160.85    6.84
  -5   2   1  149.01    5.51
   5  -2  -1  142.44    6.64
   5  -2   0 1029.36   24.72
  -5   2   0 1074.34   23.48
  -5   2   0 1049.62   23.74
   5  -2   0 1107.92   24.83
  -5   2   0 1080.67   23.44
   5  -2   0 1097.69   25.32
   5  -2   1  163.01    6.89
  -5   2  -1  185.42    6.62
  -5   2  -1  165.52    6.54
   5  -2   1  176.88    7.05
  -5   2  -1  182.46    6.55
   5  -2   2    2.88    1.99
  -5   2  -2    2.64    2.18
  -5   2  -2    2.96    1.86
   5  -2   2    4.19    2.08
  -5   2  -2    4.01    1.90
   5  -2   3    4.07    1.74
  -5   2  -3    4.24    2.00
  -5   2  -3    6.40    1.94
   5  -2   3    4.40    1.75
  -5   2  -3    6.38    1.96
   5  -2   3    6.23    2.78
  -5   2  -4   18.64    2.30
  -5   2  -4   15.88    2.33
  -5   2  -4   12.82    1.47
   5  -2   4   15.84    1.91
  -5   2  -4   20.94    2.35
   5  -2   4   18.98    3.04
  -5   2  -5    1.46    1.55
  -5   2  -5    1.59    1.45
  -5   2  -5    1.27    1.41
   5  -2   5    1.02    2.03
  -5   2  -6    4.34    1.45
  -5   2  -6    4.55    1.30
  -5   2  -6    3.87    1.29
   5  -2   6    4.15    1.78
   5  -1  -8    2.98    1.30
   5  -1  -8    2.84    1.27
  -5   1   8    2.94    1.31
   5  -1  -8    3.48    1.46
   5  -1  -7   16.20    1.99
   5  -1  -7   16.62    2.26
  -5   1   7   18.43    2.14
   5  -1  -7   19.22    2.34
   5  -1  -6   21.90    2.23
  -5   1   6   23.48    2.42
   5  -1  -6   22.93    2.64
   5  -1  -6   18.95    1.97
   5  -1  -5  410.13   10.08
  -5   1   5  391.86   10.28
   5  -1  -5  388.56   10.77
   5  -1  -4  386.98   11.68
   5  -1  -4  373.56    9.78
  -5   1   4  370.49   10.23
   5  -1  -4  372.38   10.66
   5  -1  -4  358.44   10.45
   5  -1  -4  366.40   10.84
   5  -1  -3  399.74   11.97
  -5   1   3  386.11   10.62
   5  -1  -3  394.74   11.34
   5  -1  -3  358.55   10.44
   5  -1  -3  390.48   11.58
   5  -1  -2  922.09   21.06
  -5   1   2  867.79   19.44
   5  -1  -2  912.31   20.99
   5  -1  -1  994.77   23.45
  -5   1   1 1005.36   21.62
  -5   1   1  958.52   22.23
   5  -1  -1 1042.52   23.56
  -5   1   1 1021.11   21.61
   5  -1  -1 1065.94   24.27
   5  -1   0  153.96    6.61
  -5   1   0  176.50    6.10
  -5   1   0  162.56    6.31
   5  -1   0  180.28    7.06
  -5   1   0  179.83    6.11
   5  -1   1    2.25    1.91
  -5   1  -1   -0.85    2.18
  -5   1  -1    2.29    1.58
   5  -1   1    1.84    1.92
  -5   1  -1    2.12    1.56
   5  -1   1    2.70    2.60
  -5   1  -2   17.08    2.21
  -5   1  -2   15.00    2.30
   5  -1   2   14.94    2.28
  -5   1  -2   16.46    2.22
   5  -1   2   18.37    3.17
  -5   1  -3  141.17    5.38
  -5   1  -3  125.86    5.06
  -5   1  -3  133.71    5.25
   5  -1   3  127.74    5.02
   5  -1   3  144.22    6.32
  -5   1  -4   32.69    2.57
  -5   1  -4   32.93    2.58
  -5   1  -4   25.45    2.03
  -5   1  -4   36.83    2.65
   5  -1   4   35.91    3.21
  -5   1  -5   31.77    2.30
  -5   1  -5   29.72    2.24
  -5   1  -5   30.43    2.26
   5  -1   5   28.10    2.58
   5   0  -8   16.24    1.79
   5   0  -8   16.57    1.99
   5   0  -8   17.42    1.92
   5   0  -7    0.75    1.39
  -5   0   7    0.57    1.16
   5   0  -7   -0.36    1.54
   5   0  -6   20.44    2.33
   5   0  -6   24.56    2.86
  -5   0   6   20.63    2.10
   5   0  -6   23.76    2.41
   5   0  -6   21.65    2.14
   5   0  -6   18.25    2.22
   5   0  -5   22.18    3.00
   5   0  -5   23.23    2.37
  -5   0   5   19.31    2.19
   5   0  -5   22.59    2.47
   5   0  -5   20.99    2.39
   5   0  -5   19.74    2.68
   5   0  -4   71.81    4.56
  -5   0   4   64.23    3.52
   5   0  -4   68.23    3.61
   5   0  -4   72.62    4.17
   5   0  -4   75.62    4.65
   5   0  -3   13.17    2.75
  -5   0   3   14.36    2.27
  -5   0   3   14.91    2.17
   5   0  -3   15.38    2.99
   5   0  -2   58.00    4.03
  -5   0   2   56.02    3.43
   5   0  -2   61.54    4.10
  -5   0   2   52.25    3.01
  -5   0   1    5.84    1.47
   5   0  -1    8.35    2.19
  -5   0   1    7.43    2.04
   5   0  -1    8.53    2.30
   5   0   0   81.44    4.14
  -5   0   0   93.98    3.93
  -5   0   0   84.93    4.04
  -5   0   0   94.51    3.91
   5   0   0  100.34    5.01
   5   0   0  109.05    5.68
  -5   0  -1  560.22   13.25
  -5   0  -1  559.73   13.23
   5   0   1  577.73   14.25
   5   0   1  609.15   15.25
  -5   0  -2    8.40    1.84
  -5   0  -2   11.42    1.74
   5   0   2    7.79    1.81
  -5   0  -2   10.27    1.74
   5   0   2   11.60    2.47
  -5   0  -3  274.90    7.61
  -5   0  -3  283.38    7.63
   5   0   3  273.51    8.36
  -5   0  -4   12.54    1.62
  -5   0  -4   10.80    1.56
  -5   0  -4   10.43    1.46
  -5   0  -4   13.14    1.63
   5   0   4   12.36    1.93
   5   1  -7   86.80    3.98
   5   1  -7   84.96    3.53
   5   1  -6   21.55    2.54
   5   1  -6   17.57    2.00
   5   1  -6   17.10    1.91
   5   1  -6   15.87    2.23
   5   1  -5  120.58    5.29
   5   1  -5  114.57    4.35
   5   1  -5  120.92    4.93
   5   1  -5  122.11    5.41
  -5  -1   5  120.28    4.90
   5   1  -4   61.20    3.89
   5   1  -4   65.75    3.82
   5   1  -4   65.92    4.24
  -5  -1   4   59.85    3.41
   5   1  -3   31.70    2.95
  -5  -1   3   34.07    2.64
  -5  -1   2    8.22    1.71
   5   1  -2    7.84    1.97
  -5  -1   2    6.83    1.42
   5   1  -2   12.43    2.34
   5   1  -2   10.58    2.68
  -5  -1   1    0.23    1.13
  -5  -1   1    0.83    1.23
   5   1  -1    0.63    1.76
   5   1  -1    1.02    2.17
   5   1   0   69.23    3.79
   5   1   0   74.36    4.33
  -5  -1  -1   -0.05    1.16
  -5  -1  -1    0.38    1.04
   5   1   1    0.61    1.42
  -5  -1  -1    0.89    1.06
   5   1   1    1.29    1.91
  -5  -1  -2   98.12    3.68
  -5  -1  -2   97.36    3.64
   5   1   2   90.89    4.15
  -5  -1  -3   10.12    1.39
  -5  -1  -3   10.35    1.46
  -5  -1  -3   10.17    1.39
   5   2  -6   16.11    1.93
   5   2  -6   16.49    2.10
   5   2  -6   15.23    1.64
  -5  -2   6   16.64    1.86
   5   2  -5   80.71    3.73
   5   2  -5   85.78    3.79
  -5  -2   5   91.73    3.74
  -5  -2   4    3.50    1.44
   5   2  -4    3.26    1.44
   5   2  -4    5.11    1.97
   5   2  -3  213.92    6.77
   5   2  -3  208.05    7.07
  -5  -2   3  189.65    5.89
   5   2  -2   21.18    2.27
   5   2  -2   21.24    2.61
  -5  -2   2   16.61    1.75
   5   2  -1   13.38    1.96
   5   2  -1   15.30    2.26
   5   2   0    6.92    1.49
   5   2   0    6.28    1.69
   0   0   0    0.00    0.00
TITL 2017ncs0597a in P-1
REM P-1 (#2 in standard setting)
CELL 1.54184   4.944140   8.218814  12.130774 108.8490  92.2884 106.2729
ZERR    2.00   0.000198   0.000400   0.000319   0.0034   0.0029   0.0039
LATT  1
SFAC C H N O
UNIT 18.00 22.00 2.00 6.00
TREF
HKLF 4
END
_computing_structure_solution     'SHELXT 2014/5 (Sheldrick, 2014)'
;
_shelx_hkl_checksum              80324
_shelx_res_file
;
TITL 597_a.res in P-1
    597.res
    created by SHELXL-2017/1 at 19:59:56 on 18-Oct-2017
REM Old TITL 2017ncs0597a in P-1
REM SHELXT solution in P-1
REM R1 0.182,  Rweak 0.006,  Alpha 0.036,  Orientation as input
REM Formula found by SHELXT:  C9 N O3
CELL  1.54184   4.9441   8.2188  12.1308  108.849   92.288  106.273
ZERR    2.000   0.0002   0.0004   0.0003    0.003    0.003    0.004
LATT  1
SFAC  C   H   N   O
UNIT 18 22 2 6
temp -173
size 0.2 0.1 0.05
L.S. 10
BOND $H
conf
LIST 4
acta
htab
FMAP 2
PLAN 20
REM #####
WGHT    0.077500    0.127300
FVAR       2.30735
O13   4   -0.224174    0.066532    0.086419    11.00000    0.02340    0.03197 =
         0.02871    0.00619    0.00760   -0.00075
O21   4    0.295242    0.565596    0.413579    11.00000    0.02514    0.02977 =
         0.02017    0.00809    0.00715    0.00375
O41   4    1.148946    0.886050    0.310754    11.00000    0.02273    0.03091 =
         0.02411    0.00886    0.00677    0.00224
N12   3    0.058913    0.177586    0.099192    11.00000    0.02122    0.02784 =
         0.02522    0.01000    0.00442    0.00317
C1    1    0.395111    0.457582    0.220734    11.00000    0.02288    0.02485 =
         0.02301    0.00993    0.00326    0.00795
C2    1    0.479128    0.588601    0.334905    11.00000    0.02222    0.02851 =
         0.02164    0.01227    0.00601    0.00917
C3    1    0.733103    0.728703    0.362345    11.00000    0.02348    0.02789 =
         0.01964    0.00863    0.00335    0.00718
AFIX  43
H3    2    0.789071    0.815115    0.439846    11.00000   -1.20000
AFIX   0
C4    1    0.906292    0.742126    0.275408    11.00000    0.01981    0.02695 =
         0.02569    0.01142    0.00294    0.00631
C5    1    0.827581    0.614904    0.161769    11.00000    0.02363    0.03056 =
         0.02290    0.01126    0.00773    0.00997
AFIX  43
H5    2    0.945380    0.624026    0.102665    11.00000   -1.20000
AFIX   0
C6    1    0.574116    0.474751    0.136571    11.00000    0.02522    0.02714 =
         0.02082    0.00770    0.00364    0.00832
AFIX  43
H6    2    0.520758    0.387495    0.059294    11.00000   -1.20000
AFIX   0
C11   1    0.119384    0.316406    0.192521    11.00000    0.02415    0.02880 =
         0.02209    0.01180    0.00575    0.00796
AFIX  43
H11   2   -0.017316    0.328624    0.244952    11.00000   -1.20000
AFIX   0
C21   1    0.351331    0.707035    0.525596    11.00000    0.02952    0.03238 =
         0.01953    0.00750    0.00774    0.00652
AFIX 137
H21A  2    0.196509    0.679099    0.571095    11.00000   -1.50000
H21B  2    0.364539    0.821605    0.514202    11.00000   -1.50000
H21C  2    0.531398    0.717369    0.568289    11.00000   -1.50000
AFIX   0
C41   1    1.325970    0.909331    0.222715    11.00000    0.02497    0.03327 =
         0.02578    0.01309    0.00847    0.00588
AFIX 137
H41A  2    1.490351    1.018155    0.257704    11.00000   -1.50000
H41B  2    1.216391    0.922054    0.158580    11.00000   -1.50000
H41C  2    1.392155    0.803696    0.191690    11.00000   -1.50000
AFIX   0
H13   2   -0.235375   -0.031334    0.024415    11.00000    0.04937
HKLF 4
REM  597_a.res in P-1
REM R1 =  0.0347 for    1462 Fo > 4sig(Fo)  and  0.0368 for all    1594 data
REM    124 parameters refined using      0 restraints
END
WGHT      0.0661      0.0674
REM Instructions for potential hydrogen bonds
EQIV $1 -x, -y, -z
HTAB O13 N12_$1
REM Highest difference peak  0.197,  deepest hole -0.190,  1-sigma level  0.038
Q1    1   0.4008  0.5186  0.2641  11.00000  0.05    0.20
Q2    1  -0.1659  0.2198  0.1322  11.00000  0.05    0.16
Q3    1   0.8669  0.6715  0.2187  11.00000  0.05    0.15
Q4    1   0.5658  0.7007  0.3376  11.00000  0.05    0.14
Q5    1   0.6229  0.6006  0.3470  11.00000  0.05    0.13
Q6    1   0.7706  0.5010  0.1521  11.00000  0.05    0.13
Q7    1   1.4979  0.9958  0.2818  11.00000  0.05    0.13
Q8    1   1.1660  1.0147  0.3882  11.00000  0.05    0.13
Q9    1   0.6782  0.6015  0.1418  11.00000  0.05    0.13
Q10   1   0.2901  0.3706  0.2025  11.00000  0.05    0.12
Q11   1   0.7241  0.8733  0.4258  11.00000  0.05    0.12
Q12   1   1.0996  0.7449  0.2160  11.00000  0.05    0.11
Q13   1  -0.0943  0.0040  0.1215  11.00000  0.05    0.11
Q14   1   0.2227  0.4490  0.3040  11.00000  0.05    0.11
Q15   1   0.0848  0.5916  0.4399  11.00000  0.05    0.11
Q16   1   0.0295  0.0167  0.0683  11.00000  0.05    0.11
Q17   1   1.0650  0.7609  0.1992  11.00000  0.05    0.11
Q18   1  -0.0655  0.1499  0.1786  11.00000  0.05    0.11
Q19   1   0.2767  0.8357  0.5237  11.00000  0.05    0.11
Q20   1   0.2173  0.6331  0.5802  11.00000  0.05    0.11
;
_shelx_res_checksum              68361
loop_
_space_group_symop_operation_xyz
'x, y, z'
'-x, -y, -z'
loop_
_atom_site_type_symbol
_atom_site_label
_atom_site_fract_x
_atom_site_fract_y
_atom_site_fract_z
_atom_site_U_iso_or_equiv
_atom_site_adp_type
_atom_site_calc_flag
_atom_site_occupancy
O O13 -0.22417(16) 0.06653(12) 0.08642(7) 0.0311(2) Uani d 1
O O21 0.29524(16) 0.56560(10) 0.41358(7) 0.0261(2) Uani d 1
O O41 1.14895(16) 0.88605(11) 0.31075(7) 0.0273(2) Uani d 1
N N12 0.05891(19) 0.17759(13) 0.09919(8) 0.0255(3) Uani d 1
C C1 0.3951(2) 0.45758(15) 0.22073(10) 0.0231(3) Uani d 1
C C2 0.4791(2) 0.58860(15) 0.33490(9) 0.0228(3) Uani d 1
C C3 0.7331(2) 0.72870(15) 0.36234(9) 0.0237(3) Uani d 1
H H3 0.789071 0.815115 0.439846 0.028 Uiso calc 1
C C4 0.9063(2) 0.74213(15) 0.27541(10) 0.0238(3) Uani d 1
C C5 0.8276(2) 0.61490(15) 0.16177(10) 0.0247(3) Uani d 1
H H5 0.945380 0.624026 0.102665 0.030 Uiso calc 1
C C6 0.5741(2) 0.47475(15) 0.13657(10) 0.0245(3) Uani d 1
H H6 0.520758 0.387495 0.059294 0.029 Uiso calc 1
C C11 0.1194(2) 0.31641(15) 0.19252(10) 0.0242(3) Uani d 1
H H11 -0.017316 0.328624 0.244952 0.029 Uiso calc 1
C C21 0.3513(2) 0.70704(15) 0.52560(9) 0.0281(3) Uani d 1
H H21A 0.196509 0.679099 0.571095 0.042 Uiso calc 1
H H21B 0.364539 0.821605 0.514202 0.042 Uiso calc 1
H H21C 0.531398 0.717369 0.568289 0.042 Uiso calc 1
C C41 1.3260(2) 0.90933(16) 0.22272(10) 0.0278(3) Uani d 1
H H41A 1.490351 1.018155 0.257704 0.042 Uiso calc 1
H H41B 1.216391 0.922054 0.158580 0.042 Uiso calc 1
H H41C 1.392155 0.803696 0.191690 0.042 Uiso calc 1
H H13 -0.235(4) -0.031(2) 0.0244(16) 0.049(5) Uiso d 1
loop_
_atom_site_aniso_label
_atom_site_aniso_U_11
_atom_site_aniso_U_22
_atom_site_aniso_U_33
_atom_site_aniso_U_12
_atom_site_aniso_U_13
_atom_site_aniso_U_23
O13 0.0234(4) 0.0320(5) 0.0287(5) -0.0008(3) 0.0076(3) 0.0062(4)
O21 0.0251(4) 0.0298(4) 0.0202(4) 0.0037(3) 0.0072(3) 0.0081(3)
O41 0.0227(4) 0.0309(5) 0.0241(4) 0.0022(3) 0.0068(3) 0.0089(3)
N12 0.0212(5) 0.0278(5) 0.0252(5) 0.0032(4) 0.0044(4) 0.0100(4)
C1 0.0229(6) 0.0248(6) 0.0230(6) 0.0079(4) 0.0033(4) 0.0099(4)
C2 0.0222(5) 0.0285(6) 0.0216(6) 0.0092(4) 0.0060(4) 0.0123(5)
C3 0.0235(6) 0.0279(6) 0.0196(5) 0.0072(5) 0.0034(4) 0.0086(4)
C4 0.0198(6) 0.0269(6) 0.0257(6) 0.0063(4) 0.0029(4) 0.0114(5)
C5 0.0236(6) 0.0306(6) 0.0229(6) 0.0100(5) 0.0077(4) 0.0113(5)
C6 0.0252(6) 0.0271(6) 0.0208(5) 0.0083(5) 0.0036(4) 0.0077(4)
C11 0.0242(6) 0.0288(6) 0.0221(6) 0.0080(5) 0.0058(4) 0.0118(4)
C21 0.0295(6) 0.0324(6) 0.0195(6) 0.0065(5) 0.0077(4) 0.0075(5)
C41 0.0250(6) 0.0333(6) 0.0258(6) 0.0059(5) 0.0085(4) 0.0131(5)
loop_
_atom_type_symbol
_atom_type_description
_atom_type_scat_dispersion_real
_atom_type_scat_dispersion_imag
_atom_type_scat_source
C C 0.0181 0.0091 'International Tables Vol C Tables 4.2.6.8 and 6.1.1.4'
H H 0.0000 0.0000 'International Tables Vol C Tables 4.2.6.8 and 6.1.1.4'
N N 0.0311 0.0180 'International Tables Vol C Tables 4.2.6.8 and 6.1.1.4'
O O 0.0492 0.0322 'International Tables Vol C Tables 4.2.6.8 and 6.1.1.4'
loop_
_geom_angle_atom_site_label_1
_geom_angle_atom_site_label_2
_geom_angle_atom_site_label_3
_geom_angle
N12 O13 H13 103.5(11)
C2 O21 C21 117.44(8)
C4 O41 C41 116.82(9)
C11 N12 O13 111.40(9)
C6 C1 C2 117.84(10)
C6 C1 C11 122.31(10)
C2 C1 C11 119.74(10)
O21 C2 C3 123.79(10)
O21 C2 C1 115.34(10)
C3 C2 C1 120.88(10)
C2 C3 C4 119.64(10)
C2 C3 H3 120.2
C4 C3 H3 120.2
O41 C4 C3 115.11(10)
O41 C4 C5 124.27(10)
C3 C4 C5 120.62(10)
C6 C5 C4 118.78(10)
C6 C5 H5 120.6
C4 C5 H5 120.6
C1 C6 C5 122.23(10)
C1 C6 H6 118.9
C5 C6 H6 118.9
N12 C11 C1 121.37(10)
N12 C11 H11 119.3
C1 C11 H11 119.3
O21 C21 H21A 109.5
O21 C21 H21B 109.5
H21A C21 H21B 109.5
O21 C21 H21C 109.5
H21A C21 H21C 109.5
H21B C21 H21C 109.5
O41 C41 H41A 109.5
O41 C41 H41B 109.5
H41A C41 H41B 109.5
O41 C41 H41C 109.5
H41A C41 H41C 109.5
H41B C41 H41C 109.5
loop_
_geom_bond_atom_site_label_1
_geom_bond_atom_site_label_2
_geom_bond_distance
O13 N12 1.4112(12)
O13 H13 0.893(18)
O21 C2 1.3648(13)
O21 C21 1.4294(13)
O41 C4 1.3632(13)
O41 C41 1.4339(13)
N12 C11 1.2728(15)
C1 C6 1.3931(16)
C1 C2 1.4107(15)
C1 C11 1.4634(15)
C2 C3 1.3864(16)
C3 C4 1.3971(16)
C3 H3 0.9500
C4 C5 1.3939(16)
C5 C6 1.3869(16)
C5 H5 0.9500
C6 H6 0.9500
C11 H11 0.9500
C21 H21A 0.9800
C21 H21B 0.9800
C21 H21C 0.9800
C41 H41A 0.9800
C41 H41B 0.9800
C41 H41C 0.9800
loop_
_geom_hbond_atom_site_label_D
_geom_hbond_atom_site_label_H
_geom_hbond_atom_site_label_A
_geom_hbond_site_symmetry_A
_geom_hbond_distance_DH
_geom_hbond_distance_HA
_geom_hbond_distance_DA
_geom_hbond_angle_DHA
_geom_hbond_publ_flag
O13 H13 N12 2 0.893(18) 1.995(19) 2.8124(13) 151.5(15) yes
C41 H41A O13 1_765 0.98 2.63 3.0680(15) 107 yes
C41 H41C Cg1 1_655 0.98 2.60 3.4479(13) 144 yes
loop_
_geom_torsion_atom_site_label_1
_geom_torsion_atom_site_label_2
_geom_torsion_atom_site_label_3
_geom_torsion_atom_site_label_4
_geom_torsion
C21 O21 C2 C3 8.36(15)
C21 O21 C2 C1 -171.96(9)
C6 C1 C2 O21 179.72(9)
C11 C1 C2 O21 3.38(15)
C6 C1 C2 C3 -0.59(16)
C11 C1 C2 C3 -176.93(9)
O21 C2 C3 C4 -179.34(9)
C1 C2 C3 C4 1.00(16)
C41 O41 C4 C3 -177.21(9)
C41 O41 C4 C5 2.51(16)
C2 C3 C4 O41 179.03(9)
C2 C3 C4 C5 -0.70(17)
O41 C4 C5 C6 -179.69(9)
C3 C4 C5 C6 0.01(17)
C2 C1 C6 C5 -0.11(17)
C11 C1 C6 C5 176.12(9)
C4 C5 C6 C1 0.40(17)
O13 N12 C11 C1 -175.95(9)
C6 C1 C11 N12 17.32(17)
C2 C1 C11 N12 -166.51(10)

_cod_database_fobs_code 2242668
