#------------------------------------------------------------------------------
#$Date: 2017-01-07 04:25:06 +0200 (Sat, 07 Jan 2017) $
#$Revision: 190000 $
#$URL: file:///home/coder/svn-repositories/cod/cif/2/24/20/2242002.cif $
#------------------------------------------------------------------------------
#
# This file is available in the Crystallography Open Database (COD),
# http://www.crystallography.net/. The original data for this entry
# were provided by IUCr Journals, http://journals.iucr.org/.
#
# The file may be used within the scientific community so long as
# proper attribution is given to the journal article from which the
# data were obtained.
#
data_2242002
loop_
_publ_author_name
'Arulraj, R.'
'Sivakumar, S.'
'Kaur, Manpreet'
'Thiruvalluvar, A.'
'Jasinski, Jerry P.'
_publ_section_title
;
 Crystal structures of three 3-chloro-3-methyl-2,6-diarylpiperidin-4-ones
;
_journal_coeditor_code           HB7647
_journal_issue                   2
_journal_name_full               'Acta Crystallographica Section E'
_journal_page_first              107
_journal_page_last               111
_journal_paper_doi               10.1107/S2056989016020661
_journal_volume                  73
_journal_year                    2017
_chemical_formula_moiety         'C18 H18 Cl N O'
_chemical_formula_sum            'C18 H18 Cl N O'
_chemical_formula_weight         299.78
_chemical_name_systematic
;
3-Chloro-3-methyl-<i>r</i>-2,<i>c</i>-6-diphenylpiperidin-4-one
;
_space_group_crystal_system      triclinic
_space_group_IT_number           2
_space_group_name_Hall           '-P 1'
_space_group_name_H-M_alt        'P -1'
_symmetry_space_group_name_Hall  '-P 1'
_symmetry_space_group_name_H-M   'P -1'
_atom_sites_solution_hydrogens   mixed
_atom_sites_solution_primary     direct
_audit_creation_method
;
Olex2 1.2
(compiled 2016.09.09 svn.r3337 for OlexSys, GUI svn.r5227)
;
_cell_angle_alpha                72.162(9)
_cell_angle_beta                 79.721(7)
_cell_angle_gamma                76.873(8)
_cell_formula_units_Z            2
_cell_length_a                   6.7150(6)
_cell_length_b                   10.9591(13)
_cell_length_c                   11.1704(10)
_cell_measurement_reflns_used    1924
_cell_measurement_temperature    173(2)
_cell_measurement_theta_max      71.4060
_cell_measurement_theta_min      4.2010
_cell_volume                     756.79(14)
_computing_cell_refinement
;
CrysAlisPro (Agilent, 2014)
;
_computing_data_collection
;
CrysAlisPro (Agilent, 2014)
;
_computing_data_reduction
;
CrysAlisPro (Agilent, 2014)
;
_computing_molecular_graphics
;
<i>OLEX2</i> (Dolomanov <i>et al.</i>, 2009)
;
_computing_publication_material
;
<i>OLEX2</i> (Dolomanov <i>et al.</i>, 2009)
;
_computing_structure_refinement
;
SHELXL (Sheldrick, 2015b)
;
_computing_structure_solution
;
SHELXT (Sheldrick, 2015a)
;
_diffrn_ambient_temperature      173(2)
_diffrn_detector_area_resol_mean 16.0416
_diffrn_measured_fraction_theta_full 0.989
_diffrn_measured_fraction_theta_max 0.961
_diffrn_measurement_device       'four-circle diffractometer'
_diffrn_measurement_device_type  'Rigaku Oxford Diffraction'
_diffrn_measurement_method       '\w scans'
_diffrn_radiation_monochromator  graphite
_diffrn_radiation_type           CuK\a
_diffrn_radiation_wavelength     1.54184
_diffrn_reflns_av_R_equivalents  0.0304
_diffrn_reflns_limit_h_max       8
_diffrn_reflns_limit_h_min       -5
_diffrn_reflns_limit_k_max       12
_diffrn_reflns_limit_k_min       -13
_diffrn_reflns_limit_l_max       13
_diffrn_reflns_limit_l_min       -13
_diffrn_reflns_number            4920
_diffrn_reflns_theta_full        67.684
_diffrn_reflns_theta_max         71.619
_diffrn_reflns_theta_min         4.187
_exptl_absorpt_coefficient_mu    2.206
_exptl_absorpt_correction_T_max  1.00000
_exptl_absorpt_correction_T_min  0.60910
_exptl_absorpt_correction_type   multi-scan
_exptl_absorpt_process_details
;
CrysAlisPro (Agilent, 2014)
;
_exptl_crystal_colour            colourless
_exptl_crystal_density_diffrn    1.316
_exptl_crystal_description       plate
_exptl_crystal_F_000             316
_exptl_crystal_size_max          0.26
_exptl_crystal_size_mid          0.22
_exptl_crystal_size_min          0.06
_refine_diff_density_max         0.683
_refine_diff_density_min         -0.293
_refine_ls_extinction_method     none
_refine_ls_goodness_of_fit_ref   1.045
_refine_ls_hydrogen_treatment    mixed
_refine_ls_matrix_type           full
_refine_ls_number_parameters     195
_refine_ls_number_reflns         2847
_refine_ls_number_restraints     0
_refine_ls_restrained_S_all      1.045
_refine_ls_R_factor_all          0.0666
_refine_ls_R_factor_gt           0.0573
_refine_ls_shift/su_max          0.000
_refine_ls_shift/su_mean         0.000
_refine_ls_structure_factor_coef Fsqd
_refine_ls_weighting_details
'w=1/[\s^2^(Fo^2^)+(0.1016P)^2^+0.3319P] where P=(Fo^2^+2Fc^2^)/3'
_refine_ls_weighting_scheme      calc
_refine_ls_wR_factor_gt          0.1561
_refine_ls_wR_factor_ref         0.1683
_reflns_number_gt                2456
_reflns_number_total             2847
_reflns_threshold_expression     'I > 2\s(I)'
_cod_data_source_file            hb7647sup1.cif
_cod_data_source_block           I
_cod_original_cell_volume        756.80(14)
_cod_database_code               2242002
_shelx_space_group_comment
;
The symmetry employed for this shelxl refinement is uniquely defined
by the following loop, which should always be used as a source of
symmetry information in preference to the above space-group names.
They are only intended as comments.
;
_shelx_hkl_file
;
   0   0   1    8.59    0.76
   0   0  -2 8374.99   43.27
   0   0   2 8377.44   32.98
   0   0  -2 8474.28   38.22
   0   0  -3 1938.36   22.83
   0   0   3 1831.06   18.76
   0   0  -4 1865.14   30.56
   0   0   4 1945.56   35.93
   0   0  -4 1917.61   27.55
   0   0  -5 3284.22   46.56
   0   0   5 3261.04   52.90
   0   0   6    8.97    3.61
   0   0   7  207.76   16.54
   0   0  -8    8.04    1.84
   0   0  -8    7.23    1.43
   0   0  -9   31.57    3.69
   0   0  -9   34.72    3.76
   0   0 -10  153.39    8.08
   0   0 -10  159.07    8.18
   0   0 -11    9.48    2.14
   0   0 -12    1.59    0.70
   0   1 -12   26.04    2.77
   0   1 -11    0.85    0.85
   0   1 -10   99.51    6.47
   0   1  -9   58.54    5.04
   0   1  -9   55.27    4.94
   0   1  -8    9.11    1.88
   0   1  -8    8.33    1.93
   0  -1   7    9.76    3.65
   0   1  -7   10.98    3.74
   0  -1   6  587.88   26.21
   0   1  -6  611.62   25.81
   0   1  -6  625.53   23.91
   0  -1   5  857.80   28.18
   0   1  -5  883.23   27.92
   0  -1   4    2.31    2.19
   0  -1   4    1.65    0.93
   0  -1   3  623.36   17.48
   0  -1   3  610.10   17.90
   0   1  -3  619.59   14.12
   0  -1   2  475.08   10.07
   0   1  -2  483.48   11.82
   0  -1   2  478.03   13.59
   0  -1   1   89.36    4.96
   0  -1   0 1382.88   15.73
   0  -1   0 1329.06   16.51
   0  -1  -1  213.14    6.16
   0  -1  -2 2086.97   17.83
   0  -1  -3  268.91    8.88
   0  -1  -4    5.71    1.53
   0  -1  -4    5.54    1.50
   0   1   4    7.02    2.11
   0  -1  -5 1973.80   34.53
   0   1   5 2077.01   40.85
   0  -1  -5 2048.26   31.34
   0  -1  -6  401.34   15.87
   0   1   6  394.27   20.25
   0  -1  -6  410.86   18.00
   0   1   7  183.48   15.22
   0   1   8  170.62   16.09
   0  -1  -9   44.49    4.26
   0  -1  -9   40.88    4.06
   0  -1 -10   79.71    5.73
   0  -1 -10   81.06    5.90
   0  -1 -11   35.50    3.77
   0  -1 -11   35.38    3.83
   0  -1 -12    1.14    0.84
   0  -1 -13   28.06    2.55
   0   2 -12    0.40    0.61
   0  -2  12    1.00    0.55
   0   2 -11   74.97    5.12
   0   2 -10  127.09    7.39
   0   2  -9   89.57    6.31
   0   2  -8   10.52    2.23
   0   2  -7   88.55   11.57
   0  -2   7   80.01   11.37
   0   2  -6  583.14   27.12
   0   2  -6  595.69   25.89
   0  -2   6  543.16   26.74
   0   2  -5  121.10   11.23
   0   2  -5  122.22   10.55
   0  -2   5  122.45   11.36
   0   2  -4    0.25    1.13
   0  -2   4    1.34    0.84
   0   2  -4    0.89    1.13
   0  -2   4    3.28    2.27
   0  -2   4   -0.82    1.51
   0   2  -3    0.75    1.03
   0   2  -3   -0.67    0.95
   0   2  -3    0.63    1.03
   0  -2   3    0.39    1.55
   0  -2   3    2.31    1.93
   0  -2   3    0.79    0.70
   0  -2   2  568.83   15.27
   0  -2   2  597.02   18.19
   0  -2   2  571.95   17.13
   0   2  -2  570.68   16.95
   0   2  -2  538.98   16.72
   0  -2   1  339.32   12.42
   0  -2   1  309.43   11.36
   0  -2   0  116.95    6.93
   0  -2   0  130.39    6.90
   0  -2  -1    7.82    2.11
   0  -2  -2  656.53   15.78
   0  -2  -3  500.96   13.91
   0  -2  -3  462.99   12.36
   0  -2  -4   89.62    6.91
   0   2   4   90.20    7.33
   0   2   5    9.59    2.94
   0  -2  -5    9.17    2.65
   0  -2  -5   12.14    2.58
   0   2   6   13.78    3.84
   0  -2  -6    9.80    2.74
   0  -2  -6    8.33    2.51
   0   2   7    6.00    3.30
   0  -2  -7    2.02    0.80
   0   2   8  244.74   19.14
   0  -2  -9   29.60    3.38
   0  -2  -9   22.61    2.93
   0  -2  -9   24.13    3.01
   0  -2 -10   18.06    2.78
   0  -2 -10   17.04    2.74
   0  -2 -11   16.64    2.62
   0  -2 -11   14.80    2.41
   0  -2 -12   30.45    3.25
   0  -2 -13   20.73    2.40
   0   3 -11   72.19    4.70
   0  -3  11   63.02    3.99
   0   3 -10  145.27    7.61
   0   3  -9   32.23    3.85
   0   3  -8   22.47    3.23
   0   3  -7  188.23    8.82
   0  -3   6  198.96   17.37
   0   3  -5  857.09   31.37
   0  -3   5  799.05   31.91
   0  -3   4   15.88    4.51
   0   3  -4   19.73    4.51
   0   3  -4   17.99    3.72
   0  -3   4   12.92    3.84
   0  -3   3  237.72   14.54
   0   3  -3  209.51   12.93
   0  -3   3  231.47   12.05
   0  -3   2   65.42    7.13
   0  -3   2   73.14    7.37
   0  -3   2   70.37    6.81
   0   3  -2   68.09    7.31
   0  -3   1 2878.17   43.24
   0  -3   0   80.50    6.86
   0  -3   0   83.69    7.16
   0  -3  -1  421.38   15.68
   0  -3  -1  400.57   14.16
   0  -3  -2    6.47    2.47
   0  -3  -3  183.87    9.60
   0  -3  -3  163.48    9.54
   0  -3  -4    4.33    1.62
   0  -3  -5  590.33   21.62
   0   3   5  633.39   22.73
   0   3   6    1.55    1.26
   0  -3  -6    3.08    1.57
   0  -3  -6    0.96    1.17
   0   3   7   74.99    9.88
   0  -3  -7   69.31    8.51
   0   3   8    5.27    3.92
   0  -3  -9   14.19    2.16
   0  -3  -9   15.71    2.53
   0  -3  -9   16.78    2.59
   0  -3 -10   47.29    4.39
   0  -3 -10   51.36    4.57
   0  -3 -10   48.97    4.51
   0  -3 -11  114.50    6.70
   0  -3 -11  114.32    6.69
   0  -3 -12    6.95    1.54
   0  -3 -12    9.36    1.78
   0  -3 -13   23.25    2.35
   0  -4  11   66.83    3.35
   0   4 -11   78.35    4.18
   0   4 -10   51.49    4.26
   0  -4  10   47.03    3.59
   0   4  -9   11.64    2.23
   0   4  -8  137.10    7.90
   0   4  -7  309.02   11.77
   0   4  -6    3.32    1.28
   0  -4   5  123.22   13.49
   0  -4   4    2.72    2.93
   0  -4   4    3.08    2.14
   0   4  -4    8.10    3.24
   0   4  -3  720.51   27.37
   0  -4   3  727.49   28.32
   0  -4   3  739.78   25.09
   0  -4   2   40.99    6.31
   0  -4   2   27.36    4.81
   0   4  -2   29.15    5.66
   0  -4   1  107.94    9.72
   0  -4   1  117.06    9.92
   0   4   0   57.09    7.07
   0  -4   0   50.54    6.25
   0  -4  -1    1.62    1.67
   0   4   1    2.12    0.87
   0  -4  -1    6.79    3.05
   0   4   1    2.49    1.81
   0   4   2   16.91    3.86
   0  -4  -2   13.98    3.27
   0  -4  -2   14.87    3.71
   0  -4  -3  553.54   20.72
   0  -4  -4  261.58   13.60
   0  -4  -5  219.33   14.94
   0   4   6    8.93    3.20
   0  -4  -6    8.27    2.82
   0  -4  -6   10.28    3.44
   0  -4  -7   10.00    3.27
   0  -4  -7   15.62    4.37
   0   4   7   12.37    4.26
   0   4   8    0.39    3.05
   0  -4  -9  374.85   12.45
   0  -4  -9  377.42   12.13
   0  -4  -9  357.60   11.12
   0  -4 -10  144.90    7.78
   0  -4 -10  141.34    7.68
   0  -4 -10  143.30    7.82
   0  -4 -11   13.89    2.34
   0  -4 -11   14.85    2.51
   0  -4 -11   12.99    2.31
   0  -4 -12    6.90    1.48
   0  -4 -12    9.23    1.89
   0  -4 -13   29.64    2.57
   0  -5  10   25.84    2.15
   0   5 -10   30.47    2.91
   0  -5   9   -0.04    0.79
   0   5  -9    0.46    0.69
   0  -5   8   13.57    2.06
   0   5  -8   12.64    2.51
   0   5  -7   24.59    3.45
   0   5  -6    3.85    1.32
   0   5  -5   35.60    3.83
   0   5  -4   75.97   10.53
   0  -5   4   69.31    9.95
   0   5  -3  155.92   14.45
   0  -5   3  154.63   12.87
   0  -5   3  153.29   14.41
   0  -5   2  338.03   20.28
   0   5  -2  352.04   20.93
   0  -5   2  340.26   19.24
   0  -5   1   31.37    5.95
   0  -5   1   31.12    5.88
   0   5  -1   29.00    5.70
   0   5  -1   33.87    6.33
   0  -5   0    3.07    2.54
   0  -5   0    2.34    1.67
   0   5   0    2.89    2.20
   0  -5  -1    0.44    1.29
   0   5   1    1.12    1.75
   0  -5  -2   71.20    7.59
   0   5   2   69.33    8.23
   0  -5  -3  504.45   20.03
   0  -5  -4 1280.28   34.53
   0  -5  -4 1222.62   32.18
   0  -5  -5   13.14    2.94
   0  -5  -6    0.86    1.07
   0   5   6    1.52    1.68
   0  -5  -7   76.70    9.49
   0   5   7   79.37   10.36
   0  -5  -7   81.63    9.98
   0   5   8  322.20   12.95
   0  -5  -8  329.41   10.47
   0  -5  -8  341.20   11.78
   0  -5  -9  241.04    9.25
   0  -5  -9  247.89   10.13
   0  -5  -9  256.87   10.46
   0  -5 -10    7.15    1.82
   0  -5 -10    7.99    2.05
   0  -5 -10    6.98    2.16
   0  -5 -10    8.04    1.72
   0  -5 -11   33.21    3.57
   0  -5 -11   26.56    3.35
   0  -5 -11   29.87    3.54
   0  -5 -12   47.23    3.79
   0  -5 -12   55.32    4.15
   0  -5 -13   72.96    3.81
   0  -6   9    4.67    0.99
   0   6  -9    3.54    1.01
   0   6  -8   -1.19    0.85
   0  -6   8   -0.30    0.77
   0  -6   7   -0.11    0.74
   0   6  -7   -1.90    1.39
   0   6  -6   17.22    2.94
   0  -6   6   17.03    2.30
   0   6  -5   60.51    5.43
   0  -6   5   62.83    4.51
   0   6  -4   17.00    2.72
   0  -6   4   16.36    2.13
   0  -6   3   28.76    6.53
   0   6  -3   23.39    6.13
   0   6  -2    2.91    2.53
   0  -6   2    0.22    1.11
   0   6  -2    0.88    1.94
   0  -6   2   -0.37    1.39
   0  -6   1  127.44   12.89
   0   6  -1  150.12   14.71
   0   6  -1  163.25   15.76
   0  -6   1  145.72   13.80
   0   6   0  465.42   25.39
   0  -6   0  458.13   23.93
   0   6   0  521.57   27.14
   0  -6   0  434.27   22.85
   0   6   1   38.49    7.18
   0   6   1   28.25    6.39
   0  -6  -1   29.49    5.89
   0  -6  -1   24.46    5.62
   0   6   2  187.06   15.21
   0  -6  -2  183.64   13.60
   0  -6  -2  188.30   15.04
   0  -6  -3  258.22   17.61
   0   6   3  279.76   18.31
   0  -6  -3  263.17   15.92
   0  -6  -4    0.52    1.38
   0   6   4    3.52    2.47
   0  -6  -4    2.84    2.18
   0  -6  -5   49.20    7.10
   0  -6  -6    0.64    1.97
   0  -6  -7   90.14   11.05
   0  -6  -7   75.77   10.48
   0   6   8   17.97    3.40
   0  -6  -8   22.98    3.20
   0  -6  -8   22.73    2.74
   0   6   9   -0.49    0.99
   0  -6  -9    2.22    1.10
   0  -6  -9    0.82    1.26
   0  -6 -10   52.69    4.74
   0  -6 -10   54.42    4.33
   0  -6 -10   52.01    4.66
   0  -6 -10   52.85    4.74
   0  -6 -11    2.78    1.15
   0  -6 -11    1.55    1.09
   0  -6 -11    3.90    1.61
   0  -6 -12   50.00    3.73
   0  -6 -12   47.58    3.65
   0   7  -8   11.52    1.94
   0  -7   8    7.72    1.01
   0   7  -7   17.57    2.71
   0  -7   7   15.97    1.98
   0   7  -6  259.63   10.95
   0  -7   6  255.12    8.67
   0   7  -5   26.18    3.62
   0  -7   5   26.15    2.94
   0   7  -4   28.94    3.81
   0   7  -3   31.11    3.85
   0   7  -2  181.63    8.93
   0   7  -2  182.78   18.17
   0  -7   2  153.86   15.45
   0   7  -1  158.24   16.88
   0  -7   1  155.35   15.42
   0  -7   1  133.92   14.47
   0   7  -1  174.56   17.65
   0  -7   0   97.75   12.13
   0   7   0  111.67   13.44
   0   7   0   96.42   12.36
   0  -7   0   77.93   10.70
   0   7   1  108.87   13.17
   0   7   1  101.56   12.92
   0  -7  -1   90.06   11.53
   0  -7  -1   87.50   10.94
   0  -7  -2  105.41   12.42
   0  -7  -2   93.18   10.90
   0   7   2  107.13   12.60
   0   7   2   98.41   12.49
   0  -7  -3   12.75    4.68
   0   7   3   15.17    4.85
   0  -7  -4  355.38   21.33
   0  -7  -4  380.64   23.24
   0  -7  -5   10.78    3.94
   0  -7  -6   29.89    3.17
   0  -7  -6   25.00    5.85
   0   7   6   35.92    4.68
   0   7   7  118.98    8.55
   0  -7  -7  111.69    6.36
   0  -7  -7  103.70    6.91
   0  -7  -8  296.10   10.46
   0   7   8  296.19   13.47
   0  -7  -8  295.47   11.49
   0  -7  -9    1.83    1.15
   0   7   9    0.92    1.08
   0  -7 -10   15.93    2.22
   0  -7 -10   14.25    2.56
   0  -7 -10   16.07    2.63
   0  -7 -11    5.32    1.36
   0  -7 -11    4.93    1.34
   0  -7 -11    4.16    1.33
   0  -7 -12   64.49    4.18
   0  -7 -12   60.76    3.78
   0   8  -7   52.71    4.17
   0   8  -7   49.28    3.90
   0   8  -6   36.81    4.00
   0   8  -6   34.88    3.77
   0   8  -5    1.41    0.86
   0   8  -4   68.30    5.86
   0   8  -3   77.61    6.47
   0   8  -3   72.15    5.99
   0   8  -2   26.21    3.70
   0   8  -2   28.20    3.90
   0   8  -1    3.41    1.42
   0   8   0  129.73    7.92
   0   8   1   -1.59    1.19
   0  -8  -2  814.30   17.43
   0   8   2  852.76   38.59
   0   8   2  818.89   37.52
   0  -8  -3    5.51    1.46
   0  -8  -3    5.28    3.48
   0   8   3    3.51    2.86
   0  -8  -4   12.28    1.94
   0  -8  -4    7.82    3.76
   0   8   4   15.86    3.43
   0   8   5  280.69   13.25
   0  -8  -5  220.74    9.18
   0  -8  -6   38.73    3.92
   0   8   6   45.29    5.55
   0  -8  -7  176.38    8.99
   0   8   7  196.63   11.18
   0  -8  -7  188.47    8.49
   0  -8  -8    1.86    1.22
   0  -8  -8    3.07    1.04
   0   8   8    3.73    2.07
   0  -8  -9   24.85    3.07
   0   8   9   19.41    3.45
   0  -8  -9   21.39    2.98
   0  -8 -10   17.70    2.35
   0  -8 -10   17.01    2.43
   0  -8 -10   20.03    2.89
   0  -8 -11   25.48    2.57
   0  -8 -11   28.91    3.06
   0  -8 -12   33.37    2.73
   0   9  -6    0.91    0.77
   0   9  -5   28.25    3.43
   0   9  -4   11.63    2.52
   0   9  -3  286.35   11.91
   0   9  -2   11.33    2.49
   0   9  -1   14.91    2.85
   0   9   0   75.11    6.21
   0   9   1  139.36    8.35
   0  -9  -2  986.59   20.12
   0   9   3   56.51    6.35
   0  -9  -3   65.98    5.03
   0   9   4  284.40   13.79
   0  -9  -4  292.00   10.60
   0  -9  -5   92.01    6.07
   0   9   5   88.23    7.82
   0  -9  -6   20.43    2.92
   0   9   6   26.57    4.25
   0   9   7  282.68   13.40
   0  -9  -7  257.99    9.93
   0  -9  -7  269.46   11.10
   0  -9  -8    0.84    0.76
   0  -9  -8    2.06    1.21
   0   9   8    0.74    1.39
   0   9   9   66.44    6.03
   0  -9  -9   63.04    4.55
   0  -9  -9   66.18    5.11
   0  -9 -10    0.83    0.70
   0  -9 -10    3.13    1.19
   0  -9 -11    6.11    1.40
   0  10  -5    4.48    1.05
   0 -10   5    5.50    1.08
   0  10  -4   27.62    3.10
   0  10  -3    4.64    1.61
   0  10  -2    0.81    0.93
   0  10  -1   -0.37    0.81
   0 -10   0   -0.77    1.27
   0 -10  -1   15.02    2.49
   0  10   1   15.01    3.09
   0 -10  -2   80.28    5.76
   0  10   2   78.78    7.11
   0 -10  -3   34.36    3.70
   0  10   3   27.10    4.26
   0  10   4   36.69    4.98
   0 -10  -4   36.20    3.94
   0  10   5   47.62    5.62
   0 -10  -5   52.44    4.62
   0 -10  -6    3.98    1.47
   0  10   6    2.45    1.44
   0  10   7  138.93    9.25
   0 -10  -7  149.36    7.21
   0  10   8    1.07    0.92
   0 -10  -8    3.21    1.31
   0  10   9   -0.04    0.72
   0 -10  -9    0.26    0.75
   0 -10 -10   -0.05    0.66
   0 -10 -10    1.74    0.76
   0 -11   3   25.88    2.24
   0 -11   2   10.42    1.71
   0 -11   1   28.00    2.85
   0 -11   0    3.73    1.44
   0 -11  -1  120.94    6.42
   0 -11  -2   32.89    3.38
   0  11   2   27.42    3.73
   0  11   3    6.45    2.12
   0 -11  -3    4.83    1.52
   0 -11  -4   67.25    4.91
   0  11   4   53.58    5.38
   0  11   5   16.86    3.19
   0 -11  -5   17.36    2.58
   0  11   6    1.68    1.13
   0 -11  -6    1.15    0.76
   0 -11  -7    6.29    1.51
   0  11   7    5.68    1.73
   0 -11  -8   49.47    3.50
   0  11   8   45.60    4.46
   0 -11  -9   -0.31    0.56
   0  11   9    0.83    0.77
   0 -12   1    0.45    0.53
   0 -12   0    3.79    0.98
   0 -12  -1   52.16    3.61
   0 -12  -2  132.08    5.89
   0 -12  -3    8.91    1.71
   0  12   3    5.09    1.48
   0 -12  -4    7.19    1.56
   0  12   4    6.41    1.68
   0  12   5   14.40    2.48
   0 -12  -5   14.27    1.99
   0 -12  -6   19.55    2.14
   0  12   6   18.60    2.75
   0 -12  -7   26.43    2.37
   0  12   7   26.07    3.06
   0  12   8    2.97    1.02
   0 -12  -8    2.07    0.65
   0 -13  -2    3.32    0.80
   0 -13  -3    1.86    0.61
   0 -13  -4    5.83    0.96
   0 -13  -5    4.14    0.79
  -1  12   7   -0.50    0.60
   1 -12  -7    1.62    0.66
  -1  12   6    0.15    0.67
   1 -12  -6    0.21    0.49
  -1  12   5    4.36    1.40
   1 -12  -5    4.53    1.09
   1 -12  -4   10.60    1.50
  -1  12   4    6.33    1.36
  -1  12   3    1.01    0.71
   1 -12  -3    1.78    0.80
  -1  12   2    4.86    1.29
   1 -12  -2    5.35    1.11
   1 -12  -1   10.62    1.42
   1 -12   0    2.22    0.64
   1 -11  -9    5.75    1.00
  -1  11   8   13.89    2.27
   1 -11  -8   17.31    1.99
  -1  11   7   46.36    4.42
   1 -11  -7   57.04    3.90
  -1  11   6    1.10    1.00
   1 -11  -6   -0.71    0.89
   1 -11  -5   17.36    2.29
  -1  11   5   16.09    2.91
   1 -11  -4    1.53    0.95
  -1  11   4    1.92    1.13
   1 -11  -3    8.93    1.82
  -1  11   3    6.65    2.00
  -1  11   2    7.72    2.08
   1 -11  -2    8.53    1.78
  -1  11   1   14.50    2.57
   1 -11  -1   16.09    2.21
   1 -11   0    6.20    1.33
   1 -11   0    8.54    1.45
   1 -11   1    8.60    1.70
   1 -11   1   12.55    1.73
   1 -11   2   -0.77    0.66
   1 -11   2   -0.90    0.80
   1 -11   3   18.75    1.96
   1 -10 -10    0.53    0.61
   1 -10 -10    0.26    0.54
  -1  10   9   21.86    2.75
   1 -10  -9   25.65    2.48
  -1  10   8   10.82    2.38
   1 -10  -8   14.34    2.10
  -1  10   7   15.85    3.04
   1 -10  -7   23.64    3.01
  -1  10   6   16.34    3.25
   1 -10  -6   14.80    2.41
   1 -10  -5    3.50    1.35
  -1  10   5    0.10    0.97
  -1  10   4   10.38    2.62
   1 -10  -4   12.95    2.30
   1 -10  -3  240.41    9.59
  -1  10   3  238.64   12.28
   1 -10  -2  221.55    9.14
   1 -10  -1   24.39    2.99
   1 -10  -1   17.37    3.09
   1 -10   0   89.43    5.56
   1 -10   1   56.70    4.27
  -1  10  -2   54.48    4.59
   1 -10   2   58.99    4.17
  -1  10  -3    8.89    1.77
   1 -10   3    8.63    1.50
   1 -10   4    8.22    1.09
  -1  10  -4    9.06    1.67
   1 -10   5   19.04    2.05
   1  -9 -11    0.00    0.55
   1  -9 -10    1.41    0.83
   1  -9 -10    1.10    0.91
  -1   9   9   36.98    4.07
   1  -9  -9   41.39    3.63
  -1   9   8   93.10    7.22
   1  -9  -8  103.85    6.05
  -1   9   7    5.89    2.03
   1  -9  -7    9.52    2.09
   1  -9  -6   59.28    4.86
  -1   9   6   62.00    6.42
   1  -9  -5    1.33    1.08
  -1   9   5   -1.07    1.30
  -1   9   4   63.16    6.57
   1  -9  -4   67.80    5.29
   1  -9  -3  233.82    9.61
   1  -9  -2  185.71    8.48
   1  -9  -1  102.87    6.32
  -1   9   0  135.72    8.12
   1  -9   0  136.74    7.28
  -1   9  -1   64.65    5.58
   1  -9   1   64.83    4.99
  -1   9  -2  142.05    8.18
  -1   9  -3    3.98    1.39
  -1   9  -4    3.81    1.37
  -1   9  -5   18.92    2.55
  -1   9  -6   26.30    2.54
   1  -8 -11    3.35    1.04
   1  -8 -11    4.29    1.09
   1  -8 -10   20.91    2.52
   1  -8 -10   22.85    2.90
   1  -8  -9   52.06    4.25
  -1   8   9   36.03    4.26
   1  -8  -8   72.90    5.22
  -1   8   8   67.45    6.36
   1  -8  -7   -0.75    1.09
  -1   8   7    0.77    1.20
   1  -8  -6   35.28    3.76
  -1   8   6   39.57    5.40
  -1   8   5   52.42    5.95
   1  -8  -5   42.50    4.13
   1  -8  -4    0.71    0.84
   1  -8  -3  131.67    7.16
   1  -8  -2   56.22    4.75
  -1   8   1  799.80   19.01
   1  -8  -1  769.21   17.38
  -1   8   0   15.98    2.68
  -1   8  -1   99.01    6.96
  -1   8  -2  208.97   10.32
   1  -8   3    0.97    0.59
  -1   8  -3    1.60    0.96
  -1   8  -4  162.90    8.95
   1  -8   4  165.63    7.03
  -1   8  -5    2.95    1.33
   1  -8   5    4.61    1.06
   1  -8   6    1.96    1.02
  -1   8  -6   -0.96    1.11
  -1   8  -7    8.31    1.65
   1  -8   7    7.08    1.06
   1  -7 -12   -0.63    0.65
   1  -7 -11   23.12    2.76
   1  -7 -11   20.10    2.54
   1  -7 -10   42.13    3.76
   1  -7 -10   35.01    3.69
   1  -7  -9   10.36    2.01
   1  -7  -8   56.46    4.63
  -1   7   8   44.43    5.14
   1  -7  -7   50.22    4.38
  -1   7   7   35.01    4.63
   1  -7  -6   31.52    3.50
  -1   7   6   30.83    4.61
  -1   7   5   20.94    3.61
   1  -7  -5   18.48    2.60
   1  -7  -4   23.37    5.71
   1  -7  -2  253.34   19.69
  -1   7   2  221.09   18.55
  -1   7   1   59.61    9.67
  -1   7   0  340.10   24.15
   1  -7   1   39.83    7.59
  -1   7  -1   57.79    9.94
  -1   7  -2   80.41    6.04
   1  -7   2   82.63    5.05
  -1   7  -3  160.79    8.63
   1  -7   3  164.48    7.30
   1  -7   4  235.94    8.84
  -1   7  -4  217.58   10.09
  -1   7  -5   72.33    5.86
   1  -7   5   76.64    5.04
  -1   7  -6   16.75    2.54
   1  -7   6   25.94    2.81
   1  -7   7    2.52    0.85
  -1   7  -7    1.41    0.90
   1  -7   8   19.75    1.90
   1  -6 -12   30.49    2.79
   1  -6 -11   10.93    2.00
   1  -6 -11   10.54    2.03
   1  -6 -10   68.76    5.42
   1  -6 -10   76.64    5.26
   1  -6  -9  289.44   10.48
   1  -6  -8    2.92    1.37
   1  -6  -7  116.90    6.60
  -1   6   7  104.97    7.73
   1  -6  -6  119.72   13.44
   1  -6  -5  143.25   13.60
   1  -6  -4   40.64    6.91
   1  -6  -3   17.31    4.83
   1  -6  -2    1.20    1.65
  -1   6   2    0.16    1.37
  -1   6   1   89.72   11.04
   1  -6  -1   78.19   10.57
  -1   6   0  217.17   17.91
   1  -6   0  187.58   14.80
   1  -6   0  224.59   17.55
  -1   6  -1    8.31    3.87
   1  -6   1    2.08    2.02
   1  -6   2   47.08    7.86
  -1   6  -2   56.64    9.56
  -1   6  -2   61.61   10.39
  -1   6  -3   27.82    6.40
   1  -6   4   83.06    5.19
  -1   6  -4   78.67    5.85
  -1   6  -5   23.54    3.22
   1  -6   5   27.99    3.16
  -1   6  -6   60.64    5.35
   1  -6   6   62.54    4.71
  -1   6  -7  109.97    6.76
   1  -6   7  111.48    6.04
  -1   6  -8    4.90    1.29
   1  -6   8    3.03    1.11
   1  -6   9   59.57    3.44
  -1   6  -9   57.66    3.66
   1  -5 -12    6.21    1.50
   1  -5 -11  143.03    7.34
   1  -5 -11  128.57    6.96
   1  -5 -10    7.46    1.90
   1  -5 -10    9.54    2.24
   1  -5  -9   44.14    4.13
   1  -5  -8  388.68   11.97
  -1   5   7   19.88    5.84
   1  -5  -7   23.63    5.78
   1  -5  -7   26.67    3.01
   1  -5  -6  800.71   32.42
   1  -5  -5   -0.25    2.18
   1  -5  -4    5.43    2.74
   1  -5  -3  529.42   23.60
  -1   5   2  343.89   18.73
   1  -5  -2  352.36   19.47
  -1   5   1   98.10   10.54
   1  -5  -1   92.58    8.63
   1  -5  -1   95.72   10.38
   1  -5   0   88.57    9.98
   1  -5   0   75.40    8.55
  -1   5   0   97.08   11.11
  -1   5  -1  766.33   31.64
   1  -5   1  751.62   29.35
   1  -5   2   40.08    6.96
  -1   5  -3   16.93    4.74
   1  -5   4   92.45   11.60
  -1   5  -5  177.79    8.63
   1  -5   5  197.69    8.23
   1  -5   6  216.64    8.90
  -1   5  -6  214.06    9.79
  -1   5  -7    3.13    0.98
   1  -5   7    4.80    1.51
   1  -5   8  139.09    6.86
  -1   5  -8  126.30    7.20
  -1   5  -9   23.91    2.83
   1  -5   9   26.82    2.71
   1  -5  10   64.48    3.52
  -1   5 -10   56.89    3.47
   1  -4 -12    7.13    1.55
   1  -4 -11  232.34    9.47
   1  -4 -11  227.48    9.39
   1  -4 -10    8.03    2.04
   1  -4 -10    6.80    1.55
   1  -4 -10    9.03    1.70
   1  -4  -9   55.99    4.56
   1  -4  -9   56.80    4.88
   1  -4  -8  114.69    6.27
   1  -4  -7  110.10   11.77
  -1   4   7  122.06   13.41
   1  -4  -6  478.52   23.26
   1  -4  -4  620.65   23.23
   1  -4  -3 1667.62   36.90
   1  -4  -3 1725.75   36.70
  -1   4   2  319.90   16.24
   1  -4  -2  277.57   15.62
   1  -4  -2  293.00   12.04
   1  -4  -1 1442.54   29.83
   1  -4  -1 1500.18   26.50
   1  -4  -1 1449.42   35.35
  -1   4   1 1532.60   36.71
   1  -4   0  190.43   11.99
   1  -4   0  200.94   13.66
  -1   4   0  233.41   14.86
   1  -4   1  453.51   19.83
   1  -4   1  490.11   21.19
   1  -4   2  598.74   24.40
   1  -4   3  308.26   18.84
  -1   4  -4    8.46    3.38
   1  -4   4    7.86    2.55
   1  -4   5  141.20   13.32
  -1   4  -6   19.03    2.72
  -1   4  -7   32.24    3.72
  -1   4  -8   30.22    3.73
   1  -4   9   13.08    2.05
  -1   4  -9   13.33    2.42
   1  -4  10   16.54    2.09
  -1   4 -10   14.02    2.14
   1  -4  11   28.77    2.20
   1  -3 -13   37.23    2.86
   1  -3 -12    0.96    0.58
   1  -3 -12    0.65    0.77
   1  -3 -11  168.13    8.05
   1  -3 -11  173.27    7.78
   1  -3 -10   17.22    2.55
   1  -3 -10   19.41    2.92
   1  -3 -10   20.86    2.90
   1  -3  -9  106.97    6.56
   1  -3  -9  111.56    6.84
   1  -3  -9  110.33    6.60
   1  -3  -8  195.25    8.38
   1  -3  -8  186.38    8.24
   1  -3  -8  205.71    8.27
   1  -3  -7   75.64    9.31
  -1   3   7   80.01   10.34
  -1   3   6  490.52   24.08
   1  -3  -6  460.15   21.61
   1  -3  -5  634.62   23.69
   1  -3  -5  626.66   21.41
   1  -3  -3    1.16    1.63
   1  -3  -2  252.76    8.32
   1  -3  -2  257.80   12.56
  -1   3   1  765.19   21.97
   1  -3  -1  776.75   22.31
   1  -3  -1  749.13   17.42
   1  -3  -1  752.37   18.20
   1  -3   0   37.32    4.82
   1  -3   0   36.53    5.10
   1  -3   1  641.26   21.27
   1  -3   1  646.48   20.53
   1  -3   2  118.69    9.96
  -1   3  -2  125.43   10.32
  -1   3  -3  686.76   25.46
  -1   3  -4   35.13    6.21
   1  -3   4   31.07    5.71
   1  -3   5  183.74   14.04
  -1   3  -5  232.63   17.27
  -1   3  -6  312.00   21.55
  -1   3  -7   83.55    5.85
  -1   3  -8  282.99   11.19
  -1   3  -9   19.86    2.98
   1  -3  10    0.37    1.23
  -1   3 -10    0.12    0.68
  -1   3 -11    5.83    1.25
   1  -3  11    5.70    1.18
   1  -2 -13    2.28    0.82
   1  -2 -12   39.30    3.52
   1  -2 -11   50.94    4.46
   1  -2 -11   50.73    4.26
   1  -2 -10   25.15    3.38
   1  -2 -10   22.73    3.11
   1  -2  -9  120.44    6.97
   1  -2  -9  123.04    7.13
   1  -2  -9  113.01    6.60
   1  -2  -8   -0.31    1.01
   1  -2  -8    1.50    0.83
   1  -2  -7  444.53   21.74
  -1   2   7  511.17   26.33
   1  -2  -6   81.87    8.66
  -1   2   6   94.67   10.38
   1  -2  -5  303.63   15.27
   1  -2  -4  280.28   13.54
   1  -2  -4  287.46   11.65
   1  -2  -1  556.18   10.72
  -1   2   1  606.57   15.67
   1  -2   0 3179.45   33.18
  -1   2  -1  236.67   11.08
   1  -2   1  234.44   10.50
  -1   2  -2  599.17   19.12
  -1   2  -2  592.03   19.30
   1  -2   2  637.91   19.48
  -1   2  -3  287.24   14.33
   1  -2   3  269.41   15.29
  -1   2  -3  289.37   14.58
   1  -2   3  292.45   14.42
  -1   2  -4   77.37    8.46
  -1   2  -4   75.41    7.94
   1  -2   4   72.51    8.91
   1  -2   4   75.92    7.79
  -1   2  -5  378.14   19.52
  -1   2  -5  359.34   19.83
   1  -2   5  374.27   21.74
   1  -2   5  359.51   17.91
  -1   2  -6   32.09    6.80
   1  -2   6   23.16    5.65
  -1   2  -6   27.24    5.84
   1  -2   7   23.10    6.44
  -1   2  -7   31.99    6.85
  -1   2  -7   28.29    6.77
  -1   2  -8   18.68    2.84
  -1   2  -8   17.92    2.73
  -1   2  -9  214.44    9.68
  -1   2  -9  183.71    8.79
  -1   2 -10   17.48    2.74
  -1   2 -11    5.94    1.53
   1  -2  11    6.47    1.39
   1  -2  12    1.79    0.80
   1  -1 -12   19.54    2.59
   1  -1 -11  106.26    6.26
   1  -1 -11  100.90    6.22
   1  -1 -10   41.63    4.09
   1  -1 -10   38.01    3.95
   1  -1  -9    6.21    1.57
   1  -1  -9    7.60    1.99
   1  -1  -8   -0.04    0.50
   1  -1  -8   -0.08    0.90
   1  -1  -8    0.12    0.59
   1  -1  -7  149.84   12.83
  -1   1   7  150.93   14.37
  -1   1   6  426.67   21.73
   1  -1  -6  405.19   18.58
   1  -1  -5  361.26   15.84
  -1   1   5  391.08   18.81
   1  -1  -4   34.05    4.49
   1  -1  -4   32.76    2.98
   1  -1  -3 1029.14   22.14
   1  -1  -3  983.66   16.11
   1  -1  -2 1099.41   11.36
   1  -1  -2 1019.36   13.09
  -1   1   1 5755.68   39.72
   1  -1  -1 5708.86   45.72
   1  -1   0  160.09    5.05
  -1   1   0  158.55    6.76
  -1   1  -1 5889.56   42.58
   1  -1   2  100.83    6.68
  -1   1  -2  105.39    6.84
  -1   1  -3 1488.05   29.94
   1  -1   3 1531.90   27.89
   1  -1   3 1538.72   32.45
   1  -1   4 1319.86   28.25
  -1   1  -4 1276.57   30.93
   1  -1   4 1307.72   33.40
  -1   1  -5   93.23    9.43
   1  -1   5   91.76    9.92
   1  -1   5   88.05    7.87
  -1   1  -6   52.06    7.67
  -1   1  -6   52.08    7.48
   1  -1   6   52.86    8.62
   1  -1   7  318.57   22.51
  -1   1  -7  342.56   20.86
  -1   1  -7  348.21   21.91
  -1   1  -8   62.19    4.77
  -1   1  -9    1.94    0.88
  -1   1 -10   54.95    4.82
  -1   1 -10   61.08    5.12
  -1   1 -11    1.21    1.11
  -1   1 -12    8.16    1.41
   1  -1  12    8.90    1.53
   1   0 -12   11.82    1.95
   1   0 -10  206.33    9.23
   1   0 -10  202.38    9.14
   1   0  -9    0.97    1.14
   1   0  -9    0.55    0.65
   1   0  -8   39.16    3.80
   1   0  -8   37.74    3.83
  -1   0   7  246.65   18.36
  -1   0   6  412.66   21.96
   1   0  -6  400.48   19.55
   1   0  -5  506.78   19.53
  -1   0   5  527.77   21.72
  -1   0   4   10.05    2.70
   1   0  -4    9.30    2.49
   1   0  -3  222.89   10.01
   1   0  -3  248.23    7.62
  -1   0   2  446.77    8.87
   1   0  -2  430.88   11.09
   1   0  -1   55.94    2.68
   1   0  -1   59.22    3.63
   1   0   0  198.88    4.67
   1   0   0  211.86    7.34
   1   0   0  204.06    5.95
   1   0   1  243.29    4.32
  -1   0  -1  269.36    7.79
   1   0   1  263.34    7.96
   1   0   2  965.45   17.54
   1   0   3   50.63    5.14
   1   0   3   48.61    4.39
   1   0   4 2687.02   35.81
  -1   0  -4 2700.61   40.82
   1   0   4 2723.37   43.16
  -1   0  -5   21.68    3.98
   1   0   5   22.16    4.64
  -1   0  -6  155.97   12.32
   1   0   6  178.85   14.33
   1   0   7   53.24    8.38
  -1   0  -8  221.90   18.48
  -1   0  -8  209.59   17.00
  -1   0  -8  230.63    9.00
   1   0   8  209.77   18.97
  -1   0  -9  321.00   11.30
  -1   0  -9  321.06   11.42
  -1   0 -10    7.60    1.88
  -1   0 -11   26.13    3.26
  -1   0 -12   78.65    4.93
   1   1 -12   60.24    4.03
   1   1 -11   42.55    4.02
   1   1  -9    3.14    1.24
   1   1  -9    4.81    1.56
   1   1  -8  160.73    7.83
   1   1  -8  158.09    8.14
  -1  -1   7   15.80    4.53
  -1  -1   6  258.62   17.46
   1   1  -6  273.34   17.13
   1   1  -6  297.43   17.94
   1   1  -5  165.44   12.04
  -1  -1   5  152.12   12.14
   1   1  -5  163.22   11.68
  -1  -1   4  172.68   11.38
   1   1  -4  170.41   10.98
  -1  -1   4  165.74    9.84
   1   1  -4  170.05   10.43
   1   1  -3   44.03    4.95
  -1  -1   3   38.80    4.25
   1   1  -3   45.10    4.61
   1   1  -3   47.24    3.78
  -1  -1   3   38.28    2.66
  -1  -1   3   49.83    5.24
  -1  -1   2  188.92    8.39
   1   1  -2  169.62    8.78
   1   1  -2  172.95    7.45
  -1  -1   2  187.14    8.43
   1   1  -2  189.88    6.29
  -1  -1   1 1205.61   19.32
   1   1   0  162.63    4.70
  -1  -1  -1 1192.26   16.00
   1   1   1 1139.06   16.83
   1   1   2  709.69   13.42
   1   1   2  735.02   14.83
  -1  -1  -3  257.61    5.26
   1   1   3  264.06    9.85
  -1  -1  -4 1369.52   15.16
   1   1   4 1414.96   28.52
  -1  -1  -4 1329.07   27.17
   1   1   4 1393.83   25.16
   1   1   5  237.56   13.71
  -1  -1  -5  230.21   12.83
   1   1   5  234.51   11.28
  -1  -1  -6  342.25   17.64
   1   1   6  325.52   18.24
  -1  -1  -7    3.46    1.21
   1   1   7   10.56    3.68
   1   1   8    7.71    3.36
  -1  -1  -9  110.61    6.56
  -1  -1  -9  109.40    6.50
  -1  -1 -10   76.46    5.64
  -1  -1 -10   76.22    5.68
  -1  -1 -11   23.85    3.10
  -1  -1 -12   58.30    4.45
   1   1  13    4.39    0.83
  -1  -1 -13    5.88    1.08
   1   2 -12   42.36    3.03
   1   2 -11   23.07    2.81
   1   2 -10    2.60    1.35
   1   2  -9   -0.73    1.37
   1   2  -8   21.18    3.04
   1   2  -8   21.69    3.20
   1   2  -7   76.75    5.45
   1   2  -7   83.18    5.43
   1   2  -6  166.15   14.49
  -1  -2   6  157.56   14.17
   1   2  -5  156.44   12.50
  -1  -2   5  134.90   11.77
   1   2  -4    1.66    1.45
  -1  -2   4    1.99    1.76
  -1  -2   4   -2.36    1.60
  -1  -2   3  165.07    8.01
  -1  -2   3  147.14    9.43
   1   2  -3  151.63    9.72
  -1  -2   3  143.02    9.84
  -1  -2   2 1123.13   21.98
  -1  -2   2 1113.82   21.20
  -1  -2   1  963.73   16.54
  -1  -2   1  937.82   21.41
   1   2   0 5293.45   44.10
  -1  -2   0 5453.82   26.50
   1   2   1  205.03    7.91
   1   2   2 9840.64   40.99
   1   2   2 9999.00   51.72
   1   2   3    5.64    1.79
  -1  -2  -4 1017.42   24.47
   1   2   4 1108.88   24.33
  -1  -2  -5 1267.74   20.60
  -1  -2  -5 1241.17   30.17
   1   2   6 1844.21   41.84
  -1  -2  -6 1752.64   38.84
   1   2   7  181.89   15.04
  -1  -2  -7  178.88   13.85
   1   2   8    5.13    3.38
  -1  -2  -8    8.12    3.11
  -1  -2  -9  338.03   11.46
  -1  -2  -9  338.55   11.32
  -1  -2 -10   53.66    4.64
  -1  -2 -10   57.26    4.85
  -1  -2 -11   43.34    4.15
  -1  -2 -11   39.91    4.01
  -1  -2 -12  135.06    6.85
  -1  -2 -13   52.94    3.68
  -1  -2 -13   51.80    3.60
   1   3 -11   55.38    4.04
   1   3 -10   78.44    5.62
   1   3  -9    2.82    1.12
   1   3  -8    7.72    1.97
   1   3  -7  129.77    7.51
  -1  -3   6   30.33    6.58
  -1  -3   5   11.12    3.67
  -1  -3   5   12.39    3.90
  -1  -3   4  401.19   19.28
  -1  -3   4  407.30   20.27
  -1  -3   3   12.32    3.38
  -1  -3   3   14.62    3.85
  -1  -3   2   17.26    3.37
  -1  -3   2   22.27    3.50
  -1  -3   2   17.45    3.77
  -1  -3   1  964.34   25.38
  -1  -3   1  946.94   23.41
  -1  -3   1  941.45   19.65
   1   3   0 1955.72   33.94
   1   3   1    6.18    2.18
   1   3   1    7.10    2.39
   1   3   2  703.00   15.83
  -1  -3  -3 1502.04   23.01
   1   3   3 1475.89   21.91
  -1  -3  -4  510.66   19.21
   1   3   4  512.23   15.76
   1   3   5  231.09   12.70
  -1  -3  -5  203.03   12.84
   1   3   6   91.83    9.19
  -1  -3  -6   82.50    8.87
   1   3   7  635.43   27.35
  -1  -3  -7  603.37   25.85
  -1  -3  -8  369.13   22.06
   1   3   8  339.88   22.12
  -1  -3  -9  193.77    8.51
  -1  -3  -9  200.63    8.91
  -1  -3  -9  200.32    8.58
  -1  -3 -10   84.55    5.86
  -1  -3 -10   88.15    6.00
  -1  -3 -11  138.93    7.36
  -1  -3 -11  137.38    7.44
  -1  -3 -12   17.03    2.48
  -1  -3 -13   94.42    4.95
   1   4 -11  158.41    5.86
   1   4 -10    1.54    1.05
   1   4  -9   86.53    6.15
   1   4  -8   84.88    6.31
   1   4  -7   89.91    6.43
   1   4  -6  559.92   15.38
  -1  -4   5   16.17    4.13
  -1  -4   5   12.67    3.84
  -1  -4   4  528.62   24.62
  -1  -4   4  478.76   24.36
  -1  -4   3    1.24    1.42
  -1  -4   3    1.37    1.72
  -1  -4   3    1.10    1.30
  -1  -4   2    8.11    3.12
  -1  -4   2    6.33    2.31
  -1  -4   2    7.66    2.92
   1   4  -1 2051.39   42.77
  -1  -4   1 1982.76   39.98
   1   4   0    6.92    3.14
  -1  -4   0    6.82    2.81
  -1  -4   0    3.76    2.59
   1   4   0    5.73    2.53
   1   4   1 1855.30   33.19
   1   4   1 1911.00   37.36
   1   4   2  242.60   12.58
   1   4   2  234.85   10.75
   1   4   3  893.46   22.81
   1   4   3  863.25   18.48
   1   4   4   19.69    3.50
  -1  -4  -4   20.30    3.31
   1   4   5  663.62   21.30
  -1  -4  -5  625.83   22.12
  -1  -4  -5  625.68   24.89
  -1  -4  -6  110.21   10.94
   1   4   6  120.41   10.61
  -1  -4  -7  164.26   14.15
  -1  -4  -8   85.26   10.77
  -1  -4  -9    7.72    1.77
  -1  -4  -9    6.52    1.79
  -1  -4 -10  108.97    6.63
  -1  -4 -10  105.15    6.50
  -1  -4 -10  110.60    6.81
  -1  -4 -11   30.38    3.36
  -1  -4 -11   31.25    3.54
  -1  -4 -12   51.29    4.26
  -1  -4 -13   38.26    3.16
   1   5 -10    1.62    0.90
  -1  -5  10    1.36    0.59
   1   5  -9  165.43    7.89
  -1  -5   9  134.71    5.90
   1   5  -8    1.43    1.17
   1   5  -7   20.38    3.25
   1   5  -6  474.90   14.92
   1   5  -5   93.81    6.29
  -1  -5   4  736.52   33.06
  -1  -5   3   74.96   10.08
  -1  -5   2   39.01    6.90
  -1  -5   1 2944.46   56.42
   1   5  -1 3087.39   60.82
  -1  -5   1 3107.37   55.99
   1   5   0   20.21    4.98
   1   5   0   25.55    5.64
  -1  -5   0   24.38    5.69
  -1  -5   0   18.72    4.79
  -1  -5  -1 2712.43   51.83
   1   5   1 2802.18   53.01
   1   5   1 2782.01   41.29
   1   5   1 2651.06   50.73
   1   5   2   47.41    5.58
  -1  -5  -2   40.86    6.34
   1   5   2   46.40    5.73
   1   5   2   52.40    6.82
   1   5   2   41.17    6.13
  -1  -5  -3   94.27    9.66
   1   5   3   96.11    8.87
   1   5   3  105.07    7.29
  -1  -5  -4   56.20    6.44
  -1  -5  -4   43.72    6.85
  -1  -5  -5   35.12    6.09
  -1  -5  -5   36.94    5.25
  -1  -5  -6   79.79   10.27
  -1  -5  -7  376.43   22.44
  -1  -5  -8  134.02   14.07
   1   5   8  165.29    9.28
  -1  -5  -8  147.74    7.80
  -1  -5  -9  149.67    7.54
  -1  -5  -9  147.91    8.00
  -1  -5 -10    8.59    1.92
  -1  -5 -10   11.11    2.17
  -1  -5 -11   23.40    2.90
  -1  -5 -11   24.56    3.14
  -1  -5 -12   49.13    4.09
  -1  -5 -13   91.85    4.80
   1   6  -9   82.71    5.07
   1   6  -8   42.63    4.27
  -1  -6   8   36.97    2.97
   1   6  -7  178.78    9.13
  -1  -6   7  158.26    6.83
   1   6  -6   13.34    2.78
   1   6  -5  314.07   12.33
   1   6  -4  177.01    8.84
  -1  -6   3  173.96   16.65
   1   6  -3  195.33   18.67
  -1  -6   2    6.45    2.53
   1   6  -2    3.75    2.79
  -1  -6   2    5.47    2.90
   1   6  -1  141.43   14.60
   1   6  -1  137.60   14.07
  -1  -6   1  131.69   13.22
   1   6   0   -2.63    2.41
   1   6   0    0.93    2.22
  -1  -6   0   -0.19    1.53
  -1  -6   0    2.89    2.39
  -1  -6  -1  371.33   21.03
   1   6   1  344.71   20.76
  -1  -6  -1  333.01   19.56
   1   6   1  363.93   21.24
  -1  -6  -2  257.17   16.98
   1   6   2  244.07   14.20
  -1  -6  -2  291.72   18.85
   1   6   2  293.66   18.38
   1   6   2  283.03   18.09
   1   6   3  168.23   13.51
  -1  -6  -3  186.16   14.95
   1   6   4    2.93    1.26
  -1  -6  -4   10.74    3.61
  -1  -6  -5  274.27   16.01
  -1  -6  -5  317.81   19.55
  -1  -6  -6    5.10    3.04
  -1  -6  -7  115.03   13.10
   1   6   8  241.63   11.62
  -1  -6  -8  207.88    9.69
  -1  -6  -9   74.05    5.46
  -1  -6  -9   76.37    5.96
  -1  -6 -10   47.25    4.44
  -1  -6 -10   54.34    4.94
  -1  -6 -11    3.99    1.28
  -1  -6 -11    2.54    1.18
  -1  -6 -12   13.52    2.15
  -1  -6 -13   21.74    2.29
   1   7  -8   13.84    2.13
   1   7  -8   13.05    1.98
   1   7  -7    6.41    1.80
   1   7  -6    1.48    0.76
   1   7  -5   56.72    5.40
   1   7  -4   30.04    3.87
   1   7  -3   17.83    2.95
   1   7  -2  155.77    8.27
   1   7  -2  172.05   18.12
  -1  -7   2  141.57   15.39
  -1  -7   2  131.73   13.90
  -1  -7   1   36.00    7.12
   1   7  -1   47.68    9.23
  -1  -7   1   42.99    8.32
   1   7   0  152.45   15.55
   1   7   0  161.06   16.11
  -1  -7   0  130.49   14.08
  -1  -7  -1   96.19   11.45
   1   7   1  125.95   13.76
   1   7   1  102.69   12.72
  -1  -7  -2  284.13   19.96
   1   7   2  295.94   20.64
   1   7   2  280.67   20.06
  -1  -7  -2  242.58   17.87
  -1  -7  -3   38.74    7.15
   1   7   3   54.46    8.47
  -1  -7  -3   58.33    9.08
  -1  -7  -4    9.35    3.07
  -1  -7  -4    7.31    3.57
  -1  -7  -5   13.26    3.44
  -1  -7  -6  232.06   16.35
  -1  -7  -6  226.58   19.66
  -1  -7  -7   13.83    2.07
   1   7   7   21.81    3.78
   1   7   8   92.21    7.61
  -1  -7  -8   77.76    6.23
   1   7   9   -0.11    1.07
  -1  -7  -9    0.15    0.84
  -1  -7 -10  151.14    8.24
  -1  -7 -10  153.88    7.77
  -1  -7 -11   37.33    3.58
  -1  -7 -11   38.79    3.89
  -1  -7 -12    9.05    1.66
  -1  -7 -13   32.39    2.51
   1   8  -7   -0.93    0.95
   1   8  -7   -0.63    0.83
   1   8  -6   -2.57    1.40
   1   8  -6   -0.17    1.05
   1   8  -5    2.92    1.34
   1   8  -5    3.76    1.50
   1   8  -4   45.49    4.87
   1   8  -4   43.16    4.74
   1   8  -3    7.31    1.88
   1   8  -3   12.23    2.70
   1   8  -2    0.66    0.79
   1   8  -2   -0.77    1.02
   1   8  -1    3.04    1.29
   1   8  -1    4.66    1.59
   1   8   0   21.43    3.24
  -1  -8  -1   24.16    6.21
   1   8   1   28.95    6.92
  -1  -8  -1   24.47    6.48
  -1  -8  -2   34.28    7.57
   1   8   2   52.33    9.37
  -1  -8  -2   44.06    7.98
  -1  -8  -3   30.52    6.68
  -1  -8  -5    3.60    1.84
   1   8   5   -0.24    1.06
  -1  -8  -5    1.89    1.93
  -1  -8  -5    0.46    0.78
  -1  -8  -6   68.39    4.85
   1   8   6   83.60    7.22
  -1  -8  -7    7.05    1.47
   1   8   7    4.77    1.69
  -1  -8  -8   43.63    3.95
   1   8   8   41.70    5.11
  -1  -8  -8   36.71    4.46
   1   8   9   -0.85    1.65
  -1  -8  -9   -0.53    1.05
  -1  -8 -10   12.88    2.36
  -1  -8 -10   13.92    2.35
  -1  -8 -11   35.40    3.30
  -1  -8 -11   37.18    3.57
  -1  -8 -12   52.57    3.65
   1   9  -6   16.83    2.27
   1   9  -5    4.49    1.31
   1   9  -4   30.18    3.82
   1   9  -4   33.39    4.03
   1   9  -3    7.43    2.06
   1   9  -3    8.37    2.15
   1   9  -2    7.37    1.93
   1   9  -1    1.92    1.16
   1   9   0   76.53    6.28
   1   9   0   68.03    5.84
   1   9   1   14.38    2.76
   1   9   1   21.71    3.41
  -1  -9  -3   48.84    4.49
   1   9   3   51.31    5.80
  -1  -9  -4   58.02    4.72
   1   9   4   61.27    6.28
  -1  -9  -5   25.11    3.30
   1   9   5   28.05    4.29
   1   9   6  302.85   14.09
  -1  -9  -6  279.39   10.30
   1   9   7   21.28    3.92
  -1  -9  -7   15.58    2.34
  -1  -9  -8    2.34    0.92
  -1  -9  -8    0.56    0.89
   1   9   8    0.76    1.07
  -1  -9  -9   -1.70    1.11
  -1  -9  -9    0.80    0.70
   1   9   9   -1.13    1.40
  -1  -9 -10  128.04    6.45
  -1  -9 -10  128.19    6.92
  -1  -9 -11   36.60    3.31
  -1  -9 -11   37.68    3.13
  -1  -9 -12    2.76    0.77
   1  10  -5    7.04    1.36
   1  10  -5    7.40    1.34
   1  10  -4   13.72    2.13
   1  10  -4   15.82    2.37
   1  10  -3   16.49    2.64
   1  10  -3   18.64    2.90
   1  10  -2    0.32    0.74
   1  10  -2   -0.11    0.66
   1  10  -1    0.54    0.81
   1  10  -1    1.65    1.17
   1  10   0   70.39    6.05
   1  10   0   62.43    5.54
  -1 -10  -2    2.53    1.24
  -1 -10  -3  108.47    6.52
   1  10   3  104.61    8.04
  -1 -10  -4   31.54    3.58
   1  10   4   31.64    4.56
  -1 -10  -5  100.60    6.29
   1  10   5   93.69    7.73
   1  10   6   26.08    4.05
  -1 -10  -6   29.29    3.34
  -1 -10  -7   47.97    4.22
   1  10   7   50.55    5.65
  -1 -10  -8    8.29    1.97
   1  10   8    5.80    1.95
  -1 -10  -8    7.44    1.77
  -1 -10  -9    0.56    0.72
   1  10   9   -1.26    1.27
  -1 -10 -10   -0.94    0.56
  -1 -10 -11   76.09    3.99
  -1 -11   4   10.25    1.29
  -1 -11   3   21.44    2.17
  -1 -11   1   30.89    2.96
  -1 -11   0   32.29    3.35
  -1 -11  -1  140.64    7.00
  -1 -11  -2    5.13    1.40
  -1 -11  -3  131.85    6.82
   1  11   4   57.24    5.66
  -1 -11  -4   62.35    4.78
   1  11   5   17.13    3.14
  -1 -11  -5   17.65    2.49
   1  11   6   21.27    3.46
  -1 -11  -6   25.03    2.83
  -1 -11  -7    2.68    1.06
   1  11   7    3.62    1.48
   1  11   8   40.76    4.64
  -1 -11  -8   35.07    3.64
  -1 -11  -8   37.05    3.03
  -1 -11  -9   30.30    2.95
  -1 -11 -10    3.36    0.86
  -1 -12   2    6.96    1.09
  -1 -12   1    9.37    1.37
  -1 -12   0    5.03    1.10
  -1 -12  -1   20.69    2.40
  -1 -12  -2    0.94    0.96
  -1 -12  -3    1.56    0.97
  -1 -12  -4   -0.08    0.71
   1  12   4   -0.85    0.64
  -1 -12  -5   50.06    3.74
   1  12   5   47.51    4.47
  -1 -12  -6   28.33    2.59
   1  12   6   25.97    3.33
  -1 -12  -7   -1.21    0.53
  -1 -12  -7   -1.02    0.66
  -1 -12  -8   12.72    1.54
  -1 -12  -8   14.29    1.80
   1  12   8   17.69    2.50
  -1 -13  -1  119.24    4.27
  -1 -13  -2    7.38    1.31
  -1 -13  -3  126.92    4.83
  -1 -13  -4    3.95    0.89
  -1 -13  -5    2.09    0.65
  -2  11   7    9.62    1.59
   2 -11  -7   11.50    1.46
  -2  11   6   36.26    3.53
   2 -11  -6   43.11    2.98
  -2  11   5    1.80    1.08
   2 -11  -5    0.88    0.85
  -2  11   4   29.84    3.65
   2 -11  -4   33.13    2.78
   2 -11  -3   57.99    3.75
  -2  11   3   54.71    4.83
  -2  11   2   73.79    5.47
   2 -11  -2   72.72    4.12
   2 -11  -1   57.66    3.46
  -2  11   1   60.89    4.78
  -2  11   0    2.07    1.01
   2 -11   0    1.91    0.76
   2 -11   0    1.17    0.58
   2 -11   1   24.89    2.29
   2 -10  -9   46.33    2.86
   2 -10  -9   47.45    3.07
   2 -10  -8    4.91    1.11
  -2  10   8    4.13    1.19
  -2  10   7   31.95    3.60
   2 -10  -7   35.66    3.15
  -2  10   6   -0.83    1.01
   2 -10  -6    0.48    0.82
  -2  10   5    6.55    2.18
   2 -10  -5    4.94    1.33
  -2  10   4    6.93    2.40
   2 -10  -4    7.51    1.68
  -2  10   3    7.77    2.32
   2 -10  -3    7.64    1.79
   2 -10  -2    9.99    1.87
   2 -10  -1    1.69    0.83
   2 -10  -1    3.12    0.98
   2 -10   0    4.15    1.15
   2 -10   0    6.65    1.53
   2 -10   1   15.68    2.38
   2 -10   1   13.03    1.72
   2 -10   2    0.89    0.88
   2 -10   3    0.61    0.56
   2 -10   4    0.69    0.56
   2  -9 -10    0.85    0.55
   2  -9 -10   -0.19    0.54
   2  -9  -9    8.45    1.51
   2  -9  -8   -1.13    0.71
  -2   9   8   -1.23    0.65
   2  -9  -7    1.69    1.06
  -2   9   7    0.93    0.83
   2  -9  -6    5.17    1.50
  -2   9   6    4.64    1.75
   2  -9  -5  132.94    7.02
  -2   9   5  125.91    8.98
  -2   9   4   -1.18    1.42
   2  -9  -4    0.64    1.08
   2  -9  -3   24.50    3.12
   2  -9  -2    1.24    1.02
   2  -9  -2    1.14    1.00
   2  -9  -1   13.10    2.23
   2  -9  -1    7.70    2.10
   2  -9   0    7.55    1.60
   2  -9   0    6.40    1.94
   2  -9   1    7.80    1.58
  -2   9  -3    2.99    1.24
  -2   9  -4    0.91    0.62
  -2   9  -5   29.99    2.53
   2  -9   5   32.12    3.00
   2  -8 -11   15.58    1.74
   2  -8 -11   12.79    1.62
   2  -8 -10    3.95    1.10
   2  -8 -10    3.75    1.18
   2  -8  -9    2.91    0.94
   2  -8  -8    2.38    1.21
   2  -8  -7    7.65    1.63
  -2   8   7    7.93    2.14
   2  -8  -6    1.01    0.88
  -2   8   6    1.55    1.32
   2  -8  -5   72.28    5.37
  -2   8   5   77.38    7.16
   2  -8  -4   69.10    5.23
   2  -8  -3   14.73    2.60
   2  -8  -2   41.09    4.60
   2  -8  -2   48.54    4.37
   2  -8  -1   91.32    5.82
   2  -8  -1   81.83    6.58
   2  -8   0  549.10   14.30
   2  -8   1   -0.35    0.67
  -2   8  -3   22.74    3.19
   2  -8   3   21.34    2.70
  -2   8  -4   87.51    6.02
   2  -8   4   97.41    5.46
  -2   8  -5    3.66    1.29
   2  -8   5    3.85    1.29
  -2   8  -6   11.59    1.79
   2  -8   6   11.18    1.68
   2  -7 -11    5.39    1.27
   2  -7 -11    7.10    1.42
   2  -7 -10   39.59    3.58
   2  -7 -10   43.66    3.62
   2  -7  -9   10.04    1.93
   2  -7  -8    1.03    0.79
   2  -7  -7    4.09    1.31
  -2   7   7    2.42    0.90
   2  -7  -6  134.63    7.37
  -2   7   6  132.31    9.14
  -2   7   5    6.43    2.41
   2  -7  -5    6.38    1.78
   2  -7  -4    4.91    1.17
   2  -7  -3    8.55    1.86
   2  -7  -2  122.76    6.57
   2  -7  -2  124.78    7.28
   2  -7  -1   12.53    1.99
   2  -7   0    7.74    1.68
   2  -7   1   70.08    4.89
   2  -7   2   25.08    2.87
  -2   7  -3  131.47    8.03
   2  -7   3  141.71    7.11
   2  -7   4   79.55    5.30
   2  -7   5   15.87    2.27
   2  -7   6   82.79    4.94
   2  -7   7    4.98    1.18
  -2   7  -7    5.57    1.44
  -2   7  -8  117.86    5.11
   2  -7   8  141.68    4.85
   2  -6 -12    1.04    0.71
   2  -6 -11    6.17    1.32
   2  -6 -11    4.91    1.29
   2  -6 -10   47.55    4.09
   2  -6  -9   16.80    2.46
   2  -6  -8    1.98    0.94
   2  -6  -7    9.67    1.70
   2  -6  -6  169.12    8.09
  -2   6   6  141.04    9.19
   2  -6  -5   41.55    3.97
   2  -6  -4    0.29    2.68
   2  -6  -3    2.26    2.73
  -2   6   1  290.42   20.49
  -2   6   0  260.27   20.12
  -2   6  -1   81.12   11.51
   2  -6   1   60.48   10.01
   2  -6   2  174.11    7.55
   2  -6   3   96.74    5.73
   2  -6   4  160.54    7.56
   2  -6   5    1.01    0.94
   2  -6   6   16.18    2.28
   2  -6   7   35.08    3.33
   2  -6   8   69.65    4.17
   2  -6   9    6.76    1.15
   2  -5 -12   75.50    4.09
   2  -5 -11    2.24    0.98
   2  -5 -11    3.44    1.41
   2  -5 -10    2.51    1.13
   2  -5 -10    5.03    1.50
   2  -5  -9   70.48    5.44
   2  -5  -9   72.61    5.25
   2  -5  -8    7.85    1.84
   2  -5  -7   27.77    3.29
   2  -5  -6   72.23    4.97
   2  -5  -5   21.21    5.51
   2  -5  -4  152.27   13.49
   2  -5  -3   68.71    8.84
  -2   5   1  106.61   11.28
  -2   5   0    1.45    1.17
  -2   5  -1   20.18    5.35
   2  -5   2  153.16   14.91
   2  -5   3   11.77    4.71
   2  -5   4   59.38    4.52
   2  -5   5   75.88    5.31
   2  -5   6   84.45    5.64
   2  -5   7   54.85    4.44
   2  -5   8    2.39    1.28
   2  -5   9    1.41    0.80
   2  -5  10    5.40    1.06
   2  -4 -12  214.14    7.14
   2  -4 -11   31.32    3.44
   2  -4 -10    3.56    1.51
   2  -4 -10    4.16    1.57
   2  -4  -9  465.14   13.46
   2  -4  -9  448.07   13.41
   2  -4  -8  262.64   10.03
   2  -4  -7 1977.82   26.86
   2  -4  -6    8.45    3.91
   2  -4  -5  128.42   12.95
   2  -4  -4   86.92   10.30
   2  -4  -3  259.14   15.95
   2  -4  -2 1638.46   39.00
   2  -4  -1    2.50    1.61
  -2   4   1    2.77    2.48
   2  -4   0  271.98   15.09
  -2   4   0  281.12   17.32
   2  -4   2   52.69    7.92
   2  -4   3  234.55   17.53
   2  -4   4   37.65    7.22
   2  -4   5   40.42    7.75
   2  -4   5   72.09    4.98
   2  -4   6   39.67    3.89
   2  -4   7   67.59    5.11
   2  -4   8    9.63    1.89
   2  -4   9   65.65    4.66
   2  -4  10    6.43    1.36
   2  -3 -12   36.50    2.96
   2  -3 -11   33.57    3.53
   2  -3 -10   25.26    3.32
   2  -3 -10   29.72    3.31
   2  -3  -9    2.24    1.26
   2  -3  -9    2.84    1.05
   2  -3  -8    6.19    1.94
   2  -3  -8    3.85    1.20
   2  -3  -7  288.87    9.91
   2  -3  -6  126.11   12.70
   2  -3  -5   91.56   10.26
   2  -3  -4    1.56    1.41
   2  -3  -3   87.84    9.23
   2  -3  -3   83.35    8.15
   2  -3  -2 1895.97   34.92
   2  -3  -2 2011.82   38.54
  -2   3   1 1161.94   27.95
   2  -3  -1 1194.77   31.36
  -2   3   0 1031.23   28.65
   2  -3   1  110.92   10.99
   2  -3   2    3.15    2.09
   2  -3   3  311.63   18.34
  -2   3  -3  293.17   18.10
   2  -3   4  191.04   15.17
  -2   3  -4  221.31   16.97
  -2   3  -5   40.70    7.76
   2  -3   5   45.25    7.58
   2  -3   6   94.26    5.90
   2  -3   6   85.31   11.12
   2  -3   7  211.75    9.09
   2  -3   8    5.86    1.62
   2  -3   9   10.66    2.03
   2  -3  10   75.73    4.81
   2  -3  11    7.11    1.29
   2  -2 -12   14.19    1.99
   2  -2 -12   10.76    1.59
   2  -2 -11   27.42    3.09
   2  -2 -10    8.04    2.02
   2  -2  -9   41.06    4.20
   2  -2  -9   45.81    4.17
   2  -2  -8   10.82    2.12
   2  -2  -7  174.81   15.47
   2  -2  -7  162.87    7.31
  -2   2   6    3.05    1.88
   2  -2  -6    5.37    2.48
   2  -2  -5  106.12   10.44
   2  -2  -4   82.72    8.66
   2  -2  -3    2.46    1.78
   2  -2  -2   29.24    4.33
   2  -2  -2   33.62    5.00
   2  -2  -2   32.10    3.85
  -2   2   1  690.17   16.58
   2  -2  -1  627.13   18.33
   2  -2  -1  659.21   18.62
   2  -2  -1  601.81   21.26
  -2   2   0  331.46   13.29
   2  -2   0  312.40   14.03
   2  -2   1  692.35   14.74
   2  -2   1  663.64   22.20
  -2   2  -1  671.23   21.55
  -2   2  -2    2.04    1.58
   2  -2   2    2.23    2.47
  -2   2  -3  247.61   14.80
  -2   2  -3  251.90   14.67
   2  -2   3  257.21   15.65
  -2   2  -4  106.97   10.52
   2  -2   4  122.89   11.14
  -2   2  -4  102.25   10.24
   2  -2   5   41.48    6.81
  -2   2  -5   41.58    7.14
  -2   2  -5   34.36    6.40
   2  -2   6    1.53    1.02
  -2   2  -6    5.04    2.56
  -2   2  -6    6.99    3.50
  -2   2  -7  235.41    9.12
  -2   2  -8    8.35    1.89
   2  -2   9    5.12    1.62
   2  -2  10  117.73    6.50
   2  -2  11   15.43    2.23
   2  -2  11   19.84    2.39
   2  -1 -12   75.08    4.30
   2  -1 -11    5.92    1.55
   2  -1 -10   13.06    2.35
   2  -1  -9   31.08    3.71
   2  -1  -8   60.19    4.88
   2  -1  -8   58.70    4.63
   2  -1  -7  236.14   18.52
   2  -1  -6   29.58    5.79
  -2   1   6   26.77    5.88
   2  -1  -5  106.62   10.12
  -2   1   5  100.23   10.44
   2  -1  -4   60.82    7.13
   2  -1  -3  390.79   16.73
   2  -1  -2  699.16   20.38
  -2   1   2  740.29   18.59
   2  -1  -1  190.35   10.30
   2  -1  -1  214.91    9.13
   2  -1  -1  211.31    9.18
   2  -1  -1  216.54   12.75
  -2   1   1  225.17   10.56
  -2   1   0   81.32    6.69
   2  -1   0   93.28    6.63
   2  -1   1  302.83   13.01
  -2   1  -1  290.30   13.04
  -2   1  -1  294.73   12.26
   2  -1   2   20.11    3.83
   2  -1   2   14.47    1.74
  -2   1  -2   22.44    3.93
  -2   1  -2   21.32    3.77
  -2   1  -2   20.01    3.35
  -2   1  -3  974.38   25.27
  -2   1  -3  970.92   26.42
  -2   1  -4  591.22   22.08
   2  -1   4  623.68   22.95
  -2   1  -5   48.15    7.05
   2  -1   5   49.37    7.06
  -2   1  -6   22.75    5.43
  -2   1  -6   19.97    4.79
  -2   1  -7  395.05   24.41
  -2   1  -7  396.29   23.58
  -2   1  -8  587.54   14.79
  -2   1  -9   49.46    4.53
  -2   1 -10   31.32    3.57
   2  -1  11   14.19    2.08
   2  -1  12  110.05    5.46
   2  -1  12  132.42    5.26
   2   0 -12   94.60    4.59
   2   0 -12   73.44    4.31
   2   0 -11    5.28    1.69
   2   0 -10   60.93    4.87
   2   0  -9    3.69    1.46
   2   0  -8   40.51    4.07
   2   0  -8   36.99    3.46
   2   0  -7  100.27   12.25
   2   0  -7   88.86    5.55
   2   0  -6  146.64   13.66
  -2   0   6  139.84   13.27
   2   0  -5   21.10    4.51
  -2   0   5   19.44    4.52
   2   0  -4   75.17    7.80
   2   0  -4   75.48    6.62
  -2   0   4   78.35    8.19
   2   0  -3  583.74   19.79
   2   0  -3  615.46   17.81
  -2   0   2  568.16   10.50
   2   0  -2  521.77   16.95
   2   0  -2  524.57   15.59
   2   0  -1    8.34    2.26
   2   0  -1   11.41    2.97
   2   0  -1    9.56    2.12
   2   0  -1   11.76    1.92
   2   0   0 2180.73   32.60
  -2   0   0 2252.26   23.22
   2   0   1  333.00    6.95
   2   0   1  315.17    8.93
   2   0   1  336.60   12.33
  -2   0  -2 6191.80   54.95
   2   0   2 6022.14   30.29
   2   0   2 6161.85   57.38
  -2   0  -3    1.29    1.14
   2   0   3   -0.43    1.34
  -2   0  -3    1.99    1.19
   2   0   4    7.34    2.51
  -2   0  -4    9.46    2.48
  -2   0  -5   51.21    6.90
   2   0   5   50.24    7.53
  -2   0  -5   55.97    6.53
   2   0   6  368.30   19.22
   2   0   6  330.42   21.42
   2   0   7  202.18   17.97
  -2   0  -7  214.11   17.18
  -2   0  -8   30.02    3.34
  -2   0  -9   50.65    4.45
  -2   0 -10    0.72    0.85
  -2   0 -11  118.03    6.64
   2   0  12   35.40    2.95
   2   1 -11   -0.53    0.89
   2   1 -10   41.98    4.22
   2   1  -9   29.52    3.50
   2   1  -8   44.88    4.02
   2   1  -8   48.10    4.40
   2   1  -7    5.07    1.35
   2   1  -7    5.42    1.47
   2   1  -6  128.27   13.29
  -2  -1   6  131.49   13.28
   2   1  -5   47.66    7.30
  -2  -1   5   50.64    7.31
   2   1  -4 1142.69   32.56
  -2  -1   4 1094.64   30.27
   2   1  -3 1472.88   33.52
  -2  -1   3 1459.44   31.00
  -2  -1   3 1502.99   25.94
   2   1  -3 1466.45   31.00
   2   1  -2  115.76    8.44
   2   1  -2  118.42    8.36
  -2  -1   2  104.87    6.67
   2   1  -1    1.37    1.30
   2   1  -1   -0.75    1.35
   2   1  -1    0.89    0.78
   2   1   0   14.75    2.94
   2   1   0   15.68    3.02
   2   1   0   12.27    2.39
  -2  -1   0   13.73    1.61
   2   1   0   11.09    2.36
   2   1   1 7931.61   59.33
   2   1   1 7944.63   51.14
   2   1   2 4530.58   48.32
  -2  -1  -2 4566.05   43.59
   2   1   3 1063.39   25.18
  -2  -1  -3 1064.79   24.59
  -2  -1  -4    8.64    2.56
   2   1   4   11.43    2.78
   2   1   4    6.56    2.34
  -2  -1  -5   57.46    5.99
  -2  -1  -5   57.41    6.96
   2   1   5   61.62    7.02
   2   1   5   61.50    7.65
   2   1   6 1289.90   39.61
  -2  -1  -6 1304.63   37.50
   2   1   7  232.09   18.76
  -2  -1  -7  239.41   17.41
   2   1   8   27.26    7.27
   2   1   9   44.22    4.30
  -2  -1  -9   44.72    4.13
  -2  -1 -10  119.12    6.89
  -2  -1 -11   81.84    5.53
  -2  -1 -12   51.36    3.98
   2   1  12   40.91    3.23
   2   1  13    0.26    0.65
   2   2 -11   -0.49    0.84
   2   2 -11    0.92    0.67
   2   2 -10    1.10    0.76
   2   2  -9    0.42    1.02
   2   2  -8  186.40    8.71
   2   2  -7   20.30    2.75
   2   2  -7   20.97    2.85
  -2  -2   6   10.44    3.87
   2   2  -5   54.89    8.00
  -2  -2   5   68.81    8.79
   2   2  -4  469.72   22.40
   2   2  -4  421.74   20.82
  -2  -2   4  488.26   21.03
   2   2  -3    4.87    2.21
   2   2  -3    8.97    2.98
  -2  -2   3    5.89    2.17
  -2  -2   3   10.01    2.96
  -2  -2   2    3.21    1.08
   2   2  -2    1.99    1.47
   2   2  -2    2.88    1.73
  -2  -2   2    3.82    1.83
   2   2  -1    0.61    1.08
   2   2  -1    1.58    1.60
  -2  -2   1    1.22    0.85
   2   2  -1    0.99    0.64
   2   2   0    1.96    1.15
   2   2   0    1.01    0.99
   2   2   0    2.04    1.24
   2   2   0    0.81    0.91
  -2  -2   0    1.04    0.51
   2   2   1  703.41   19.43
  -2  -2  -1  663.36   15.37
   2   2   2 2819.74   39.49
  -2  -2  -2 2855.54   36.17
   2   2   3  430.25   16.32
  -2  -2  -3  457.92   16.27
   2   2   4  429.99   16.19
  -2  -2  -4  448.30   17.98
   2   2   5    1.15    0.90
   2   2   5    0.21    1.54
  -2  -2  -5    0.30    1.41
   2   2   6  787.78   28.95
  -2  -2  -6  770.05   27.99
  -2  -2  -7  273.97   18.47
   2   2   7  280.04   19.35
  -2  -2  -8    9.25    3.23
   2   2   9    9.18    2.06
  -2  -2  -9   10.95    2.10
  -2  -2 -10  328.80   11.45
  -2  -2 -11   87.78    5.78
  -2  -2 -12   17.14    2.34
  -2  -2 -13    3.60    0.95
   2   3 -11   -0.24    0.49
   2   3 -10   33.25    3.46
   2   3  -9   23.99    3.30
   2   3  -8  111.37    7.32
   2   3  -7   84.48    6.14
   2   3  -6   25.12    3.22
   2   3  -6   20.71    2.63
  -2  -3   5    0.67    1.75
   2   3  -5   -0.11    1.84
  -2  -3   4  499.59   21.66
  -2  -3   4  461.34   21.57
  -2  -3   3  675.22   21.92
   2   3  -3  694.33   27.77
  -2  -3   3  661.87   24.69
   2   3  -2    7.67    3.04
  -2  -3   2    5.56    1.82
  -2  -3   2    5.57    2.43
  -2  -3   1   72.87    5.07
   2   3  -1   80.35    8.27
  -2  -3   1   79.86    7.90
  -2  -3   0 1771.41   17.97
   2   3   0 1819.03   37.41
   2   3   1 1935.48   39.81
   2   3   1 2237.51   37.35
   2   3   2  465.58   16.22
  -2  -3  -2  430.33   16.49
  -2  -3  -3    0.84    1.09
  -2  -3  -4  580.71   21.14
  -2  -3  -5  125.87   10.73
  -2  -3  -6   13.08    3.34
  -2  -3  -7   79.09    9.86
  -2  -3  -8    2.67    2.15
   2   3   9   78.73    5.65
  -2  -3  -9   81.52    5.66
  -2  -3 -10   11.30    2.05
  -2  -3 -11    0.65    1.05
  -2  -3 -12   37.44    3.59
  -2  -3 -13    4.53    1.17
   2   4 -10   58.54    4.27
   2   4  -9   25.27    3.24
   2   4  -8    4.90    1.41
   2   4  -7  149.06    8.42
   2   4  -6   16.06    2.66
   2   4  -5  365.51   25.07
  -2  -4   4   24.28    5.57
  -2  -4   3   85.66   10.07
   2   4  -2  368.45   19.17
  -2  -4   2  396.22   20.50
  -2  -4   2  383.42   18.60
   2   4  -1   78.28    8.44
  -2  -4   1   86.35    9.18
   2   4  -1   85.27    9.45
   2   4   0 1549.65   34.39
   2   4   0 1765.00   39.11
   2   4   1  267.30   15.64
   2   4   1  256.48   13.75
   2   4   2  405.89   16.60
   2   4   3  386.58   15.34
  -2  -4  -4  270.41   15.84
  -2  -4  -5  121.79   11.18
  -2  -4  -6  290.22   18.35
  -2  -4  -7  265.95   18.69
  -2  -4  -8  101.22   12.13
   2   4   9    4.52    1.39
  -2  -4  -9    6.32    1.65
  -2  -4  -9    3.91    1.09
   2   4  10    1.01    0.65
  -2  -4 -10    0.43    0.76
  -2  -4 -11  117.24    6.83
  -2  -4 -12  109.52    6.17
   2   4  13    1.58    0.72
  -2  -4 -13    1.98    0.77
   2   5 -10  110.11    4.90
   2   5  -9   18.85    2.64
   2   5  -8   -1.33    1.17
   2   5  -7   15.95    2.76
   2   5  -6  288.83   11.78
   2   5  -5  420.89   13.77
   2   5  -4  100.34   13.30
  -2  -5   4  101.69   12.70
  -2  -5   3   32.28    6.49
   2   5  -2   45.66    7.61
  -2  -5   2   50.25    8.12
  -2  -5   2   50.52    7.56
  -2  -5   1  194.33   14.35
   2   5  -1  177.77   14.16
   2   5  -1  158.45   14.10
  -2  -5   1  188.12   15.05
   2   5   0  805.77   28.58
   2   5   0  789.73   28.90
  -2  -5   0  826.66   30.57
   2   5   1    1.54    1.03
   2   5   1    0.58    1.49
   2   5   1    2.28    2.09
   2   5   2  853.75   29.98
   2   5   2  849.67   26.70
   2   5   3  239.88   13.26
  -2  -5  -4   77.71    9.44
  -2  -5  -5  607.94   27.46
  -2  -5  -6  122.00   12.75
  -2  -5  -7  135.33   13.84
  -2  -5  -8    3.85    1.15
  -2  -5  -9  109.03    6.91
   2   5  10   64.30    5.29
  -2  -5 -10   67.68    4.98
  -2  -5 -10   66.77    5.32
  -2  -5 -11  189.12    8.76
  -2  -5 -12   13.31    2.19
   2   5  13   13.03    1.87
  -2  -5 -13   17.64    2.13
   2   6  -9   21.38    2.39
   2   6  -8   -0.32    0.97
   2   6  -7    1.38    0.79
   2   6  -6   16.04    2.84
   2   6  -5  171.00    9.21
   2   6  -4   15.54    2.69
   2   6  -3   15.60    5.33
  -2  -6   3   13.83    4.75
   2   6  -2   77.36   10.96
   2   6  -2   58.68    9.88
  -2  -6   2   72.30   10.81
  -2  -6   1   85.40   10.42
   2   6  -1   76.87   10.24
   2   6  -1   63.84    9.72
  -2  -6   1   72.64   10.59
   2   6   0  231.80   17.12
   2   6   0  276.49   18.88
  -2  -6   0  273.17   18.93
  -2  -6   0  266.62   18.42
   2   6   1   82.06    9.60
   2   6   1   78.19    9.24
  -2  -6  -1   70.49    9.87
  -2  -6  -1   87.62   10.43
   2   6   2   -0.19    0.97
  -2  -6  -2    0.40    1.95
   2   6   2    0.83    1.66
   2   6   3  106.24   11.65
   2   6   3  100.23    9.44
  -2  -6  -3  101.59   10.96
  -2  -6  -4   17.12    4.83
  -2  -6  -5  371.41   23.51
  -2  -6  -5  423.17   23.28
  -2  -6  -6  104.47   12.95
  -2  -6  -7   16.09    5.30
  -2  -6  -8   41.84    4.45
   2   6   8   41.15    4.59
  -2  -6  -9  162.15    8.71
  -2  -6 -10    4.56    1.48
  -2  -6 -11   24.09    3.17
  -2  -6 -12  127.53    6.51
  -2  -6 -13   58.36    3.74
   2   7  -8   21.19    2.53
   2   7  -7   13.25    2.20
   2   7  -7   13.00    2.08
   2   7  -6   -0.53    0.80
   2   7  -6    2.16    1.27
   2   7  -5    0.00    0.84
   2   7  -4   97.66    7.05
   2   7  -3    6.09    1.86
   2   7  -2    1.45    0.96
   2   7  -2    2.33    1.16
   2   7  -1   10.38    4.21
   2   7  -1   15.12    5.16
  -2  -7   1    9.01    4.04
  -2  -7   1    2.58    2.64
  -2  -7   0  163.84   15.98
   2   7   0  160.22   15.72
   2   7   0  132.52   13.98
  -2  -7   0  184.65   16.49
   2   7   1  297.31   20.78
   2   7   1  237.15   17.49
  -2  -7  -1  271.42   20.08
  -2  -7  -1  334.40   22.31
   2   7   2   -5.77    2.69
  -2  -7  -2    1.11    1.80
  -2  -7  -2    1.08    2.75
  -2  -7  -3   38.30    7.75
  -2  -7  -4   -0.70    2.23
  -2  -7  -5   48.38    8.41
  -2  -7  -5   35.07    7.95
  -2  -7  -6   62.89   10.56
   2   7   7    3.43    1.48
   2   7   7    4.64    1.46
   2   7   8    0.79    1.05
  -2  -7  -8    0.20    0.94
   2   7   8    2.15    1.68
  -2  -7  -9  144.62    8.27
  -2  -7 -10   50.15    4.71
  -2  -7 -11    0.59    0.94
  -2  -7 -12   47.18    3.88
  -2  -7 -13    6.32    1.30
   2   8  -7    0.76    0.61
   2   8  -6   73.37    5.42
   2   8  -6   74.76    5.16
   2   8  -5  191.43    9.29
   2   8  -5  194.27    9.35
   2   8  -4    6.97    1.91
   2   8  -4   10.71    2.32
   2   8  -3   12.78    2.58
   2   8  -3   21.64    3.48
   2   8  -2    1.73    1.17
   2   8  -2    0.88    1.03
   2   8  -1  134.12    8.19
   2   8  -1  142.84    8.50
   2   8   0  132.43    7.97
   2   8   1    1.12    1.56
   2   8   1    5.50    1.59
   2   8   1    3.94    1.60
  -2  -8  -2   57.70    9.85
  -2  -8  -2   77.80   11.18
  -2  -8  -3    0.20    1.58
  -2  -8  -3    2.14    2.10
  -2  -8  -4  238.54   20.09
  -2  -8  -4  182.26   17.35
   2   8   5  314.04   11.96
   2   8   5  320.38   13.63
   2   8   6   67.57    5.71
   2   8   6   83.59    7.14
   2   8   7   12.05    2.56
   2   8   7   11.22    2.68
   2   8   8   33.48    4.69
   2   8   8   23.09    3.50
  -2  -8  -8   25.09    3.57
  -2  -8  -9  137.52    8.34
  -2  -8 -10   96.49    6.56
  -2  -8 -11    9.21    1.87
  -2  -8 -12    4.09    1.20
  -2  -8 -13   10.93    1.46
   2   9  -6    6.56    1.35
   2   9  -6    6.25    1.49
   2   9  -5   21.64    2.77
   2   9  -4   39.84    4.21
   2   9  -4   35.50    3.96
   2   9  -3    0.38    0.80
   2   9  -3    2.05    0.96
   2   9  -2   28.99    3.89
   2   9  -1   52.58    5.31
   2   9  -1   49.31    5.35
   2   9   0  114.00    7.74
   2   9   0  106.14    7.56
   2   9   1   26.07    3.78
   2   9   2   15.64    2.92
   2   9   3  294.41   12.27
  -2  -9  -3  296.53   10.44
   2   9   4  461.90   15.28
  -2  -9  -4  466.28   12.79
   2   9   4  440.85   16.22
   2   9   5   64.49    5.73
   2   9   5   72.11    6.85
   2   9   6   14.65    2.78
   2   9   6   17.43    3.46
   2   9   7   29.11    3.91
   2   9   7   37.93    4.93
   2   9   8  209.14   11.32
   2   9   8  188.71    9.19
  -2  -9  -9   28.57    3.66
  -2  -9 -10   15.02    2.36
   2   9  11   11.14    1.94
  -2  -9 -11   24.42    2.88
  -2  -9 -12   11.39    1.69
   2  10  -5   29.17    2.68
   2  10  -4    4.43    1.22
   2  10  -4    2.99    1.09
   2  10  -3    1.39    1.18
   2  10  -3   -0.36    0.83
   2  10  -2  129.27    7.67
   2  10  -2  115.35    7.32
   2  10  -1   46.33    4.87
   2  10  -1   47.12    4.87
   2  10   0   18.56    3.15
   2  10   1    0.89    1.01
   2  10   2    1.69    0.98
  -2 -10  -2    1.61    0.67
   2  10   3  136.76    8.40
  -2 -10  -3  144.47    7.33
   2  10   4  162.37    8.82
  -2 -10  -4  171.24    7.85
   2  10   5   83.96    6.43
  -2 -10  -5   96.02    5.88
   2  10   5   87.76    7.43
   2  10   6   38.83    4.23
   2  10   6   40.12    5.04
   2  10   7   41.49    5.14
  -2 -10  -8  143.70    8.32
   2  10   8  147.67    9.27
  -2 -10  -9   68.65    5.40
  -2 -10 -10   79.65    5.30
  -2 -10 -11    0.40    0.49
   2  11  -3    1.78    0.82
   2  11  -2    2.03    0.90
   2  11  -1   15.96    2.58
   2  11   0    3.07    1.24
   2  11   1    1.65    1.08
  -2 -11  -1    0.39    0.76
   2  11   2    2.15    1.32
  -2 -11  -2    0.48    0.71
   2  11   3    3.36    1.21
  -2 -11  -3    5.66    1.63
   2  11   4   39.22    4.05
  -2 -11  -4   37.46    3.56
  -2 -11  -5   19.94    2.56
   2  11   5   19.07    3.11
   2  11   6    0.42    0.84
   2  11   7    0.65    0.84
  -2 -11  -8    6.39    1.61
  -2 -11  -9   65.47    4.75
  -2 -11 -10   19.50    2.27
  -2 -12   2   16.17    1.54
   2  12  -1    4.21    0.97
  -2 -12   1    7.54    1.23
   2  12   0    7.93    1.49
  -2 -12   0    8.85    1.44
   2  12   1   -1.16    0.78
  -2 -12  -1   -0.57    0.61
  -2 -12  -2   72.62    4.52
  -2 -12  -3    2.94    1.16
  -2 -12  -4    3.58    1.13
  -2 -12  -5   45.58    3.32
   2  12   6    7.98    1.83
  -2 -12  -7    5.41    1.58
  -2 -12  -8    5.58    1.29
  -2 -12  -9   27.11    2.47
  -2 -13  -2   22.31    1.92
  -2 -13  -3   52.67    2.96
  -2 -13  -4   -0.72    0.60
  -2 -13  -6    5.00    1.13
  -2 -13  -7   19.82    2.00
  -3  11   4   23.21    2.38
  -3  11   3   61.32    4.06
  -3  11   2    9.33    1.58
   3 -10  -6    0.86    0.48
  -3  10   6    0.38    0.51
   3 -10  -6    0.73    0.56
   3 -10  -5    7.81    1.29
  -3  10   5    9.66    1.93
   3 -10  -4    0.05    0.55
  -3  10   4    1.55    0.98
  -3  10   3   -0.21    0.73
   3 -10  -2    1.51    0.73
  -3  10   2    1.36    1.22
   3 -10  -1   56.63    3.92
   3 -10   0   38.06    3.24
   3 -10   1    7.80    1.46
   3 -10   2   20.53    2.15
   3  -9  -8    4.75    1.02
   3  -9  -7   15.76    1.91
   3  -9  -6   29.55    2.84
  -3   9   6   22.09    3.03
   3  -9  -5   24.05    2.68
  -3   9   5   19.72    3.09
  -3   9   4    3.23    1.64
   3  -9  -4    3.81    1.04
   3  -9  -3   15.02    2.04
   3  -9  -2   63.09    4.76
   3  -9  -1  210.09    8.90
   3  -9   0    9.63    2.06
   3  -9   1   39.24    4.04
   3  -9   2    0.88    0.79
   3  -9   3   92.16    5.24
   3  -9   4   21.29    2.31
   3  -8  -9    0.92    0.65
   3  -8  -8   56.30    3.93
   3  -8  -7   57.60    4.20
   3  -8  -7   61.20    4.37
   3  -8  -6   -0.45    0.87
  -3   8   6   -0.74    0.93
  -3   8   5   18.48    3.32
   3  -8  -5   16.94    2.48
   3  -8  -4    3.52    1.33
   3  -8  -3    5.95    1.61
   3  -8  -3    5.99    1.40
   3  -8  -2    9.65    2.20
   3  -8  -1   10.85    2.42
   3  -8   0    0.10    0.82
   3  -8   1   11.01    2.39
   3  -8   2   -0.84    1.10
   3  -8   3   30.28    3.64
   3  -8   4   71.83    5.16
   3  -8   5    3.11    1.10
   3  -8   6   13.69    1.59
   3  -7 -10    1.13    0.52
   3  -7 -10    2.20    0.77
   3  -7  -9    2.78    1.10
   3  -7  -8    9.90    1.75
   3  -7  -7   32.94    3.40
   3  -7  -7   27.82    3.19
   3  -7  -6   60.16    4.72
  -3   7   5    1.78    1.57
   3  -7  -5   -0.03    0.87
   3  -7  -4   22.05    2.88
   3  -7  -3   10.76    2.46
   3  -7  -3   11.39    2.07
   3  -7  -2   90.72    6.57
   3  -7  -1  201.98    9.96
   3  -7   0  114.07    7.44
   3  -7   1  434.04   14.94
   3  -7   2   26.62    3.85
   3  -7   3    1.23    1.33
   3  -7   3    1.32    0.74
   3  -7   4   71.17    5.99
   3  -7   4   81.62    5.20
   3  -7   5   33.40    3.71
   3  -7   5   28.05    3.03
   3  -7   6   91.98    5.44
   3  -7   6   94.81    4.88
   3  -7   7    0.77    0.62
   3  -6 -11    0.32    0.40
   3  -6 -10    2.80    0.95
   3  -6 -10    5.70    1.31
   3  -6  -9    6.42    1.54
   3  -6  -8   57.75    4.36
   3  -6  -8   74.51    5.13
   3  -6  -7   75.17    5.28
   3  -6  -7   67.59    5.12
   3  -6  -6   22.96    3.04
   3  -6  -5   21.28    2.88
   3  -6  -4   15.72    2.43
   3  -6  -3   48.01    4.53
   3  -6  -3   52.90    4.30
   3  -6  -2   84.46    6.12
   3  -6  -1   21.90    3.30
   3  -6   0   70.19    5.69
   3  -6   1  263.51   11.38
   3  -6   2  106.27    6.46
   3  -6   3   31.43    3.47
   3  -6   4  244.60    9.59
   3  -6   5    1.48    1.08
   3  -6   6  259.64   10.33
   3  -6   6  270.23    9.41
   3  -6   7    3.26    1.31
   3  -6   7    4.88    1.26
   3  -6   8    1.60    0.73
   3  -5 -11    0.81    0.73
   3  -5 -10    1.97    1.15
   3  -5 -10    0.58    0.70
   3  -5  -9   93.31    5.58
   3  -5  -8  293.62   10.14
   3  -5  -8  296.58   10.71
   3  -5  -7   20.56    2.75
   3  -5  -7   20.45    2.90
   3  -5  -6   10.61    2.02
   3  -5  -5    0.37    0.70
   3  -5  -4  386.23   12.01
   3  -5  -4  357.26   11.28
   3  -5  -3   18.45    4.71
   3  -5  -3   17.16    5.53
   3  -5  -2    8.82    3.53
   3  -5  -2   -2.54    2.02
   3  -5  -1    5.87    2.92
   3  -5  -1   -1.62    1.68
   3  -5  -1    0.01    2.62
   3  -5   0   85.54   11.31
   3  -5   1    0.85    0.81
   3  -5   1   -1.44    2.30
   3  -5   2   11.27    2.18
   3  -5   3   68.77    5.06
   3  -5   4   26.49    3.11
   3  -5   5    0.96    0.87
   3  -5   6   78.24    5.43
   3  -5   7   68.66    4.82
   3  -5   8   40.82    3.36
   3  -5   9   10.29    1.50
   3  -4 -11   13.50    1.88
   3  -4 -10    6.40    1.56
   3  -4 -10    4.49    0.94
   3  -4  -9   13.10    2.11
   3  -4  -8    2.30    1.18
   3  -4  -8    0.67    1.16
   3  -4  -8    2.97    1.42
   3  -4  -7   13.52    2.39
   3  -4  -7   16.89    2.62
   3  -4  -6   37.64    3.81
   3  -4  -6   36.48    3.77
   3  -4  -5    9.73    1.89
   3  -4  -4  217.33   17.98
   3  -4  -3  114.57   12.65
   3  -4  -2    2.69    2.45
   3  -4  -2    2.19    2.46
   3  -4  -1   34.82    5.83
   3  -4  -1   30.86    6.10
   3  -4  -1   39.82    7.17
   3  -4  -1   25.26    6.00
   3  -4   0   12.82    3.93
   3  -4   0   11.31    3.71
   3  -4   1  246.23   17.95
   3  -4   1  195.50   16.39
   3  -4   2  253.54   19.52
   3  -4   3   40.16    7.79
   3  -4   4   57.79    4.57
   3  -4   5   74.87    5.26
   3  -4   6  102.59    6.29
   3  -4   7   23.54    3.07
   3  -4   8    3.30    0.81
   3  -4   9   -0.10    0.84
   3  -4  10   12.10    1.61
   3  -3 -11    1.51    0.91
   3  -3 -10   41.65    3.84
   3  -3  -9   20.85    3.01
   3  -3  -9   23.51    2.75
   3  -3  -8    1.24    0.69
   3  -3  -8    5.84    1.77
   3  -3  -7    1.12    1.06
   3  -3  -7   -0.22    0.70
   3  -3  -6    1.45    1.08
   3  -3  -6   -0.56    0.79
   3  -3  -5   20.31    5.56
   3  -3  -4   29.76    6.39
   3  -3  -3   89.22   10.27
   3  -3  -2   79.98    9.43
   3  -3  -1   70.85    7.76
   3  -3  -1   62.08    7.94
   3  -3  -1   59.39    8.54
   3  -3  -1   50.66    6.97
   3  -3   0  182.95   14.84
   3  -3   0  167.04   12.30
   3  -3   0  152.03   12.97
   3  -3   0  184.96   12.43
   3  -3   1   11.32    3.90
   3  -3   2   26.03    5.68
   3  -3   3  299.86   20.53
   3  -3   4   65.64   10.06
   3  -3   5   21.09    2.83
   3  -3   6    8.34    1.87
   3  -3   7  113.01    6.69
   3  -3   8    9.98    2.17
   3  -3   9    2.72    0.82
   3  -3  10   59.14    3.92
   3  -2 -11   11.26    1.77
   3  -2 -10   75.04    5.05
   3  -2  -9   55.19    4.20
   3  -2  -9   49.88    4.54
   3  -2  -8   48.23    4.09
   3  -2  -8   43.81    4.34
   3  -2  -7  425.34   12.62
   3  -2  -6  133.57    6.86
   3  -2  -6  132.45    6.75
   3  -2  -5  472.91   25.44
   3  -2  -4    8.13    3.31
   3  -2  -3  832.72   30.12
   3  -2  -2   55.18    7.35
   3  -2  -1  634.47   23.49
   3  -2  -1  593.28   26.41
   3  -2  -1  639.23   21.97
   3  -2   0   23.07    3.75
   3  -2   0   16.03    4.50
   3  -2   0   18.96    3.61
   3  -2   0   20.19    4.45
   3  -2   1  105.18   10.51
  -3   2  -2  742.31   27.81
   3  -2   2  792.42   29.41
  -3   2  -3  432.14   22.38
   3  -2   3  427.39   22.59
  -3   2  -4  122.54   12.60
   3  -2   4  126.07   12.98
  -3   2  -5  280.47   20.29
   3  -2   5  315.03   21.21
   3  -2   6   81.06    6.23
   3  -2   6   73.54    5.19
   3  -2   7  211.73   10.70
   3  -2   7  194.78    8.90
   3  -2   8   -0.25    1.06
   3  -2   8    0.90    0.76
   3  -2   9   30.70    3.77
   3  -2   9   24.53    2.99
   3  -2  10   37.10    3.73
   3  -2  10   41.47    3.54
   3  -2  11  159.72    5.85
   3  -1 -11   14.68    1.85
   3  -1 -10    0.47    0.84
   3  -1  -9   45.08    4.33
   3  -1  -9   48.04    3.97
   3  -1  -8   12.06    2.20
   3  -1  -8   12.37    2.01
   3  -1  -7   -0.67    1.07
   3  -1  -6   29.14    3.02
   3  -1  -5  105.40   11.80
   3  -1  -4  246.06   16.71
   3  -1  -3  425.50   20.42
   3  -1  -2  169.33   12.19
  -3   1   2  173.00   11.58
   3  -1  -1  135.24   12.22
   3  -1  -1  148.54   10.58
  -3   1   1  149.98   10.92
   3  -1   0  488.61   17.77
  -3   1   0  495.52   19.94
   3  -1   0  495.41   18.95
   3  -1   1 2522.59   36.67
  -3   1  -1 2484.04   42.71
  -3   1  -1 2466.28   46.47
  -3   1  -2  294.84   15.42
   3  -1   2  338.68   16.65
   3  -1   2  297.96   16.63
  -3   1  -2  280.76   16.11
  -3   1  -3  709.35   25.70
   3  -1   3  717.08   26.97
  -3   1  -3  722.26   26.95
  -3   1  -4    3.78    2.34
  -3   1  -4    2.34    1.51
   3  -1   4    2.85    2.28
  -3   1  -5  159.31   13.81
  -3   1  -5  158.27   13.83
   3  -1   6  464.81   26.21
  -3   1  -6  433.79   25.03
  -3   1  -6  432.91   24.72
   3  -1   7   30.91    3.27
   3  -1   8   28.66    3.35
   3  -1   9   21.75    2.92
   3  -1  10   13.73    2.76
   3  -1  10   16.91    2.41
   3  -1  11  120.08    6.52
   3  -1  11  125.85    5.59
   3   0 -11   73.68    4.94
   3   0 -10    2.99    1.13
   3   0 -10    1.43    0.81
   3   0  -9   22.93    2.81
   3   0  -9   23.35    3.05
   3   0  -8  185.11    8.22
   3   0  -8  180.65    8.44
   3   0  -7    9.19    1.72
   3   0  -7    6.97    1.71
   3   0  -6  105.60    5.83
   3   0  -6   90.79    5.49
   3   0  -5  388.91   23.32
  -3   0   5  348.83   21.08
   3   0  -4  150.03   13.17
   3   0  -3   15.24    3.94
   3   0  -2   81.93    8.23
  -3   0   2   80.11    7.38
   3   0  -1  350.39   15.82
   3   0  -1  384.07   20.24
   3   0  -1  393.76   15.10
   3   0   0  269.53   12.49
   3   0   0  279.92   16.82
   3   0   0  278.12   13.57
   3   0   1  401.06   14.03
   3   0   1  398.74   18.23
  -3   0  -1  412.76   14.64
  -3   0  -2  262.94   14.57
  -3   0  -3  461.54   19.98
  -3   0  -3  511.24   18.29
  -3   0  -4   32.96    5.23
  -3   0  -4   31.64    5.21
   3   0   5  560.03   25.93
  -3   0  -5  563.18   24.65
  -3   0  -5  540.62   24.01
   3   0   6  130.37   13.29
  -3   0  -6  127.91   12.79
  -3   0  -7   52.42    8.66
   3   0   7   49.03    4.51
   3   0   7   47.07    8.10
   3   0   8   81.06    5.52
  -3   0  -9   80.20    5.36
   3   0   9   68.71    5.09
  -3   0 -10   -0.94    1.13
   3   0  10    1.67    0.94
   3   0  11   31.33    3.88
   3   0  11   30.10    2.93
   3   0  12   22.94    2.59
   3   1 -11  108.79    5.38
   3   1 -10    1.14    0.79
   3   1  -9   19.01    2.74
   3   1  -9   17.69    2.65
   3   1  -8  372.02   11.74
   3   1  -8  376.49   11.88
   3   1  -7   22.22    2.85
   3   1  -7   23.04    2.91
   3   1  -6  195.45    8.04
   3   1  -5  105.20   12.50
  -3  -1   5   88.62   10.38
   3   1  -4   32.55    6.63
  -3  -1   4   28.55    5.55
   3   1  -3   37.20    6.31
   3   1  -3   31.10    5.41
   3   1  -2  128.77   10.79
   3   1  -2  120.43   10.05
   3   1  -1    6.19    2.17
   3   1  -1    9.05    3.04
   3   1  -1    7.81    2.62
   3   1   0 1117.06   27.28
   3   1   0 1120.75   27.07
   3   1   0 1182.76   33.65
   3   1   1  255.76   11.91
   3   1   1  232.05   12.86
   3   1   2  294.88   15.40
  -3  -1  -2  327.17   14.00
   3   1   3   32.33    5.26
  -3  -1  -3   32.75    4.86
   3   1   4  588.96   23.92
  -3  -1  -4  577.15   22.90
   3   1   5  518.27   23.94
  -3  -1  -5  479.72   21.34
  -3  -1  -5  474.17   22.56
  -3  -1  -6  921.93   34.05
   3   1   6 1014.96   35.41
   3   1   7  183.39   16.11
   3   1   8    5.29    1.52
  -3  -1  -9   25.56    3.09
  -3  -1 -10  332.57   11.01
  -3  -1 -11    3.24    0.97
   3   1  12    2.75    1.15
   3   2 -10   58.41    4.13
   3   2 -10   57.50    4.51
   3   2  -9    0.85    0.96
   3   2  -8   12.56    2.33
   3   2  -8   16.21    2.47
   3   2  -7    0.68    0.83
   3   2  -7    0.74    0.82
   3   2  -7    0.68    0.64
   3   2  -6  131.86    6.78
   3   2  -5  124.70   13.91
  -3  -2   5  109.75   11.98
   3   2  -4  356.22   22.31
   3   2  -4  335.34   20.07
  -3  -2   4  348.22   19.07
  -3  -2   3   32.49    5.11
   3   2  -3   32.76    5.88
   3   2  -3   37.31    6.75
  -3  -2   2  182.18   10.70
   3   2  -2  201.00   14.27
   3   2  -2  206.46   14.14
   3   2  -1   18.69    4.04
   3   2  -1   14.54    3.53
   3   2   0  929.11   26.44
   3   2   0  966.34   27.89
   3   2   0 1009.78   30.29
   3   2   1  844.82   26.94
  -3  -2  -1  863.45   18.97
   3   2   2  166.32   11.56
  -3  -2  -2  193.92   10.44
   3   2   3  672.43   24.09
  -3  -2  -3  665.19   21.62
   3   2   4   20.17    4.33
  -3  -2  -4   20.02    4.08
   3   2   5   92.29    9.77
  -3  -2  -5   89.52    9.57
   3   2   6 1291.77   39.67
  -3  -2  -6 1238.97   39.26
  -3  -2  -7    3.81    2.42
   3   2   8  664.00   16.61
  -3  -2  -8  698.90   15.56
   3   2   9  222.24   10.01
  -3  -2  -9  240.49    9.46
  -3  -2 -10    4.62    1.46
  -3  -2 -11  521.34   13.49
   3   2  12    4.10    1.59
  -3  -2 -12    5.77    1.41
   3   2  13   52.93    3.69
   3   3 -10   33.89    2.83
   3   3 -10   30.84    2.81
   3   3  -9    7.38    1.74
   3   3  -9    8.46    2.02
   3   3  -8    2.33    0.98
   3   3  -8    2.73    1.26
   3   3  -7   11.09    2.19
   3   3  -6  212.17    9.77
   3   3  -6  205.19    8.79
   3   3  -5   15.78    2.32
   3   3  -4    1.12    1.49
   3   3  -3   81.06   10.02
   3   3  -2  274.17   17.90
  -3  -3   2  262.62   15.93
   3   3  -1  236.67   15.64
   3   3   0  191.41   13.45
   3   3   1  877.04   27.60
   3   3   1  929.93   27.80
  -3  -3  -1  901.53   20.74
   3   3   2    8.24    3.14
  -3  -3  -2   11.24    2.95
  -3  -3  -3 1522.47   33.70
  -3  -3  -4   97.11    9.27
  -3  -3  -5   10.82    3.36
  -3  -3  -6 1069.38   36.28
  -3  -3  -7   13.41    4.55
   3   3   8  845.29   18.48
  -3  -3  -8  835.19   17.39
   3   3   9   25.73    3.44
  -3  -3  -9   25.35    3.03
   3   3  10   41.88    4.36
  -3  -3 -10   38.48    3.83
  -3  -3 -11  256.16    9.71
   3   3  12    6.82    1.79
  -3  -3 -12    8.15    1.67
   3   3  13  149.79    6.50
  -3  -3 -13  156.17    5.60
   3   4  -9    0.60    0.59
   3   4  -9   -0.30    0.68
   3   4  -8    3.78    1.28
   3   4  -8    1.67    1.06
   3   4  -7    3.96    1.40
   3   4  -7    6.76    2.06
   3   4  -6   47.04    4.91
   3   4  -6   57.95    5.63
   3   4  -5    3.89    1.81
   3   4  -5    3.65    1.31
   3   4  -5    5.35    1.93
   3   4  -4   13.51    4.44
   3   4  -4   11.52    1.95
   3   4  -3   -2.21    2.04
   3   4  -2   72.01    9.85
  -3  -4   2   72.03    9.11
  -3  -4   1    1.26    1.66
   3   4  -1    1.97    1.45
   3   4   0   11.65    3.70
   3   4   1   31.53    6.44
   3   4   1   44.58    6.70
   3   4   2  108.35   10.03
   3   4   2  119.26   12.31
   3   4   2  119.32    9.60
  -3  -4  -2  107.09    8.89
  -3  -4  -3  517.83   21.08
  -3  -4  -4  843.52   28.78
  -3  -4  -5  553.44   25.27
  -3  -4  -6   -0.27    2.35
  -3  -4  -7   10.48    3.54
  -3  -4  -8  309.00   11.04
   3   4   9  273.87   11.08
  -3  -4  -9  283.09   10.70
   3   4  10   53.42    4.90
  -3  -4 -10   54.06    4.58
   3   4  11   24.99    3.14
  -3  -4 -11   26.39    3.22
   3   4  12   46.22    4.58
  -3  -4 -12   53.35    4.11
   3   4  13   68.45    4.35
  -3  -4 -13   75.17    4.03
   3   5  -9   46.74    3.36
   3   5  -8   11.98    2.05
   3   5  -7    6.47    1.59
   3   5  -7    6.47    1.60
   3   5  -6    2.92    1.50
   3   5  -6    4.00    1.59
   3   5  -5   83.36    6.35
   3   5  -5  104.51    7.41
   3   5  -4  127.60    7.54
   3   5  -4  163.61    9.06
   3   5  -3   11.53    4.46
   3   5  -2  234.57   18.89
  -3  -5   2  257.21   19.06
   3   5  -1  120.94   12.98
  -3  -5   1  143.49   13.75
   3   5   0   56.65    8.75
  -3  -5   0   48.52    8.16
   3   5   1  880.33   34.06
   3   5   1  954.54   33.59
   3   5   2  808.96   29.60
   3   5   2  803.80   33.38
  -3  -5  -2  720.99   26.46
   3   5   3  904.59   36.45
   3   5   3  871.98   29.64
  -3  -5  -3  817.46   29.17
  -3  -5  -4   23.69    5.16
  -3  -5  -5  179.07   15.23
  -3  -5  -6  184.85   16.26
  -3  -5  -7  144.60   15.05
  -3  -5  -8   16.63    2.70
   3   5   9  122.51    7.56
  -3  -5  -9  133.87    7.61
   3   5  10   36.53    4.09
  -3  -5 -10   33.77    3.68
   3   5  11   14.10    2.37
   3   5  11   10.67    2.32
  -3  -5 -11   16.57    2.59
   3   5  12   13.65    2.53
  -3  -5 -12   18.50    2.48
   3   5  13   30.58    2.74
  -3  -5 -13   42.28    3.02
   3   6  -8    9.78    1.68
   3   6  -7   69.12    5.18
   3   6  -6    3.82    1.29
   3   6  -5  159.53    8.83
   3   6  -4  145.69    8.41
   3   6  -4  161.43    8.88
   3   6  -3  132.23    7.81
   3   6  -3  149.01    8.29
  -3  -6   2   64.81   10.51
   3   6  -1  104.08   13.01
  -3  -6   1  120.50   13.79
  -3  -6   1  124.19   13.28
   3   6   0  163.29   15.60
  -3  -6   0  181.18   16.84
  -3  -6   0  189.99   16.37
   3   6   1   35.08    6.90
   3   6   2    4.62    3.05
   3   6   2    3.67    2.16
   3   6   3  226.07   16.09
  -3  -6  -3  195.13   15.82
   3   6   4  401.45   25.77
  -3  -6  -4  331.16   21.17
  -3  -6  -5  192.13   16.85
  -3  -6  -6    0.16    0.95
   3   6   7   95.61    6.66
  -3  -6  -7   86.61    6.42
   3   6   8  107.09    7.36
  -3  -6  -8  112.99    7.30
  -3  -6  -9  137.48    7.94
   3   6  10    8.19    2.06
  -3  -6 -10    7.21    2.06
   3   6  11    5.27    1.52
  -3  -6 -11    5.35    1.36
   3   6  12   12.38    1.91
  -3  -6 -12   16.51    2.25
  -3  -6 -13   38.63    2.90
   3   7  -7   62.85    4.45
   3   7  -6   93.59    6.05
   3   7  -5    3.83    1.54
   3   7  -4   66.42    5.80
   3   7  -3   79.76    6.39
   3   7  -2   30.71    3.83
   3   7  -1  110.90    7.12
   3   7   0    1.24    0.58
  -3  -7   0    1.00    2.70
   3   7   0   -0.90    1.53
   3   7   1   62.20    9.71
  -3  -7  -1   64.24   10.54
  -3  -7  -1   66.22   10.37
   3   7   2   10.06    3.81
  -3  -7  -2    4.74    3.81
  -3  -7  -2    3.70    3.24
   3   7   3  239.07   17.62
   3   7   3  298.03   21.58
  -3  -7  -3  262.77   20.08
   3   7   4  149.08   16.13
  -3  -7  -4  107.13   13.30
  -3  -7  -5   -5.28    2.98
  -3  -7  -5   -0.97    2.25
   3   7   6   27.72    3.72
   3   7   7   90.44    6.67
   3   7   8   40.44    4.60
  -3  -7  -8   40.81    4.54
  -3  -7  -9   95.48    6.73
  -3  -7 -10    6.40    1.67
   3   7  11   19.98    2.87
  -3  -7 -11   20.80    2.88
   3   7  12   30.98    2.90
  -3  -7 -12   32.21    3.06
  -3  -7 -13   38.51    2.76
   3   8  -7    6.51    1.27
   3   8  -6   19.94    2.58
   3   8  -5   17.73    2.72
   3   8  -4    9.20    2.11
   3   8  -3   67.44    5.76
   3   8  -2   62.91    5.72
   3   8  -1   72.44    6.02
   3   8  -1   79.73    6.87
   3   8   0   30.08    4.20
   3   8   1  182.49   10.26
   3   8   2   59.17    5.70
   3   8   3  152.90    8.96
   3   8   4   42.90    4.75
   3   8   5  146.69    8.61
   3   8   5  131.74    8.70
   3   8   6    0.79    0.65
   3   8   6   -0.43    0.86
   3   8   7   47.22    5.01
   3   8   8  159.89    8.93
  -3  -8  -8  159.72    9.09
  -3  -8  -9   -0.74    1.38
  -3  -8 -10   13.68    2.52
   3   8  11    1.20    0.67
  -3  -8 -11    1.09    0.99
   3   8  12    1.18    0.69
  -3  -8 -12    1.75    0.89
   3   9  -6  100.13    4.82
   3   9  -5   19.00    2.63
   3   9  -4   43.21    4.42
   3   9  -3   -0.62    1.11
   3   9  -2   24.13    3.23
   3   9  -2   24.55    3.73
   3   9  -1    1.66    1.24
   3   9   0    4.09    1.76
   3   9   1    7.85    2.02
   3   9   2  100.97    7.54
   3   9   3   14.32    3.14
   3   9   4   26.20    3.88
   3   9   5    0.63    0.70
   3   9   6   47.59    4.93
   3   9   6   42.44    5.18
   3   9   7   16.79    2.99
   3   9   8   98.84    7.00
  -3  -9  -8   94.01    7.06
  -3  -9  -9    9.27    2.12
  -3  -9 -10   -1.55    1.11
   3   9  11    5.78    1.42
  -3  -9 -11    7.73    1.64
  -3  -9 -12   26.94    2.43
   3  10  -4   71.97    4.78
   3  10  -3    5.29    1.58
   3  10  -2    7.47    1.95
   3  10  -1   13.84    2.64
   3  10   0    2.48    1.16
   3  10   1    1.13    0.87
   3  10   2   88.69    7.01
   3  10   3   12.57    2.67
   3  10   4   -0.41    1.04
   3  10   5   92.60    6.85
   3  10   6    3.75    1.53
   3  10   7  197.25    9.42
   3  10   8  135.61    7.53
  -3 -10  -8  124.67    7.80
  -3 -10  -9    3.65    1.37
  -3 -10 -10    2.48    0.89
   3  10  11    0.68    0.43
  -3 -10 -11   -0.15    0.59
   3  11  -3    1.48    0.73
   3  11  -2   15.80    2.31
   3  11  -1   15.76    2.57
   3  11   0    3.71    1.31
   3  11   1    1.03    0.94
  -3 -11  -1    1.20    0.91
   3  11   2   58.75    5.35
   3  11   3  118.27    7.50
   3  11   4    0.25    0.62
   3  11   5   58.19    5.03
   3  11   6   -0.02    0.56
   3  11   7   -0.38    0.80
   3  11   8  194.20    7.99
  -3 -11  -8  216.58    9.25
  -3 -11  -9    0.13    1.03
  -3 -11 -10   54.45    3.75
   3  12  -1    3.83    0.97
   3  12   0   11.70    1.83
  -3 -12   0   10.56    1.32
   3  12   1   13.98    2.11
  -3 -12  -1   12.10    1.48
   3  12   2    0.89    0.87
   3  12   3   12.89    2.11
   3  12   4   -0.66    0.48
   3  12   5   12.24    2.00
   3  12   6   12.53    1.91
  -3 -12  -7   14.75    2.25
  -3 -12  -8   34.83    3.19
  -3 -12  -9   -1.14    0.61
  -3 -13  -6   21.19    2.28
  -3 -13  -7   41.70    2.90
   4  -9  -5    3.17    0.92
  -4   9   4    0.69    0.78
  -4   9   3   39.34    3.90
   4  -9  -2    9.26    1.52
   4  -9  -1   17.11    2.16
   4  -9   0    6.30    1.49
   4  -9   1    0.43    0.67
   4  -9   2   -0.05    0.64
   4  -8  -7    0.43    0.49
   4  -8  -6    0.10    0.60
  -4   8   4    8.86    2.00
   4  -8  -3   35.89    3.42
   4  -8  -2    1.08    0.62
   4  -8  -1    7.56    1.79
   4  -8   0    1.00    0.87
   4  -8   1   24.98    3.15
   4  -8   2   23.77    2.85
   4  -8   3   -0.41    0.69
   4  -8   3   -0.91    0.71
   4  -8   4    1.57    0.78
   4  -8   4    3.62    0.96
   4  -7  -8   21.12    1.99
   4  -7  -7   46.57    3.25
   4  -7  -7   41.38    3.34
   4  -7  -6   -0.34    0.84
   4  -7  -6   -0.09    0.81
   4  -7  -4   36.94    3.56
  -4   7   4   26.46    3.86
   4  -7  -3   88.63    6.01
   4  -7  -2    5.45    1.78
   4  -7  -1   37.43    4.28
   4  -7   0   45.43    4.61
   4  -7   1   22.73    3.39
   4  -7   2    2.45    1.35
   4  -7   3  107.46    6.52
   4  -7   4    2.58    1.21
   4  -7   5  213.46    7.64
   4  -7   6    1.75    0.87
   4  -6  -9   14.76    1.93
   4  -6  -8   18.81    2.18
   4  -6  -7   29.94    3.13
   4  -6  -7   35.64    3.17
   4  -6  -6   -0.85    1.02
   4  -6  -6   -0.48    0.77
   4  -6  -4   41.33    4.04
   4  -6  -3   24.34    3.29
   4  -6  -2    3.04    1.48
   4  -6  -1    5.98    1.49
   4  -6   0   50.55    4.97
   4  -6   1   20.94    3.24
   4  -6   2   26.03    3.58
   4  -6   3  129.27    7.93
   4  -6   4    9.41    2.04
   4  -6   5  256.11    9.81
   4  -6   6   12.51    1.80
   4  -6   7   10.97    1.81
   4  -5  -9    6.68    1.39
   4  -5  -8    1.34    0.82
   4  -5  -7    2.93    1.19
   4  -5  -7    6.90    1.62
   4  -5  -6   13.38    2.45
   4  -5  -6   14.87    2.25
   4  -5  -5   18.53    2.55
   4  -5  -4  187.39    8.78
   4  -5  -3   -0.73    0.97
   4  -5  -2   17.81    2.94
   4  -5  -1   27.25    3.49
   4  -5   0  625.05   17.21
   4  -5   1  214.66   10.31
   4  -5   2  141.08    8.55
   4  -5   3   10.73    2.40
   4  -5   4    1.21    1.11
   4  -5   4    2.53    0.92
   4  -5   5  174.50    8.74
   4  -5   5  187.62    8.23
   4  -5   6   21.84    2.81
   4  -5   6   21.25    2.70
   4  -5   7   62.48    4.24
   4  -5   8    1.91    0.89
   4  -5   8    0.14    0.64
   4  -4 -10   33.31    2.57
   4  -4  -9    0.42    0.50
   4  -4  -9    1.21    0.71
   4  -4  -8   24.12    2.81
   4  -4  -7  103.54    6.41
   4  -4  -6   96.96    6.30
   4  -4  -6  105.13    6.24
   4  -4  -5  201.71    9.25
   4  -4  -5  203.44    8.85
   4  -4  -4    4.24    1.44
   4  -4  -3    7.57    1.84
   4  -4  -2   64.68    5.28
   4  -4  -1   81.01    5.93
   4  -4   0  159.20    8.52
   4  -4   0  148.74    8.15
   4  -4   1    8.23    2.20
   4  -4   2  167.23    9.02
   4  -4   3    0.54    0.96
   4  -4   3   -0.24    0.89
   4  -4   4   98.96    7.10
   4  -4   4  104.06    6.40
   4  -4   5   18.67    2.94
   4  -4   5   21.87    2.86
   4  -4   6  176.34    8.08
   4  -4   7    1.32    0.99
   4  -4   8   78.12    4.66
   4  -4   9    2.15    0.72
   4  -4   9    1.52    0.82
   4  -3 -10  111.30    4.84
   4  -3 -10   71.14    4.35
   4  -3  -9    1.28    0.72
   4  -3  -9    0.29    0.58
   4  -3  -9    0.96    0.62
   4  -3  -8   12.07    2.02
   4  -3  -8   12.17    2.15
   4  -3  -7   15.44    2.57
   4  -3  -6  635.70   16.10
   4  -3  -6  634.57   15.42
   4  -3  -5  197.91    9.07
   4  -3  -5  191.49    8.56
   4  -3  -4   45.00    4.09
   4  -3  -4   40.27    5.20
   4  -3  -3    2.27    1.30
   4  -3  -3    0.97    0.80
   4  -3  -2    5.86    1.57
   4  -3  -2    8.14    3.40
   4  -3  -1  145.06   15.89
   4  -3   0  473.15   28.19
   4  -3   1    3.95    5.18
   4  -3   1    3.43    3.01
   4  -3   2   89.54    6.34
   4  -3   2   74.40    5.18
   4  -3   2   89.28   12.73
   4  -3   2   81.91   11.50
   4  -3   3   -0.01    0.89
   4  -3   3    2.49    1.07
   4  -3   4  154.05    8.37
   4  -3   4  153.82    7.66
   4  -3   5  100.09    6.23
   4  -3   6    6.78    1.66
   4  -3   7   23.95    2.85
   4  -3   8   48.19    4.07
   4  -3   9   89.83    4.98
   4  -3   9   75.25    4.79
   4  -3  10   12.52    1.41
   4  -2 -10   13.22    1.71
   4  -2 -10    8.13    1.64
   4  -2  -9    7.22    1.46
   4  -2  -9    5.55    1.44
   4  -2  -8   24.59    2.85
   4  -2  -8   27.85    3.22
   4  -2  -7   98.02    6.08
   4  -2  -6    3.78    1.43
   4  -2  -5  762.22   17.38
   4  -2  -5  758.77   16.94
   4  -2  -5  721.92   22.81
   4  -2  -4    0.36    0.50
   4  -2  -4    1.49    1.03
   4  -2  -4    1.96    1.47
   4  -2  -3   55.98    8.75
   4  -2  -2    3.72    2.25
   4  -2  -1  200.97   15.09
   4  -2  -1  177.06   17.13
   4  -2   0  661.84   32.61
   4  -2   1   44.52    8.42
   4  -2   1   44.14    7.95
   4  -2   2  547.13   27.71
   4  -2   3  117.93   13.72
  -4   2  -4   14.46    4.83
   4  -2   4   16.53    2.33
   4  -2   5  281.40   11.27
   4  -2   5  220.64    9.12
   4  -2   6    0.33    0.84
   4  -2   6    0.13    1.08
   4  -2   7   67.46    5.92
   4  -2   7   59.68    4.85
   4  -2   8   46.62    4.46
   4  -2   8   38.56    3.77
   4  -2   9   34.17    3.49
   4  -2   9   33.47    3.22
   4  -2  10    3.48    1.00
   4  -1 -10   13.16    2.14
   4  -1  -9   17.07    2.21
   4  -1  -9   19.01    2.42
   4  -1  -8    6.99    1.59
   4  -1  -8    6.74    1.48
   4  -1  -7  132.06    7.00
   4  -1  -6   30.39    3.42
   4  -1  -5   22.34    2.77
   4  -1  -5   21.54    2.80
   4  -1  -5   25.21    4.30
   4  -1  -4   32.25    3.28
   4  -1  -4   34.63    3.48
   4  -1  -4   34.89    4.85
   4  -1  -3  106.44   12.09
   4  -1  -2    7.48    2.53
  -4   1   1    9.79    3.41
   4  -1  -1    9.93    3.18
   4  -1  -1   12.69    4.76
   4  -1   0  103.05   12.63
   4  -1   0  108.85   11.02
  -4   1   0  101.10   10.83
   4  -1   1   -0.90    2.30
   4  -1   1    1.30    1.41
  -4   1  -1    1.61    1.10
  -4   1  -2  311.80   19.97
  -4   1  -3   35.09    6.60
  -4   1  -3   34.57    6.55
  -4   1  -4   20.39    5.34
   4  -1   4   19.45    6.03
   4  -1   5  215.82   10.01
   4  -1   6    0.71    0.93
   4  -1   6    1.91    1.20
   4  -1   7   23.17    3.44
   4  -1   7   20.25    2.73
   4  -1   8   -0.73    1.24
   4  -1   8   -0.04    0.85
   4  -1   9   68.49    5.75
   4  -1   9   64.01    4.58
   4  -1  10   41.15    3.88
   4  -1  11   -0.27    0.76
   4   0 -10   16.74    2.45
   4   0  -9   38.54    3.39
   4   0  -9   35.92    4.10
   4   0  -8    5.24    1.36
   4   0  -7   84.95    5.62
   4   0  -6   64.47    4.91
   4   0  -5  195.02    8.38
   4   0  -5  184.24   11.44
   4   0  -4    2.76    1.12
   4   0  -4    2.68    1.07
   4   0  -4    1.64    0.99
   4   0  -3   23.56    6.02
   4   0  -2    4.32    1.66
   4   0  -1  935.88   32.03
   4   0  -1  889.31   37.20
  -4   0   1  928.64   31.27
   4   0   0    0.09    1.47
   4   0   0   -1.23    3.07
   4   0   0    0.07    1.65
  -4   0   0   -0.07    0.82
   4   0   1   63.30    9.59
   4   0   1   73.43    9.06
  -4   0  -1   68.41    8.56
   4   0   2  346.14   20.41
  -4   0  -2  312.45   19.00
  -4   0  -3   32.57    5.54
   4   0   3   36.34    7.17
  -4   0  -3   34.04    6.31
  -4   0  -4  395.43   21.83
   4   0   4  395.53   23.72
  -4   0  -4  388.33   22.78
  -4   0  -5  276.75   19.52
   4   0   5  329.95   22.69
  -4   0  -5  279.65   20.21
   4   0   6    0.04    1.07
   4   0   7   67.67    6.28
   4   0   8   35.43    4.43
   4   0   9  129.43    8.35
   4   0  10   29.23    3.76
   4   0  11    0.66    0.85
   4   1 -10   -0.50    0.83
   4   1  -9   -0.64    1.34
   4   1  -8    1.80    1.24
   4   1  -8    2.12    0.93
   4   1  -7   82.25    5.58
   4   1  -6    3.34    1.23
   4   1  -5    1.45    0.78
   4   1  -5    1.59    0.95
   4   1  -4  169.86    7.46
   4   1  -4  162.05   10.20
   4   1  -3   12.91    4.64
   4   1  -2  167.12   14.80
   4   1  -1  334.75   19.58
   4   1   0  518.61   22.85
   4   1   0  468.22   25.67
   4   1   1   32.07    6.48
   4   1   1   29.65    5.99
   4   1   1   28.74    5.36
   4   1   2   22.14    5.39
   4   1   2   19.14    4.92
   4   1   3  499.46   27.44
   4   1   3  499.50   24.74
  -4  -1  -3  467.63   23.16
   4   1   4  338.85   21.22
  -4  -1  -4  311.73   19.70
   4   1   5   -1.91    3.03
  -4  -1  -5    0.24    2.13
   4   1   6   45.06    4.21
   4   1   6   57.36    5.41
  -4  -1  -6   48.95    8.28
   4   1   7   79.33    5.98
   4   1   7   91.18    7.26
   4   1   8   66.11    6.38
   4   1   9    9.31    2.54
   4   1  10  223.95   10.77
   4   1  11   16.17    2.70
   4   1  12   92.10    4.95
   4   2  -9    2.11    1.11
   4   2  -8    2.04    1.35
   4   2  -7   49.94    4.36
   4   2  -7   58.86    5.91
   4   2  -6   79.41    5.51
   4   2  -6   81.82    7.13
   4   2  -5   13.86    2.30
   4   2  -5   19.07    3.57
   4   2  -4    6.88    1.93
   4   2  -4    5.00    1.27
   4   2  -4    4.90    1.98
   4   2  -3   37.54    7.48
   4   2  -3   27.65    6.02
   4   2  -2  436.76   24.68
   4   2  -2  372.90   21.49
   4   2  -1   17.72    4.58
   4   2   0   26.43    5.74
   4   2   1  100.35   11.54
   4   2   1  146.63   13.95
   4   2   2  192.69   16.59
   4   2   2  210.17   16.77
   4   2   3    1.87    2.33
   4   2   3    1.20    2.12
   4   2   4  509.85   25.78
  -4  -2  -4  530.49   23.88
   4   2   5  451.95   25.47
  -4  -2  -5  418.44   23.21
  -4  -2  -5  439.97   23.59
   4   2   6  255.16   19.93
  -4  -2  -6  230.01   17.75
  -4  -2  -6  236.59   18.50
   4   2   7  632.76   16.35
   4   2   7  588.83   18.17
   4   2   8   53.07    5.03
   4   2   8   48.59    5.38
   4   2   9   18.55    3.12
   4   2   9   17.57    3.32
   4   2  10   76.91    6.55
   4   2  11   85.26    6.33
   4   2  12  223.01    8.46
   4   3  -9    2.71    0.97
   4   3  -8    2.65    1.54
   4   3  -7   55.67    5.40
   4   3  -6   95.64    6.12
   4   3  -6  105.88    8.17
   4   3  -5    4.89    1.92
   4   3  -5    4.79    1.54
   4   3  -5    5.60    2.22
   4   3  -4    5.18    1.30
   4   3  -4    4.39    1.95
   4   3  -4    4.64    1.89
   4   3  -3    5.34    1.30
   4   3  -3    7.34    3.40
   4   3  -3    7.72    2.17
   4   3  -2  256.60   18.86
   4   3  -1    3.60    2.46
   4   3   0  219.32   16.61
   4   3   1  113.98   12.88
   4   3   1  155.31   14.11
   4   3   2  548.55   29.42
   4   3   2  681.57   29.33
   4   3   3   81.44   11.86
  -4  -3  -4   40.10    6.78
  -4  -3  -5  242.19   17.68
  -4  -3  -6   46.65    7.98
   4   3   7  628.44   16.24
   4   3   7  617.73   18.35
   4   3   8   20.61    3.13
   4   3   8   20.14    3.43
   4   3   9    5.33    1.71
   4   3   9    6.44    1.97
   4   3  10  242.89   10.41
   4   3  10  211.88   10.86
   4   3  11   94.14    6.65
   4   3  12  437.39   12.22
   4   4  -8   46.73    4.18
   4   4  -7    7.24    2.12
   4   4  -6   56.35    5.73
   4   4  -5  100.21    6.46
   4   4  -5  123.03    8.54
   4   4  -4    3.70    1.23
   4   4  -4    6.03    1.95
   4   4  -3  162.79    7.45
   4   4  -3  212.14   10.71
   4   4  -2  535.36   29.21
   4   4  -1   22.59    5.94
   4   4   0   11.07    4.16
   4   4   1    3.33    2.64
   4   4   2 1420.84   47.94
   4   4   2 1574.07   43.62
   4   4   3   29.54    7.48
   4   4   4   48.16    9.26
  -4  -4  -4   51.25    7.50
  -4  -4  -5   20.09    4.93
  -4  -4  -6   68.44   10.04
   4   4   7   40.77    4.14
   4   4   7   40.09    4.60
   4   4   8   78.08    6.01
   4   4   8   70.39    6.26
   4   4   9    7.50    2.02
   4   4   9    6.21    1.81
   4   4  10   25.88    3.45
   4   4  10   22.58    3.53
   4   4  11   49.75    4.44
   4   4  11   44.72    4.49
  -4  -4 -11   45.55    3.63
   4   4  12   31.13    3.31
   4   5  -8   49.76    3.47
   4   5  -7   12.35    2.26
   4   5  -6   34.82    4.32
   4   5  -5   45.13    5.20
   4   5  -4  564.43   17.75
   4   5  -3  148.63    9.03
   4   5  -2   37.28    3.65
   4   5  -2   51.60    4.50
   4   5  -2   53.36    5.34
   4   5  -1  320.46   23.21
  -4  -5   0   13.98    5.24
   4   5   0   17.72    5.23
   4   5   1  464.12   26.07
   4   5   2  288.12   22.09
   4   5   3  251.98   21.78
   4   5   4   35.81    8.34
  -4  -5  -5    5.06    2.69
   4   5   6  142.76    7.94
   4   5   7  209.58    9.94
   4   5   7  211.75   10.08
   4   5   8  109.87    7.23
   4   5   8  116.73    7.82
   4   5   9   33.35    4.06
   4   5   9   32.63    4.19
  -4  -5  -9   37.38    3.86
   4   5  10   36.13    4.00
   4   5  10   30.60    3.97
  -4  -5 -10   31.22    3.48
   4   5  11   43.69    4.12
   4   5  11   35.43    3.95
  -4  -5 -11   37.48    3.39
   4   5  12   29.56    3.08
  -4  -5 -12   31.16    2.60
   4   6  -6    0.46    0.73
   4   6  -6   -3.51    1.49
   4   6  -5   11.76    2.35
   4   6  -4  228.50   10.75
   4   6  -3  191.85   10.22
   4   6  -2  250.87   11.44
   4   6  -1    2.38    1.29
   4   6  -1   -3.42    2.57
   4   6   0   87.03    6.82
   4   6   0   89.51    6.40
  -4  -6   0   89.98   12.31
   4   6   1  464.28   27.52
  -4  -6  -1  445.69   27.93
   4   6   2  139.92   14.66
   4   6   3  355.75   25.81
   4   6   4   -0.32    1.37
   4   6   5  153.20    8.40
  -4  -6  -5  112.39   13.28
   4   6   6  200.95    9.78
   4   6   7  174.98    9.33
  -4  -6  -7  172.04    8.85
   4   6   8    1.31    0.81
  -4  -6  -8    0.58    0.84
   4   6   9   31.12    3.94
  -4  -6  -9   32.17    3.65
   4   6  10   24.15    3.33
  -4  -6 -10   19.52    2.83
   4   6  11   84.04    5.66
  -4  -6 -11   77.88    4.98
   4   6  12    9.78    1.60
  -4  -6 -12    9.15    1.52
   4   7  -6    1.05    0.96
   4   7  -5   17.33    2.80
   4   7  -5    2.16    0.65
   4   7  -4    6.40    2.14
   4   7  -4   -2.89    1.84
   4   7  -3  249.49   12.06
   4   7  -3  242.37   10.47
   4   7  -2    2.32    0.92
   4   7  -1   15.03    2.87
   4   7  -1   10.37    2.02
   4   7   0   42.01    5.03
   4   7   0   35.38    3.91
   4   7   1   36.08    4.63
   4   7   1   50.94    4.71
   4   7   2  456.52   15.56
   4   7   2  412.43   11.86
   4   7   3   40.89    4.80
   4   7   4  504.29   16.12
   4   7   5    6.36    1.57
   4   7   5    6.58    1.83
   4   7   6   32.62    4.10
   4   7   7  310.39   12.48
  -4  -7  -7  284.13   11.69
   4   7   8    3.19    1.65
  -4  -7  -8    2.88    1.33
  -4  -7  -9   52.48    4.95
   4   7  10   12.61    2.41
  -4  -7 -10   10.29    2.07
   4   7  11   27.28    3.13
  -4  -7 -11   23.76    2.83
   4   7  12   31.71    2.88
  -4  -7 -12   25.14    2.35
   4   8  -5   46.31    4.10
   4   8  -4    2.24    1.25
   4   8  -3   36.68    4.36
   4   8  -2   37.40    4.73
   4   8  -2   30.01    3.39
   4   8  -1   22.76    3.70
   4   8  -1   25.35    3.36
   4   8   0   24.34    3.86
   4   8   0   38.40    4.18
   4   8   1   10.49    2.63
   4   8   1   58.43    4.97
   4   8   2  119.16    8.32
   4   8   3    3.34    1.73
   4   8   4   43.71    4.89
   4   8   5   23.61    3.65
   4   8   5   26.14    3.28
   4   8   6   28.16    3.82
   4   8   7  268.28   11.87
   4   8   8   91.65    6.75
  -4  -8  -8   83.25    6.48
  -4  -8  -9   11.83    2.40
   4   8  10    8.91    2.14
  -4  -8 -10    7.92    1.90
   4   8  11   57.01    4.39
  -4  -8 -11   49.13    3.83
   4   8  12   34.75    2.78
  -4  -8 -12   31.05    2.48
   4   9  -5   22.50    2.35
   4   9  -4   79.78    5.35
   4   9  -3   -0.53    0.86
   4   9  -2    2.03    1.36
   4   9  -1    8.03    2.20
   4   9   0   47.85    5.27
   4   9   1   96.10    7.83
   4   9   2   19.38    3.38
   4   9   3    2.22    1.00
   4   9   4   26.79    3.83
   4   9   5   74.33    6.38
   4   9   5   62.00    5.13
   4   9   6  296.08   12.27
   4   9   7   21.52    3.44
   4   9   8   -0.38    0.64
  -4  -9  -8    1.12    0.93
  -4  -9  -9    1.81    1.18
   4   9  10   15.40    2.55
  -4  -9 -10   13.77    2.18
   4   9  11   49.30    3.76
  -4  -9 -11   40.07    3.25
   4  10  -3   44.31    3.75
   4  10  -2   32.25    3.61
   4  10  -2   22.30    2.52
   4  10  -1    2.94    1.40
   4  10   0   46.53    5.02
   4  10   1   98.63    7.42
   4  10   2   39.85    4.78
   4  10   3   13.95    2.87
   4  10   4   12.18    2.56
   4  10   5   70.44    5.99
   4  10   5   53.46    4.66
   4  10   6   86.99    6.64
   4  10   7    0.24    0.84
   4  10   8    0.08    0.75
  -4 -10  -8   -0.93    1.05
  -4 -10  -9   16.68    2.38
   4  10  10   36.02    3.44
  -4 -10 -10   36.02    3.18
   4  10  11    4.84    1.11
  -4 -10 -11    5.47    1.03
   4  11  -2   -0.44    0.64
   4  11  -1   -0.87    0.63
   4  11  -1    1.28    0.61
   4  11   0   34.89    3.78
   4  11   1    5.25    1.70
   4  11   2    2.75    1.36
   4  11   3   17.27    2.78
   4  11   4   23.28    3.23
   4  11   5    6.06    1.34
   4  11   5    8.75    2.14
   4  11   6   18.36    2.81
   4  11   7    6.01    1.67
  -4 -11  -7    7.31    1.87
   4  11   8   14.23    2.32
  -4 -11  -8   14.50    2.27
  -4 -11  -9   24.99    2.68
   4  11  10    1.75    0.83
  -4 -11 -10    2.07    0.79
   4  12   0   40.71    3.02
   4  12   0   30.92    2.44
   4  12   1   26.24    2.67
   4  12   1   21.55    2.31
   4  12   2    1.12    0.81
   4  12   2    0.64    0.66
   4  12   3    0.12    0.55
   4  12   3    0.67    0.60
   4  12   4   34.92    3.39
   4  12   4   23.89    2.47
   4  12   5    4.16    0.97
   4  12   5    8.96    1.74
   4  12   6    5.05    1.31
   4  12   7   35.68    3.01
  -4 -12  -7   35.70    3.15
  -4 -12  -8   14.90    1.97
   5  -8  -4    1.78    0.67
   5  -8  -3   -1.70    0.84
   5  -8  -3   -0.05    0.40
  -5   8   2   13.37    2.00
   5  -8  -2   28.57    2.41
   5  -8  -1    6.01    1.23
   5  -8   0    1.15    0.79
   5  -8   1   14.71    1.83
   5  -8   2    1.07    0.64
   5  -7  -6   -0.46    0.54
   5  -7  -5   20.81    2.28
   5  -7  -4    8.30    1.64
   5  -7  -4    7.71    1.34
   5  -7  -3    0.21    0.62
   5  -7  -2    0.89    0.75
   5  -7  -1   15.37    2.34
   5  -7   0   21.71    2.71
   5  -7   1   42.60    3.81
   5  -7   2    4.27    1.40
   5  -7   3   59.52    3.95
   5  -7   3   51.96    3.40
   5  -7   4    0.43    0.50
   5  -6  -7    2.58    0.87
   5  -6  -6   24.70    2.63
   5  -6  -5   87.66    5.34
   5  -6  -5   91.32    4.88
   5  -6  -4   12.94    2.18
   5  -6  -4   15.38    2.27
   5  -6  -3   23.28    2.92
   5  -6  -2    6.71    1.75
   5  -6  -1   73.69    5.51
   5  -6   0   61.00    5.22
   5  -6   1    6.59    1.82
   5  -6   2    3.51    1.27
   5  -6   2    2.67    1.24
   5  -6   3   66.56    5.01
   5  -6   3   62.63    4.71
   5  -6   4   37.51    3.39
   5  -6   4   38.11    3.64
   5  -6   5   11.82    1.84
   5  -6   5   10.01    1.45
   5  -6   6    0.30    0.46
   5  -5  -8    1.14    0.47
   5  -5  -7   81.55    4.51
   5  -5  -6  115.78    6.03
   5  -5  -5   -0.04    0.98
   5  -5  -5    0.13    0.60
   5  -5  -4    0.93    0.74
   5  -5  -4    1.47    0.96
   5  -5  -3   -0.17    0.77
   5  -5  -2   27.58    3.35
   5  -5  -1  105.53    6.88
   5  -5   0   35.37    4.18
   5  -5   1    1.79    1.13
   5  -5   1    0.79    1.00
   5  -5   2    2.65    1.39
   5  -5   2    4.59    1.64
   5  -5   3   33.78    3.81
   5  -5   3   30.82    3.73
   5  -5   4   65.08    5.01
   5  -5   4   74.62    5.71
   5  -5   5   46.49    3.82
   5  -5   5   45.12    4.31
   5  -5   6    0.58    0.87
   5  -5   7   13.66    1.80
   5  -4  -8    0.44    0.40
   5  -4  -7   66.17    4.35
   5  -4  -6   35.03    3.61
   5  -4  -5   20.24    2.99
   5  -4  -5   13.64    2.27
   5  -4  -4    1.22    0.87
   5  -4  -4    1.75    0.90
   5  -4  -3   28.45    3.50
   5  -4  -2  119.63    7.39
   5  -4  -1    2.27    1.28
   5  -4   0    1.95    0.73
   5  -4   0    3.53    1.15
   5  -4   1   70.21    5.97
   5  -4   1   76.85    6.08
   5  -4   2   12.90    2.66
   5  -4   2   12.56    2.64
   5  -4   3    9.24    2.38
   5  -4   3    6.92    1.87
   5  -4   4  104.21    6.64
   5  -4   4  119.99    7.81
   5  -4   5   27.64    3.18
   5  -4   5   31.99    4.03
   5  -4   6   16.11    2.66
   5  -4   7   28.98    3.13
   5  -4   8   11.31    1.54
   5  -3  -8    4.36    1.15
   5  -3  -7   26.79    2.94
   5  -3  -6   58.82    4.78
   5  -3  -5    9.86    2.16
   5  -3  -5    9.16    1.99
   5  -3  -4    0.34    0.70
   5  -3  -4   -0.53    1.11
   5  -3  -3   49.09    4.56
   5  -3  -3   54.07    4.75
   5  -3  -3   44.21    5.26
   5  -3  -2  225.36   10.01
   5  -3  -1  125.68    7.56
   5  -3   0    3.06    1.04
   5  -3   0    1.71    0.99
   5  -3   1    1.28    1.25
   5  -3   1    0.82    0.83
   5  -3   2  192.82    9.60
   5  -3   2  194.16   10.05
   5  -3   3   42.04    4.56
   5  -3   3   40.17    4.78
   5  -3   4   -0.31    1.30
   5  -3   4    1.44    1.28
   5  -3   5    3.67    1.31
   5  -3   6   61.31    5.48
   5  -3   7   37.07    4.00
   5  -3   8    0.61    0.83
   5  -2  -8    6.56    1.32
   5  -2  -7   13.98    2.18
   5  -2  -6   53.75    4.53
   5  -2  -5    0.73    1.07
   5  -2  -5   -0.82    0.90
   5  -2  -4  145.16    7.83
   5  -2  -4  164.53    8.13
   5  -2  -4  154.61   10.44
   5  -2  -3  120.44    7.10
   5  -2  -3  127.09    7.22
   5  -2  -3  120.49    9.16
   5  -2  -2    6.00    1.61
   5  -2  -2    8.46    2.13
   5  -2  -2   10.57    2.97
   5  -2  -1  850.08   19.14
   5  -2  -1  841.29   22.44
   5  -2   0   58.22    5.08
   5  -2   0   56.28    4.95
   5  -2   1  257.50   10.74
   5  -2   1  284.77   11.46
   5  -2   2  632.04   16.92
   5  -2   2  684.57   17.71
   5  -2   2  669.03   18.09
   5  -2   3    3.37    2.03
   5  -2   3    4.16    1.79
   5  -2   3    3.14    1.33
   5  -2   4 1184.51   22.92
   5  -2   4 1061.34   23.68
   5  -2   5   16.37    2.99
   5  -2   5   19.85    3.01
   5  -2   6  102.33    6.00
   5  -2   6  111.86    7.56
   5  -2   7   -0.11    0.93
   5  -2   7    1.27    0.91
   5  -2   8   65.70    4.91
   5  -2   9   77.28    4.25
   5  -1  -8   31.91    2.91
   5  -1  -8   24.81    3.03
   5  -1  -7   13.66    2.10
   5  -1  -7    6.24    1.57
   5  -1  -6  132.73    7.08
   5  -1  -6  100.63    7.28
   5  -1  -5    3.40    1.27
   5  -1  -5    8.77    3.08
   5  -1  -4  336.94   11.72
   5  -1  -4  346.54   11.97
   5  -1  -4  343.44   15.88
   5  -1  -3    0.44    0.65
   5  -1  -3   -0.10    0.82
   5  -1  -3    0.09    1.00
   5  -1  -2    1.35    1.06
   5  -1  -2    1.86    1.17
   5  -1  -2    2.07    1.08
   5  -1  -2    2.60    1.71
   5  -1  -1  833.52   17.67
   5  -1  -1  856.42   18.58
   5  -1  -1  845.90   18.38
   5  -1  -1  836.59   22.24
   5  -1   0   12.23    2.22
   5  -1   0   13.42    2.72
   5  -1   0   12.76    2.31
   5  -1   1  403.39   12.82
   5  -1   1  430.29   13.60
   5  -1   2    1.87    1.21
   5  -1   2   -0.13    0.77
   5  -1   2   -0.36    1.13
   5  -1   3  121.50    7.62
   5  -1   3  123.53    7.75
   5  -1   4  366.35   13.23
   5  -1   4  346.13   13.26
   5  -1   5    1.93    1.40
   5  -1   5    0.40    0.92
   5  -1   6  318.45   12.52
   5  -1   6  283.10   11.99
   5  -1   7   15.10    2.65
   5  -1   7   18.28    2.96
   5  -1   8    8.36    1.85
   5  -1   8   10.53    2.32
   5  -1   9  121.52    6.42
   5  -1  10    2.31    0.79
   5   0  -9    3.30    1.04
   5   0  -8    0.87    0.57
   5   0  -8    1.71    0.87
   5   0  -7    5.92    1.42
   5   0  -7    5.05    1.62
   5   0  -6   -0.26    0.97
   5   0  -6    2.26    1.16
   5   0  -5   99.18    6.21
   5   0  -5   86.61    8.22
   5   0  -5   82.99    6.84
   5   0  -4   -0.04    0.69
   5   0  -4    1.17    0.92
   5   0  -4    1.52    1.18
   5   0  -3  382.50   12.19
   5   0  -3  391.61   12.47
   5   0  -3  403.88   16.62
   5   0  -2   24.02    2.91
   5   0  -2   27.86    3.33
   5   0  -2   30.75    3.41
   5   0  -2   27.33    4.15
   5   0  -1  127.55    6.64
   5   0  -1  137.49    7.40
   5   0  -1  127.77    6.85
   5   0  -1  124.77    8.56
   5   0   0   18.07    2.59
   5   0   0   18.28    3.26
   5   0   1  441.72   12.63
   5   0   1  441.34   15.26
   5   0   1  459.71   13.64
   5   0   2  240.48    9.33
   5   0   2  220.61   10.18
   5   0   2  242.59   11.16
   5   0   3  189.39    9.57
   5   0   3  197.73    9.99
   5   0   3  204.77    9.46
   5   0   4    1.21    1.20
   5   0   4   -0.28    1.01
   5   0   5   23.58    3.57
   5   0   5   23.60    3.40
   5   0   6   64.00    5.84
   5   0   6   56.76    5.21
   5   0   7  313.92   12.82
   5   0   7  273.05   11.16
   5   0   8   33.04    4.06
   5   0   8   25.64    3.19
   5   0   9   -0.18    1.14
   5   0  10    3.12    0.99
   5   1  -9   41.66    3.20
   5   1  -8    6.73    1.66
   5   1  -7  122.34    6.34
   5   1  -7  109.05    7.37
   5   1  -6   88.19    5.70
   5   1  -6   76.94    6.61
   5   1  -5  268.29   10.02
   5   1  -5  248.53   13.62
   5   1  -5  239.08   11.95
   5   1  -4   26.66    3.10
   5   1  -4   29.00    4.61
   5   1  -4   25.84    3.88
   5   1  -3    6.61    1.51
   5   1  -3    6.51    1.77
   5   1  -3    6.91    1.71
   5   1  -3    5.33    1.97
   5   1  -3    5.06    1.61
   5   1  -2   44.18    3.87
   5   1  -2   48.72    4.50
   5   1  -2   44.24    4.01
   5   1  -2   44.08    3.79
   5   1  -2   46.93    5.53
   5   1  -2   42.53    4.56
   5   1  -1   56.16    4.22
   5   1  -1   58.04    4.82
   5   1  -1   57.17    4.48
   5   1  -1   47.91    4.12
   5   1  -1   53.08    5.48
   5   1   0    7.21    1.61
   5   1   0    6.57    1.36
   5   1   0    3.45    1.02
   5   1   0    8.00    2.29
  -5  -1   0    8.34    3.42
   5   1   1   -0.73    1.21
   5   1   1    3.06    1.22
   5   1   1    1.46    2.00
  -5  -1  -1    3.23    2.31
   5   1   2   90.16    5.75
   5   1   2   90.31    6.50
   5   1   2   97.70   13.92
   5   1   2  117.69   13.69
  -5  -1  -2   99.19   12.22
   5   1   2  109.72    6.51
   5   1   3   79.91    6.19
   5   1   3  100.24    6.38
   5   1   4    6.80    1.76
   5   1   4    6.90    1.84
   5   1   5   91.74    7.03
   5   1   5   97.00    6.47
   5   1   6   42.60    4.90
   5   1   6   45.81    4.42
   5   1   7   99.78    7.34
   5   1   7  106.33    6.65
   5   1   8   20.47    3.36
   5   1   9    5.10    1.52
   5   1  10   22.94    3.10
   5   1  11  109.71    5.46
   5   2  -8    2.18    1.12
   5   2  -7   45.82    3.97
   5   2  -7   47.76    4.75
   5   2  -6  141.15    7.19
   5   2  -6  129.22    8.31
   5   2  -5    8.22    1.65
   5   2  -5   14.20    3.61
   5   2  -5   14.96    3.20
   5   2  -4  100.44    6.08
   5   2  -4  104.94    8.67
   5   2  -4  101.70    7.61
   5   2  -3  118.13    6.55
   5   2  -3  120.88    9.28
   5   2  -3  115.88    8.06
   5   2  -2  129.71    6.60
   5   2  -2  138.52    7.79
   5   2  -2  144.99    7.13
   5   2  -2  124.72    9.02
   5   2  -2  116.53    7.92
   5   2  -1    4.84    1.45
   5   2  -1    2.49    0.75
   5   2  -1    1.60    0.65
   5   2  -1    3.14    1.03
   5   2  -1    4.33    1.45
   5   2   0   23.29    2.97
   5   2   0   18.78    2.66
   5   2   0   22.63    3.61
  -5  -2   0   24.57    6.02
   5   2   1  303.57   23.85
   5   2   2  194.32   19.13
   5   2   3   22.81    2.90
   5   2   3   20.38    3.11
   5   2   3   13.82    5.57
   5   2   3   22.29    5.94
   5   2   3   24.36    3.08
   5   2   4    1.43    0.54
   5   2   4    1.39    0.61
   5   2   5   71.60    5.48
   5   2   5   66.06    5.95
   5   2   5   77.86    5.52
   5   2   6   54.66    5.02
   5   2   6   51.15    5.32
   5   2   6   64.01    5.00
   5   2   7   51.83    5.02
   5   2   7   54.12    5.51
   5   2   8   47.13    5.07
   5   2   9    3.66    1.20
   5   2  10   55.26    4.93
   5   2  11   52.41    4.15
   5   3  -8   20.01    2.55
   5   3  -7    8.07    1.80
   5   3  -6   25.76    3.21
   5   3  -6   21.08    3.36
   5   3  -5   18.71    2.60
   5   3  -5   25.79    4.51
   5   3  -5   19.16    3.32
   5   3  -4  212.74    8.91
   5   3  -4  240.62   13.07
   5   3  -4  223.56   11.61
   5   3  -3   41.39    3.90
   5   3  -3   45.54    5.64
   5   3  -3   49.94    5.24
   5   3  -2   14.64    2.59
   5   3  -2   12.82    2.11
   5   3  -2   13.85    2.41
   5   3  -2   13.50    3.25
   5   3  -2   15.31    2.85
   5   3  -1   29.59    3.58
   5   3  -1   26.90    3.30
   5   3  -1   21.00    3.50
   5   3  -1   25.82    3.61
   5   3   0    5.88    1.61
   5   3   0    5.78    1.51
   5   3   0    5.27    1.87
   5   3   1  143.98    7.42
   5   3   1  155.84    7.68
   5   3   1  131.38    8.73
   5   3   1  133.12   15.55
   5   3   2  487.68   13.46
   5   3   2  526.79   13.92
   5   3   2  485.96   15.19
   5   3   2  495.24   29.78
   5   3   3    1.72    0.81
   5   3   3    0.33    0.69
   5   3   3    3.94    1.28
   5   3   3   -2.20    2.34
   5   3   3    0.59    1.44
   5   3   4   72.57    5.11
   5   3   4   67.00    5.75
   5   3   5  109.07    6.32
   5   3   5  110.53    6.72
   5   3   5  101.21    7.23
   5   3   6    1.97    0.76
   5   3   6    2.32    1.24
   5   3   7    3.11    1.26
   5   3   7    3.80    1.76
   5   3   8  147.74    8.43
   5   3   8  155.04    9.23
   5   3   9   10.35    2.31
   5   3   9    9.68    2.37
   5   3  10   14.50    2.61
   5   3  11    0.06    0.90
   5   3  12  105.76    4.89
   5   4  -7    3.54    1.31
   5   4  -6   17.41    2.86
   5   4  -5   68.81    6.16
   5   4  -4  172.46   10.65
   5   4  -4  155.73    9.43
   5   4  -3   12.94    2.20
   5   4  -3   20.54    3.74
   5   4  -3   22.12    3.59
   5   4  -2    0.94    0.89
   5   4  -2    0.79    0.75
   5   4  -2    0.39    0.87
   5   4  -2    0.44    0.96
   5   4  -1    0.51    0.74
   5   4  -1    0.50    0.59
   5   4  -1    0.05    0.87
   5   4   0  221.04    9.56
   5   4   0  226.34   11.50
   5   4   0  206.52   10.32
   5   4   1   44.22    4.19
   5   4   1   55.83    4.68
   5   4   1   45.27    5.40
   5   4   2    3.79    1.25
   5   4   2    3.81    1.30
   5   4   2    2.91    0.82
   5   4   3    3.45    1.14
   5   4   3    3.12    1.18
   5   4   4    2.75    1.20
   5   4   4    1.64    0.53
   5   4   4    3.75    1.26
   5   4   5    4.79    1.28
   5   4   5    6.04    1.64
   5   4   5    6.11    1.82
   5   4   6  395.34   13.07
   5   4   6  367.95   12.82
   5   4   6  367.39   13.88
   5   4   7  147.32    8.39
   5   4   7  147.96    8.93
   5   4   8    0.05    0.89
   5   4   8    0.23    1.12
   5   4   9   16.77    2.79
   5   4   9   15.14    2.86
   5   4  10  173.09    8.47
   5   4  10  165.60    8.57
   5   4  11   73.87    5.11
   5   4  12    9.40    1.58
   5   5  -7   14.05    1.80
   5   5  -6   -2.74    1.37
   5   5  -5   41.41    4.60
   5   5  -4    6.65    2.07
   5   5  -3   30.35    4.09
   5   5  -2    8.50    2.17
   5   5  -2    7.49    2.25
   5   5  -1   70.84    5.68
   5   5  -1   68.34    6.35
   5   5  -1   56.01    5.35
   5   5   0  104.15    6.87
   5   5   0  137.01    7.65
   5   5   0  125.07    8.70
   5   5   0  107.31    7.23
   5   5   1   12.26    2.35
   5   5   1   16.65    2.81
   5   5   1   14.32    2.90
   5   5   1    8.26    1.68
   5   5   2    8.80    1.89
   5   5   2   11.54    2.30
   5   5   3   93.62    5.95
   5   5   3  104.17    6.72
   5   5   3  103.55    6.91
   5   5   4    2.32    0.97
   5   5   4    1.99    0.93
   5   5   4    0.35    0.67
   5   5   5   75.12    5.74
   5   5   5   78.52    5.45
   5   5   5   75.68    5.69
   5   5   5   78.07    5.98
   5   5   6  119.82    7.46
   5   5   6  110.34    7.08
   5   5   6  108.87    7.33
   5   5   7   46.06    4.62
   5   5   7   48.51    4.96
   5   5   8    9.48    2.16
   5   5   8   11.39    2.53
   5   5   9   12.87    2.49
   5   5   9   14.28    2.59
   5   5  10    8.49    1.87
   5   5  10    7.09    1.87
   5   5  11   88.38    5.38
   5   6  -6    0.04    0.86
   5   6  -5    5.46    1.35
   5   6  -4   16.87    2.80
   5   6  -3   44.15    4.67
   5   6  -2   20.99    3.00
   5   6  -2   20.54    3.07
   5   6  -1    1.93    1.30
   5   6  -1   -0.46    1.90
   5   6   0  247.07   10.64
   5   6   0  229.21   10.62
   5   6   1  260.95   10.93
   5   6   1  279.56   12.78
   5   6   1  237.91   10.04
   5   6   2    5.85    1.73
   5   6   2   10.48    2.19
   5   6   2    7.43    2.01
   5   6   3   15.46    2.42
   5   6   3   19.80    2.93
   5   6   3   17.14    2.95
   5   6   4    6.38    1.65
   5   6   4    5.26    1.64
   5   6   5    5.97    1.54
   5   6   5    5.10    1.49
   5   6   6  147.88    8.43
   5   6   7   19.46    2.89
   5   6   7   17.98    2.95
   5   6   8   69.33    5.73
   5   6   8   63.06    5.27
   5   6   9    1.09    0.81
   5   6   9    0.77    1.13
   5   6  10   23.53    3.04
   5   6  10   18.74    2.58
   5   6  11   71.27    4.78
   5   6  11   65.34    4.21
   5   7  -5   29.31    2.63
   5   7  -4   47.04    3.89
   5   7  -3    3.02    1.11
   5   7  -2   67.85    5.85
   5   7  -2   60.79    5.02
   5   7  -2   71.14    5.68
   5   7  -1   32.76    4.13
   5   7  -1   27.81    3.75
   5   7  -1   30.45    3.92
   5   7   0    4.07    1.69
   5   7   0    4.21    1.67
   5   7   1  653.63   19.09
   5   7   1  651.29   15.63
   5   7   2   19.33    3.33
   5   7   2   19.64    3.27
   5   7   3   17.94    3.00
   5   7   3   13.73    2.62
   5   7   4  172.77    9.47
   5   7   4  175.08    8.85
   5   7   5  417.03   14.52
   5   7   5  433.84   13.49
   5   7   6  726.45   19.07
   5   7   7   -1.11    0.93
   5   7   8  136.11    7.96
   5   7   9   14.90    2.69
   5   7  10   39.23    3.85
   5   7  11  165.66    6.98
   5   8  -4   55.62    3.14
   5   8  -3    0.60    0.64
   5   8  -3   40.83    3.45
   5   8  -2   12.62    2.15
   5   8  -2   14.94    2.79
   5   8  -1   42.45    4.72
   5   8  -1   38.70    4.05
   5   8   0    3.65    1.40
   5   8   0    6.97    1.94
   5   8   1  165.42    9.68
   5   8   1  154.81    8.58
   5   8   2    1.45    1.27
   5   8   2   -1.22    1.20
   5   8   3  364.30   14.01
   5   8   3  354.12   13.36
   5   8   4    0.24    0.94
   5   8   4   -0.17    1.04
   5   8   5   10.06    2.06
   5   8   5    8.35    2.15
   5   8   6  190.75    9.86
   5   8   7   36.15    4.17
   5   8   8  110.78    7.12
   5   8   8   99.35    6.62
   5   8   9    1.87    1.09
   5   8  10   28.73    3.19
   5   8  11   44.30    3.42
   5   9  -3    0.14    0.46
   5   9  -2    1.78    0.76
   5   9  -2    4.00    1.42
   5   9  -1   65.52    5.44
   5   9  -1   50.29    4.35
   5   9   0   47.30    4.92
   5   9   0   44.70    4.37
   5   9   1    0.14    0.70
   5   9   1    0.78    0.83
   5   9   2   -0.01    0.70
   5   9   2    0.08    1.09
   5   9   3   25.85    3.64
   5   9   3   24.61    3.46
   5   9   4  126.42    7.99
   5   9   4  121.94    7.30
   5   9   5   41.27    4.65
   5   9   5   39.53    4.04
   5   9   6   34.51    4.10
   5   9   7   12.30    2.47
   5   9   8    2.31    1.16
   5   9   9   74.39    5.17
   5   9  10    1.78    0.74
   5   9  11    5.18    1.12
   5  10  -2    0.32    0.51
   5  10  -1    3.72    1.09
   5  10  -1    3.77    1.28
   5  10   0   41.93    4.19
   5  10   0   36.85    3.49
   5  10   1    0.52    0.86
   5  10   1   -0.77    1.14
   5  10   2    0.94    0.79
   5  10   2    1.90    1.03
   5  10   3    0.69    0.67
   5  10   3   -1.07    1.19
   5  10   4   16.69    2.93
   5  10   4   11.98    2.23
   5  10   5    1.14    0.82
   5  10   5    1.22    1.12
   5  10   6   17.60    2.82
   5  10   7    4.46    1.40
  -5 -10  -7    1.23    0.93
   5  10   8    0.28    0.75
   5  10   8   -0.09    0.52
   5  10   9   25.47    2.79
   5  10  10   25.77    2.44
   5  11   0   20.02    2.31
   5  11   0   14.56    1.80
   5  11   1   16.09    2.29
   5  11   1   13.83    1.94
   5  11   2   28.71    3.23
   5  11   2   20.86    2.57
   5  11   3   19.78    2.77
   5  11   3   18.48    2.42
   5  11   4   33.30    3.72
   5  11   4   29.29    2.97
   5  11   5    6.66    1.35
   5  11   5   10.40    2.06
   5  11   6    0.57    0.80
  -5 -11  -6    0.70    0.97
   5  11   7    0.82    0.65
  -5 -11  -7    2.10    0.85
   5  11   8    9.40    1.51
   5  12   2    1.17    0.52
   5  12   3   31.78    2.77
   5  12   3   24.52    2.18
   5  12   4   21.46    2.32
   5  12   4   14.75    1.71
   5  12   5   -0.15    0.56
   5  12   6    6.50    1.20
   6  -6  -4   12.29    1.54
   6  -6  -3    9.23    1.41
   6  -6  -3   10.58    1.48
   6  -6  -2   94.41    4.61
   6  -6  -2  103.80    4.85
   6  -6  -1    2.66    0.85
   6  -6  -1    2.59    1.00
   6  -6   0   23.82    2.14
   6  -6   0   30.59    2.75
   6  -6   1    3.50    0.97
   6  -6   2    0.56    0.50
   6  -5  -5   36.52    2.78
   6  -5  -4   26.14    2.61
   6  -5  -4   27.18    2.50
   6  -5  -3    1.59    0.88
   6  -5  -3    2.11    0.80
   6  -5  -2   32.25    3.16
   6  -5  -2   38.78    3.42
   6  -5  -1    1.55    0.82
   6  -5  -1    1.38    0.90
   6  -5   0    2.55    0.91
   6  -5   0    2.65    1.06
   6  -5   1    0.07    0.86
   6  -5   2   38.12    3.41
   6  -5   3    5.40    1.17
   6  -5   3    7.37    1.44
   6  -5   4   -1.27    0.67
   6  -5   4   -0.02    0.59
   6  -4  -6    3.53    0.83
   6  -4  -5   15.04    1.96
   6  -4  -4    3.38    1.14
   6  -4  -4    3.08    0.94
   6  -4  -3   66.75    4.75
   6  -4  -3   65.57    4.58
   6  -4  -2   37.84    3.66
   6  -4  -2   46.76    4.07
   6  -4  -1    0.85    0.67
   6  -4  -1    0.97    0.75
   6  -4   0    0.26    0.66
   6  -4   0    1.40    1.01
   6  -4   1   52.22    4.41
   6  -4   2   76.39    5.30
   6  -4   2   86.35    5.64
   6  -4   3    7.32    1.54
   6  -4   3    7.67    1.80
   6  -4   4    8.33    1.74
   6  -4   4    4.27    1.05
   6  -4   5    1.58    0.86
   6  -4   6   51.93    3.43
   6  -3  -7    8.08    1.19
   6  -3  -6    1.89    0.85
   6  -3  -5    1.07    0.60
   6  -3  -4   60.50    4.65
   6  -3  -4   62.91    4.59
   6  -3  -3    5.73    1.51
   6  -3  -3    8.62    1.86
   6  -3  -2   21.12    2.96
   6  -3  -2   21.47    2.92
   6  -3  -1   10.33    2.13
   6  -3  -1   13.16    2.32
   6  -3   0    5.43    1.43
   6  -3   0    9.07    1.88
   6  -3   1   -0.54    0.95
   6  -3   2   53.26    4.59
   6  -3   2   64.25    5.11
   6  -3   3  222.96    9.08
   6  -3   3  238.35    9.97
   6  -3   4    9.41    2.16
   6  -3   5   50.15    4.40
   6  -3   6   54.43    4.19
   6  -3   7   45.01    3.24
   6  -2  -7    1.09    0.53
   6  -2  -6    0.82    0.60
   6  -2  -5    0.58    0.68
   6  -2  -4   29.83    3.26
   6  -2  -3   87.76    5.81
   6  -2  -3   91.56    5.98
   6  -2  -3   82.70    7.12
   6  -2  -2   50.86    4.56
   6  -2  -2   55.02    4.68
   6  -2  -2   53.81    5.77
   6  -2  -1   39.74    3.93
   6  -2  -1   41.64    4.07
   6  -2  -1   45.49    4.31
   6  -2  -1   45.56    5.27
   6  -2   0  140.07    7.80
   6  -2   0  151.22    7.98
   6  -2   1   15.49    2.61
   6  -2   2   68.58    5.36
   6  -2   2   71.16    5.86
   6  -2   3   12.70    2.66
   6  -2   3   13.56    2.16
   6  -2   4   60.66    5.31
   6  -2   5   76.75    5.69
   6  -2   6   20.82    2.81
   6  -2   7    3.51    1.05
   6  -1  -7   29.50    2.50
   6  -1  -6    3.22    1.01
   6  -1  -5   14.45    2.21
   6  -1  -4   82.41    5.36
   6  -1  -4   82.27    7.67
   6  -1  -3   21.41    2.84
   6  -1  -3   27.54    3.27
   6  -1  -3   27.26    4.28
   6  -1  -2    8.90    1.96
   6  -1  -2    9.09    2.05
   6  -1  -2    7.48    1.82
   6  -1  -2    7.83    2.40
   6  -1  -1    0.58    0.63
   6  -1  -1    0.48    0.63
   6  -1  -1   -0.01    0.88
   6  -1  -1   -0.01    1.03
   6  -1   0  243.64   10.44
   6  -1   0  247.14   10.19
   6  -1   0  259.68   12.57
   6  -1   1   13.16    2.40
   6  -1   1   11.47    2.59
   6  -1   2   20.50    2.84
   6  -1   2   21.09    3.34
   6  -1   3  105.15    7.06
   6  -1   4  325.47   12.53
   6  -1   4  288.72   11.62
   6  -1   5  171.16    8.80
   6  -1   5  151.89    8.33
   6  -1   6    0.73    0.78
   6  -1   6    3.08    1.35
   6  -1   7   13.86    2.41
   6  -1   7   12.10    2.17
   6  -1   8    0.98    0.63
   6  -1   8    2.77    1.04
   6   0  -7   18.09    1.98
   6   0  -6   36.30    3.21
   6   0  -5   98.15    5.61
   6   0  -4    0.76    0.71
   6   0  -4    1.52    1.55
   6   0  -3   -0.15    0.92
   6   0  -3   -1.09    1.44
   6   0  -2    4.39    1.18
   6   0  -2    7.81    1.90
   6   0  -2    5.92    1.63
   6   0  -2    5.42    2.09
   6   0  -1    8.35    1.94
   6   0  -1    9.45    2.03
   6   0  -1   10.50    2.85
   6   0   0   19.14    2.98
   6   0   0   17.40    2.65
   6   0   0   18.88    3.60
   6   0   1  147.98    8.26
   6   0   1  140.17    7.54
   6   0   1  152.96    9.69
   6   0   2   88.94    5.81
   6   0   2   86.47    7.13
   6   0   3    2.80    1.39
   6   0   3    1.63    0.85
   6   0   3    1.09    0.98
   6   0   4  177.25    9.63
   6   0   4  167.55    8.94
   6   0   5   98.97    7.09
   6   0   5   84.32    6.32
   6   0   6  110.15    7.25
   6   0   6   98.54    6.54
   6   0   7    1.39    0.93
   6   0   7   -0.48    0.84
   6   0   8    6.29    1.66
   6   0   9    0.34    0.59
   6   1  -7   -4.20    1.40
   6   1  -6   42.74    3.44
   6   1  -6   24.21    2.69
   6   1  -5  131.77    6.48
   6   1  -5  100.33    6.54
   6   1  -4   43.88    3.90
   6   1  -4   39.70    5.29
   6   1  -4   30.41    3.72
   6   1  -3   14.24    2.13
   6   1  -3   10.34    2.66
   6   1  -2   -0.96    1.07
   6   1  -2    0.75    1.14
   6   1  -2   -1.34    1.48
   6   1  -1   44.15    4.56
   6   1  -1   41.06    3.99
   6   1  -1   44.02    5.50
   6   1   0  129.40    7.68
   6   1   0  118.04    6.77
   6   1   0  125.18    9.10
   6   1   1  188.21    9.26
   6   1   1  181.45    8.26
   6   1   1  185.64   10.84
   6   1   2   -1.50    1.37
   6   1   2   -0.59    0.83
   6   1   3   15.96    3.14
   6   1   3   18.81    3.32
   6   1   4   13.71    2.98
   6   1   4   11.69    2.52
   6   1   5  121.08    7.98
   6   1   5  123.04    8.42
   6   1   5  120.95    7.47
   6   1   6   56.01    5.44
   6   1   6   54.73    4.81
   6   1   7    1.00    1.19
   6   1   8    2.68    1.36
   6   1   9   12.63    2.11
   6   1  10    6.14    1.25
   6   2  -7    8.56    1.38
   6   2  -6   50.46    3.75
   6   2  -6   34.24    3.45
   6   2  -5   98.30    5.53
   6   2  -5   82.40    6.00
   6   2  -4   71.77    4.96
   6   2  -4   65.31    6.57
   6   2  -4   53.43    5.13
   6   2  -3    2.36    0.96
   6   2  -3    2.17    1.77
   6   2  -3   -1.45    1.75
   6   2  -2  124.85    7.57
   6   2  -2  128.86    6.64
   6   2  -2  113.15    9.07
   6   2  -1  145.82    8.18
   6   2  -1  140.73    7.49
   6   2  -1  127.15    9.40
   6   2   0  119.96    7.39
   6   2   0  104.52    6.37
   6   2   0  109.16    6.67
   6   2   0  110.48    8.61
   6   2   1   48.14    4.70
   6   2   1   48.13    4.07
   6   2   1   46.05    4.49
   6   2   1   52.43    5.89
   6   2   2   12.24    2.39
   6   2   2   14.30    3.21
   6   2   3   63.57    5.36
   6   2   3   65.48    6.03
   6   2   3   72.38    6.89
   6   2   4   15.33    3.15
   6   2   4   12.08    2.68
   6   2   5   30.10    4.10
   6   2   6   67.94    6.05
   6   2   7   70.96    6.06
   6   2   8    2.79    1.64
   6   2   9  158.70    7.77
   6   2  10   11.53    1.90
   6   3  -6   -3.58    1.62
   6   3  -5  315.03    9.74
   6   3  -5  291.57   11.23
   6   3  -4    8.77    1.81
   6   3  -4    8.82    2.51
   6   3  -4    3.46    1.15
   6   3  -3  345.18   10.88
   6   3  -3  352.81   15.50
   6   3  -2  182.63    7.83
   6   3  -2  197.84    8.61
   6   3  -1    0.03    0.69
   6   3  -1   -0.10    0.84
   6   3  -1    1.77    1.06
   6   3  -1   -1.63    1.82
   6   3   0  328.60   12.32
   6   3   0  329.42   11.59
   6   3   1   95.06    6.65
   6   3   1   88.23    6.10
   6   3   1   84.23    7.58
   6   3   1   97.73    6.64
   6   3   2    0.64    0.72
   6   3   2   -0.52    1.09
   6   3   2   -0.46    0.82
   6   3   3   22.05    3.16
   6   3   3   23.36    3.14
   6   3   3   22.03    3.56
   6   3   3   24.60    4.06
   6   3   4   36.03    3.98
   6   3   4   32.77    4.27
   6   3   5   60.29    5.05
   6   3   5   55.08    5.46
   6   3   6  172.49    8.32
   6   3   6  167.10    9.43
   6   3   7    3.01    1.68
   6   3   8  178.31    9.21
   6   3   9  120.43    7.01
   6   3  10    0.82    0.62
   6   4  -6   -1.60    1.06
   6   4  -5   29.71    3.26
   6   4  -4   38.54    4.81
   6   4  -4   27.05    3.37
   6   4  -3   14.71    2.43
   6   4  -3   17.42    3.38
   6   4  -3    9.68    1.94
   6   4  -2   37.27    3.70
   6   4  -2   38.58    5.03
   6   4  -2   29.72    3.78
   6   4  -1   26.41    3.33
   6   4  -1   28.32    4.63
   6   4  -1   20.42    2.81
   6   4   0  345.59   12.66
   6   4   0  369.39   12.54
   6   4   0  339.25   14.98
   6   4   1   33.86    3.90
   6   4   1   34.91    3.86
   6   4   1   30.29    4.51
   6   4   2   11.08    2.19
   6   4   2   14.54    2.59
   6   4   3   21.83    3.18
   6   4   3   21.74    3.12
   6   4   3   25.72    4.20
   6   4   4  246.96   10.25
   6   4   4  258.82   10.39
   6   4   4  256.36   11.71
   6   4   5   -0.64    0.90
   6   4   5    0.23    0.93
   6   4   5   -0.74    0.93
   6   4   6   37.37    3.98
   6   4   6   32.93    4.14
   6   4   7   64.18    5.26
   6   4   7   61.54    5.56
   6   4   8  144.62    8.20
   6   4   9  104.34    6.53
   6   4  10    1.40    0.95
   6   5  -5   -0.62    0.94
   6   5  -4   38.23    3.80
   6   5  -3   19.61    2.89
   6   5  -2  118.16    6.52
   6   5  -2  109.26    7.01
   6   5  -1  122.58    7.13
   6   5  -1  125.75    8.94
   6   5  -1  100.02    6.74
   6   5   0   30.34    3.73
   6   5   0   30.58    4.48
   6   5   0   37.33    4.50
   6   5   1    6.68    1.89
   6   5   1    7.11    1.89
   6   5   1    5.96    2.23
   6   5   2    7.93    1.99
   6   5   2    6.52    2.32
   6   5   3   28.47    3.49
   6   5   3   32.41    3.79
   6   5   3   28.89    4.69
   6   5   4  269.26   10.51
   6   5   4  296.75   11.16
   6   5   5   31.31    3.45
   6   5   5   38.82    3.98
   6   5   5   34.97    4.22
   6   5   6   -0.79    1.14
   6   5   7    0.22    0.61
   6   5   7   -0.17    0.86
   6   5   8   26.06    3.23
   6   5   8   23.33    3.18
   6   5   9   73.76    5.21
   6   5  10   19.35    2.45
   6   6  -5   28.13    2.49
   6   6  -4    7.09    1.75
   6   6  -3    2.50    1.46
   6   6  -2   92.90    5.58
   6   6  -2  101.37    6.45
   6   6  -1   23.87    3.17
   6   6  -1   43.86    4.93
   6   6   0   18.82    3.06
   6   6   0   17.82    3.17
   6   6   1   16.47    2.71
   6   6   1   15.90    3.19
   6   6   2   86.04    6.41
   6   6   2   78.66    7.29
   6   6   3   39.97    4.13
   6   6   3   46.23    4.56
   6   6   3   43.05    5.62
   6   6   4   92.20    6.02
   6   6   4  101.26    6.58
   6   6   5  137.12    7.40
   6   6   6    3.07    1.08
   6   6   6    1.42    0.60
   6   6   7   61.80    5.02
   6   6   7   66.44    5.36
   6   6   8  102.81    6.35
   6   6   8  103.44    6.30
   6   6   9   48.64    4.16
   6   6   9   46.18    3.91
   6   6  10   56.18    3.75
   6   7  -4   57.36    3.30
   6   7  -3   48.18    3.89
   6   7  -2   35.50    3.19
   6   7  -2  104.76    5.67
   6   7  -1   29.41    3.38
   6   7  -1  118.48    6.28
   6   7   0    5.12    1.57
   6   7   0  139.12    7.00
   6   7   1    0.88    1.01
   6   7   1  203.65    8.46
   6   7   2   33.61    3.96
   6   7   2   35.39    4.66
   6   7   3   28.53    3.65
   6   7   3   33.42    4.62
   6   7   4    2.09    1.02
   6   7   4    1.40    0.58
   6   7   4    3.61    1.51
   6   7   5   35.21    3.92
   6   7   5   38.50    3.90
   6   7   6   42.56    4.24
   6   7   6   42.13    3.79
   6   7   7   62.50    4.87
   6   7   8   -0.60    0.64
   6   7   9   14.80    2.21
   6   7  10   10.19    1.66
   6   8  -2  134.54    5.18
   6   8  -1   45.71    3.81
   6   8  -1  192.40    6.75
   6   8   0    1.92    1.05
   6   8   1    7.04    1.84
   6   8   2    2.97    1.37
   6   8   2   -0.32    0.75
   6   8   3   48.52    4.62
   6   8   3   53.75    4.81
   6   8   4   32.02    3.68
   6   8   4   34.36    3.73
   6   8   4   40.43    4.74
   6   8   5   18.33    2.90
   6   8   5   18.06    2.63
   6   8   6   20.59    2.96
   6   8   6   18.45    2.45
   6   8   7    4.48    1.24
   6   8   8    3.42    1.11
   6   8   9   30.86    2.93
   6   8  10    0.57    0.48
   6   9  -1    2.33    0.81
   6   9   0    4.61    1.33
   6   9   1    0.96    0.86
   6   9   1    2.31    0.96
   6   9   2    0.79    0.81
   6   9   2    1.06    0.87
   6   9   3   30.56    3.48
   6   9   3   29.95    3.43
   6   9   4    6.69    1.57
   6   9   4    4.42    1.46
   6   9   5   71.59    5.29
   6   9   5   69.77    4.76
   6   9   6   41.45    3.86
   6   9   6   52.31    4.69
   6   9   7   79.46    5.16
   6   9   8   73.27    4.36
   6   9   9   26.30    2.40
   6  10   0   30.69    2.45
   6  10   1   47.29    3.42
   6  10   1   46.70    3.46
   6  10   2   43.86    3.58
   6  10   2   46.07    3.64
   6  10   3   14.71    2.16
   6  10   3   16.08    2.19
   6  10   4    3.51    0.93
   6  10   4    3.35    1.06
   6  10   5   14.91    2.20
   6  10   5   13.21    1.78
   6  10   6    1.08    0.88
   6  11   3    1.67    0.72
   6  11   4    0.60    0.49
   6  11   4    2.25    0.74
   6  11   5    8.54    1.43
   6  11   6   13.60    1.75
   7  -4  -1   53.22    3.23
   7  -4   0   67.84    3.72
   7  -4   1    3.44    0.87
   7  -3  -1    8.36    1.45
   7  -3   0   19.45    2.23
   7  -3   1    7.81    1.47
   7  -3   1    5.62    1.30
   7  -3   2    1.94    0.79
   7  -3   2    1.63    0.84
   7  -3   3   35.23    3.01
   7  -3   4   30.16    2.61
   7  -2  -3   -0.48    0.51
   7  -2  -2    9.32    1.38
   7  -2  -1   -0.48    0.78
   7  -2   0   43.95    3.60
   7  -2   0   46.55    3.72
   7  -2   1   40.39    3.61
   7  -2   1   41.89    3.47
   7  -2   2    8.67    1.76
   7  -2   2    6.60    1.40
   7  -2   3   71.27    4.80
   7  -2   4    1.17    0.78
   7  -2   5    4.96    1.14
   7  -1  -4    2.91    0.78
   7  -1  -3   10.76    1.55
   7  -1  -2   28.87    3.79
   7  -1  -1   58.21    4.20
   7  -1  -1   61.74    4.52
   7  -1  -1   61.93    5.43
   7  -1   0   51.00    4.20
   7  -1   0   59.09    4.37
   7  -1   0   54.81    5.16
   7  -1   1  133.53    7.04
   7  -1   1  146.60    6.81
   7  -1   2   61.79    4.85
   7  -1   2   63.58    4.25
   7  -1   3   22.17    2.93
   7  -1   4   18.97    2.61
   7  -1   5  215.71    8.18
   7  -1   6   70.78    4.26
   7   0  -4    3.17    1.03
   7   0  -3   -0.14    0.50
   7   0  -2   33.81    4.23
   7   0  -1   31.94    3.34
   7   0  -1   37.64    4.56
   7   0   0   44.74    4.20
   7   0   0   42.66    3.81
   7   0   0   41.19    4.89
   7   0   1   73.24    5.48
   7   0   1   74.12    4.90
   7   0   1   67.95    6.05
   7   0   2   91.32    6.10
   7   0   2   88.39    6.63
   7   0   3  162.92    8.08
   7   0   4    0.98    0.69
   7   0   5   12.44    2.14
   7   0   6   22.48    2.59
   7   0   7   14.66    1.80
   7   1  -4   14.29    1.71
   7   1  -3   -1.04    0.68
   7   1  -3    0.11    0.86
   7   1  -2   22.33    3.77
   7   1  -1   39.69    3.89
   7   1  -1   45.37    5.35
   7   1   0    9.91    2.15
   7   1   0   13.04    2.81
   7   1   1    6.23    1.64
   7   1   1    9.42    2.48
   7   1   2    7.80    1.81
   7   1   2    8.12    2.17
   7   1   3   16.08    2.66
   7   1   3   15.23    2.84
   7   1   4   82.90    5.79
   7   1   4   77.54    6.04
   7   1   5  101.89    6.10
   7   1   6    4.74    1.29
   7   1   7   22.84    2.38
   7   2  -3   -1.83    1.48
   7   2  -2    7.54    2.04
   7   2  -1  159.73   10.07
   7   2   0    0.46    0.82
   7   2   0    0.59    1.08
   7   2   1   17.59    2.82
   7   2   1   18.79    3.56
   7   2   2   26.89    3.50
   7   2   2   26.22    3.81
   7   2   3   40.40    4.24
   7   2   3   34.76    4.41
   7   2   4   41.79    4.15
   7   2   4   40.91    4.66
   7   2   5   25.57    3.09
   7   2   5   24.68    3.61
   7   2   6    2.85    0.96
   7   2   6    3.36    1.37
   7   2   7   72.18    4.32
   7   2   7   85.20    5.61
   7   2   8   24.36    2.77
   7   3  -4   49.31    3.15
   7   3  -3    0.51    1.07
   7   3  -3   40.37    3.33
   7   3  -2  182.84   10.24
   7   3  -2  162.34    6.59
   7   3  -1  315.17   13.89
   7   3  -1  299.82    9.00
   7   3   0    4.08    1.38
   7   3   0    5.98    2.04
   7   3   1  104.50    6.71
   7   3   1   98.68    7.82
   7   3   2    1.02    0.89
   7   3   2    0.11    1.39
   7   3   3   99.27    6.52
   7   3   3  100.47    7.67
   7   3   4  200.19    8.98
   7   3   4  207.02   10.81
   7   3   5    1.06    0.92
   7   3   5    0.82    1.10
   7   3   6   31.04    3.17
   7   3   6   31.14    3.99
   7   3   7   61.30    4.96
   7   3   7   70.88    5.32
   7   3   8   24.69    2.94
   7   4  -4   75.79    3.69
   7   4  -3   57.17    3.74
   7   4  -2   19.86    3.23
   7   4  -2   80.42    4.81
   7   4  -1   57.92    5.83
   7   4  -1  144.36    6.55
   7   4   0    1.57    1.57
   7   4   0  156.41    6.98
   7   4   1   56.47    4.92
   7   4   1   49.35    5.57
   7   4   2    9.45    2.06
   7   4   2    7.35    2.06
   7   4   3   72.15    5.38
   7   4   3   82.79    7.13
   7   4   4   65.74    5.03
   7   4   4   66.85    6.25
   7   4   5    8.67    1.72
   7   4   5    7.75    2.28
   7   4   6    3.90    1.11
   7   4   6    3.69    1.60
   7   4   7   29.75    3.71
   7   4   8   58.36    4.43
   7   4   8   57.39    4.47
   7   5  -3  136.17    5.18
   7   5  -2    1.12    1.01
   7   5  -2   98.54    5.07
   7   5  -1   34.14    4.22
   7   5  -1  145.01    6.42
   7   5   0   10.18    1.91
   7   5   0   12.08    2.62
   7   5   1   35.87    3.62
   7   5   1   38.55    4.88
   7   5   2   94.57    6.03
   7   5   2   95.76    7.54
   7   5   3    9.54    1.96
   7   5   3    9.50    2.00
   7   5   3    8.93    2.52
   7   5   4    8.94    1.83
   7   5   4    6.12    2.12
   7   5   5    2.86    0.98
   7   5   5    1.04    1.32
   7   5   6   15.68    3.02
   7   5   7   57.07    5.20
   7   5   8  124.25    6.82
   7   6  -2  161.51    5.67
   7   6  -1   12.30    2.12
   7   6   0    1.85    0.81
   7   6   0    2.61    1.34
   7   6   1   -0.49    0.58
   7   6   1    1.23    1.39
   7   6   2   85.64    5.56
   7   6   2   92.52    7.00
   7   6   3   28.97    3.26
   7   6   3   33.65    4.40
   7   6   4    0.15    0.76
   7   6   4   -0.25    0.94
   7   6   5   10.28    2.44
   7   6   6   14.57    2.83
   7   6   7   13.11    2.49
   7   6   8   46.73    4.23
   7   7   0    7.22    1.30
   7   7   1    0.90    0.57
   7   7   1    2.07    0.95
   7   7   2   41.80    3.72
   7   7   2   52.57    4.91
   7   7   3   63.41    4.58
   7   7   3   78.95    6.07
   7   7   4   21.94    2.65
   7   7   4   24.68    3.48
   7   7   5    5.48    1.73
   7   7   6   17.78    2.90
   7   7   7  117.72    6.87
   7   7   8   95.64    5.65
   7   8   0    0.48    0.44
   7   8   1    3.04    1.00
   7   8   2  123.45    5.83
   7   8   3  148.51    6.52
   7   8   3  172.97    7.70
   7   8   4   60.51    4.07
   7   8   4   73.01    5.19
   7   8   5    1.43    0.60
   7   8   5    1.46    0.95
   7   8   6    5.86    1.56
   7   8   7  369.11   10.84
   7   9   2    1.83    0.70
   7   9   3   32.75    2.68
   7   9   4   41.90    2.98
   8   1   2  107.63    5.10
   8   1   3    2.15    0.75
   8   1   4   24.64    2.30
   8   2   0   12.67    2.09
   8   2   1   41.07    3.92
   8   2   2   58.65    3.96
   8   2   2   57.69    4.59
   8   2   3   92.26    4.89
   8   2   3   88.39    5.39
   8   2   4   48.00    3.36
   8   3   0    6.26    1.58
   8   3   1   32.50    3.58
   8   3   2   24.44    3.16
   8   3   3   -0.49    0.63
   8   3   3   -0.51    0.85
   8   3   4    4.50    0.98
   8   3   4    3.74    1.15
   8   4   0   79.79    5.19
   8   4   1   64.86    5.02
   8   4   2   19.20    2.81
   8   4   3   14.95    2.40
   8   4   4   25.34    3.10
   8   4   5    5.20    1.41
   8   5   1   53.47    4.24
   8   5   2   85.01    5.56
   8   5   3   -0.56    0.97
   8   5   4    1.17    0.95
   8   5   5    9.54    1.79
   8   6   4    2.03    0.75
   0   0   0    0.00    0.00
TITL SSK-C1 in P-1
REM P-1 (#2 in standard setting)
CELL 1.54184   6.715039  10.959148  11.170358  72.1619  79.7211  76.8725
ZERR    2.00   0.000557   0.001291   0.000962   0.0092   0.0073   0.0084
LATT  1
SFAC C H N O Cl
UNIT 40.00 38.00 2.00 4.00 4.00
TREF
HKLF 4
END
_computing_structure_solution     'SHELXT 2014/5 (Sheldrick, 2014)'
;
_shelx_hkl_checksum              35100
_shelx_res_file
;
TITL ssk-c1_a.res in P-1
REM Old TITL SSK-C1 in P-1 #2
REM SHELXT solution in P-1
REM R1 0.146, Rweak 0.009, Alpha 0.034, Orientation as input
REM Formula found by SHELXT: C18 Cl N O
REM DAMP 400
REM BASF -0.3
REM TWIN -1 0 0 0 0 -1 0 -1 0 2
CELL 1.54184 6.715039 10.959148 11.170358 72.1619 79.7211 76.8725
ZERR 2 0.000557 0.001291 0.000962 0.0092 0.0073 0.0084
LATT 1
SFAC C H Cl N O
UNIT 36 36 2 2 2
EQIV $1 -1+X,+Y,+Z
L.S. 20
PLAN  20
TEMP -100(2)
HTAB N1 O1_$1
BOND $H
LIST 4
MORE -1
CONF
fmap 2
acta
OMIT -7 -6 2
OMIT -6 -8 2
OMIT -6 -7 4
OMIT -7 -4 3
OMIT -6 -7 3
OMIT -5 -8 4
OMIT -7 -4 4
REM <olex2.extras>
REM <HklSrc "%.\\SSK-C1.hkl">
REM </olex2.extras>
WGHT    0.101600    0.331900
FVAR       0.96422
CL1   3    0.844809    0.470655    0.396801    11.00000    0.03867    0.05228 =
         0.02972   -0.00870   -0.01144   -0.00892
O1    5    1.053856    0.661787    0.108282    11.00000    0.02844    0.05434 =
         0.04363   -0.01319    0.00229   -0.01486
N1    4    0.481080    0.604546    0.232149    11.00000    0.02010    0.03626 =
         0.03978   -0.01101   -0.00842   -0.00255
H1    2    0.366317    0.597366    0.220927    11.00000    0.03045
C1    1    0.893087    0.641157    0.173536    11.00000    0.02717    0.04458 =
         0.02968   -0.00981   -0.01065   -0.00726
C2    1    0.848315    0.502726    0.227097    11.00000    0.02354    0.04183 =
         0.02609   -0.00871   -0.00714   -0.00375
C3    1    0.634422    0.503215    0.192035    11.00000    0.02333    0.03816 =
         0.02920   -0.00834   -0.00869   -0.00369
AFIX  13
H3    2    0.645051    0.525936    0.097607    11.00000   -1.20000
AFIX   0
C4    1    0.517401    0.736810    0.168315    11.00000    0.02860    0.03737 =
         0.03302   -0.00940   -0.00768   -0.00345
AFIX  13
H4    2    0.526398    0.752419    0.074654    11.00000   -1.20000
AFIX   0
C5    1    0.724269    0.748690    0.202181    11.00000    0.03093    0.03844 =
         0.03969   -0.01143   -0.00366   -0.00973
AFIX  23
H5A   2    0.759691    0.834370    0.152745    11.00000   -1.20000
H5B   2    0.711027    0.743428    0.293247    11.00000   -1.20000
AFIX   0
C6    1    0.563593    0.373277    0.244327    11.00000    0.02061    0.03841 =
         0.03469   -0.01145   -0.00904   -0.00221
C7    1    0.588049    0.290629    0.167982    11.00000    0.02495    0.04338 =
         0.03946   -0.01462   -0.00647   -0.00241
AFIX  43
H7    2    0.652365    0.314997    0.083411    11.00000   -1.20000
AFIX   0
C8    1    0.519608    0.173348    0.214058    11.00000    0.03556    0.04293 =
         0.05677   -0.02230   -0.01314   -0.00105
AFIX  43
H8    2    0.535152    0.118302    0.160527    11.00000   -1.20000
AFIX   0
C9    1    0.428523    0.135399    0.337666    11.00000    0.03620    0.04050 =
         0.05825   -0.00688   -0.01419   -0.01087
AFIX  43
H9    2    0.383362    0.054096    0.369579    11.00000   -1.20000
AFIX   0
C10   1    0.403980    0.217182    0.414220    11.00000    0.03970    0.05186 =
         0.04134   -0.00687   -0.00584   -0.01721
AFIX  43
H10   2    0.342192    0.191496    0.499270    11.00000   -1.20000
AFIX   0
C11   1    0.468719    0.336401    0.368025    11.00000    0.03241    0.04520 =
         0.03581   -0.01202   -0.00385   -0.01061
AFIX  43
H11   2    0.448324    0.392757    0.420737    11.00000   -1.20000
AFIX   0
C12   1    0.339413    0.833484    0.210405    11.00000    0.02728    0.03793 =
         0.03773   -0.01131   -0.00712   -0.00691
C13   1    0.247986    0.943272    0.124073    11.00000    0.04188    0.04270 =
         0.04059   -0.00929   -0.01012   -0.00405
AFIX  43
H13   2    0.299688    0.959721    0.036846    11.00000   -1.20000
AFIX   0
C14   1    0.081721    1.029771    0.163096    11.00000    0.04107    0.04161 =
         0.05907   -0.01387   -0.01870    0.00591
AFIX  43
H14   2    0.021674    1.105393    0.103139    11.00000   -1.20000
AFIX   0
C15   1    0.004133    1.004855    0.290223    11.00000    0.03205    0.04813 =
         0.06189   -0.02464   -0.00833    0.00145
AFIX  43
H15   2   -0.110234    1.063019    0.317555    11.00000   -1.20000
AFIX   0
C16   1    0.093530    0.895328    0.376917    11.00000    0.03598    0.05251 =
         0.04675   -0.01922   -0.00040   -0.00722
AFIX  43
H16   2    0.040488    0.878327    0.463959    11.00000   -1.20000
AFIX   0
C17   1    0.260587    0.809934    0.337454    11.00000    0.03279    0.04072 =
         0.03808   -0.00952   -0.00548   -0.00365
AFIX  43
H17   2    0.321392    0.734907    0.397724    11.00000   -1.20000
AFIX   0
C18   1    1.015924    0.401015    0.183653    11.00000    0.02652    0.04305 =
         0.04269   -0.01514   -0.00750   -0.00213
AFIX 137
H18A  2    1.150659    0.412810    0.195670    11.00000   -1.50000
H18B  2    1.012031    0.411066    0.093806    11.00000   -1.50000
H18C  2    0.993123    0.313607    0.233478    11.00000   -1.50000
AFIX   0
HKLF 4
REM  ssk-c1_a.res in P-1
REM R1 =  0.0573 for    2456 Fo > 4sig(Fo)  and  0.0666 for all    2847 data
REM    195 parameters refined using      0 restraints
END
WGHT      0.1007      0.3402
REM Highest difference peak  0.683,  deepest hole -0.293,  1-sigma level  0.073
Q1    1   0.7974  0.5769  0.3785  11.00000  0.05    0.68
Q2    1   0.8818  0.3779  0.4205  11.00000  0.05    0.56
Q3    1   0.7787  0.6343  0.3854  11.00000  0.05    0.54
Q4    1   1.0934  0.5776  0.1232  11.00000  0.05    0.44
Q5    1   0.8773  0.5693  0.1983  11.00000  0.05    0.43
Q6    1   0.9228  0.4420  0.2040  11.00000  0.05    0.36
Q7    1   0.1655  0.8277  0.3653  11.00000  0.05    0.34
Q8    1   0.6204  0.4355  0.2190  11.00000  0.05    0.33
Q9    1   0.7433  0.5034  0.2145  11.00000  0.05    0.32
Q10   1   0.7996  0.6888  0.2022  11.00000  0.05    0.31
Q11   1   0.4018  0.7636  0.2137  11.00000  0.05    0.31
Q12   1   0.3128  0.9154  0.1801  11.00000  0.05    0.31
Q13   1   0.6114  0.3017  0.2341  11.00000  0.05    0.30
Q14   1   0.1975  0.9985  0.1386  11.00000  0.05    0.30
Q15   1   0.3763  0.3015  0.3883  11.00000  0.05    0.30
Q16   1   0.6036  0.2000  0.1932  11.00000  0.05    0.29
Q17   1   0.5362  0.5279  0.2359  11.00000  0.05    0.28
Q18   1   0.0455  0.9218  0.3226  11.00000  0.05    0.27
Q19   1   0.3077  0.7260  0.3682  11.00000  0.05    0.26
Q20   1   0.4890  0.1400  0.3790  11.00000  0.05    0.26
;
_shelx_res_checksum              52793
_shelxl_version_number           2014/6
loop_
_space_group_symop_operation_xyz
'x, y, z'
'-x, -y, -z'
loop_
_atom_site_type_symbol
_atom_site_label
_atom_site_fract_x
_atom_site_fract_y
_atom_site_fract_z
_atom_site_U_iso_or_equiv
_atom_site_adp_type
_atom_site_calc_flag
_atom_site_occupancy
Cl Cl1 0.84481(9) 0.47065(6) 0.39680(5) 0.0398(2) Uani d 1
O O1 1.0539(3) 0.6618(2) 0.10828(18) 0.0419(5) Uani d 1
N N1 0.4811(3) 0.6045(2) 0.2321(2) 0.0317(4) Uani d 1
H H1 0.366(5) 0.597(3) 0.221(3) 0.030(7) Uiso d 1
C C1 0.8931(4) 0.6412(3) 0.1735(2) 0.0329(5) Uani d 1
C C2 0.8483(3) 0.5027(2) 0.2271(2) 0.0305(5) Uani d 1
C C3 0.6344(3) 0.5032(2) 0.1920(2) 0.0301(5) Uani d 1
H H3 0.6451 0.5259 0.0976 0.036 Uiso calc 1
C C4 0.5174(4) 0.7368(2) 0.1683(2) 0.0330(5) Uani d 1
H H4 0.5264 0.7524 0.0747 0.040 Uiso calc 1
C C5 0.7243(4) 0.7487(2) 0.2022(2) 0.0357(5) Uani d 1
H H5A 0.7597 0.8344 0.1527 0.043 Uiso calc 1
H H5B 0.7110 0.7434 0.2932 0.043 Uiso calc 1
C C6 0.5636(3) 0.3733(2) 0.2443(2) 0.0307(5) Uani d 1
C C7 0.5880(4) 0.2906(3) 0.1680(2) 0.0355(5) Uani d 1
H H7 0.6524 0.3150 0.0834 0.043 Uiso calc 1
C C8 0.5196(4) 0.1733(3) 0.2141(3) 0.0432(6) Uani d 1
H H8 0.5352 0.1183 0.1605 0.052 Uiso calc 1
C C9 0.4285(4) 0.1354(3) 0.3377(3) 0.0448(6) Uani d 1
H H9 0.3834 0.0541 0.3696 0.054 Uiso calc 1
C C10 0.4040(4) 0.2172(3) 0.4142(3) 0.0441(6) Uani d 1
H H10 0.3422 0.1915 0.4993 0.053 Uiso calc 1
C C11 0.4687(4) 0.3364(3) 0.3680(2) 0.0371(5) Uani d 1
H H11 0.4483 0.3928 0.4207 0.044 Uiso calc 1
C C12 0.3394(4) 0.8335(2) 0.2104(2) 0.0335(5) Uani d 1
C C13 0.2480(4) 0.9433(3) 0.1241(3) 0.0422(6) Uani d 1
H H13 0.2997 0.9597 0.0368 0.051 Uiso calc 1
C C14 0.0817(5) 1.0298(3) 0.1631(3) 0.0479(7) Uani d 1
H H14 0.0217 1.1054 0.1031 0.057 Uiso calc 1
C C15 0.0041(4) 1.0049(3) 0.2902(3) 0.0463(7) Uani d 1
H H15 -0.1102 1.0630 0.3176 0.056 Uiso calc 1
C C16 0.0935(4) 0.8953(3) 0.3769(3) 0.0446(6) Uani d 1
H H16 0.0405 0.8783 0.4640 0.053 Uiso calc 1
C C17 0.2606(4) 0.8099(3) 0.3375(2) 0.0379(6) Uani d 1
H H17 0.3214 0.7349 0.3977 0.045 Uiso calc 1
C C18 1.0159(4) 0.4010(3) 0.1837(3) 0.0369(5) Uani d 1
H H18A 1.1507 0.4128 0.1957 0.055 Uiso calc 1
H H18B 1.0120 0.4111 0.0938 0.055 Uiso calc 1
H H18C 0.9931 0.3136 0.2335 0.055 Uiso calc 1
loop_
_atom_site_aniso_label
_atom_site_aniso_U_11
_atom_site_aniso_U_22
_atom_site_aniso_U_33
_atom_site_aniso_U_12
_atom_site_aniso_U_13
_atom_site_aniso_U_23
Cl1 0.0387(4) 0.0523(4) 0.0297(3) -0.0089(3) -0.0114(2) -0.0087(3)
O1 0.0284(9) 0.0543(11) 0.0436(10) -0.0149(8) 0.0023(7) -0.0132(8)
N1 0.0201(9) 0.0363(11) 0.0398(11) -0.0026(8) -0.0084(8) -0.0110(8)
C1 0.0272(11) 0.0446(13) 0.0297(11) -0.0073(10) -0.0107(9) -0.0098(10)
C2 0.0235(11) 0.0418(13) 0.0261(10) -0.0037(9) -0.0071(8) -0.0087(9)
C3 0.0233(10) 0.0382(12) 0.0292(11) -0.0037(9) -0.0087(8) -0.0083(9)
C4 0.0286(11) 0.0374(12) 0.0330(12) -0.0035(9) -0.0077(9) -0.0094(9)
C5 0.0309(12) 0.0384(13) 0.0397(13) -0.0097(10) -0.0037(10) -0.0114(10)
C6 0.0206(10) 0.0384(12) 0.0347(12) -0.0022(9) -0.0090(9) -0.0115(10)
C7 0.0250(11) 0.0434(13) 0.0395(13) -0.0024(9) -0.0065(9) -0.0146(11)
C8 0.0356(13) 0.0429(14) 0.0568(16) -0.0010(11) -0.0131(12) -0.0223(12)
C9 0.0362(13) 0.0405(14) 0.0582(17) -0.0109(11) -0.0142(12) -0.0069(12)
C10 0.0397(14) 0.0519(16) 0.0413(14) -0.0172(12) -0.0058(11) -0.0069(12)
C11 0.0324(12) 0.0452(14) 0.0358(12) -0.0106(10) -0.0039(10) -0.0120(10)
C12 0.0273(11) 0.0379(12) 0.0377(12) -0.0069(10) -0.0071(9) -0.0113(10)
C13 0.0419(14) 0.0427(14) 0.0406(14) -0.0041(11) -0.0101(11) -0.0093(11)
C14 0.0411(14) 0.0416(14) 0.0591(17) 0.0059(11) -0.0187(13) -0.0139(13)
C15 0.0321(13) 0.0481(15) 0.0619(18) 0.0014(11) -0.0083(12) -0.0246(13)
C16 0.0360(13) 0.0525(16) 0.0468(15) -0.0072(12) -0.0004(11) -0.0192(13)
C17 0.0328(12) 0.0407(13) 0.0381(13) -0.0037(10) -0.0055(10) -0.0095(10)
C18 0.0265(11) 0.0431(13) 0.0427(13) -0.0021(10) -0.0075(10) -0.0151(11)
loop_
_atom_type_symbol
_atom_type_description
_atom_type_scat_dispersion_real
_atom_type_scat_dispersion_imag
_atom_type_scat_source
C C 0.0181 0.0091 'International Tables Vol C Tables 4.2.6.8 and 6.1.1.4'
H H 0.0000 0.0000 'International Tables Vol C Tables 4.2.6.8 and 6.1.1.4'
Cl Cl 0.3639 0.7018 'International Tables Vol C Tables 4.2.6.8 and 6.1.1.4'
N N 0.0311 0.0180 'International Tables Vol C Tables 4.2.6.8 and 6.1.1.4'
O O 0.0492 0.0322 'International Tables Vol C Tables 4.2.6.8 and 6.1.1.4'
loop_
_geom_angle_atom_site_label_1
_geom_angle_atom_site_label_2
_geom_angle_atom_site_label_3
_geom_angle
C3 N1 H1 109(2)
C3 N1 C4 114.13(19)
C4 N1 H1 110(2)
O1 C1 C2 121.0(2)
O1 C1 C5 122.8(2)
C5 C1 C2 116.2(2)
C1 C2 Cl1 103.69(15)
C1 C2 C3 108.02(19)
C3 C2 Cl1 111.52(16)
C18 C2 Cl1 107.95(16)
C18 C2 C1 113.27(19)
C18 C2 C3 112.11(19)
N1 C3 C2 109.95(19)
N1 C3 H3 107.4
N1 C3 C6 110.15(18)
C2 C3 H3 107.4
C6 C3 C2 114.24(19)
C6 C3 H3 107.4
N1 C4 H4 109.3
N1 C4 C5 108.10(19)
N1 C4 C12 109.07(19)
C5 C4 H4 109.3
C12 C4 H4 109.3
C12 C4 C5 111.7(2)
C1 C5 C4 110.3(2)
C1 C5 H5A 109.6
C1 C5 H5B 109.6
C4 C5 H5A 109.6
C4 C5 H5B 109.6
H5A C5 H5B 108.1
C7 C6 C3 120.2(2)
C7 C6 C11 119.1(2)
C11 C6 C3 120.7(2)
C6 C7 H7 119.7
C8 C7 C6 120.5(2)
C8 C7 H7 119.7
C7 C8 H8 119.8
C7 C8 C9 120.5(3)
C9 C8 H8 119.8
C8 C9 H9 120.4
C10 C9 C8 119.3(3)
C10 C9 H9 120.4
C9 C10 H10 119.7
C9 C10 C11 120.7(3)
C11 C10 H10 119.7
C6 C11 H11 120.0
C10 C11 C6 119.9(2)
C10 C11 H11 120.0
C13 C12 C4 121.4(2)
C13 C12 C17 118.8(2)
C17 C12 C4 119.7(2)
C12 C13 H13 119.5
C12 C13 C14 121.0(3)
C14 C13 H13 119.5
C13 C14 H14 120.2
C15 C14 C13 119.5(3)
C15 C14 H14 120.2
C14 C15 H15 120.1
C16 C15 C14 119.9(3)
C16 C15 H15 120.1
C15 C16 H16 119.8
C15 C16 C17 120.3(3)
C17 C16 H16 119.8
C12 C17 H17 119.8
C16 C17 C12 120.4(3)
C16 C17 H17 119.8
C2 C18 H18A 109.5
C2 C18 H18B 109.5
C2 C18 H18C 109.5
H18A C18 H18B 109.5
H18A C18 H18C 109.5
H18B C18 H18C 109.5
loop_
_geom_bond_atom_site_label_1
_geom_bond_atom_site_label_2
_geom_bond_distance
Cl1 C2 1.816(2)
O1 C1 1.215(3)
N1 H1 0.83(3)
N1 C3 1.454(3)
N1 C4 1.461(3)
C1 C2 1.529(4)
C1 C5 1.507(3)
C2 C3 1.553(3)
C2 C18 1.520(3)
C3 H3 1.0000
C3 C6 1.515(3)
C4 H4 1.0000
C4 C5 1.546(3)
C4 C12 1.517(3)
C5 H5A 0.9900
C5 H5B 0.9900
C6 C7 1.389(3)
C6 C11 1.393(3)
C7 H7 0.9500
C7 C8 1.381(4)
C8 H8 0.9500
C8 C9 1.384(4)
C9 H9 0.9500
C9 C10 1.383(4)
C10 H10 0.9500
C10 C11 1.388(4)
C11 H11 0.9500
C12 C13 1.385(4)
C12 C17 1.389(4)
C13 H13 0.9500
C13 C14 1.391(4)
C14 H14 0.9500
C14 C15 1.388(4)
C15 H15 0.9500
C15 C16 1.381(4)
C16 H16 0.9500
C16 C17 1.389(4)
C17 H17 0.9500
C18 H18A 0.9800
C18 H18B 0.9800
C18 H18C 0.9800
loop_
_geom_hbond_atom_site_label_D
_geom_hbond_atom_site_label_H
_geom_hbond_atom_site_label_A
_geom_hbond_site_symmetry_A
_geom_hbond_distance_DH
_geom_hbond_distance_HA
_geom_hbond_distance_DA
_geom_hbond_angle_DHA
N1 H1 O1 1_455 0.83(3) 2.49(3) 3.257(3) 154(3)
C9 H9 Cg3 1_545 0.95 2.97 3.662(3) 131
C15 H15 Cg2 1_465 0.96 2.98 3.861(3) 155
C18 H18A Cg2 1_655 0.98 2.73 3.497(3) 136
loop_
_geom_torsion_atom_site_label_1
_geom_torsion_atom_site_label_2
_geom_torsion_atom_site_label_3
_geom_torsion_atom_site_label_4
_geom_torsion
Cl1 C2 C3 N1 60.5(2)
Cl1 C2 C3 C6 -63.9(2)
O1 C1 C2 Cl1 113.3(2)
O1 C1 C2 C3 -128.2(2)
O1 C1 C2 C18 -3.4(3)
O1 C1 C5 C4 127.1(2)
N1 C3 C6 C7 137.0(2)
N1 C3 C6 C11 -41.4(3)
N1 C4 C5 C1 53.2(3)
N1 C4 C12 C13 -134.6(2)
N1 C4 C12 C17 43.1(3)
C1 C2 C3 N1 -52.8(2)
C1 C2 C3 C6 -177.23(19)
C2 C1 C5 C4 -50.6(3)
C2 C3 C6 C7 -98.7(2)
C2 C3 C6 C11 82.9(3)
C3 N1 C4 C5 -62.7(2)
C3 N1 C4 C12 175.60(18)
C3 C6 C7 C8 -178.5(2)
C3 C6 C11 C10 179.7(2)
C4 N1 C3 C2 63.7(2)
C4 N1 C3 C6 -169.51(18)
C4 C12 C13 C14 178.5(2)
C4 C12 C17 C16 -177.9(2)
C5 C1 C2 Cl1 -69.0(2)
C5 C1 C2 C3 49.4(3)
C5 C1 C2 C18 174.2(2)
C5 C4 C12 C13 105.9(3)
C5 C4 C12 C17 -76.4(3)
C6 C7 C8 C9 -1.0(4)
C7 C6 C11 C10 1.3(4)
C7 C8 C9 C10 0.9(4)
C8 C9 C10 C11 0.3(4)
C9 C10 C11 C6 -1.4(4)
C11 C6 C7 C8 -0.1(3)
C12 C4 C5 C1 173.2(2)
C12 C13 C14 C15 -0.9(4)
C13 C12 C17 C16 -0.2(4)
C13 C14 C15 C16 0.6(4)
C14 C15 C16 C17 -0.1(4)
C15 C16 C17 C12 -0.1(4)
C17 C12 C13 C14 0.7(4)
C18 C2 C3 N1 -178.29(19)
C18 C2 C3 C6 57.3(3)

_cod_database_fobs_code 2242002
