#------------------------------------------------------------------------------
#$Date: 2018-11-17 05:47:45 +0200 (Sat, 17 Nov 2018) $
#$Revision: 212034 $
#$URL: file:///home/coder/svn-repositories/cod/cif/2/24/27/2242741.cif $
#------------------------------------------------------------------------------
#
# This file is available in the Crystallography Open Database (COD),
# http://www.crystallography.net/. The original data for this entry
# were provided by IUCr Journals, http://journals.iucr.org/.
#
# The file may be used within the scientific community so long as
# proper attribution is given to the journal article from which the
# data were obtained.
#
data_2242741
loop_
_publ_author_name
'Salian, Akshatha R.'
'Foro, Sabine'
'Gowda, B. Thimme'
_publ_section_title
;
 Crystal structure and Hirshfeld surface analysis of two
 (<i>E</i>)-<i>N</i>'-(<i>para</i>-substituted benzylidene)
 4-chlorobenzenesulfonohydrazides
;
_journal_coeditor_code           SU5458
_journal_issue                   12
_journal_name_full               'Acta Crystallographica Section E'
_journal_page_first              1808
_journal_page_last               1814
_journal_paper_doi               10.1107/S205698901801592X
_journal_volume                  74
_journal_year                    2018
_chemical_formula_iupac          'C13 H10 Cl2 N2 O2 S'
_chemical_formula_moiety         'C13 H10 Cl2 N2 O2 S'
_chemical_formula_sum            'C13 H10 Cl2 N2 O2 S'
_chemical_formula_weight         329.19
_chemical_name_systematic
;
(<i>E</i>)-4-Chloro-<i>N</i>'-(4-chlorobenzylidene)benzenesulfonohydrazide
;
_space_group_crystal_system      triclinic
_space_group_IT_number           2
_space_group_name_Hall           '-P 1'
_space_group_name_H-M_alt        'P -1'
_symmetry_space_group_name_Hall  '-P 1'
_symmetry_space_group_name_H-M   'P -1'
_atom_sites_solution_hydrogens   mixed
_audit_creation_method           SHELXL-2014/6
_cell_angle_alpha                98.822(9)
_cell_angle_beta                 96.046(9)
_cell_angle_gamma                92.416(9)
_cell_formula_units_Z            2
_cell_length_a                   5.9306(6)
_cell_length_b                   9.4770(10)
_cell_length_c                   13.040(2)
_cell_measurement_reflns_used    2722
_cell_measurement_temperature    293(2)
_cell_measurement_theta_max      27.76
_cell_measurement_theta_min      2.90
_cell_volume                     718.94(15)
_computing_cell_refinement
;
CrysAlis RED (Oxford Diffraction, 2009)
;
_computing_data_collection
;
CrysAlis CCD (Oxford Diffraction, 2009)
;
_computing_data_reduction
;
CrysAlis RED (Oxford Diffraction, 2009)
;
_computing_molecular_graphics
;
PLATON (Spek, 2009)
;
_computing_publication_material
;
SHELXL2014 (Sheldrick, 2015)
;
_computing_structure_refinement
;
SHELXL2014 (Sheldrick, 2015)
;
_computing_structure_solution
;
SHELXS2013 (Sheldrick, 2008)
;
_diffrn_ambient_temperature      293(2)
_diffrn_measured_fraction_theta_full 0.997
_diffrn_measured_fraction_theta_max 0.997
_diffrn_measurement_device_type
;
Oxford Diffraction Xcalibur diffractometer
with Sapphire CCD
;
_diffrn_measurement_method
;
Rotation method data acquisition using omega scans.
;
_diffrn_radiation_type           MoK\a
_diffrn_radiation_wavelength     0.71073
_diffrn_reflns_av_R_equivalents  0.0164
_diffrn_reflns_av_unetI/netI     0.0140
_diffrn_reflns_limit_h_max       7
_diffrn_reflns_limit_h_min       -4
_diffrn_reflns_limit_k_max       11
_diffrn_reflns_limit_k_min       -11
_diffrn_reflns_limit_l_max       11
_diffrn_reflns_limit_l_min       -15
_diffrn_reflns_number            4153
_diffrn_reflns_theta_full        25.242
_diffrn_reflns_theta_max         25.346
_diffrn_reflns_theta_min         3.182
_diffrn_source                   'Enhance (Mo) X-ray Source'
_exptl_absorpt_coefficient_mu    0.598
_exptl_absorpt_correction_T_max  0.814
_exptl_absorpt_correction_T_min  0.762
_exptl_absorpt_correction_type   multi-scan
_exptl_absorpt_process_details
;
(CrysAlis RED; Oxford Diffraction, 2009)
;
_exptl_crystal_colour            colourless
_exptl_crystal_density_diffrn    1.521
_exptl_crystal_description       rod
_exptl_crystal_F_000             336
_exptl_crystal_size_max          0.480
_exptl_crystal_size_mid          0.400
_exptl_crystal_size_min          0.360
_refine_diff_density_max         0.373
_refine_diff_density_min         -0.348
_refine_ls_extinction_coef       0.025(3)
_refine_ls_extinction_expression Fc^*^=kFc[1+0.001xFc^2^\l^3^/sin(2\q)]^-1/4^
_refine_ls_extinction_method     SHELXL
_refine_ls_goodness_of_fit_ref   1.078
_refine_ls_hydrogen_treatment    mixed
_refine_ls_matrix_type           full
_refine_ls_number_parameters     185
_refine_ls_number_reflns         2626
_refine_ls_number_restraints     1
_refine_ls_restrained_S_all      1.078
_refine_ls_R_factor_all          0.0433
_refine_ls_R_factor_gt           0.0379
_refine_ls_shift/su_max          0.001
_refine_ls_shift/su_mean         0.000
_refine_ls_structure_factor_coef Fsqd
_refine_ls_weighting_details
'w=1/[\s^2^(Fo^2^)+(0.0523P)^2^+0.3082P] where P=(Fo^2^+2Fc^2^)/3'
_refine_ls_weighting_scheme      calc
_refine_ls_wR_factor_gt          0.0981
_refine_ls_wR_factor_ref         0.1022
_reflns_number_gt                2321
_reflns_number_total             2626
_reflns_threshold_expression     'I > 2\s(I)'
_cod_data_source_file            su5458sup1.cif
_cod_data_source_block           I
_cod_database_code               2242741
_shelx_space_group_comment
;
The symmetry employed for this shelxl refinement is uniquely defined
by the following loop, which should always be used as a source of
symmetry information in preference to the above space-group names.
They are only intended as comments.
;
_shelx_estimated_absorpt_t_min   0.762
_shelx_estimated_absorpt_t_max   0.814
_shelx_hkl_file
;
   0   0  -2 52689.5 111.225   6
   0   0  -3 35134.6 111.729   6
   0   0  -4 527.615 19.4107   6
   0   0  -4 572.217 15.1284   4
   0   0  -5 6285.22 47.3254   4
   0   0  -5 6241.16 63.0242   6
   0   0  -6 1770.72 28.4395   4
   0   0  -6 1705.52 39.9170   6
   0   0  -7 827.493 34.8433   6
   0   0  -7 885.202 24.8445   4
   0   0  -8 665.052 23.5150   4
   0   0  -8 1002.70 40.8639   6
   0   0  -9 3654.90 73.3744   6
   0   0 -10 57305.4 271.002   6
   0   0 -11 827.977 56.3513   6
   0   0 -12 9546.11 130.337   6
   0   0 -13 9552.20 136.109   6
   0   0 -14 2149.58 78.6022   6
   0   0 -15 1486.38 79.1394   6
   0   0 -16 272.287 67.0288   6
   0   1 -16 101.520 49.8442   6
   0   1 -15 3720.47 105.682   6
   0   1 -14 253.568 54.9119   6
   0   1 -13 1370.30 66.6728   6
   0   1 -12 11666.1 140.385   6
   0   1 -11 4220.46 87.1276   6
   0   1 -10 365.058 45.3742   6
   0   1  -9 6170.24 89.4492   6
   0   1  -8 1281.64 47.0220   6
   0   1  -8 1391.85 33.9154   4
   0   1  -7 13668.3 110.128   6
   0   1  -6 3059.32 51.0077   6
   0   1  -5 74556.9 211.669   6
   0   1  -4 23191.8 106.576   6
   0   1  -3 1700.79 27.6889   6
   0   1  -2 26870.5 83.6269   6
   0   1   1 1170.86 17.6192   6
   0  -1  -2 204980. 983.276   6
   0  -1  -3 92954.6 194.601   6
   0  -1  -4 60600.8 174.745   6
   0  -1  -5 7686.89 71.2794   6
   0  -1  -6 5061.96 65.8051   6
   0  -1  -7 60806.0 234.107   6
   0  -1  -8 932.523 42.0321   6
   0  -1  -9 2051.43 61.5049   6
   0  -1 -10 11190.0 128.601   6
   0  -1 -11 7.94730 52.7614   6
   0  -1 -12 10302.6 138.544   6
   0  -1 -13 2130.06 79.8697   6
   0  -1 -14 490.070 57.2592   6
   0  -1 -15-6.99939 49.7897   6
   0   2 -16 811.244 66.0284   6
   0   2 -15 3199.03 97.7731   6
   0   2 -14 66.8584 51.0510   6
   0   2 -13-37.1196 46.6042   6
   0   2 -12 1127.60 62.8275   6
   0   2 -11 2582.76 73.4768   6
   0   2 -10 7542.19 105.779   6
   0   2  -9 1421.34 56.6496   6
   0   2  -8 178915. 425.374   6
   0   2  -7 2143.80 52.9793   6
   0   2  -6 12515.8 99.4681   6
   0   2  -5 38172.2 157.361   6
   0   2  -4 14834.9 90.1442   6
   0   2  -3 425.343 19.6784   6
   0   2  -2 299431. 1310.49   6
   0   2  -1 52679.4 136.470   6
   0   2   0 50151.2 125.235   6
   0   2   1 16299.2 75.1102   6
   0   2   2 567059. 2040.38   6
   0  -2  -3 149822. 281.886   6
   0  -2  -4 816.412 27.7673   6
   0  -2  -5 67647.9 224.087   6
   0  -2  -6 12718.4 105.027   6
   0  -2  -7 759.482 36.4167   6
   0  -2  -8 9271.40 107.000   6
   0  -2  -9 6776.77 101.686   6
   0  -2 -10 36610.0 232.510   6
   0  -2 -11 2142.80 79.1963   6
   0  -2 -12 1014.06 63.1118   6
   0  -2 -13 5254.75 109.521   6
   0  -2 -14 501.645 65.7581   6
   0  -2 -15 2421.42 89.2409   6
   0   3 -16 631.963 62.6272   6
   0   3 -15 1381.58 72.5729   6
   0   3 -14 810.731 67.9140   6
   0   3 -13 4327.08 97.3181   6
   0   3 -12 6446.55 110.808   6
   0   3 -11-16.4320 44.3961   6
   0   3 -10 8484.63 116.906   6
   0   3  -9 17066.2 147.519   6
   0   3  -8 2503.25 59.8342   6
   0   3  -7 23243.3 150.701   6
   0   3  -6 36714.5 175.392   6
   0   3  -5 24064.6 131.926   6
   0   3  -4 11513.7 85.4687   6
   0   3  -3 68209.8 196.322   6
   0   3  -2 244789. 355.893   6
   0   3  -1 63601.6 175.020   6
   0   3   0 29197.2 120.574   6
   0  -3  -1 128173. 181.326   2
   0  -3  -1 129882. 726.561   0
   0   3   1 126589. 252.751   6
   0   3   2 53492.5 179.282   6
   0  -3  -2 54124.8 121.147   0
   0   3   3 3357.69 51.5118   6
   0  -3  -4 49113.3 194.860   6
   0  -3  -5 1277.83 42.5265   6
   0  -3  -6-11.6006 28.2005   6
   0  -3  -7 306.518 36.5940   6
   0  -3  -8 24300.6 175.435   6
   0  -3  -9 72.7066 53.0630   6
   0  -3 -10 13241.6 150.903   6
   0  -3 -11 3503.35 92.3790   6
   0  -3 -12-21.2241 49.6297   6
   0  -3 -13 712.999 65.8287   6
   0  -3 -14 2866.15 98.3048   6
   0  -3 -15 120.990 63.4513   6
   0   4 -15 34.7574 57.7486   6
   0   4 -14 753.052 67.7956   6
   0   4 -13 1563.90 75.5608   6
   0   4 -12 629.439 62.2456   6
   0   4 -11-17.1982 46.8449   6
   0   4 -10 21674.4 180.528   6
   0   4  -9-9.28808 49.2745   6
   0   4  -8 607.354 46.0811   6
   0   4  -7 223.143 34.6011   6
   0   4  -6 17562.9 128.748   6
   0   4  -5 19524.3 127.561   6
   0   4  -4 54666.2 200.367   6
   0  -4   4 48043.6 130.308   3
   0   4  -3 1817.90 40.9388   6
   0   4  -2 4492.27 57.3715   6
   0   4  -1 11101.0 87.7905   6
   0   4   0 84954.5 223.381   6
   0  -4   0 80799.9 160.952   2
   0  -4  -1 25083.2 92.2156   0
   0   4   1 23532.5 125.688   6
   0   4   2 91527.4 262.353   6
   0  -4  -2 93537.2 179.611   0
   0  -4  -3 211.487 19.0096   2
   0   4   3 387.196 33.3395   6
   0   4   4 3342.26 64.9462   6
   0  -4  -4 3404.07 48.7019   2
   0  -4  -5 36592.6 160.977   2
   0  -4  -5 34891.1 188.953   6
   0  -4  -6 2087.10 57.1580   6
   0  -4  -7 589.376 48.1987   6
   0  -4  -8 33122.6 215.209   6
   0  -4  -9 22385.2 189.757   6
   0  -4 -10 4720.39 99.9244   6
   0  -4 -11 1277.60 68.2975   6
   0  -4 -12 101.016 55.3982   6
   0  -4 -13-28.8388 48.4001   6
   0  -4 -14 1.68655 52.5318   6
   0   5 -15 1387.55 72.9183   6
   0   5 -14 1462.49 73.6399   6
   0   5 -13 2121.67 85.6760   6
   0   5 -12 4698.85 103.885   6
   0   5 -11 10963.4 143.608   6
   0   5 -10 22201.6 188.110   6
   0   5  -9 486.572 52.8858   6
   0   5  -8 22785.4 172.310   6
   0   5  -7 50849.3 243.796   6
   0   5  -6 2878.62 64.4911   6
   0   5  -5 3571.91 65.8268   6
   0   5  -4 12519.8 110.827   6
   0   5  -3 37.7469 28.9278   6
   0   5  -2 96.1320 23.8265   6
   0   5  -1 7913.87 84.4308   6
   0   5   0 18117.2 119.750   6
   0  -5   0 16401.8 77.8500   2
   0  -5  -1 6087.29 53.9801   0
   0   5   1 5697.41 73.6012   6
   0   5   2 56451.0 220.966   6
   0  -5  -2 58523.3 154.840   0
   0   5   3 90172.5 282.226   6
   0  -5  -3 77926.9 220.069   2
   0   5   4 7017.30 91.4830   6
   0  -5  -4 5350.22 63.2811   2
   0  -5  -5 756.012 46.0482   6
   0  -5  -5 699.251 30.2760   2
   0  -5  -6 15952.1 146.952   6
   0  -5  -6 12104.7 108.796   2
   0  -5  -7-29.9720 42.9232   6
   0  -5  -8 2615.75 76.8645   6
   0  -5  -9 602.407 54.6947   6
   0  -5 -10 2858.91 85.1453   6
   0  -5 -11 3323.74 94.0208   6
   0  -5 -12-27.5531 55.1548   6
   0  -5 -13 1355.06 76.1691   6
   0   6 -15 1060.90 78.9160   6
   0   6 -14 455.594 67.0975   6
   0   6 -13 410.394 63.9036   6
   0   6 -12 8049.10 134.088   6
   0   6 -11 7003.97 123.049   6
   0   6 -10 66.2334 50.0250   6
   0   6  -9 299.640 52.2030   6
   0   6  -8 5743.10 102.949   6
   0   6  -7 14252.1 143.695   6
   0   6  -6 9871.72 116.135   6
   0   6  -5 4183.69 81.3664   6
   0   6  -4 5.45887 36.1899   6
   0   6  -3 6193.36 85.1634   6
   0   6  -2 2841.37 63.2075   6
   0   6  -1 12316.1 117.090   6
   0   6   0 14153.1 120.962   6
   0  -6   0 15949.2 99.7434   0
   0   6   1 35041.0 188.260   6
   0   6   2 4633.86 75.3761   6
   0   6   3 9205.24 104.581   6
   0   6   4 2436.42 63.5240   6
   0   6   5 1704.20 60.7002   6
   0  -6  -6 2598.43 76.1596   6
   0  -6  -7 2.86087 46.9307   6
   0  -6  -8 551.748 51.4188   6
   0  -6  -9 1510.56 73.6633   6
   0  -6 -10 3783.27 104.400   6
   0  -6 -11 3557.11 101.379   6
   0  -6 -12 2212.51 85.9915   6
   0   7 -14 877.973 74.6497   6
   0   7 -13 858.900 66.3826   6
   0   7 -12 1693.79 81.3735   6
   0   7 -11 54.1452 59.7577   6
   0   7 -10 459.307 55.3010   6
   0   7  -9 733.032 56.9540   6
   0   7  -8 4868.13 95.2466   6
   0   7  -7 4765.60 95.1792   6
   0   7  -6 7282.36 113.314   6
   0   7  -5 64532.5 289.288   6
   0   7  -4 3215.70 73.2854   6
   0   7  -3 784.507 50.3856   6
   0   7  -2 13140.3 129.700   6
   0   7  -1 2938.94 66.0336   6
   0   7   0 90.1770 40.9822   6
   0   7   1 1974.74 57.1798   6
   0   7   2 22.2459 33.2809   6
   0   7   3 77.5047 34.3977   6
   0   7   4 1123.90 54.2980   6
   0   7   5 20170.3 181.433   6
   0  -7  -6 2765.75 80.8901   6
   0  -7  -7 1565.88 70.8727   6
   0  -7  -8 2682.01 84.2850   6
   0  -7  -9 2666.55 95.0288   6
   0  -7 -10-50.0445 61.6172   6
   0  -7 -11 49.2217 57.5280   6
   0   8 -13 3431.61 112.754   6
   0   8 -12 872.278 71.3036   6
   0   8 -11 447.142 67.5715   6
   0   8 -10 5661.35 119.294   6
   0   8  -9 3586.67 94.8716   6
   0   8  -8 1244.18 67.9211   6
   0   8  -7 54.4865 41.1985   6
   0   8  -6 252.703 47.7543   6
   0   8  -5 2576.64 76.9454   6
   0   8  -4 2656.69 76.7983   6
   0   8  -3 14773.8 151.786   6
   0   8  -2 6716.55 111.177   6
   0   8  -1 4980.15 92.9472   6
   0   8   0 9500.75 118.028   6
   0   8   1 5601.94 93.1082   6
   0   8   2-5.87624 40.7587   6
   0   8   3 678.102 47.1115   6
   0   8   4 10617.2 136.518   6
   0   8   5 89.0105 48.6652   6
   0  -8  -6 376.480 53.6856   6
   0  -8  -7 4020.50 106.320   6
   0  -8  -8 37.1643 50.9763   6
   0  -8  -9 1714.53 80.2978   6
   0  -8 -10 1053.19 72.1085   6
   0   9 -12 84.3822 70.4636   6
   0   9 -11-11.5964 54.4014   6
   0   9 -10 1161.49 71.4607   6
   0   9  -9 999.323 77.7374   6
   0   9  -8 219.322 54.4999   6
   0   9  -7 1111.22 67.0032   6
   0   9  -6 214.394 49.8993   6
   0   9  -5-34.3095 49.6845   6
   0   9  -4 1437.57 70.3903   6
   0   9  -3 8246.28 126.099   6
   0   9  -2 244.291 50.8856   6
   0   9  -1 11183.0 141.715   6
   0   9   0 27.4888 41.8462   6
   0   9   1 403.883 46.8344   6
   0   9   2 2067.12 72.9401   6
   0   9   3 32.8761 42.8543   6
   0   9   4 434.537 58.1847   6
   0   9   5 91.2478 52.0305   6
   0  -9  -6 9.38880 59.3780   6
   0  -9  -7 466.761 61.6701   6
   0  -9  -8 578.970 69.2905   6
   0  10 -10 2698.99 101.168   6
   0  10  -9 786.511 76.7494   6
   0  10  -8 2472.43 87.9953   6
   0  10  -7 3084.52 90.2002   6
   0  10  -6 237.511 59.6618   6
   0  10  -5 553.696 61.7218   6
   0  10  -4 5815.34 117.542   6
   0  10  -3 181.643 50.8669   6
   0  10  -2 529.419 57.5362   6
   0  10  -1 1182.87 62.6545   6
   0  10   0 344.119 54.3302   6
   0  10   1 320.483 50.8239   6
   0  10   2 8220.78 137.230   6
   0  10   3 5926.29 113.142   6
   0  10   4 827.472 68.5294   6
   0  10   5 1667.90 83.3325   6
   0 -10  -6 3561.74 107.034   6
   0  11  -8 601.954 67.7627   6
   0  11  -7 28.7722 63.3290   6
   0  11  -6 150.492 61.0033   6
   0  11  -5 72.1497 53.0850   6
   0  11  -4 856.466 67.4756   6
   0  11  -3 233.582 52.1978   6
   0  11  -2 296.058 50.9914   6
   0  11  -1 9.28205 44.5947   6
   0  11   0-20.7298 42.9968   6
   0  11   1 1458.57 74.3246   6
   0  11   2 1325.75 74.0835   6
   0  11   3 40.0715 55.6096   6
  -1  12  -1 137.481 58.2664   6
  -1  12  -2 155.254 61.0261   6
  -1  11   5 2196.03 87.3703   6
  -1  11   4 514.707 63.5344   6
  -1  11   3 1841.25 83.4975   6
  -1  11   2 2437.49 87.9091   6
  -1  11   1 2611.17 88.8030   6
   1 -11  -1 3053.45 103.042   3
  -1  11   0 60.9233 56.3381   6
  -1  11  -1 585.925 62.5352   6
  -1  11  -2 503.860 62.6981   6
  -1  11  -3 800.040 63.8108   6
  -1  11  -4 10.0912 61.2258   6
  -1  11  -5 2462.62 88.6304   6
  -1  11  -6 553.064 73.9839   6
  -1  11  -7 301.720 66.8501   6
  -1  11  -8 3258.61 106.164   6
   1 -10  -7 592.408 62.4515   6
   1 -10  -6 148.605 63.2994   6
  -1  10   5 986.137 65.6025   6
  -1  10   4-39.6612 53.5274   6
  -1  10   3 105.652 44.4367   6
  -1  10   2 5471.81 115.928   6
  -1  10   1 23.4187 52.2962   6
   1 -10   0 6377.99 122.264   3
  -1  10   0 4947.22 104.498   6
  -1  10  -1 2076.40 79.6191   6
  -1  10  -2 392.437 54.6598   6
  -1  10  -3 1506.65 79.8846   6
  -1  10  -4 625.243 62.6696   6
  -1  10  -5 1493.64 77.5159   6
  -1  10  -6 79.1169 48.1185   6
  -1  10  -7 429.681 62.1769   6
  -1  10  -8 538.039 72.1057   6
  -1  10  -9 192.785 68.8337   6
  -1  10 -10 108.534 64.2464   6
   1  -9  -9 740.829 73.0284   6
   1  -9  -8 111.261 58.2845   6
   1  -9  -7 1496.76 71.8206   6
   1  -9  -6 1220.77 74.4496   6
  -1   9   5 117.361 54.9740   6
  -1   9   4 2269.54 81.9803   6
  -1   9   3 8421.68 125.265   6
  -1   9   2 1379.77 69.6051   6
  -1   9   1 2031.06 70.6049   6
  -1   9   0 14182.7 154.262   6
   1  -9   1 5224.03 100.472   3
  -1   9  -1 4104.44 90.3641   6
  -1   9  -2 114.382 44.2466   6
  -1   9  -3 115.136 47.9683   6
   1  -9   3 183.162 34.8497   0
  -1   9  -4 2710.43 80.0008   6
  -1   9  -5 166.195 46.4287   6
  -1   9  -6 2129.83 78.0274   6
  -1   9  -7 13655.0 168.467   6
  -1   9  -8 1368.22 81.7292   6
  -1   9  -9 1327.74 76.0859   6
  -1   9 -10 8478.94 155.576   6
  -1   9 -11 5293.44 135.238   6
   1  -8 -11 344.196 62.0308   6
   1  -8 -10 39.1296 58.9762   6
   1  -8  -9-49.4222 57.4406   6
   1  -8  -8 7233.05 126.211   6
   1  -8  -7 1192.02 69.2368   6
   1  -8  -6 650.415 56.4635   6
  -1   8   5-7.49327 47.3572   6
  -1   8   4 781.670 54.6567   6
  -1   8   3 501.681 46.9254   6
  -1   8   2 683.657 47.4721   6
  -1   8   1 6098.41 97.4995   6
  -1   8   0 4534.36 94.2803   6
  -1   8  -1 6453.22 101.625   6
   1  -8   1 5225.45 83.1829   0
   1  -8   2 38415.7 214.399   0
  -1   8  -2 36418.9 227.136   6
  -1   8  -3 10303.8 131.655   6
  -1   8  -4 837.885 56.9842   6
  -1   8  -5 2161.60 70.9452   6
  -1   8  -6 1347.00 65.4906   6
  -1   8  -7-1.30532 44.5019   6
  -1   8  -8 103.485 51.4253   6
  -1   8  -9 5155.91 113.726   6
  -1   8 -10 530.760 61.9265   6
  -1   8 -11 66.7285 55.1487   6
  -1   8 -12 1192.32 95.3613   6
  -1   8 -13-126.425 76.6444   6
   1  -7 -12 3611.32 108.697   6
   1  -7 -11 1881.10 80.9522   6
   1  -7 -10-39.7734 48.8732   6
   1  -7  -9 1688.10 74.0048   6
   1  -7  -8 1013.36 62.2150   6
   1  -7  -7 696.634 54.3337   6
   1  -7  -6 21.0733 45.1561   6
  -1   7   5 1107.32 59.8522   6
  -1   7   4 4384.34 85.2898   6
  -1   7   3 1418.00 56.2991   6
  -1   7   2 1263.64 48.7548   6
   1  -7  -1 21253.5 144.153   0
  -1   7   1 21288.8 158.360   6
  -1   7   0 14179.3 133.387   6
   1  -7   0 14434.7 120.245   0
   1  -7   1 8103.15 95.3563   0
  -1   7  -1 7950.41 107.699   6
   1  -7   2 33113.1 197.492   3
  -1   7  -2 30094.6 198.114   6
  -1   7  -3 25950.9 179.651   6
   1  -7   3 23805.5 164.932   3
  -1   7  -4 77.2166 40.8957   6
  -1   7  -5 4548.34 90.0789   6
  -1   7  -6 1941.92 67.6634   6
  -1   7  -7 475.584 48.5604   6
  -1   7  -8 421.869 53.1930   6
  -1   7  -9 6823.33 119.973   6
  -1   7 -10 2610.88 88.6976   6
  -1   7 -11-6.41731 50.5374   6
  -1   7 -12 6811.43 132.679   6
  -1   7 -13 7439.59 145.839   6
  -1   7 -14 1096.32 75.3516   6
   1  -6 -13 3532.61 116.720   6
   1  -6 -12 1514.14 76.4986   6
   1  -6 -11 1552.11 75.9939   6
   1  -6 -10 215.079 52.2899   6
   1  -6  -9 3055.32 84.6354   6
   1  -6  -8-3.70326 45.2073   6
   1  -6  -7 10862.6 131.803   6
   1  -6  -6 51495.9 263.547   6
  -1   6   5 3908.42 81.3612   6
  -1   6   4 614.385 42.4165   6
  -1   6   3 16321.7 136.317   6
  -1   6   2 6887.61 83.7691   6
   1  -6  -2 7398.27 77.6928   0
   1  -6  -1 7618.61 82.1211   0
  -1   6   1 7385.55 88.3232   6
   1  -6   0 48405.0 207.302   2
  -1   6   0 50585.4 217.177   6
  -1   6  -1 42602.6 208.128   6
   1  -6   1 42333.0 192.174   0
   1  -6   2 33122.2 178.583   3
  -1   6  -2 29333.5 173.304   6
   1  -6   3 45.3091 26.5945   3
  -1   6  -3 12.2692 34.7792   6
   1  -6   4 27926.4 159.543   3
  -1   6  -4 35583.9 202.421   6
  -1   6  -5 8294.55 106.915   6
  -1   6  -6 328.462 46.3014   6
  -1   6  -7 6777.93 105.152   6
  -1   6  -8 10331.5 129.022   6
  -1   6  -9 801.703 55.1717   6
  -1   6 -10 426.791 53.8356   6
  -1   6 -11 474.020 59.5832   6
  -1   6 -12 6318.30 123.490   6
  -1   6 -13 273.739 55.6237   6
  -1   6 -14 1757.60 95.2853   6
   1  -5 -14 1511.41 92.0669   6
   1  -5 -13-77.9595 62.5516   6
   1  -5 -12 1521.04 72.5768   6
   1  -5 -12 1504.46 71.2825   2
   1  -5 -11 353.436 52.7678   2
   1  -5 -11 365.843 55.7105   6
   1  -5 -10 107.696 49.9350   6
   1  -5 -10 155.244 40.0575   2
   1  -5  -9 2676.49 77.2689   6
   1  -5  -9 2531.43 69.6728   2
   1  -5  -8 4050.96 88.6054   6
   1  -5  -8 3964.06 83.0217   2
   1  -5  -7 1902.10 61.8641   2
   1  -5  -7 1763.65 67.4823   6
   1  -5  -6 249.992 33.3818   2
   1  -5  -6 170.765 39.3209   6
   1  -5  -5 2618.66 58.9684   2
   1  -5  -5 1637.07 53.5801   6
  -1   5   4 4263.94 69.8733   6
   1  -5  -4 4639.24 69.1138   2
  -1   5   3 12544.2 109.789   6
   1  -5  -3 12989.2 97.9329   0
  -1   5   2 6619.48 73.8558   6
   1  -5  -2 7087.98 70.5910   0
   1  -5  -1 937.245 34.5563   2
  -1   5   1 847.743 37.1234   6
   1  -5  -1 954.714 33.4144   0
  -1   5   0 27776.0 153.403   6
   1  -5   0 28394.1 145.931   2
   1  -5   0 27059.4 141.974   0
   1  -5   1 49068.0 192.297   0
  -1   5  -1 48636.1 199.848   6
   1  -5   1 50554.4 134.751   5
   1  -5   2 2806.09 53.7261   3
  -1   5  -2 2409.15 53.0036   6
  -1   5  -3 47822.4 210.710   6
   1  -5   3 50361.5 197.352   3
  -1   5  -4 31036.5 173.040   6
   1  -5   4 33698.5 151.919   3
  -1   5  -5 28118.7 172.231   6
  -1   5  -6 385.796 38.5614   6
  -1   5  -7 76.5585 34.5575   6
  -1   5  -8 3274.46 75.0376   6
  -1   5  -9 1004.79 59.1237   6
  -1   5 -10 589.343 57.0913   6
  -1   5 -11 2061.66 75.6800   6
  -1   5 -12 136.187 57.8385   6
  -1   5 -13 170.230 52.3355   6
  -1   5 -14 748.036 67.1552   6
  -1   5 -15 335.379 63.0783   6
   1  -4 -15 209.808 61.3975   6
   1  -4 -14 3116.36 100.213   2
   1  -4 -14 3120.80 102.766   6
   1  -4 -13 1963.05 81.0874   6
   1  -4 -13 1682.43 74.7672   2
   1  -4 -12 97.6258 45.9336   2
   1  -4 -12 52.0502 54.4212   6
   1  -4 -11 10703.8 142.144   6
   1  -4 -11 10452.5 139.833   2
   1  -4 -10 454.467 48.8993   6
   1  -4 -10 545.050 48.2430   2
   1  -4  -9 566.263 50.4723   6
   1  -4  -9 609.192 46.0342   2
   1  -4  -8 69581.4 298.303   6
   1  -4  -8 70179.2 298.356   2
   1  -4  -7 1832.83 57.0843   6
   1  -4  -7 1864.30 55.1486   2
   1  -4  -6 39005.0 198.519   6
   1  -4  -6 39071.5 200.810   2
   1  -4  -5 5916.35 79.0563   6
   1  -4  -5 6003.98 79.0115   2
  -1   4   4 17709.9 127.338   6
   1  -4  -4 16551.6 121.447   2
   1  -4  -3 71827.8 208.990   0
   1  -4  -3 70974.9 228.573   2
  -1   4   3 69904.9 223.046   6
   1  -4  -2 2115.97 45.3151   2
   1  -4  -2 1947.30 38.7147   0
  -1   4   2 1878.53 39.3095   6
   1  -4  -1 58633.8 187.642   0
   1  -4  -1 60036.4 198.508   2
  -1   4   1 58044.9 191.211   6
   1  -4   0 87217.2 234.887   0
  -1   4   0 86643.9 231.554   6
   1  -4   0 89255.8 235.511   2
   1  -4   1 2663.08 46.5054   3
   1  -4   1 2593.91 32.2707   5
  -1   4  -1 2433.53 44.2995   6
   1  -4   1 2768.62 46.6721   2
  -1   4  -2 70042.2 222.863   6
   1  -4   2 71407.0 216.351   3
   1  -4   3 9523.02 77.0592   3
  -1   4  -3 9457.29 88.3184   6
  -1   4  -4 223200. 412.414   6
  -1   4  -5 125.102 27.3625   6
  -1   4  -6 5594.54 79.5719   6
  -1   4  -7 24335.9 165.894   6
  -1   4  -8 563.616 42.5147   6
  -1   4  -9 1829.03 64.0740   6
  -1   4 -10 43605.3 260.500   6
  -1   4 -11 1789.93 72.5114   6
  -1   4 -12 933.565 62.3657   6
  -1   4 -13 618.390 60.2460   6
  -1   4 -14 1635.03 75.7369   6
  -1   4 -15-102.427 67.6153   6
   1  -3 -15 4017.19 110.275   6
   1  -3 -15 4407.33 110.333   2
   1  -3 -14-26.5833 47.6414   2
   1  -3 -14 58.9819 55.3746   6
   1  -3 -13 4763.32 107.533   6
   1  -3 -13 4959.82 107.088   2
   1  -3 -12 232.383 42.2384   2
   1  -3 -12 131.160 48.8333   6
   1  -3 -11 240.315 45.7284   6
   1  -3 -11 234.647 45.0616   2
   1  -3 -10 2399.30 72.7768   6
   1  -3 -10 2318.52 70.3611   2
   1  -3  -9 102.770 43.8571   6
   1  -3  -9 126.418 39.6630   2
   1  -3  -8 20809.8 159.873   2
   1  -3  -8 21241.3 155.175   6
   1  -3  -7 15163.8 125.696   6
   1  -3  -7 15342.5 128.923   2
   1  -3  -6 7890.32 87.8072   6
   1  -3  -6 7943.82 90.4037   2
   1  -3  -5 230935. 415.426   6
   1  -3  -5 228728. 432.731   2
   1  -3  -4 24819.3 131.150   6
   1  -3  -4 24074.5 133.785   2
  -1   3   3 46795.0 167.311   6
   1  -3  -3 47273.7 180.808   2
   1  -3  -2 64749.5 184.184   0
  -1   3   2 66550.0 188.477   6
   1  -3  -2 65343.1 200.705   2
   1  -3  -1 19199.7 104.055   2
  -1   3   1 19373.3 95.1273   6
   1  -3  -1 19371.8 101.138   0
   1  -3   0 1550.00 32.9966   3
   1  -3   0 1517.14 31.9965   2
   1  -3   0 1541.47 31.7660   0
   1  -3   0 1530.81 23.8019   5
  -1   3   0 1435.43 29.0143   6
   1  -3   1 6245.61 48.4290   5
   1  -3   1 6652.08 63.2318   2
  -1   3  -1 6311.88 58.0878   6
   1  -3   1 6387.75 61.0583   3
   1  -3   2 20450.2 101.539   3
  -1   3  -2 19810.1 100.660   6
  -1   3  -3 115846. 255.211   6
  -1   3  -4 2143.87 45.1593   6
  -1   3  -5 55332.1 209.823   6
  -1   3  -6 8553.68 91.6875   6
  -1   3  -7 5884.66 82.4171   6
  -1   3  -8 1411.23 51.4720   6
  -1   3  -9 388.230 43.1172   6
  -1   3 -10 3366.78 80.9928   6
  -1   3 -11 48.3027 47.0563   6
  -1   3 -12 4857.74 105.642   6
  -1   3 -13 4185.45 102.392   6
  -1   3 -14 287.531 65.3705   6
  -1   3 -15-28.3542 55.2542   6
   1  -2 -16 3490.32 111.634   6
   1  -2 -15 62.0751 51.2877   6
   1  -2 -14 590.126 62.1723   6
   1  -2 -13-14.8103 50.8090   6
   1  -2 -12 247.682 47.1278   6
   1  -2 -11 15931.3 156.611   6
   1  -2 -10 7048.53 102.851   6
   1  -2  -9 224.011 42.0673   6
   1  -2  -8 25833.8 165.449   6
   1  -2  -7 8095.49 86.8876   6
   1  -2  -6 61779.3 212.027   6
   1  -2  -6 61502.8 224.883   2
   1  -2  -5 44554.5 168.972   6
   1  -2  -5 45754.5 183.252   2
   1  -2  -4 42696.5 168.926   2
   1  -2  -4 43043.4 149.992   6
   1  -2  -3 40193.6 131.381   6
   1  -2  -3 38705.7 151.038   2
   1  -2  -2 108466. 235.427   2
   1  -2  -2 109151. 218.927   0
  -1   2   2 109120. 197.469   6
   1  -2  -1 44140.2 148.736   2
   1  -2  -1 44104.5 147.543   3
  -1   2   1 43270.1 111.562   6
   1  -2  -1 43095.2 136.445   0
   1  -2   0 26483.1 102.700   0
   1  -2   0 28799.3 97.4277   5
   1  -2   0 27703.9 113.333   2
  -1   2   0 27306.4 87.4348   6
   1  -2   0 27916.8 113.193   3
   1  -2   1 9642.25 69.6105   2
  -1   2  -1 9341.11 56.2272   6
   1  -2   1 8684.78 61.5366   3
  -1   2  -2 999999. 2474.24   6
  -1   2  -3 796.232 27.2662   6
  -1   2  -4 67947.4 203.485   6
  -1   2  -5 134092. 311.556   6
  -1   2  -6 40708.7 187.031   6
  -1   2  -7 122.530 30.4170   6
  -1   2  -8 2201.79 57.6025   6
  -1   2  -9 2243.41 63.6438   6
  -1   2 -10 164.405 41.1647   6
  -1   2 -11 4998.76 95.6900   6
  -1   2 -12 10485.4 140.576   6
  -1   2 -13 628.995 62.2378   6
  -1   2 -14 1487.68 73.6230   6
  -1   2 -15 1457.55 74.5285   6
   1  -1 -16 1367.22 82.5239   6
   1  -1 -15 989.613 69.6537   6
   1  -1 -14 292.241 58.4314   6
   1  -1 -13 22304.8 198.705   6
   1  -1 -12 4644.59 96.4894   6
   1  -1 -11 10576.6 126.528   6
   1  -1 -10 44075.2 230.970   6
   1  -1  -9 61.4721 29.1601   6
   1  -1  -8 13086.2 112.918   6
   1  -1  -7 2236.47 47.4982   6
   1  -1  -6 8070.63 76.4588   6
   1  -1  -5 94.4268 20.4641   6
   1  -1  -4 3037.62 44.4100   2
   1  -1  -4 2983.66 37.5481   6
   1  -1  -3 529133. 1964.65   3
   1  -1  -3 533848. 1597.42   6
   1  -1  -3 528774. 2046.32   2
   1  -1  -2 210409. 1227.64   2
   1  -1  -2 213346. 1187.52   3
   1  -1  -1 307.791 14.4027   0
   1  -1  -1 302.239 15.4381   2
   1  -1  -1 302.717 16.1247   3
   1  -1   0 38028.6 120.282   2
   1  -1   0 39079.0 113.175   0
   1  -1   0 38282.5 109.485   5
   1  -1   0 38606.2 101.137   1
   1  -1   1 24280.8 89.4953   0
  -1   1  -2 338868. 1328.91   6
  -1   1  -3 573.341 23.3119   6
  -1   1  -4 20926.6 109.091   6
  -1   1  -5 3747.22 54.3439   6
  -1   1  -6 28728.5 153.911   6
  -1   1  -7 19026.2 134.700   6
  -1   1  -8 24844.2 164.231   6
  -1   1  -9 11769.7 122.666   6
  -1   1 -10 3485.89 77.4063   6
  -1   1 -11 6738.31 108.473   6
  -1   1 -12 414.240 56.7084   6
  -1   1 -13-50.5911 50.1778   6
  -1   1 -14 6913.12 130.504   6
  -1   1 -15 2177.73 83.1581   6
   1   0 -16 702.628 57.8995   6
   1   0 -15 1794.29 77.7733   6
   1   0 -14 451.646 57.8264   6
   1   0 -13 1598.49 68.0047   6
   1   0 -12 3803.90 87.4956   6
   1   0 -11 2645.84 71.4681   6
   1   0 -10 7595.36 99.0151   6
   1   0  -9 1323.85 46.9378   6
   1   0  -9 980.518 35.2935   4
   1   0  -8 4782.48 69.7851   6
   1   0  -8 4757.41 66.3467   4
   1   0  -8 4681.38 56.2483   3
   1   0  -7 25524.5 121.052   3
   1   0  -7 24898.0 136.955   4
   1   0  -6 207004. 359.317   6
   1   0  -6 205972. 369.588   4
   1   0  -5 5425.16 58.6823   4
   1   0  -5 5355.87 54.5790   6
   1   0  -5 5623.58 50.9846   3
   1   0  -4 6964.15 53.0989   3
   1   0  -4 6715.40 60.9552   4
   1   0  -4 6914.66 53.0919   6
   1   0  -3 206281. 1057.66   3
   1   0  -3 211831. 1198.40   2
   1   0  -3 222680. 1260.72   4
   1   0  -3 221160. 979.727   6
   1   0  -2 24842.1 90.6399   1
   1   0  -2 25484.7 99.8493   4
   1   0  -2 26017.9 97.3804   2
   1   0  -1 50193.5 124.288   2
   1   0  -1 49432.4 124.971   1
   1   0  -1 49726.0 127.281   4
   1   0   0 11011.5 58.1971   1
   1   0   0 11581.0 54.4428   0
   1   0   0 11025.9 58.8704   2
   1   0   0 10664.7 58.3297   5
   1   0   1 49672.6 109.657   0
   1   0   1 49762.0 122.319   1
  -1   0  -2 2192.18 28.7028   6
  -1   0  -3 66198.7 173.833   6
  -1   0  -4 128141. 268.701   6
  -1   0  -5 3156.14 50.7974   6
  -1   0  -6 266.562 26.4948   6
  -1   0  -7 41140.6 198.172   6
  -1   0  -8 2117.30 56.3012   6
  -1   0  -9 2223.29 62.2114   6
  -1   0 -10 49.0082 38.1288   6
  -1   0 -11 1994.78 69.5238   6
  -1   0 -12 8658.59 130.774   6
  -1   0 -13 9124.88 140.775   6
  -1   0 -14 2047.82 89.3742   6
  -1   0 -15 27.3664 58.4515   6
   1   1 -16 756.342 64.5412   6
   1   1 -15 1306.60 75.0603   6
   1   1 -14 2212.09 80.5677   6
   1   1 -13 8861.81 127.669   6
   1   1 -12 1910.97 69.8716   6
   1   1 -11 21152.4 167.700   6
   1   1 -10 21077.7 157.011   6
   1   1 -10 16282.0 130.021   4
   1   1  -9 4.75050 30.3751   6
   1   1  -9-0.34576 25.0453   4
   1   1  -8 23036.8 140.062   4
   1   1  -8 22934.8 142.565   6
   1   1  -7 21280.6 128.942   4
   1   1  -7 20099.2 127.119   6
   1   1  -7 20294.9 91.4750   3
   1   1  -6 32735.9 148.231   6
   1   1  -6 33133.8 151.607   4
   1   1  -6 32856.1 106.667   3
   1   1  -5 31658.3 99.1722   3
   1   1  -5 32065.3 141.162   4
   1   1  -5 32032.2 131.035   6
   1   1  -4 8530.41 60.9235   6
   1   1  -4 8625.90 69.8740   4
   1   1  -4 8719.84 60.2010   1
   1   1  -3 25584.2 110.036   4
   1   1  -3 24748.6 87.5960   6
   1   1  -3 25150.8 97.2107   1
   1   1  -2 19301.3 84.2761   1
   1   1  -2 20399.2 92.0922   4
   1   1  -2 19684.7 69.7777   6
   1   1  -2 19928.4 78.3838   2
   1   1  -1 241851. 892.498   6
   1   1  -1 237157. 1172.88   1
   1   1   0 495914. 1575.92   5
   1   1   0 501839. 1462.14   4
   1   1   0 496644. 1338.71   6
   1   1   1 104443. 191.774   6
  -1  -1  -2 33444.7 115.430   6
  -1  -1  -3 154466. 276.430   6
  -1  -1  -4 4627.31 55.5537   6
  -1  -1  -5 127.219 21.4808   6
  -1  -1  -6 7482.92 83.4356   6
  -1  -1  -7 1110.93 43.7174   6
  -1  -1  -8 185.543 33.8521   6
  -1  -1  -9 48.7113 36.6297   6
  -1  -1 -10 15686.1 155.456   6
  -1  -1 -11 2415.86 78.0345   6
  -1  -1 -12 15028.2 172.117   6
  -1  -1 -13 10252.0 152.683   6
  -1  -1 -14 1847.32 85.1974   6
  -1  -1 -15 312.162 54.6464   6
   1   2 -16 105.396 52.8522   6
   1   2 -15 2110.00 80.9687   6
   1   2 -14 2008.79 75.0628   6
   1   2 -13 2504.00 81.1099   6
   1   2 -12 13739.0 148.653   6
   1   2 -11 9.34817 41.2902   6
   1   2 -11 51.7268 27.8207   4
   1   2 -10 2199.12 62.3028   6
   1   2 -10 2246.23 56.4244   4
   1   2  -9 10683.3 105.487   4
   1   2  -9 10437.6 109.420   6
   1   2  -8 8458.34 88.9655   4
   1   2  -8 8227.72 92.9957   6
   1   2  -7 13536.2 107.149   6
   1   2  -6 2954.82 50.0352   6
   1   2  -5 4661.19 45.8944   1
   1   2  -5 4450.66 53.3234   6
   1   2  -4 30733.6 123.343   6
   1   2  -4 31426.7 113.500   1
   1   2  -3 27868.9 112.056   6
   1   2  -3 28440.5 108.938   1
   1   2  -2 275898. 1368.88   1
   1   2  -2 280966. 1061.68   2
   1   2  -1 6773.63 52.4605   6
   1   2   0 8530.37 52.8922   5
   1   2   0 8098.40 57.4349   6
   1   2   1 79918.3 194.855   6
   1   2   1 78483.3 169.174   5
   1   2   2 30532.7 136.685   6
  -1  -2  -3 7739.88 71.3482   6
  -1  -2  -4 40313.4 170.080   6
  -1  -2  -5 41893.5 188.829   6
  -1  -2  -6 7898.77 93.0179   6
  -1  -2  -7 12128.4 116.941   6
  -1  -2  -8 10806.3 120.145   6
  -1  -2  -9 4.24052 42.2726   6
  -1  -2 -10 4120.94 91.6349   6
  -1  -2 -11 18646.5 185.703   6
  -1  -2 -12 4703.12 107.335   6
  -1  -2 -13 964.437 65.3526   6
  -1  -2 -14 492.399 71.6705   6
   1   3 -16 534.879 61.7466   6
   1   3 -15 104.673 50.7765   6
   1   3 -14 630.256 54.8947   6
   1   3 -13 6093.45 111.551   6
   1   3 -12 1577.64 67.6382   6
   1   3 -11 3719.33 75.7632   4
   1   3 -11 3475.43 86.9825   6
   1   3 -10 7745.51 108.708   6
   1   3 -10 8169.34 101.262   4
   1   3  -9 16406.7 140.165   6
   1   3  -8 82045.4 284.757   6
   1   3  -7 661.643 36.6083   6
   1   3  -6 7423.61 78.4111   6
   1   3  -6 7699.09 61.0479   1
   1   3  -5 41443.4 168.989   6
   1   3  -5 41996.5 138.516   1
   1   3  -4 86.0206 15.3356   1
   1   3  -4 70.6152 22.1730   6
   1   3  -3 43328.3 146.946   1
   1   3  -3 43843.5 160.796   6
   1   3  -2 12465.8 83.9613   6
   1   3  -1 784.280 25.7805   6
   1   3   0 34517.1 139.105   6
   1   3   0 35402.9 100.768   5
   1   3   1 7760.88 69.5124   6
   1   3   1 8865.31 56.3612   5
   1   3   2 34845.7 154.170   6
   1   3   3 518.492 33.4698   6
  -1  -3  -4 42965.0 193.014   6
  -1  -3  -5 89444.4 292.416   6
  -1  -3  -6 426.835 38.9732   6
  -1  -3  -7 4384.54 82.4590   6
  -1  -3  -8 1483.65 59.1408   6
  -1  -3  -9 373.212 49.9781   6
  -1  -3 -10 1345.18 68.6340   6
  -1  -3 -11 3272.24 96.1063   6
  -1  -3 -12 172.477 50.5434   6
  -1  -3 -13 29.5704 48.7752   6
  -1  -3 -14-52.9819 58.5855   6
   1   4 -16 675.702 61.1277   6
   1   4 -15 210.455 55.9696   6
   1   4 -14 116.280 49.9178   6
   1   4 -13 835.242 57.7253   6
   1   4 -12 1675.65 71.8193   6
   1   4 -12 1780.46 62.5748   4
   1   4 -11 4768.39 98.2730   6
   1   4 -10 56345.6 276.038   6
   1   4  -9 32434.3 200.659   6
   1   4  -8 5999.17 89.5280   6
   1   4  -7 21807.7 148.470   6
   1   4  -6 919.843 24.5554   1
   1   4  -6 1339.33 43.6937   6
   1   4  -5 2626.14 39.8789   1
   1   4  -5 2721.34 54.2556   6
   1   4  -4 9154.71 72.3912   1
   1   4  -4 9286.78 88.9761   6
   1   4  -3 8729.85 82.7900   6
   1   4  -2 8484.32 80.3289   6
   1   4  -1 11171.8 92.3975   6
   1   4   0 40536.4 171.409   6
   1   4   1 47568.6 180.326   6
   1   4   1 39808.1 118.186   5
   1   4   2 14280.7 78.2100   5
   1   4   2 17220.2 122.109   6
   1   4   3 84907.2 278.202   6
  -1  -4  -4 35202.4 192.087   6
   1   4   4 34839.5 197.794   6
  -1  -4  -5 200.956 36.8150   6
  -1  -4  -6 15574.3 141.586   6
  -1  -4  -7 11079.1 129.412   6
  -1  -4  -8 20371.5 181.988   6
  -1  -4  -9 321.943 51.9534   6
  -1  -4 -10 1674.63 78.6154   6
  -1  -4 -11 2699.00 88.3541   6
  -1  -4 -12 1932.78 87.9849   6
  -1  -4 -13 5445.50 130.210   6
   1   5 -15 57.1485 47.0126   6
   1   5 -14 816.540 67.8777   6
   1   5 -13 94.0801 45.5506   6
   1   5 -12 297.005 49.3109   6
   1   5 -11 4412.01 95.5227   6
   1   5 -10 3757.04 88.2949   6
   1   5  -9 2456.39 75.9639   6
   1   5  -8 1673.93 58.6931   6
   1   5  -7 245.171 35.4482   6
   1   5  -6 10169.7 107.973   6
   1   5  -5 2792.40 61.5074   6
   1   5  -5 2130.48 39.6467   1
   1   5  -4 28493.2 138.136   1
   1   5  -4 27446.4 162.982   6
   1   5  -3 27001.2 154.255   6
   1   5  -2 1424.14 43.9060   6
   1   5  -1 359.626 29.8065   6
   1   5   0 39087.3 186.754   6
   1   5   1 353.707 32.8924   6
   1   5   2 5203.02 78.7051   6
   1   5   3 24501.6 163.324   6
   1   5   4 2521.28 67.4418   6
  -1  -5  -5 1075.96 54.1405   6
  -1  -5  -6 7778.89 111.209   6
  -1  -5  -7 7079.78 115.022   6
  -1  -5  -8 30.0821 54.8962   6
  -1  -5  -9 9940.50 143.096   6
  -1  -5 -10 42.3825 54.1842   6
  -1  -5 -11 172.285 48.5071   6
  -1  -5 -12-29.0198 65.0874   6
   1   6 -15 1550.91 84.1464   6
   1   6 -14 840.342 63.4251   6
   1   6 -13 135.650 50.5130   6
   1   6 -12 5603.97 109.886   6
   1   6 -11 564.910 57.8622   6
   1   6 -10 1498.28 67.4855   6
   1   6  -9 3836.99 86.7898   6
   1   6  -8 29058.1 206.868   6
   1   6  -7 15627.2 146.800   6
   1   6  -6 1761.39 60.5066   6
   1   6  -5 3185.31 69.1910   6
   1   6  -4 2444.20 59.6174   6
   1   6  -3 1337.11 48.9151   6
   1   6  -2 44.2346 30.9665   6
   1   6  -1 108.019 29.1223   6
   1   6   0 1054.43 45.7091   6
   1   6   1 4398.96 73.7646   6
   1   6   2 17673.1 146.846   6
   1   6   3 13100.8 128.767   6
   1   6   4 289.565 45.1470   6
  -1  -6  -5 6140.33 107.761   6
   1   6   5 6085.23 103.640   6
  -1  -6  -6 34899.7 240.122   6
  -1  -6  -7 665.701 62.8601   6
  -1  -6  -8 451.363 58.5955   6
  -1  -6  -9 3347.35 95.6087   6
  -1  -6 -10 437.092 62.3581   6
  -1  -6 -11 1464.89 85.5363   6
  -1  -6 -12-23.2297 49.4543   6
   1   7 -14-25.6249 64.6260   6
   1   7 -13 843.764 76.4155   6
   1   7 -12 10630.5 152.037   6
   1   7 -11 347.603 60.8407   6
   1   7 -10 281.978 52.0828   6
   1   7  -9 58.5896 43.7481   6
   1   7  -8 3244.72 83.5782   6
   1   7  -7 21.5416 49.5274   6
   1   7  -6 11762.2 132.604   6
   1   7  -5 59.7950 39.0700   6
   1   7  -4 3.38974 38.5505   6
   1   7  -3 1315.14 56.3127   6
   1   7  -2 7270.42 100.609   6
   1   7  -1-25.1422 38.3568   6
   1   7   0 8153.54 106.604   6
   1   7   1 29074.9 185.793   6
   1   7   2 3264.33 77.0596   6
   1   7   3 1121.47 54.1401   6
   1   7   4 11404.9 134.754   6
   1   7   5 509.713 59.1263   6
  -1  -7  -6 4063.23 101.507   6
  -1  -7  -7 1048.85 66.7350   6
  -1  -7  -8 8115.67 136.855   6
  -1  -7  -9 1929.33 86.2875   6
  -1  -7 -10-78.7905 62.2050   6
   1   8 -13 148.882 59.0460   6
   1   8 -12 205.299 63.5137   6
   1   8 -11-38.0048 53.4960   6
   1   8 -10 99.8424 55.7211   6
   1   8  -9 330.633 54.8385   6
   1   8  -8 1240.34 63.2857   6
   1   8  -7 1011.10 55.6320   6
   1   8  -6 5289.30 99.9611   6
   1   8  -5 8497.00 121.537   6
   1   8  -4 10.7855 51.2663   6
   1   8  -3 14.8927 47.8597   6
   1   8  -2 11461.5 131.363   6
   1   8  -1 1611.53 66.1784   6
   1   8   0 8231.01 112.840   6
   1   8   1 567.417 50.1670   6
   1   8   2 1687.73 67.4387   6
   1   8   3 398.953 48.3612   6
   1   8   4 1039.88 59.6819   6
   1   8   5 1810.90 74.2213   6
  -1  -8  -6 38.2376 64.8561   6
  -1  -8  -7 5295.01 121.207   6
  -1  -8  -8 12081.9 173.361   6
  -1  -8  -9 1158.41 83.1790   6
   1   9 -12 142.666 71.3274   6
   1   9 -11 242.422 67.6325   6
   1   9 -10 969.524 77.9648   6
   1   9  -9 784.975 60.5502   6
   1   9  -8 3690.37 95.6794   6
   1   9  -7 5744.95 109.153   6
   1   9  -6 1837.68 76.5757   6
   1   9  -5 945.157 62.9670   6
   1   9  -4 4614.15 100.410   6
   1   9  -3 431.082 55.4140   6
   1   9  -2 8452.70 126.162   6
   1   9  -1 2626.09 77.9016   6
   1   9   0 5312.98 97.9058   6
   1   9   1 1052.24 60.7279   6
   1   9   2 266.173 52.4295   6
   1   9   3 5424.00 105.347   6
   1   9   4 8445.28 133.757   6
   1   9   5 407.581 59.2490   6
  -1  -9  -6 5240.86 127.754   6
  -1  -9  -7 2138.87 97.9972   6
   1  10 -10 77.4354 63.4325   6
   1  10  -9 122.190 58.3823   6
   1  10  -8 176.774 61.7976   6
   1  10  -7-80.3650 60.8309   6
   1  10  -6 377.845 64.7703   6
   1  10  -5 2688.22 87.8866   6
   1  10  -4 33.6672 45.8187   6
   1  10  -3 344.169 57.3634   6
   1  10  -2 4324.69 100.518   6
   1  10  -1 73.1239 43.2626   6
   1  10   0 1089.46 61.8668   6
   1  10   1 276.590 60.7921   6
   1  10   2 2245.75 79.5074   6
   1  10   3 344.537 50.1794   6
   1  10   4 733.767 60.4700   6
   1  10   5 611.177 68.7042   6
   1  11  -7 175.529 66.2235   6
   1  11  -6 837.094 76.7353   6
   1  11  -5 2619.85 86.2226   6
   1  11  -4 5243.06 118.020   6
   1  11  -3 361.538 57.3642   6
   1  11  -2 168.779 57.7848   6
   1  11  -1 697.222 64.4215   6
   1  11   0 222.240 59.0497   6
   1  11   1 2302.35 92.2796   6
   1  11   2 5908.22 118.598   6
  -2  12  -2 1799.40 76.8010   6
  -2  12  -3 345.032 62.4676   6
   2 -11  -3 1598.09 89.3033   3
   2 -11  -2 847.271 77.0666   3
   2 -11  -1 489.328 71.6316   3
  -2  11   0 389.427 54.3935   6
  -2  11  -1 232.015 56.8910   6
  -2  11  -2 1660.76 86.5223   6
  -2  11  -3 10.0321 60.8723   6
  -2  11  -4-47.5246 65.2203   6
  -2  11  -5 2125.90 87.9315   6
   2 -11   6 2369.22 89.4064   0
  -2  11  -6 3327.00 112.433   6
  -2  11  -7 107.048 66.5548   6
   2 -11   7 27.2102 44.0144   0
   2 -11   8 20.9340 39.8550   0
   2 -10  -6 3200.86 107.459   3
   2 -10  -5 917.462 81.3346   3
   2 -10  -4 1498.48 81.7828   3
   2 -10  -3 4929.21 124.957   3
   2 -10  -2 12007.4 174.523   3
  -2  10   2 12180.9 163.370   6
  -2  10   1 1826.50 74.0413   6
   2 -10  -1 2244.97 92.6687   3
  -2  10   0 69.5485 54.2622   6
   2 -10   0 147.915 56.7111   3
  -2  10  -1 1817.47 81.4975   6
  -2  10  -2-8.42890 47.3620   6
  -2  10  -3 257.944 63.2919   6
   2 -10   3 166.862 41.2058   0
   2 -10   4 8914.18 140.333   0
  -2  10  -4 9054.08 143.353   6
   2 -10   5 2284.21 83.9611   0
  -2  10  -5 2259.17 88.6868   6
   2 -10   6 79.3607 53.7096   0
  -2  10  -6 161.548 58.0908   6
  -2  10  -7 3751.45 107.122   6
  -2  10  -8 7321.12 141.933   6
  -2  10  -9 953.293 70.3628   6
  -2  10 -10 122.694 70.1860   6
   2  -9  -8-3.33510 58.3376   3
   2  -9  -7 104.126 61.1027   3
   2  -9  -6 141.360 54.2313   3
   2  -9  -5 2499.51 94.3887   3
   2  -9  -4 489.630 59.7116   3
   2  -9  -3 161.399 56.7964   3
  -2   9   3 63.3250 47.0179   6
   2  -9  -2 1114.67 69.4142   3
  -2   9   2 1033.92 67.8662   6
   2  -9  -1 8325.87 137.568   3
  -2   9   1 7503.85 116.392   6
  -2   9   0 8550.25 128.642   6
   2  -9   0 8183.47 131.484   3
   2  -9   1-27.7115 45.2766   3
  -2   9  -1-0.49782 42.6352   6
   2  -9   1 11.1615 34.3135   0
   2  -9   2 1706.90 64.8924   0
  -2   9  -2 2215.37 76.6634   6
   2  -9   3 636.578 56.2345   0
  -2   9  -3 534.864 52.8191   6
  -2   9  -4 1843.60 74.7996   6
   2  -9   4 2039.38 74.9811   0
   2  -9   5 2350.17 80.5246   0
  -2   9  -5 2235.05 79.2023   6
  -2   9  -6 248.439 55.0915   6
  -2   9  -7 297.718 53.6852   6
  -2   9  -8 1303.18 77.7235   6
  -2   9  -9 80.4660 68.4831   6
  -2   9 -10 958.735 81.9361   6
  -2   9 -11-53.4535 65.7796   6
   2  -8 -10 3019.92 105.484   3
   2  -8  -9 1142.76 79.6032   3
   2  -8  -8 24.3232 48.0766   3
   2  -8  -7 2420.70 88.9583   3
   2  -8  -6 55.1596 45.8512   3
   2  -8  -5 3556.30 101.453   3
  -2   8   5 3464.11 93.5465   6
   2  -8  -4 24191.8 224.359   3
  -2   8   4 24196.9 196.983   6
  -2   8   3 620.009 52.1991   6
   2  -8  -3 751.095 58.4775   3
  -2   8   2 415.800 47.0831   6
   2  -8  -2 464.566 55.3392   3
   2  -8  -1 12245.2 152.329   3
  -2   8   1 11534.6 130.733   6
  -2   8   0 18478.6 168.241   6
   2  -8   0 17459.5 174.075   3
   2  -8   1 3643.01 87.9599   3
   2  -8   1 3622.05 81.4607   0
  -2   8  -1 3371.00 80.4062   6
  -2   8  -2 7204.69 112.530   6
   2  -8   2 7197.31 110.086   0
   2  -8   2 7650.41 120.474   3
   2  -8   3 12441.8 142.724   0
  -2   8  -3 12420.7 143.344   6
   2  -8   4 7248.25 112.740   0
  -2   8  -4 7098.15 113.476   6
  -2   8  -5 143.697 45.7105   6
  -2   8  -6 9977.37 140.196   6
  -2   8  -7 1115.16 68.6919   6
  -2   8  -8 25.2690 50.0338   6
  -2   8  -9 2765.81 94.7073   6
  -2   8 -10 6556.75 136.936   6
  -2   8 -11 424.629 73.7356   6
  -2   8 -12-79.3191 65.9571   6
   2  -7 -11 2956.92 99.5294   3
   2  -7 -10 19.9562 52.2794   3
   2  -7  -9 5295.62 119.650   3
   2  -7  -8 3063.73 96.6845   3
   2  -7  -7 590.566 59.0602   3
   2  -7  -6 450.527 56.6696   3
   2  -7  -6 340.699 41.0113   6
   2  -7  -5 171.545 50.6404   3
  -2   7   5 170.402 46.2123   6
   2  -7  -4 1762.08 69.8954   3
  -2   7   4 1512.38 59.1581   6
   2  -7  -3 1938.14 69.0065   3
  -2   7   3 1932.59 63.6193   6
   2  -7  -2 12394.7 145.078   3
   2  -7  -2 12146.4 124.813   0
  -2   7   2 11877.8 120.038   6
  -2   7   1 11827.4 120.363   6
   2  -7  -1 11930.6 139.361   3
   2  -7  -1 11769.8 125.513   0
   2  -7   0 1676.33 63.4683   3
   2  -7   0 1607.51 58.5765   0
  -2   7   0 1604.56 57.8183   6
   2  -7   1 7076.74 102.151   0
   2  -7   1 7938.65 113.880   3
  -2   7  -1 7762.65 104.184   6
  -2   7  -2 36382.7 217.328   6
   2  -7   2 37314.0 233.724   3
   2  -7   3-9.58511 35.8115   3
  -2   7  -3 1.35709 40.4068   6
  -2   7  -4 185.528 49.6619   6
  -2   7  -5 21595.2 182.610   6
  -2   7  -6 95.9436 48.9132   6
  -2   7  -7 4459.74 95.4793   6
  -2   7  -8 641.374 56.6709   6
  -2   7  -9 841.040 66.7924   6
  -2   7 -10 370.896 55.3956   6
  -2   7 -11 219.850 59.4745   6
  -2   7 -12 1499.82 88.9300   6
  -2   7 -13-76.4142 64.3918   6
   2  -6 -13 233.545 46.1937   3
   2  -6 -12 5551.30 123.892   3
   2  -6 -11 454.480 55.4618   3
   2  -6 -10 1110.35 70.2313   3
   2  -6  -9 1384.51 64.2444   2
   2  -6  -9 1403.95 68.8643   3
   2  -6  -8 25.4764 34.6644   2
   2  -6  -8-9.48295 41.7819   3
   2  -6  -7 993.740 60.1800   3
   2  -6  -7 686.605 43.4624   6
   2  -6  -7 902.874 55.0909   2
   2  -6  -6 19072.0 180.516   2
   2  -6  -6 17864.8 180.534   3
   2  -6  -5 289.562 45.6537   3
   2  -6  -5 246.094 44.3642   2
  -2   6   5 250.786 40.3126   6
   2  -6  -4 7296.86 112.369   3
   2  -6  -4 7945.94 100.024   0
  -2   6   4 7748.94 98.3755   6
   2  -6  -3 1300.37 58.2191   3
   2  -6  -3 1332.88 49.8204   0
  -2   6   3 1338.59 48.8753   6
   2  -6  -3 1460.98 55.5499   2
   2  -6  -2 25962.1 192.318   3
   2  -6  -2 27275.3 188.253   2
   2  -6  -2 25790.9 168.255   0
  -2   6   1 23711.4 153.378   6
   2  -6  -1 22871.2 162.634   0
   2  -6  -1 22743.9 176.932   3
   2  -6   0 237.900 38.9683   3
   2  -6   0 241.382 37.3009   0
  -2   6   0 225.177 36.4529   6
   2  -6   0 240.202 40.9949   2
  -2   6  -1 3953.91 72.7918   6
   2  -6   1 3688.38 70.7908   0
   2  -6   1 4212.26 81.1739   3
   2  -6   2 17819.5 147.710   0
  -2   6  -2 18112.2 139.536   6
   2  -6   2 18224.0 155.876   3
   2  -6   3 1421.88 53.5699   0
   2  -6   3 1335.76 53.7193   3
  -2   6  -3 1391.94 52.0545   6
  -2   6  -4 4300.48 79.7630   6
  -2   6  -5 31.4304 41.9121   6
  -2   6  -6 35510.2 223.044   6
  -2   6  -7 1154.56 59.3089   6
  -2   6  -8 273.733 44.2549   6
  -2   6  -9 3694.60 89.3912   6
  -2   6 -10 386.818 54.6587   6
  -2   6 -11 38.1614 51.1524   6
  -2   6 -12 8177.72 143.685   6
  -2   6 -13 254.804 67.3854   6
  -2   6 -14-108.291 65.9177   6
   2  -5 -14 918.552 76.8058   2
   2  -5 -13 2286.36 96.5007   2
   2  -5 -12 510.295 57.6091   2
   2  -5 -12 375.446 53.8693   3
   2  -5 -11 13322.2 168.705   3
   2  -5 -11 13587.2 173.058   2
   2  -5 -10 4196.72 98.0941   3
   2  -5 -10 3998.89 99.7147   2
   2  -5  -9 12976.8 154.973   2
   2  -5  -9 13042.5 155.675   3
   2  -5  -8 413.564 40.0100   6
   2  -5  -8 599.187 47.7722   2
   2  -5  -8 544.390 51.4574   3
   2  -5  -7-68.9379 35.6361   6
   2  -5  -7 5.77924 39.6248   2
   2  -5  -7 30.1045 40.7111   3
   2  -5  -6 41790.8 249.017   3
   2  -5  -6 40396.3 232.705   2
   2  -5  -5 2142.97 64.5876   3
   2  -5  -5 1877.19 52.9011   6
   2  -5  -5 2000.12 62.9619   2
  -2   5   4 6183.48 82.6327   6
   2  -5  -4 6322.32 97.9154   2
   2  -5  -3 40986.4 227.981   3
   2  -5  -3 42655.4 205.938   0
  -2   5   3 41653.6 186.347   6
   2  -5  -2 370.583 37.8518   3
   2  -5  -2 390.407 34.9226   0
  -2   5   2 340.421 29.7050   6
   2  -5  -2 278.333 43.3092   2
   2  -5  -1 27805.6 177.782   2
   2  -5  -1 26956.2 165.047   0
  -2   5   1 27013.9 149.638   6
   2  -5  -1 26428.3 178.408   3
  -2   5   0 101450. 283.543   6
   2  -5   0 99296.3 315.078   0
   2  -5   0 101751. 340.767   3
   2  -5   1 89345.9 252.616   5
  -2   5  -1 88765.5 267.204   6
   2  -5   1 90857.7 306.187   2
   2  -5   1 91392.4 320.745   3
   2  -5   2 3650.98 69.1664   0
   2  -5   2 3922.61 72.5080   3
   2  -5   2 3638.16 57.3792   5
  -2   5  -2 3776.51 64.3290   6
   2  -5   3 2100.42 46.9605   5
  -2   5  -3 2047.88 51.4916   6
  -2   5  -4 4912.62 77.1042   6
  -2   5  -5 10447.9 109.714   6
  -2   5  -6 2183.82 60.8524   6
  -2   5  -7 16403.3 148.590   6
  -2   5  -8 3545.66 80.2873   6
  -2   5  -9 666.444 49.4110   6
  -2   5 -10 493.150 50.9606   6
  -2   5 -11 1515.78 68.3901   6
  -2   5 -12 1623.00 74.9447   6
  -2   5 -13 399.285 62.0672   6
  -2   5 -14 3397.19 106.452   6
   2  -4 -14 1328.61 75.9531   2
   2  -4 -13 3932.25 108.548   2
   2  -4 -12 176.787 50.4435   2
   2  -4 -11 243.521 42.0604   3
   2  -4 -11 432.653 56.3489   2
   2  -4 -10 2122.57 72.3577   3
   2  -4 -10 2252.98 77.1313   2
   2  -4  -9 7932.77 119.199   2
   2  -4  -9 8031.76 118.080   3
   2  -4  -8 3310.33 78.9500   3
   2  -4  -8 3279.29 81.4480   2
   2  -4  -7 7570.60 111.562   2
   2  -4  -7 7502.69 109.208   3
   2  -4  -6 1443.87 52.9420   3
   2  -4  -6 1485.81 46.9351   6
   2  -4  -6 1484.66 56.4245   2
   2  -4  -5 4429.66 63.8189   6
   2  -4  -5 4338.79 74.9485   2
   2  -4  -5 4326.95 76.6660   3
   2  -4  -4 7258.73 97.0257   2
  -2   4   4 7677.54 82.1671   6
   2  -4  -3 8977.01 102.840   3
   2  -4  -3 9820.02 110.380   2
   2  -4  -3 9052.24 92.1867   0
  -2   4   3 9346.67 81.4963   6
  -2   4   2 4963.28 56.2655   6
   2  -4  -2 5103.50 75.8412   2
   2  -4  -2 5092.32 70.9799   0
   2  -4  -2 4889.18 75.9743   3
   2  -4  -1 7395.10 87.1017   2
   2  -4  -1 7638.95 84.8368   0
  -2   4   1 7448.44 67.8576   6
   2  -4  -1 7811.76 92.9815   3
   2  -4   0 82.1964 27.1781   3
  -2   4   0 75.3780 21.2394   6
   2  -4   0 32.4055 28.0846   0
   2  -4   0 55.8525 18.8293   5
   2  -4   0 82.3179 26.7612   2
  -2   4  -1 29996.7 139.353   6
   2  -4   1 28509.4 160.983   0
   2  -4   1 29700.1 174.102   3
   2  -4   1 30646.4 175.496   2
   2  -4   1 29076.6 143.075   5
   2  -4   2 15674.3 111.375   5
  -2   4  -2 15588.5 107.023   6
   2  -4   2 15132.7 119.885   0
  -2   4  -3 54714.5 207.525   6
  -2   4  -4 158848. 361.609   6
  -2   4  -5 9.36253 35.0871   6
  -2   4  -6 241.530 33.2753   6
  -2   4  -7 4075.83 78.0440   6
  -2   4  -8 3872.01 83.0955   6
  -2   4  -9 2496.30 73.3509   6
  -2   4 -10 2415.84 74.4761   6
  -2   4 -11 19.5873 42.5172   6
  -2   4 -12 1610.79 72.2331   6
  -2   4 -13 2829.99 91.3719   6
  -2   4 -14 1008.03 76.3619   6
   2  -3 -14 3185.61 107.159   2
   2  -3 -13 242.555 56.2399   2
   2  -3 -12 21.8208 52.3160   2
   2  -3 -11 12059.7 138.004   6
   2  -3 -11 11377.4 135.380   3
   2  -3 -11 11787.8 150.933   2
   2  -3 -10 866.620 48.8711   6
   2  -3 -10 902.480 47.8516   3
   2  -3 -10 1013.37 58.3255   2
   2  -3  -9 36222.8 220.713   3
   2  -3  -9 37479.2 239.242   2
   2  -3  -8 105119. 321.440   6
   2  -3  -8 106663. 377.405   2
   2  -3  -7 18559.3 148.786   3
   2  -3  -7 18692.2 129.667   6
   2  -3  -7 18163.9 155.341   2
   2  -3  -6 10888.7 113.316   3
   2  -3  -6 11077.4 93.2477   6
   2  -3  -6 10780.4 116.791   2
   2  -3  -5 2686.61 46.4943   6
   2  -3  -5 2563.14 58.1443   3
   2  -3  -5 2557.76 59.9575   2
   2  -3  -4 1910.71 37.5825   6
   2  -3  -4 1937.16 51.3220   2
  -2   3   3 925.036 27.4497   6
   2  -3  -3 912.181 40.0493   2
   2  -3  -3 863.562 37.1099   3
   2  -3  -3 911.962 36.1641   0
   2  -3  -2 1191.44 38.4505   0
   2  -3  -2 1110.70 39.1022   2
   2  -3  -2 1249.46 40.7642   3
  -2   3   2 1280.14 27.8807   6
  -2   3   1 66978.8 163.199   6
   2  -3  -1 65064.8 237.222   2
   2  -3  -1 65921.4 242.872   3
   2  -3  -1 65851.0 224.862   0
   2  -3   0 4.07788 21.8073   3
   2  -3   0 8.12697 20.2964   0
   2  -3   0 2.01078 18.7132   2
  -2   3   0 11.9723 15.1575   6
   2  -3   1 175.316 24.4735   0
   2  -3   1 156.938 19.9461   5
   2  -3   1 187.982 26.6916   2
  -2   3  -1 210.418 17.9756   6
  -2   3  -2 85775.3 214.554   6
   2  -3   2 87146.3 262.609   0
   2  -3   2 88377.0 256.022   5
  -2   3  -3 53686.4 184.711   6
  -2   3  -4 115491. 290.665   6
   2  -3   4 114650. 202.526   1
  -2   3  -5 803.990 43.7366   6
  -2   3  -6 21108.2 148.332   6
  -2   3  -7 6749.96 93.5559   6
  -2   3  -8 6081.04 94.6667   6
  -2   3  -9 3339.56 79.2859   6
  -2   3 -10 5384.15 100.150   6
  -2   3 -11 2491.61 79.0962   6
  -2   3 -12 456.698 57.3561   6
  -2   3 -13 1196.24 68.5822   6
  -2   3 -14 136.089 60.9661   6
  -2   3 -15-24.7969 65.7721   6
   2  -2 -15 4289.79 113.396   2
   2  -2 -14 33.5078 55.8292   2
   2  -2 -13 8193.86 141.191   2
   2  -2 -12-30.4492 38.0753   6
   2  -2 -12 48.3900 44.9767   2
   2  -2 -11 1029.59 51.8519   6
   2  -2 -11 1159.09 63.2968   2
   2  -2 -10 10143.4 116.817   3
   2  -2 -10 10383.8 116.239   6
   2  -2 -10 10687.7 137.152   2
   2  -2  -9 544.769 48.7296   2
   2  -2  -9 528.704 38.6005   3
   2  -2  -8 12060.3 117.565   3
   2  -2  -8 11995.5 108.583   6
   2  -2  -8 11964.8 128.140   2
   2  -2  -7 21.1710 25.8033   6
   2  -2  -7 28.4987 26.9656   3
   2  -2  -7 47.4030 34.3615   2
   2  -2  -6 24676.8 127.149   6
   2  -2  -6 23433.6 160.276   2
   2  -2  -6 24434.8 153.292   3
   2  -2  -5 142274. 268.829   6
   2  -2  -5 141609. 374.850   2
   2  -2  -5 141921. 354.938   3
   2  -2  -4 111579. 212.930   6
   2  -2  -4 111133. 316.847   2
   2  -2  -4 112117. 313.850   3
   2  -2  -3 15504.9 69.7726   6
   2  -2  -3 15912.4 119.662   2
   2  -2  -3 15941.9 117.654   3
   2  -2  -2 3664.79 56.6682   3
   2  -2  -2 3691.62 61.0751   2
   2  -2  -2 3639.43 54.6145   0
  -2   2   2 3777.39 31.8392   6
   2  -2  -1 1780.94 41.2444   2
   2  -2  -1 1878.40 41.1038   0
   2  -2   0 54.3134 16.9016   5
   2  -2   0 57.9183 17.1731   2
   2  -2   0 55.5895 18.5462   0
  -2   2   0 85.4683 10.7717   6
  -2   2  -1 55.1633 11.5286   6
   2  -2   1 53.9787 17.2071   0
   2  -2   1 14.6686 20.9142   2
   2  -2   1 49.8577 19.7606   5
   2  -2   1 19.3758 14.4349   1
  -2   2  -2 7191.47 58.2680   6
   2  -2   2 7486.55 62.4493   1
   2  -2   2 7832.67 76.6044   0
   2  -2   2 7569.83 76.4089   5
   2  -2   3 455.093 21.4658   1
  -2   2  -3 454.759 25.1487   6
   2  -2   4 30380.8 123.711   1
  -2   2  -4 29687.8 144.587   6
  -2   2  -5 79075.3 254.864   6
   2  -2   5 80549.0 198.761   1
  -2   2  -6 21282.3 142.099   6
  -2   2  -7 3632.33 69.0148   6
  -2   2  -8 15881.9 140.804   6
  -2   2  -9 1165.99 54.9811   6
  -2   2 -10 754.998 51.4631   6
  -2   2 -11 1527.18 68.3165   6
  -2   2 -12 1198.27 66.3066   6
  -2   2 -13 1825.32 78.9921   6
  -2   2 -14 175.996 62.5954   6
  -2   2 -15 3140.73 105.818   6
   2  -1 -15 1239.81 79.8830   2
   2  -1 -14 331.758 49.5433   2
   2  -1 -13 152.682 42.7133   6
   2  -1 -13 196.319 49.6309   2
   2  -1 -12 347.667 52.0409   2
   2  -1 -12 425.268 44.6936   6
   2  -1 -11 10909.7 121.195   6
   2  -1 -11 11280.7 141.611   2
   2  -1 -10 1452.83 50.8932   6
   2  -1 -10 1572.03 62.0429   2
   2  -1  -9 15159.0 121.903   6
   2  -1  -9 14958.9 147.881   2
   2  -1  -9 14343.7 120.464   3
   2  -1  -8 5589.27 74.6264   3
   2  -1  -8 5987.96 90.2785   2
   2  -1  -8 5889.36 73.3641   6
   2  -1  -7 119.467 32.4312   2
   2  -1  -7 142.401 24.6639   3
   2  -1  -7 80.2092 24.3607   6
   2  -1  -6 82652.3 217.668   6
   2  -1  -6 80828.2 279.105   2
   2  -1  -5 12578.2 109.323   2
   2  -1  -5 13007.1 77.2208   6
   2  -1  -5 12870.3 102.478   3
   2  -1  -4 33374.4 103.970   6
   2  -1  -4 33416.8 158.846   3
   2  -1  -4 33265.9 169.039   2
   2  -1  -3 622.553 12.4256   6
   2  -1  -3 910.021 31.3467   2
   2  -1  -2 76.2437 17.7400   1
   2  -1  -2 70.1947 20.8273   2
   2  -1  -1 14087.0 91.7816   1
   2  -1  -1 13856.8 97.7482   2
   2  -1  -1 15034.8 97.3091   0
   2  -1  -1 14055.3 94.6465   5
   2  -1   0 24153.5 127.741   5
   2  -1   0 23450.9 116.642   1
   2  -1   0 22736.6 123.668   2
   2  -1   0 24004.3 119.913   0
   2  -1   1 31617.8 151.558   2
   2  -1   1 30519.5 133.033   1
   2  -1   1 31176.0 137.400   0
  -2   1  -1 30670.0 92.2254   6
   2  -1   1 30520.9 145.313   5
   2  -1   2 110405. 259.239   0
   2  -1   2 107681. 245.995   1
  -2   1  -2 109171. 212.082   6
  -2   1  -3 62775.0 183.611   6
   2  -1   3 64609.0 199.751   0
   2  -1   3 63643.7 190.896   1
  -2   1  -4 9136.57 80.3160   6
   2  -1   4 9026.50 73.9404   1
   2  -1   5 22159.0 115.003   1
  -2   1  -5 21590.5 131.714   6
  -2   1  -6 1349.18 43.7575   6
  -2   1  -7 571.387 37.8266   6
  -2   1  -8 12482.3 125.342   6
  -2   1  -9 3515.18 77.3139   6
  -2   1 -10 7754.25 113.447   6
  -2   1 -11 6476.80 110.784   6
  -2   1 -12 624.447 56.2694   6
  -2   1 -13 2401.11 87.0175   6
  -2   1 -14 3259.21 98.2627   6
  -2   1 -15 841.858 75.8019   6
   2   0 -15 1307.11 71.3089   2
   2   0 -14 1274.92 64.4921   6
   2   0 -14 1414.08 73.5145   2
   2   0 -13 10925.6 133.045   6
   2   0 -13 12256.5 153.842   2
   2   0 -12 4421.00 84.6828   6
   2   0 -12 4776.90 96.1397   2
   2   0 -11 7170.60 98.5849   6
   2   0 -11 7546.94 114.900   2
   2   0 -10 22317.8 155.352   6
   2   0 -10 22941.8 178.364   2
   2   0  -9 317.644 31.4919   6
   2   0  -9 386.753 40.1466   2
   2   0  -8 15936.3 113.903   6
   2   0  -8 16106.9 136.965   2
   2   0  -8 15696.0 132.463   4
   2   0  -8 15566.7 112.122   3
   2   0  -7 12019.5 91.5509   6
   2   0  -7 12699.5 116.762   2
   2   0  -7 11851.9 112.036   4
   2   0  -7 12050.1 97.7156   3
   2   0  -6 2488.05 41.6363   6
   2   0  -6 2328.85 54.2585   4
   2   0  -6 2470.79 53.9469   2
   2   0  -6 2446.37 45.9086   3
   2   0  -5 21060.7 136.109   4
   2   0  -5 22269.6 99.1663   6
   2   0  -5 21122.2 132.725   2
   2   0  -4 353.879 25.7353   1
   2   0  -4 297.618 14.4561   6
   2   0  -4 291.617 26.0172   4
   2   0  -4 349.926 26.7592   2
   2   0  -3 53992.0 185.352   1
   2   0  -3 53624.1 187.823   2
   2   0  -2 26408.9 128.966   1
   2   0  -2 26693.1 132.929   2
   2   0  -1 15740.2 97.8052   2
   2   0  -1 15994.3 101.631   5
   2   0   0 284799. 1635.36   2
   2   0   0 288083. 1544.66   0
   2   0   0 285748. 1746.87   5
  -2   0  -1 20348.4 77.9842   6
   2   0   1 20345.2 114.263   1
   2   0   1 19909.5 118.902   5
   2   0   1 20896.8 104.331   0
  -2   0  -2 19008.4 90.5962   6
   2   0   2 19746.1 100.329   0
   2   0   2 19066.2 109.166   1
   2   0   2 19547.0 122.491   5
  -2   0  -3 24881.3 119.254   6
   2   0   3 25354.1 115.786   0
  -2   0  -4 803.313 29.8514   6
  -2   0  -5 19158.6 125.434   6
  -2   0  -6 6699.41 83.3564   6
  -2   0  -7 24863.8 164.398   6
  -2   0  -8 789.321 44.4543   6
  -2   0  -9 452.310 44.8671   6
  -2   0 -10 35363.6 232.750   6
  -2   0 -11 8426.63 126.088   6
  -2   0 -12 5.49806 50.9313   6
  -2   0 -13 2516.50 90.0774   6
  -2   0 -14 2001.66 89.9671   6
   2   1 -16 522.736 66.6946   2
   2   1 -15 2630.83 83.2771   6
   2   1 -15 2833.43 91.6363   2
   2   1 -14 197.982 45.9320   6
   2   1 -13 527.253 50.3594   6
   2   1 -12 12881.7 137.804   6
   2   1 -11 79.6276 40.9045   6
   2   1 -11 76.8271 38.7564   4
   2   1 -10 8203.50 100.601   6
   2   1 -10 8499.53 109.034   4
   2   1  -9 1126.23 41.1522   6
   2   1  -9 1096.10 48.3455   4
   2   1  -8 7222.07 90.3404   2
   2   1  -8 7610.17 82.4205   6
   2   1  -8 7326.43 94.7560   4
   2   1  -7 13791.1 101.170   6
   2   1  -7 13701.4 120.933   4
   2   1  -7 13359.8 113.813   2
   2   1  -6 109001. 253.739   6
   2   1  -6 109622. 319.900   4
   2   1  -6 110406. 305.212   2
   2   1  -5 30147.1 120.396   6
   2   1  -5 29925.0 151.542   2
   2   1  -5 29621.0 143.560   1
   2   1  -5 29815.8 161.014   4
   2   1  -4 1007.96 23.3575   6
   2   1  -4 1070.16 34.1786   1
   2   1  -4 1041.41 33.0484   2
   2   1  -4 1050.44 35.0794   4
   2   1  -3 29548.1 140.732   1
   2   1  -3 30005.6 137.163   2
   2   1  -3 29635.9 146.392   4
   2   1  -3 31247.8 100.368   6
   2   1  -2 8265.99 76.4663   1
   2   1  -2 8119.49 69.7544   2
   2   1  -2 8199.07 75.9419   4
   2   1  -2 8423.73 49.1950   6
   2   1  -1 29984.0 126.968   2
   2   1  -1 31039.2 143.699   1
   2   1  -1 30477.0 138.229   5
   2   1  -1 31257.6 138.073   4
   2   1  -1 30817.0 90.5129   6
   2   1   0 25167.4 129.883   1
   2   1   0 24299.4 127.450   5
   2   1   0 24371.7 115.856   4
   2   1   0 24762.4 92.9685   6
   2   1   0 25168.5 120.910   2
  -2  -1  -1 19932.7 89.8625   6
   2   1   1 20548.8 91.7662   0
   2   1   1 19864.3 117.613   5
   2   1   1 20040.7 117.640   1
   2   1   1 20158.6 99.7046   4
  -2  -1  -2 162092. 285.170   6
   2   1   2 163313. 349.069   5
  -2  -1  -3 104517. 250.025   6
   2   1   3 102862. 203.456   0
   2   1   4 5831.94 53.0605   0
  -2  -1  -4 5704.42 67.1604   6
  -2  -1  -5 25261.8 147.265   6
  -2  -1  -6 3332.09 63.0935   6
  -2  -1  -7 10729.9 116.838   6
  -2  -1  -8 4383.31 81.7826   6
  -2  -1  -9 1329.81 60.0634   6
  -2  -1 -10 1879.19 71.3905   6
  -2  -1 -11 149.320 51.0329   6
  -2  -1 -12 2143.45 86.2648   6
  -2  -1 -13 16292.9 192.945   6
  -2  -1 -14 1522.44 82.9083   6
   2   2 -15 2278.93 82.3734   6
   2   2 -14 1839.57 69.7629   6
   2   2 -13 1008.36 62.0073   6
   2   2 -12-0.87742 41.7849   6
   2   2 -12 3.16042 39.3626   4
   2   2 -11 5026.25 86.9235   6
   2   2 -11 4833.77 90.3113   4
   2   2 -10 2039.10 58.0900   6
   2   2 -10 1881.26 59.0211   4
   2   2  -9 407.514 37.8514   6
   2   2  -9 426.476 37.2295   4
   2   2  -8 51005.8 211.887   6
   2   2  -8 50422.8 238.562   4
   2   2  -7 17862.3 118.520   6
   2   2  -7 17168.0 136.411   4
   2   2  -7 17148.3 124.710   2
   2   2  -6 33896.7 151.290   6
   2   2  -6 33108.0 162.910   2
   2   2  -6 33115.5 179.293   4
   2   2  -6 33865.2 157.963   1
   2   2  -5 85724.2 220.530   6
   2   2  -5 84072.0 244.910   1
   2   2  -5 83897.2 274.551   4
   2   2  -4 8468.39 80.5955   1
   2   2  -4 9125.69 71.6329   6
   2   2  -4 8555.63 75.5288   2
   2   2  -4 8599.88 87.0940   4
   2   2  -3 3052.76 41.4018   6
   2   2  -3 2871.51 49.2072   1
   2   2  -3 3035.32 43.2330   2
   2   2  -3 2994.25 52.1598   4
   2   2  -2 1405.55 36.9490   1
   2   2  -2 1405.53 29.9006   2
   2   2  -2 1424.55 36.6677   4
   2   2  -2 1476.79 29.6916   6
   2   2  -1 1759.24 30.2669   2
   2   2  -1 1860.05 38.4266   4
   2   2  -1 1879.82 32.2946   6
   2   2  -1 2032.24 43.8136   1
   2   2   0 7871.87 60.5626   2
   2   2   0 7510.82 75.8276   1
   2   2   0 7776.59 64.2958   6
   2   2   0 7553.25 72.8469   5
   2   2   0 7502.57 67.1088   4
   2   2   1 32976.9 139.376   6
   2   2   1 32482.3 149.275   5
   2   2   1 31996.5 126.111   4
  -2  -2  -2 38461.1 156.689   6
   2   2   2 39922.8 174.124   5
   2   2   2 39450.5 106.833   0
   2   2   2 39883.2 131.788   4
  -2  -2  -3 19115.0 118.629   6
   2   2   3 18075.8 71.3834   0
   2   2   3 19353.0 82.6581   4
  -2  -2  -4 27546.2 154.416   6
   2   2   4 27358.8 93.3331   0
  -2  -2  -5 23076.0 149.397   6
  -2  -2  -6 12694.8 119.781   6
  -2  -2  -7 2189.06 60.6276   6
  -2  -2  -8 6475.07 100.534   6
  -2  -2  -9 3899.21 90.7664   6
  -2  -2 -10 8386.00 129.182   6
  -2  -2 -11 272.297 54.0019   6
  -2  -2 -12 8027.11 139.838   6
  -2  -2 -13 6180.54 128.374   6
  -2  -2 -14 599.780 69.8407   6
   2   3 -16 297.474 50.1840   6
   2   3 -15 292.066 53.8121   6
   2   3 -14 497.125 56.2858   6
   2   3 -13 3285.08 84.9846   6
   2   3 -12 7182.26 112.245   6
   2   3 -12 7127.01 110.258   4
   2   3 -11 43.4860 43.0413   6
   2   3 -11 60.0339 37.4868   4
   2   3 -10 4068.48 78.5109   6
   2   3 -10 4053.92 81.2461   4
   2   3  -9 498.728 42.8329   4
   2   3  -9 445.610 37.6191   6
   2   3  -8 7350.23 88.7056   6
   2   3  -8 7302.71 97.9812   4
   2   3  -7 15205.9 116.888   6
   2   3  -7 14943.9 130.707   4
   2   3  -7 14113.5 108.982   2
   2   3  -7 14863.8 109.142   1
   2   3  -6 47.7955 30.0848   4
   2   3  -6 82.2083 23.7737   6
   2   3  -6 83.4207 20.6538   1
   2   3  -6 105.893 20.9217   2
   2   3  -5 27.9707 22.0541   1
   2   3  -5 43.4024 22.2704   6
   2   3  -5 43.1052 18.0472   2
   2   3  -4 8255.45 83.0043   1
   2   3  -4 8291.71 71.2373   2
   2   3  -4 8805.52 82.8026   6
   2   3  -3 2318.15 49.3408   1
   2   3  -3 2104.98 35.1588   2
   2   3  -3 2085.21 43.8793   6
   2   3  -2 144184. 239.690   2
   2   3  -2 146463. 339.262   1
   2   3  -2 147087. 294.674   6
   2   3  -1 32050.5 108.633   2
   2   3  -1 31296.2 140.197   6
   2   3   0 19740.2 110.741   5
   2   3   0 18058.4 104.790   6
   2   3   1 21255.3 118.967   6
   2   3   1 24504.7 129.791   5
   2   3   2 2204.78 36.4843   4
   2   3   2 2255.26 46.3900   5
   2   3   2 2036.73 48.3112   6
  -2  -3  -3 20640.3 136.850   6
   2   3   3 19958.4 93.6553   4
  -2  -3  -4 26521.6 160.595   6
  -2  -3  -5 85425.1 300.361   6
  -2  -3  -6 13979.9 134.985   6
  -2  -3  -7 4249.65 85.3476   6
  -2  -3  -8 16490.4 159.728   6
  -2  -3  -9 2368.02 80.8960   6
  -2  -3 -10 5043.41 107.765   6
  -2  -3 -11 10579.6 156.049   6
  -2  -3 -12 306.515 65.5199   6
  -2  -3 -13 687.701 72.6520   6
   2   4 -16 712.426 63.3318   6
   2   4 -15 203.949 55.3504   6
   2   4 -14 1101.96 68.6863   6
   2   4 -13 6113.40 110.361   6
   2   4 -13 6018.10 110.013   4
   2   4 -12 538.939 54.0069   6
   2   4 -12 591.117 50.6685   4
   2   4 -11 898.603 61.0357   6
   2   4 -11 1002.69 56.6088   4
   2   4 -10 6579.41 100.168   6
   2   4 -10 6333.59 101.282   4
   2   4  -9 53.0187 36.2698   6
   2   4  -9 121.572 42.0774   4
   2   4  -8 604.675 41.2613   6
   2   4  -7 6095.41 71.3070   2
   2   4  -7 6499.43 84.3635   6
   2   4  -6 1019.46 36.1027   1
   2   4  -6 1113.35 32.1177   2
   2   4  -6 1164.06 41.1728   6
   2   4  -5 1285.11 37.9816   1
   2   4  -5 1277.77 31.3208   2
   2   4  -5 1565.12 45.5875   6
   2   4  -4 979.718 36.9240   1
   2   4  -4 1009.49 27.3978   2
   2   4  -4 1025.98 36.7338   6
   2   4  -3 17661.6 86.7439   2
   2   4  -3 18234.2 128.384   1
   2   4  -3 18261.0 123.594   6
   2   4  -2 61.9087 27.7483   1
   2   4  -2 29.3674 27.4816   6
   2   4  -2 51.2908 10.4278   2
   2   4  -1 12357.9 102.536   6
   2   4   0 2201.83 47.2157   6
   2   4   0 2418.85 42.2926   5
   2   4   1 3937.76 55.5600   5
   2   4   1 3686.95 63.0343   6
   2   4   2 1037.21 33.8799   5
   2   4   2 898.547 41.8946   6
   2   4   3 3210.88 68.6867   6
   2   4   3 3379.10 57.5410   5
  -2  -4  -4 1020.81 51.9210   6
  -2  -4  -5 4776.24 85.7853   6
  -2  -4  -6 9339.12 118.638   6
  -2  -4  -7-48.1667 48.8675   6
  -2  -4  -8 6676.08 115.966   6
  -2  -4  -9-40.2823 52.9739   6
  -2  -4 -10 26.7823 57.1346   6
  -2  -4 -11 1399.07 74.4500   6
  -2  -4 -12 217.821 62.9378   6
   2   5 -16 373.144 62.8167   6
   2   5 -15 331.379 59.5083   6
   2   5 -14 67.3279 46.5712   6
   2   5 -14 52.0330 46.3976   4
   2   5 -13 335.148 43.7816   4
   2   5 -13 261.608 48.4701   6
   2   5 -12 977.804 64.2646   6
   2   5 -12 1065.81 62.5112   4
   2   5 -11 3535.05 85.9926   4
   2   5 -11 3674.10 88.6218   6
   2   5 -10 48099.6 268.868   6
   2   5  -9 1065.97 53.9883   6
   2   5  -8 6742.10 99.7429   6
   2   5  -7 13644.8 130.277   6
   2   5  -6 145.907 23.2086   1
   2   5  -6 260.615 36.6597   6
   2   5  -5 1404.80 42.7777   1
   2   5  -5 1376.96 46.0070   6
   2   5  -4 10537.7 102.518   1
   2   5  -4 10262.0 103.678   6
   2   5  -3 2975.69 59.5850   1
   2   5  -3 2887.59 59.8021   6
   2   5  -2 84.8577 26.8938   6
   2   5  -1 872.937 39.8725   6
   2   5   0 16320.6 126.534   6
   2   5   1 534.326 40.8818   6
   2   5   2 24255.8 161.742   6
   2   5   3 96264.6 336.160   6
  -2  -5  -4 22545.0 179.323   6
  -2  -5  -5 6541.02 106.161   6
  -2  -5  -6 17284.5 166.633   6
  -2  -5  -7 4551.13 102.386   6
  -2  -5  -8 14332.4 168.802   6
  -2  -5  -9 467.738 57.9209   6
  -2  -5 -10 3583.08 102.583   6
  -2  -5 -11 232.334 52.8474   6
  -2  -5 -12 15.6080 60.8539   6
   2   6 -15 57.9719 50.9535   6
   2   6 -14-24.9252 42.3970   4
   2   6 -13-98.4323 56.5266   6
   2   6 -13-0.36454 47.5465   4
   2   6 -12 893.805 67.2447   6
   2   6 -11 331.488 52.1130   6
   2   6 -10 4315.85 97.6337   6
   2   6  -9 5807.86 103.256   6
   2   6  -8 2455.50 75.7656   6
   2   6  -7 2171.39 69.7661   6
   2   6  -6 368.909 41.0494   6
   2   6  -5 4071.62 69.2086   1
   2   6  -5 4883.53 81.0455   6
   2   6  -4 3207.56 63.6424   1
   2   6  -4 3165.70 69.9708   6
   2   6  -3 1519.90 53.6476   6
   2   6  -2 2327.45 57.3687   6
   2   6  -1 5024.43 83.8069   6
   2   6   0 5505.96 86.3816   6
   2   6   1 7012.81 103.266   6
   2   6   2 9537.72 110.670   6
   2   6   3 757.833 51.8861   6
   2   6   4 10548.5 133.295   6
  -2  -6  -5 19764.0 184.586   6
  -2  -6  -6 8641.54 132.310   6
  -2  -6  -7-29.0191 59.4825   6
  -2  -6  -8 2178.00 87.7375   6
  -2  -6 -10 1216.43 78.2762   6
  -2  -6 -11 70.4302 59.8927   6
   2   7 -15 215.596 43.2457   4
   2   7 -14 96.8953 52.7998   6
   2   7 -14 202.557 56.2252   4
   2   7 -13 183.184 58.0084   6
   2   7 -12 3211.31 96.1463   6
   2   7 -11 1851.82 80.4383   6
   2   7 -10 17.1907 47.0004   6
   2   7  -9 18.3489 46.8906   6
   2   7  -8 2062.89 72.1951   6
   2   7  -7 1067.67 59.7381   6
   2   7  -6 4324.33 86.9852   6
   2   7  -5 15562.1 153.911   6
   2   7  -4 2960.75 65.8734   1
   2   7  -4 3901.55 84.2972   6
   2   7  -3 930.657 52.9178   6
   2   7  -2 8769.02 113.928   6
   2   7  -1 35.3213 41.5137   6
   2   7   0 12959.7 132.193   6
   2   7   1 25.4354 44.5042   6
   2   7   2 102.516 37.0601   6
   2   7   3 22.1483 42.0563   6
   2   7   4 1644.43 68.8071   6
  -2  -7  -5 27387.4 236.192   6
  -2  -7  -6 19889.1 203.487   6
  -2  -7  -7 91.6088 56.6495   6
  -2  -7  -8 1797.08 83.5669   6
  -2  -7  -9 1154.44 83.7481   6
   2   8 -13 742.714 73.9549   6
   2   8 -12 1271.64 75.2521   6
   2   8 -11 75.3447 54.6886   6
   2   8 -10 1921.26 85.0928   6
   2   8  -9 2554.01 81.2509   6
   2   8  -8 422.517 50.4488   6
   2   8  -7 3837.63 92.7605   6
   2   8  -6 5449.69 106.201   6
   2   8  -5 3857.74 93.2806   6
   2   8  -4 7905.46 126.163   6
   2   8  -3 18638.5 168.541   6
   2   8  -2 3473.00 86.7868   6
   2   8  -1 3049.19 79.9671   6
   2   8   0 19977.1 173.795   6
   2   8   1 4069.91 95.0992   6
   2   8   2 287.902 44.2184   6
   2   8   3 1002.54 59.5558   6
   2   8   4 997.675 64.6358   6
  -2  -8  -5 156.025 70.0148   6
  -2  -8  -6 4698.45 118.637   6
  -2  -8  -7 10301.0 165.206   6
  -2  -8  -8 6833.12 143.984   6
   2   9 -12 33.7474 53.1809   6
   2   9 -11 96.9423 54.6524   6
   2   9 -10 368.296 57.9127   6
   2   9  -9-7.82735 55.2365   6
   2   9  -8 112.603 57.6737   6
   2   9  -7 168.312 54.3981   6
   2   9  -6 209.778 53.5585   6
   2   9  -5 7.65102 45.6017   6
   2   9  -4 379.136 47.6687   6
   2   9  -3 1585.84 68.6727   6
   2   9  -2 6714.85 116.056   6
   2   9  -1 5404.12 103.078   6
   2   9   0 766.909 54.3361   6
   2   9   1 12.9750 52.8658   6
   2   9   2 26.4030 43.0743   6
   2   9   3-27.2577 45.2387   6
   2   9   4 683.705 65.6554   6
  -2  -9  -5 95.5014 74.3075   6
  -2  -9  -6 543.384 84.5820   6
   2  10 -10 156.419 67.6947   6
   2  10  -9 1353.85 75.9112   6
   2  10  -8 6711.82 135.754   6
   2  10  -7 5646.42 122.951   6
   2  10  -6 2190.12 86.4123   6
   2  10  -5 2851.07 93.1409   6
   2  10  -4 2569.92 86.3668   6
   2  10  -3 2880.83 90.1266   6
   2  10  -2 6918.41 122.794   6
   2  10  -1 1923.97 75.5511   6
   2  10   0 2044.01 84.8155   6
   2  10   1 780.264 63.7076   6
   2  10   2 927.136 63.3220   6
   2  10   3 1566.03 73.6989   6
   2  10   4 1355.80 77.1755   6
   2  11  -6 697.521 70.7600   6
   2  11  -5 582.336 68.7860   6
   2  11  -4 197.351 59.5073   6
   2  11  -3 1971.26 87.2233   6
   2  11  -2 569.351 61.5980   6
   2  11  -1 455.074 58.2101   6
   2  11   0 480.040 69.1719   6
   3 -11  -2 283.243 61.1393   3
   3 -11  -1 0.35012 65.3871   3
   3 -11   4-113.486 41.6999   0
   3 -11   5 787.554 57.3087   0
   3 -10  -4 199.426 65.9059   3
   3 -10  -3 6926.68 145.248   3
   3 -10  -2 1392.02 87.7723   3
   3 -10  -1 8.93464 56.3494   3
   3 -10   0 36.8591 59.2287   3
   3 -10   2 1011.49 67.8407   0
   3 -10   3 15.2192 54.2000   0
   3 -10   4 1744.76 85.1376   0
   3 -10   5 5305.06 128.294   0
   3 -10   6 905.844 73.2941   0
   3 -10   7 217.735 64.0367   0
   3 -10   8 1002.97 80.0324   0
   3  -9  -7 5550.53 140.153   3
   3  -9  -6 2148.47 92.5069   3
   3  -9  -5 1237.94 83.2367   3
   3  -9  -4 297.964 65.2350   3
   3  -9  -3 2554.27 97.8677   3
   3  -9  -2 4409.42 116.826   3
   3  -9  -1 153.422 55.9689   3
   3  -9   0 2751.96 84.6774   0
   3  -9   0 3195.83 101.543   3
   3  -9   1 3771.45 104.832   3
   3  -9   1 3708.74 99.0089   0
   3  -9   2 103.978 55.0906   0
   3  -9   3 1845.34 81.3786   0
   3  -9   4 7933.87 134.880   0
   3  -9   5 154.013 54.3877   0
   3  -9   6 652.098 67.2286   0
   3  -9   7 9507.33 156.764   0
  -3   9  -7 9659.93 153.011   6
   3  -9   8 822.334 76.4407   0
  -3   9  -8 865.032 72.9760   6
  -3   9  -9 778.391 72.0337   6
  -3   9 -10 1528.55 80.5272   6
   3  -8  -9 201.057 56.0278   3
   3  -8  -8 311.295 58.6113   3
   3  -8  -7 75.9215 56.1918   3
   3  -8  -6 241.321 57.6072   3
   3  -8  -5 3962.04 107.180   3
   3  -8  -4 804.368 69.7939   3
   3  -8  -3 98.3687 54.3258   3
   3  -8  -2 54.1399 55.0346   3
   3  -8  -2-3.82753 37.3471   0
   3  -8  -1 5546.66 117.685   3
   3  -8  -1 5545.03 104.750   0
   3  -8   0 799.894 59.9279   0
   3  -8   0 667.267 63.5006   3
   3  -8   1 538.730 53.6718   0
   3  -8   1 676.105 63.1327   3
   3  -8   2 1285.40 67.4687   0
   3  -8   2 1405.99 70.9748   3
   3  -8   3 306.126 51.0906   0
   3  -8   4 1023.61 65.3106   0
   3  -8   5 67.1685 47.7497   0
  -3   8  -5 38.5760 45.0670   6
   3  -8   6 61.3743 49.6553   0
  -3   8  -6 27.0500 53.1226   6
   3  -8   7 327.598 56.1108   0
  -3   8  -7 211.879 51.3182   6
  -3   8  -8 2279.58 84.6724   6
  -3   8  -9 1294.81 83.2169   6
  -3   8 -10-5.16561 56.7781   6
  -3   8 -11 178.657 67.3885   6
  -3   8 -12 1042.60 81.9392   6
   3  -7 -11 396.401 61.1459   3
   3  -7 -10 1088.14 78.8066   3
   3  -7  -9 3410.56 105.092   3
   3  -7  -8 210.911 52.0220   3
   3  -7  -7 3107.35 96.2864   3
   3  -7  -6 44.2515 43.0839   3
   3  -7  -6 51.5977 50.2903   2
   3  -7  -5 4323.16 104.788   2
   3  -7  -5 3426.41 94.7186   3
   3  -7  -4 25835.7 202.607   0
   3  -7  -4 28206.0 239.633   3
   3  -7  -3 983.183 55.9835   0
   3  -7  -3 1124.78 68.7987   2
   3  -7  -3 930.559 65.9667   3
   3  -7  -2 50.4844 51.0197   3
   3  -7  -2 32.9300 48.4789   2
   3  -7  -2 106.193 43.1531   0
   3  -7  -1 8234.10 117.101   0
   3  -7  -1 8626.96 132.848   3
   3  -7   0 1647.77 67.4840   2
   3  -7   0 1523.88 66.3615   0
   3  -7   0 1439.34 70.2589   3
   3  -7   1 2382.03 78.2866   0
   3  -7   1 2606.70 85.7247   3
   3  -7   2 14943.4 160.880   0
   3  -7   3 15235.0 163.492   0
   3  -7   4 19.9407 48.2573   0
  -3   7  -4 79.8378 40.7444   6
   3  -7   5 234.586 49.0743   0
  -3   7  -5 167.096 42.6314   6
   3  -7   6 2846.01 83.2711   0
  -3   7  -6 2767.16 78.9645   6
  -3   7  -7 1985.38 76.0109   6
  -3   7  -8 726.792 62.7322   6
  -3   7  -9 4379.00 105.198   6
  -3   7 -10 997.990 65.9650   6
  -3   7 -11 226.919 62.2550   6
  -3   7 -12 164.653 57.8085   6
   3  -6 -12 552.174 56.4899   2
   3  -6 -12 596.845 57.1662   3
   3  -6 -11 6286.85 129.211   2
   3  -6 -11 6218.43 133.132   3
   3  -6 -10 83.8927 46.7520   3
   3  -6 -10 99.5929 57.7425   2
   3  -6  -9 6247.35 127.052   2
   3  -6  -9 5573.04 118.599   3
   3  -6  -8 367.971 61.1150   2
   3  -6  -8 274.501 49.5862   3
   3  -6  -7 425.722 52.0351   2
   3  -6  -7 398.886 48.6247   3
   3  -6  -6 139.872 45.9294   3
   3  -6  -6 156.796 54.9119   2
   3  -6  -5 29.3466 45.4133   3
   3  -6  -5 71.5068 51.6003   2
   3  -6  -4 77.8454 45.4695   3
   3  -6  -4 66.2034 47.3104   2
   3  -6  -3 12448.0 137.024   0
   3  -6  -3 11838.5 151.392   3
   3  -6  -2 5891.40 98.9907   0
   3  -6  -2 6415.29 112.395   2
   3  -6  -2 5687.54 106.934   3
   3  -6  -1 11737.7 141.381   2
   3  -6  -1 10807.8 126.445   0
   3  -6  -1 11194.5 144.442   3
   3  -6   0 1351.40 62.1648   2
   3  -6   0 1252.89 57.8272   0
   3  -6   0 1300.76 64.6101   3
   3  -6   1 13316.9 143.208   2
   3  -6   1 13009.7 143.013   0
   3  -6   2 4966.43 93.1675   0
   3  -6   3 35.4510 40.7951   0
  -3   6  -3 107.821 33.9596   6
   3  -6   4 11371.0 138.699   0
   3  -6   4 11837.7 128.941   5
  -3   6  -4 12045.1 127.533   6
   3  -6   5 17284.9 158.055   5
  -3   6  -5 18162.8 160.807   6
   3  -6   6 14161.4 158.071   0
  -3   6  -6 14522.1 150.540   6
  -3   6  -7 114.781 42.3207   6
  -3   6  -8 2209.27 76.3549   6
  -3   6  -9 43.4556 42.2085   6
  -3   6 -10 117.953 50.7005   6
  -3   6 -11 3921.42 104.363   6
  -3   6 -12 1574.37 82.1799   6
  -3   6 -13-118.377 58.5055   6
   3  -5 -13 75.7515 62.9724   2
   3  -5 -12 4058.27 114.701   2
   3  -5 -12 3617.93 102.472   3
   3  -5 -11 2787.27 93.2273   2
   3  -5 -11 2402.59 86.3015   3
   3  -5 -10 2825.82 87.9712   2
   3  -5 -10 2617.83 85.0497   3
   3  -5  -9 850.049 59.4487   2
   3  -5  -9 842.786 55.8814   3
   3  -5  -8-5.58528 38.2168   3
   3  -5  -8-4.93951 48.3711   2
   3  -5  -7 12462.4 159.685   2
   3  -5  -7 11255.0 145.484   3
   3  -5  -6 14227.2 167.569   2
   3  -5  -6 12839.5 152.282   3
   3  -5  -5 1899.84 74.6478   2
   3  -5  -5 1912.15 71.4870   3
   3  -5  -4 5454.37 103.704   2
   3  -5  -4 5015.24 98.6821   3
   3  -5  -3 3244.77 84.8218   2
   3  -5  -3 2898.51 70.9032   0
   3  -5  -3 2958.42 78.9287   3
   3  -5  -2 19752.5 164.846   0
   3  -5  -2 20209.5 178.933   2
   3  -5  -2 19782.8 179.111   3
   3  -5  -1 3578.49 82.5188   2
   3  -5  -1 3400.81 85.4713   3
   3  -5  -1 3173.84 72.8615   0
   3  -5   0 10190.3 128.298   2
   3  -5   0 9611.63 99.2950   5
   3  -5   0 9779.66 120.100   0
   3  -5   1 3810.67 78.8447   2
   3  -5   1 4038.04 72.1809   5
   3  -5   1 3694.64 78.4389   0
   3  -5   2 218.232 39.2880   0
   3  -5   2 268.278 31.4518   5
  -3   5  -2 250.561 31.7363   6
   3  -5   3 5426.73 94.0023   0
   3  -5   3 5851.79 89.5302   5
  -3   5  -3 6035.77 81.6637   6
   3  -5   4 282.167 46.3630   0
   3  -5   4 312.599 35.5969   5
  -3   5  -4 285.618 32.7946   6
  -3   5  -5 1689.45 56.0886   6
   3  -5   5 1685.09 64.1560   0
  -3   5  -6 9051.81 113.445   6
  -3   5  -7 2154.68 66.3816   6
  -3   5  -8 2718.77 76.6340   6
  -3   5  -9 112.083 42.8277   6
  -3   5 -10 1506.81 69.4540   6
  -3   5 -11 675.747 60.5313   6
  -3   5 -12 1216.71 72.8126   6
  -3   5 -13 1705.91 80.2975   6
   3  -4 -13 1229.74 82.1892   2
   3  -4 -12 1064.19 69.5627   2
   3  -4 -11 17981.9 201.054   2
   3  -4 -11 17071.8 184.075   3
   3  -4 -10 2866.90 88.5889   2
   3  -4 -10 2809.69 81.4521   3
   3  -4  -9 3559.31 90.3901   2
   3  -4  -9 3486.98 85.8898   3
   3  -4  -8 3883.14 88.4149   2
   3  -4  -8 3813.15 88.7777   3
   3  -4  -7 4484.91 94.0543   2
   3  -4  -7 4840.14 95.3936   3
   3  -4  -6 27905.5 217.968   2
   3  -4  -6 26291.7 205.325   3
   3  -4  -5-10.4726 35.6669   3
   3  -4  -5 3.34548 40.6233   2
   3  -4  -4 4726.32 91.2707   2
   3  -4  -4 6121.58 98.9780   3
   3  -4  -3 21904.5 179.064   2
   3  -4  -3 20878.3 160.213   0
   3  -4  -3 21292.5 176.063   3
   3  -4  -2 29687.5 204.313   2
   3  -4  -2 29058.1 188.401   0
   3  -4  -2 30291.3 211.520   3
   3  -4  -1 25415.9 174.763   0
   3  -4  -1 26137.5 189.081   2
   3  -4   0 19516.6 160.583   2
   3  -4   0 18966.6 137.094   5
   3  -4   0 19298.9 156.999   0
   3  -4   1 1391.14 57.2664   2
   3  -4   1 1537.84 49.4017   5
   3  -4   1 1433.94 52.7091   0
  -3   4  -1 1655.50 38.9377   6
   3  -4   2-9.25508 32.2013   0
  -3   4  -2-5.00327 21.6118   6
   3  -4   2 8.02661 26.6500   5
   3  -4   3 4773.15 85.0901   0
   3  -4   3 4877.33 81.3576   5
  -3   4  -3 5098.53 68.1949   6
  -3   4  -4 6128.66 79.8422   6
   3  -4   4 6004.17 94.1115   0
   3  -4   4 6010.88 92.3128   5
  -3   4  -5 6.63042 31.0936   6
   3  -4   5 11.0397 38.8998   0
  -3   4  -6 7952.22 101.869   6
  -3   4  -7 18282.0 159.059   6
  -3   4  -8 1436.09 60.9220   6
  -3   4  -9 2526.68 75.5732   6
  -3   4 -10 5353.66 105.127   6
  -3   4 -11 714.918 53.7806   6
  -3   4 -12 301.929 51.9755   6
  -3   4 -13 2935.71 93.8723   6
  -3   4 -14 3325.13 106.817   6
   3  -3 -14 990.224 75.3362   2
   3  -3 -13 4394.03 117.537   2
   3  -3 -12 893.457 66.0907   2
   3  -3 -11 902.851 63.7820   2
   3  -3 -11 773.776 52.1831   3
   3  -3 -10 163.750 44.0224   3
   3  -3 -10 191.644 49.9151   2
   3  -3  -9 425.475 52.1737   2
   3  -3  -9 380.322 46.0023   3
   3  -3  -8 26046.6 211.077   2
   3  -3  -8 26453.1 202.073   3
   3  -3  -7 2831.66 72.8999   2
   3  -3  -7 2651.47 73.1946   3
   3  -3  -6 766.293 47.2821   2
   3  -3  -6 854.582 50.1744   3
   3  -3  -5 6542.04 107.918   2
   3  -3  -5 5778.61 93.6356   3
   3  -3  -4 5071.27 92.6923   2
   3  -3  -4 4917.98 86.9815   3
   3  -3  -3 4455.45 80.6453   0
   3  -3  -3 4263.67 82.1445   2
   3  -3  -3 4216.74 82.6622   3
   3  -3  -2 17754.8 153.426   2
   3  -3  -2 18696.1 148.432   0
   3  -3  -1 1917.26 55.0431   0
   3  -3  -1 1805.72 55.8103   2
   3  -3   0 94.6300 30.4618   0
   3  -3   0 98.0415 27.7985   5
   3  -3   0 105.091 30.2346   2
   3  -3   1 488.259 36.3356   2
   3  -3   1 508.059 36.4023   5
   3  -3   1 492.655 38.6549   0
   3  -3   1 538.536 32.3449   1
  -3   3  -1 495.690 23.2372   6
  -3   3  -2 35000.5 144.890   6
   3  -3   2 34715.1 198.232   0
   3  -3   2 35351.3 198.364   5
   3  -3   2 35747.5 164.359   1
  -3   3  -3 9691.27 84.8168   6
   3  -3   3 9832.41 110.741   0
   3  -3   3 9998.12 111.826   5
   3  -3   3 9906.97 86.9285   1
  -3   3  -4 9371.17 91.6103   6
   3  -3   4 8994.86 107.185   0
   3  -3   4 9040.70 110.567   5
  -3   3  -5 59373.3 238.871   6
   3  -3   5 57562.8 262.332   0
  -3   3  -6 16048.9 136.175   6
  -3   3  -7 696.977 50.8498   6
  -3   3  -8 307.638 44.7489   6
  -3   3  -9 3632.70 84.3847   6
  -3   3 -10 522.657 50.0665   6
  -3   3 -11 141.160 49.6088   6
  -3   3 -12 4463.61 104.872   6
  -3   3 -13 827.103 67.5352   6
  -3   3 -14 57.2859 45.9243   6
   3  -2 -14 2492.49 98.7591   2
   3  -2 -13 21.9702 50.3328   2
   3  -2 -12 467.312 57.8367   2
   3  -2 -11 6938.67 122.553   2
   3  -2 -10 2344.44 78.6033   2
   3  -2 -10 2383.28 67.0900   3
   3  -2  -9 18576.0 181.866   2
   3  -2  -9 18533.8 163.752   3
   3  -2  -8 17908.5 169.924   2
   3  -2  -8 18513.6 161.100   3
   3  -2  -7 754.756 51.5214   2
   3  -2  -7 683.948 47.1545   3
   3  -2  -6 7464.89 101.559   2
   3  -2  -6 8033.00 106.510   3
   3  -2  -5 1799.00 59.1506   2
   3  -2  -5 1905.20 58.0674   3
   3  -2  -4 881.514 47.3527   2
   3  -2  -3 59.7924 31.6539   2
   3  -2  -2 3733.69 71.7040   2
   3  -2  -2 3960.52 68.5712   0
   3  -2  -1 8588.61 101.567   2
   3  -2  -1 9114.74 99.6088   0
   3  -2  -1 8786.90 94.3878   5
   3  -2  -1 9161.49 91.3306   1
   3  -2   0 22434.6 152.577   5
   3  -2   0 21029.5 152.046   2
  -3   2   0 22146.2 78.9963   6
   3  -2   0 22038.2 146.757   0
   3  -2   0 22754.8 138.789   1
  -3   2  -1 9388.21 60.7357   6
   3  -2   1 9593.96 92.7592   1
   3  -2   1 9220.55 104.434   2
   3  -2   1 9192.57 102.358   5
   3  -2   1 9485.80 101.247   0
  -3   2  -2 53110.4 164.176   6
   3  -2   2 52722.1 208.713   1
   3  -2   2 53582.9 234.462   0
   3  -2   2 52198.4 242.577   5
  -3   2  -3 1127.01 34.8445   6
   3  -2   3 1057.75 37.9810   1
   3  -2   3 1051.54 42.4548   0
   3  -2   3 1045.80 49.4622   5
  -3   2  -4 7903.00 82.9431   6
   3  -2   4 7957.05 84.6949   1
   3  -2   4 7976.57 96.2049   0
  -3   2  -5 28956.8 166.360   6
   3  -2   5 28359.3 175.209   0
   3  -2   5 29839.2 159.114   1
  -3   2  -6 14303.9 127.349   6
  -3   2  -7 1047.48 50.5924   6
  -3   2  -8 12035.5 130.820   6
  -3   2  -9 1623.69 61.4224   6
  -3   2 -10 148.751 42.8324   6
  -3   2 -11 98.2577 41.4233   6
  -3   2 -12 6597.67 122.479   6
  -3   2 -13 379.217 59.9587   6
  -3   2 -14 57.4495 53.6123   6
   3  -1 -15 492.679 71.4765   2
   3  -1 -14 157.156 55.4153   2
   3  -1 -13 4072.90 106.800   2
   3  -1 -12 741.551 55.3119   2
   3  -1 -11 4260.51 96.6476   2
   3  -1 -10 21900.2 196.643   2
   3  -1  -9 1195.41 58.5947   2
   3  -1  -9 1197.98 51.8354   3
   3  -1  -8 25947.7 195.928   2
   3  -1  -7 349.132 41.6585   2
   3  -1  -6 3935.36 75.9957   2
   3  -1  -5 199.109 35.5950   2
   3  -1  -4 36897.7 214.547   2
   3  -1  -3 75579.8 287.907   2
   3  -1  -3 75300.8 261.673   1
   3  -1  -2 2590.37 54.2135   1
   3  -1  -2 2411.48 56.8884   2
   3  -1  -1 1753.16 48.1347   1
   3  -1  -1 1734.31 49.6070   2
   3  -1  -1 1773.87 47.2671   5
   3  -1  -1 1922.82 48.0124   0
   3  -1   0 3328.45 57.9986   1
   3  -1   0 3431.45 59.9616   0
   3  -1   0 3173.60 60.6759   2
   3  -1   0 3461.19 64.2084   5
  -3   1  -1 8972.17 57.2852   6
   3  -1   1 8647.93 95.9523   2
   3  -1   1 8973.72 100.136   5
   3  -1   1 8824.22 91.9777   1
   3  -1   1 8814.11 92.6550   0
   3  -1   2 46489.1 205.285   1
   3  -1   2 46462.5 228.728   5
   3  -1   2 46260.2 207.979   0
  -3   1  -2 46428.5 152.908   6
  -3   1  -3 12272.6 90.3285   6
   3  -1   3 12348.9 106.829   1
   3  -1   3 12248.4 107.545   0
   3  -1   3 12235.5 123.658   5
  -3   1  -4 66419.8 226.490   6
   3  -1   4 66311.2 250.581   0
   3  -1   4 65595.9 244.357   1
  -3   1  -5 23332.0 146.511   6
   3  -1   5 23008.5 151.373   0
   3  -1   5 23453.8 149.283   1
   3  -1   6 392.275 35.5805   0
  -3   1  -6 264.975 38.7189   6
   3  -1   6 373.351 35.3261   1
  -3   1  -7 72033.6 289.174   6
  -3   1  -8 22354.8 173.824   6
  -3   1  -9 1427.76 59.7922   6
  -3   1 -10 1295.35 60.3509   6
  -3   1 -11 445.132 50.9754   6
  -3   1 -12 22.6282 45.0669   6
  -3   1 -13-71.3262 55.6021   6
  -3   1 -14 1106.25 72.4824   6
   3   0 -15 648.144 68.7309   2
   3   0 -14 1050.64 73.3040   2
   3   0 -13 223.296 50.5754   2
   3   0 -12 90.4650 40.8011   2
   3   0 -11 1280.52 61.7343   2
   3   0 -10 1625.11 64.1369   2
   3   0  -9 3683.94 81.3219   2
   3   0  -8 1819.24 59.4370   2
   3   0  -7 14513.9 138.349   2
   3   0  -6 35993.6 206.041   2
   3   0  -5 1467.06 46.8945   2
   3   0  -5 1507.28 46.5127   1
   3   0  -4 22162.3 166.024   2
   3   0  -4 19100.5 136.193   1
   3   0  -3 19247.5 137.440   1
   3   0  -3 19437.9 143.515   2
   3   0  -2 0.23611 26.1753   2
   3   0  -2 19.3974 28.9382   1
   3   0  -1 18698.6 133.123   2
   3   0  -1 18304.7 132.099   5
   3   0   0 21522.8 144.971   2
  -3   0   0 22671.6 79.6506   6
   3   0   0 22212.3 146.816   1
   3   0   0 22465.4 135.588   0
   3   0   0 21527.1 149.432   5
   3   0   1 1739.55 46.7750   2
   3   0   1 1721.47 43.8410   0
  -3   0  -1 1921.67 31.1479   6
   3   0   1 1781.69 47.9385   1
   3   0   1 1771.71 51.1577   5
  -3   0  -2 18824.8 102.652   6
   3   0   2 18328.8 133.912   1
   3   0   2 18234.7 145.856   5
   3   0   2 18731.9 124.223   0
  -3   0  -3 39839.9 162.880   6
   3   0   3 39067.3 195.552   1
   3   0   3 39246.6 176.346   0
   3   0   3 38486.9 214.246   5
  -3   0  -4 1837.78 44.2117   6
   3   0   4 1922.57 44.7567   0
   3   0   4 1816.66 50.9875   1
  -3   0  -5 1461.25 46.5531   6
   3   0   5 1525.49 42.0846   0
   3   0   5 1404.87 47.0309   1
   3   0   6 10378.3 97.5692   0
  -3   0  -6 10201.7 108.059   6
   3   0   6 10376.3 106.743   1
  -3   0  -7 12599.8 126.690   6
  -3   0  -8 12363.3 134.856   6
  -3   0  -9 170.166 47.6806   6
  -3   0 -10 3943.97 88.1720   6
  -3   0 -11 558.828 52.4612   6
  -3   0 -12 689.917 64.4382   6
  -3   0 -13-51.8716 55.1540   6
  -3   0 -14 790.966 68.4827   6
   3   1 -15 467.981 55.3582   2
   3   1 -14 65.1884 45.0332   2
   3   1 -13 2403.58 79.9771   2
   3   1 -12 20.2324 42.2906   2
   3   1 -11 728.656 51.0024   2
   3   1 -11 832.055 51.8071   4
   3   1 -10 1165.64 55.1255   2
   3   1 -10 1020.79 54.1063   4
   3   1  -9 63.1020 33.9509   2
   3   1  -9 46.2860 37.6167   4
   3   1  -8 21888.8 167.786   2
   3   1  -8 21965.6 174.801   4
   3   1  -7 688.435 44.3582   2
   3   1  -7 639.126 46.5981   4
   3   1  -6 26829.2 173.060   2
   3   1  -6 26906.9 182.597   4
   3   1  -6 27247.0 166.311   1
   3   1  -5 16372.2 130.147   1
   3   1  -5 15575.6 125.669   2
   3   1  -5 15861.4 137.396   4
   3   1  -4 4192.80 69.7360   1
   3   1  -4 4490.28 76.0315   2
   3   1  -4 4126.18 71.7682   4
   3   1  -3 18657.8 136.416   1
   3   1  -3 19487.4 136.003   2
   3   1  -3 18870.3 138.265   4
   3   1  -2 1328.56 44.7266   1
   3   1  -2 1192.16 41.5120   2
   3   1  -2 1361.50 43.3936   4
   3   1  -1 9239.03 89.1294   2
   3   1  -1 9993.75 104.826   1
   3   1  -1 9440.07 98.2146   5
   3   1   0 144500. 351.138   2
  -3  -1   0 142573. 237.138   6
   3   1   0 143525. 376.667   1
   3   1   0 140608. 376.062   5
  -3  -1  -1 19215.0 101.001   6
   3   1   1 19568.1 142.818   1
   3   1   1 19744.8 145.278   5
   3   1   1 19645.2 116.406   0
   3   1   2 7349.15 73.6507   0
  -3  -1  -2 6990.26 67.3514   6
   3   1   2 7060.52 88.4208   1
   3   1   2 7257.21 94.9300   5
  -3  -1  -3 3714.85 55.0280   6
   3   1   3 3979.07 69.3581   1
   3   1   3 3784.99 73.4243   5
   3   1   3 3862.99 54.0457   0
  -3  -1  -4 384.152 29.8417   6
   3   1   4 301.623 23.6477   0
   3   1   4 332.062 36.2046   5
  -3  -1  -5 9992.00 102.452   6
  -3  -1  -6 13056.7 125.471   6
  -3  -1  -7 36292.0 217.175   6
  -3  -1  -8 5028.44 95.2967   6
  -3  -1  -9 11951.5 144.170   6
  -3  -1 -10 28492.6 225.398   6
  -3  -1 -11-34.4640 55.8873   6
  -3  -1 -12 1727.01 82.2146   6
  -3  -1 -13 2763.44 96.5796   6
   3   2 -15 2530.75 88.5440   2
   3   2 -14 377.121 52.5840   2
   3   2 -13 752.154 53.5431   2
   3   2 -13 650.695 52.9819   4
   3   2 -12 1729.74 67.5657   2
   3   2 -12 1703.27 68.6527   4
   3   2 -11 610.018 44.0255   2
   3   2 -11-142.650 43.4527   4
   3   2 -10 2134.41 64.5207   2
   3   2 -10 2222.88 70.6366   4
   3   2  -9 1365.52 52.2556   2
   3   2  -9 1242.76 60.1741   4
   3   2  -8 7733.90 100.428   2
   3   2  -8 8155.47 114.143   4
   3   2  -8 8626.14 101.855   1
   3   2  -7 777.863 42.8428   2
   3   2  -7 742.293 50.9825   4
   3   2  -7 740.885 41.9873   1
   3   2  -7 635.994 31.5896   6
   3   2  -6 3954.62 71.9561   1
   3   2  -6 3634.93 67.1657   2
   3   2  -6 3820.43 77.3864   4
   3   2  -5 46971.9 217.773   1
   3   2  -5 46313.2 207.592   2
   3   2  -5 47489.2 235.413   4
   3   2  -4 102.843 17.7738   6
   3   2  -4 140.141 29.0462   2
   3   2  -4 67.2372 30.3729   1
   3   2  -4 131.005 32.3413   4
   3   2  -3 3575.90 67.8382   1
   3   2  -3 3366.75 56.3926   2
   3   2  -3 3471.09 65.2596   4
   3   2  -3 3666.20 46.9341   6
   3   2  -2 13656.1 82.9563   6
   3   2  -2 13162.9 101.620   2
   3   2  -2 13702.5 123.654   1
   3   2  -2 13998.8 118.999   4
   3   2  -1 105.172 20.4576   6
   3   2  -1 1.04922 20.8317   2
   3   2  -1 33.9223 27.2280   4
   3   2  -1 21.6325 31.6598   1
   3   2   0 31289.6 149.894   2
   3   2   0 31564.6 183.433   1
   3   2   0 30998.6 176.168   5
   3   2   0 31118.4 163.868   4
   3   2   0 32171.3 139.252   6
  -3  -2  -1 36817.1 153.734   6
   3   2   1 37675.3 203.005   5
   3   2   1 35692.5 197.003   1
   3   2   1 36018.0 167.604   4
  -3  -2  -2 32870.4 155.265   6
   3   2   2 33621.3 193.516   5
   3   2   2 32012.5 186.996   1
  -3  -2  -3 31010.0 162.929   6
   3   2   3 31711.7 195.887   5
  -3  -2  -4 207.473 34.1308   6
   3   2   4 284.474 37.4765   5
  -3  -2  -5 9662.10 105.279   6
  -3  -2  -6-0.73919 38.2210   6
  -3  -2  -7-63.5439 44.4019   6
  -3  -2  -8 16149.4 161.107   6
  -3  -2  -9 953.759 68.9800   6
  -3  -2 -10 785.897 62.9289   6
  -3  -2 -11 326.737 64.8093   6
  -3  -2 -12 2654.50 92.1200   6
  -3  -2 -13 333.630 62.6851   6
   3   3 -15 774.031 64.6660   2
   3   3 -14 411.432 48.3971   2
   3   3 -14 325.255 56.4981   4
   3   3 -13 667.155 55.6418   2
   3   3 -13 708.568 61.4355   4
   3   3 -12 651.117 50.2708   2
   3   3 -12 523.611 57.1926   4
   3   3 -11 445.165 43.4733   2
   3   3 -11 428.668 50.8965   4
   3   3 -10 172.697 33.9899   2
   3   3 -10 149.107 39.8418   4
   3   3  -9 3741.38 75.8190   2
   3   3  -9 3798.88 86.0375   4
   3   3  -8 35614.6 201.607   2
   3   3  -8 35961.9 229.452   4
   3   3  -7 616.773 41.0856   1
   3   3  -7 555.980 38.3684   2
   3   3  -7 496.649 48.1295   4
   3   3  -7 416.657 33.3680   6
   3   3  -6 11255.8 112.212   1
   3   3  -6 11772.3 110.138   2
   3   3  -6 11215.7 126.539   4
   3   3  -5 12510.4 121.439   1
   3   3  -5 12244.2 104.787   2
   3   3  -5 12851.4 129.042   4
   3   3  -4 12.8123 24.3569   6
   3   3  -4 13.6836 23.1719   2
   3   3  -4 2.08907 32.8177   1
   3   3  -4 27.0608 31.3633   4
   3   3  -3 4458.89 59.8937   2
   3   3  -3 4469.59 77.3990   1
   3   3  -3 4575.46 75.4669   4
   3   3  -3 4738.68 60.1290   6
   3   3  -2 22127.2 123.625   2
   3   3  -2 22641.4 162.373   1
   3   3  -2 22828.9 126.135   6
   3   3  -2 22240.2 152.157   4
   3   3  -1 216.354 34.5632   1
   3   3  -1 166.954 22.3142   2
   3   3  -1 212.623 23.4685   6
   3   3  -1 211.936 28.2674   4
   3   3   0 1266.43 42.3579   5
   3   3   0 1211.84 48.8124   1
   3   3   0 1159.43 39.3153   4
   3   3   0 1216.30 36.4592   6
   3   3   1 5188.92 80.1173   5
   3   3   1 4828.20 80.1803   1
   3   3   1 5167.77 71.4126   6
   3   3   1 4801.71 65.9840   4
  -3  -3  -2 16042.0 122.626   6
   3   3   2 16110.7 137.136   5
   3   3   2 15582.4 110.406   4
  -3  -3  -3 10325.6 102.365   6
   3   3   3 11074.8 121.168   5
  -3  -3  -4 5923.48 84.7000   6
   3   3   4 6113.37 94.0317   5
  -3  -3  -5 27626.5 184.580   6
   3   3   5 29690.8 207.180   5
  -3  -3  -6 2762.21 73.2619   6
  -3  -3  -7 3663.83 84.2868   6
  -3  -3  -8 12710.7 151.009   6
  -3  -3  -9 4622.26 105.316   6
  -3  -3 -10 5998.86 125.083   6
  -3  -3 -11-14.8647 63.8070   6
  -3  -3 -12 2126.16 91.9892   6
   3   4 -15 547.771 51.5645   2
   3   4 -14 280.199 58.2638   4
   3   4 -14 295.626 45.5866   2
   3   4 -13 2313.40 74.1119   2
   3   4 -13 2445.07 85.1018   4
   3   4 -12 143.465 39.0945   2
   3   4 -12 95.1326 47.1604   4
   3   4 -11 1348.65 56.3954   2
   3   4 -11 1382.35 66.9769   4
   3   4 -10 953.768 45.6025   2
   3   4 -10 1006.28 58.3737   4
   3   4  -9 5392.95 86.9203   2
   3   4  -9 5523.67 103.257   4
   3   4  -9 4913.00 85.9881   6
   3   4  -8 18881.1 148.818   1
   3   4  -8 23978.3 164.232   2
   3   4  -8 24880.8 196.819   4
   3   4  -8 20244.8 154.028   6
   3   4  -7 13839.4 126.995   1
   3   4  -7 14041.7 122.550   2
   3   4  -7 14335.1 151.409   4
   3   4  -6 6778.99 93.9243   1
   3   4  -6 6867.78 105.178   4
   3   4  -6 7260.39 88.5956   6
   3   4  -5 16951.6 143.674   1
   3   4  -5 16927.0 152.813   4
   3   4  -5 17723.1 128.644   6
   3   4  -4 4041.04 75.8901   1
   3   4  -4 4308.11 68.6844   6
   3   4  -4 3937.51 77.1951   4
   3   4  -3 13521.4 131.715   1
   3   4  -3 13210.4 104.973   6
   3   4  -3 13520.1 129.423   4
   3   4  -2 10894.6 112.405   4
   3   4  -2 10787.4 118.192   1
   3   4  -2 10982.8 100.934   6
   3   4  -1 605.523 38.2288   4
   3   4  -1 567.244 44.6456   1
   3   4  -1 512.885 33.7445   6
   3   4   0 38394.0 192.878   5
   3   4   0 37093.0 190.756   4
   3   4   0 38126.9 189.508   6
   3   4   1 37087.6 181.424   4
   3   4   1 37786.2 196.399   6
   3   4   2 23.6971 42.9670   6
   3   4   2 115.785 35.5704   5
  -3  -4  -3 8633.86 104.445   6
   3   4   3 7730.67 100.335   5
  -3  -4  -4 24219.1 175.338   6
   3   4   4 18891.5 159.858   5
  -3  -4  -5 10834.4 126.661   6
   3   4   5 8043.14 109.968   5
  -3  -4  -6 12398.5 140.913   6
   3   4   6 9338.30 123.223   5
  -3  -4  -7 9387.56 129.921   6
  -3  -4  -8 3317.18 92.5513   6
  -3  -4  -9 77.9107 57.6605   6
  -3  -4 -10 10201.7 153.024   6
  -3  -4 -11 3482.64 103.036   6
   3   5 -15 180.714 49.0710   4
   3   5 -14 208.566 55.2459   4
   3   5 -13 647.051 60.3967   4
   3   5 -12 22.1180 47.4935   4
   3   5 -11 116.458 47.6584   4
   3   5 -10 2667.56 83.4085   4
   3   5 -10 2887.02 78.3307   6
   3   5  -9 10744.3 142.932   4
   3   5  -9 12009.8 136.874   6
   3   5  -8 6003.81 110.037   4
   3   5  -8 7106.96 109.162   6
   3   5  -7 10925.4 137.084   4
   3   5  -7 11842.2 126.097   6
   3   5  -6 617.750 45.7971   1
   3   5  -6 697.143 53.4274   4
   3   5  -6 824.678 43.7072   6
   3   5  -5 2288.37 61.1714   1
   3   5  -5 2524.93 63.1860   6
   3   5  -4 1047.44 47.5725   1
   3   5  -4 1027.38 46.5938   6
   3   5  -3 3007.42 69.9483   1
   3   5  -3 2756.07 59.1968   6
   3   5  -2 7.42755 35.4494   1
   3   5  -2-20.1898 35.5127   6
   3   5  -1 2550.10 68.9547   1
   3   5  -1 2351.33 58.8245   6
   3   5   0 29359.9 183.722   6
   3   5   0 29945.3 180.704   4
   3   5   1 881.187 51.2783   6
   3   5   2 3596.55 79.9976   6
  -3  -5  -3 16370.5 155.485   6
   3   5   3 15738.0 157.433   6
  -3  -5  -4 2281.11 72.7880   6
  -3  -5  -5 797.527 53.6277   6
  -3  -5  -6 2149.76 75.9303   6
  -3  -5  -7 1289.13 69.3581   6
  -3  -5  -8 1393.80 70.2563   6
  -3  -5  -9 102.405 61.0933   6
  -3  -5 -10 2541.11 90.8176   6
  -3  -5 -11 758.115 64.8375   6
   3   6 -14 210.750 49.7420   4
   3   6 -13 1157.91 66.9632   4
   3   6 -12 286.735 49.9217   4
   3   6 -11 1845.54 75.2528   4
   3   6 -11 2079.45 75.0130   6
   3   6 -10 6122.48 115.960   4
   3   6 -10 7169.52 120.243   6
   3   6  -9 19.9430 48.0026   6
   3   6  -9 92.8891 53.1234   4
   3   6  -8 4720.08 95.7625   6
   3   6  -7 6966.84 106.121   6
   3   6  -6 753.892 46.6311   1
   3   6  -6 1144.13 55.8319   6
   3   6  -5 9801.95 121.071   1
   3   6  -5 10568.7 124.296   6
   3   6  -4 12398.4 136.323   1
   3   6  -4 13598.2 141.387   6
   3   6  -3 10510.8 126.148   1
   3   6  -3 10557.0 118.938   6
   3   6  -2 4979.44 93.2599   1
   3   6  -2 4836.41 85.0352   6
   3   6  -1 8702.36 108.017   6
   3   6   0 2628.23 73.1487   6
   3   6   1 5084.97 87.7833   6
   3   6   2 67985.9 307.851   6
   3   6   3 24023.1 201.666   6
  -3  -6  -4 855.584 62.2391   6
  -3  -6  -5 342.144 54.4453   6
  -3  -6  -6 1389.42 68.0945   6
  -3  -6  -7 245.647 56.1108   6
  -3  -6  -8 2859.08 97.0191   6
  -3  -6  -9 1443.83 76.7058   6
  -3  -6 -10 616.788 68.2137   6
   3   7 -13 282.176 59.2180   4
   3   7 -12 981.132 68.1125   4
   3   7 -12 1133.44 68.0788   6
   3   7 -11 3027.09 95.0703   4
   3   7 -11 3603.41 99.4709   6
   3   7 -10 2045.87 82.0536   4
   3   7 -10 2132.12 79.1365   6
   3   7  -9 704.508 58.3383   6
   3   7  -8 243.836 51.3411   6
   3   7  -7 5994.05 106.841   6
   3   7  -6 3995.60 90.6794   6
   3   7  -5 7575.52 114.403   1
   3   7  -5 8227.52 120.578   6
   3   7  -4 6046.09 103.904   1
   3   7  -4 5550.02 97.3066   6
   3   7  -3 3576.44 83.7055   1
   3   7  -3 3486.12 83.5282   6
   3   7  -2 3634.07 86.1639   1
   3   7  -2 3370.32 81.1588   6
   3   7  -1 2274.99 68.9745   6
   3   7   0 3411.61 86.7453   6
   3   7   1 3865.86 84.9946   6
   3   7   2-31.4447 46.8831   6
   3   7   3-15.8206 54.6761   6
  -3  -7  -4 6130.33 121.786   6
  -3  -7  -5 8506.53 141.749   6
  -3  -7  -6 1148.38 75.2568   6
  -3  -7  -7 406.621 57.3715   6
  -3  -7  -8 1264.30 78.1890   6
   3   8 -12 242.982 60.4604   6
   3   8 -12 198.222 54.0136   4
   3   8 -11 143.831 49.0140   6
   3   8 -11 49.3430 59.0624   4
   3   8 -10 35.4686 57.0662   6
   3   8  -9-27.2142 52.8503   6
   3   8  -8 72.4218 57.6961   6
   3   8  -7 1243.24 69.5846   6
   3   8  -6 8282.84 131.083   6
   3   8  -5 6599.54 112.456   6
   3   8  -4 615.546 56.4343   1
   3   8  -4 664.441 58.2748   6
   3   8  -3 2043.25 76.8347   1
   3   8  -3 1989.26 75.8572   6
   3   8  -2 2970.76 82.5136   6
   3   8  -1 1935.61 74.2710   6
   3   8   0 6388.76 115.188   6
   3   8   1-54.3140 48.3531   6
   3   8   2-66.4495 49.2204   6
   3   8   3 311.311 50.1772   6
  -3  -8  -4 3515.89 109.022   6
  -3  -8  -5 4407.61 118.249   6
  -3  -8  -6 710.502 68.6921   6
  -3  -8  -7 124.417 52.9882   6
   3   9 -11 128.674 63.3550   6
   3   9 -10 1080.32 77.7594   6
   3   9  -9 1909.53 89.2179   6
   3   9  -8 845.882 76.2981   6
   3   9  -7 6132.71 123.970   6
   3   9  -6 6613.35 123.599   6
   3   9  -5 6478.33 122.483   6
   3   9  -4 8763.82 142.196   6
   3   9  -3 7659.85 132.483   1
   3   9  -3 7290.22 126.305   6
   3   9  -2 3257.41 90.8687   6
   3   9  -1 4598.70 106.658   6
   3   9   0 1928.22 78.8609   6
   3   9   1-18.7376 43.7484   6
   3   9   2 83.7418 46.1365   6
   3   9   3 1792.78 79.3526   6
  -3  -9  -4 196.987 63.4839   6
  -3  -9  -5 128.906 58.2555   6
   3  10  -9 143.147 67.4374   6
   3  10  -8 261.167 57.8370   6
   3  10  -7 480.439 62.0182   6
   3  10  -6 715.960 70.6816   6
   3  10  -5 836.352 76.4474   6
   3  10  -4 98.3784 51.1078   6
   3  10  -3 292.020 51.6076   6
   3  10  -2 103.556 53.1598   6
   3  10  -1 473.198 65.2950   6
   3  10   0-0.40557 50.5059   6
   3  10   1 631.797 57.3383   6
   3  10   2 570.839 62.4752   6
   4 -10  -2-57.5372 71.8966   3
   4 -10  -1 78.1799 65.7285   3
   4 -10   0 77.4108 50.1752   0
   4 -10   1 1005.02 66.3402   0
   4 -10   2 113.859 60.6704   0
   4 -10   3-71.7672 59.8268   0
   4 -10   4 1341.61 82.0222   0
   4 -10   5 771.240 74.2593   0
   4  -9  -5 298.354 71.8602   3
   4  -9  -4 891.032 83.4240   3
   4  -9  -3-62.1697 60.0983   3
   4  -9  -2 2811.98 91.5679   0
   4  -9  -2 3656.52 123.491   3
   4  -9  -1 1187.94 76.6949   0
   4  -9  -1 963.041 87.3205   3
   4  -9   0 513.918 63.4848   0
   4  -9   1 260.473 61.1701   0
   4  -9   2 138.832 56.9987   0
   4  -9   3-133.930 66.5000   0
   4  -9   4 1981.01 97.4363   0
   4  -9   5 1327.94 83.3225   0
   4  -9   6 396.647 67.7797   0
   4  -9   7 11.7689 61.5927   0
   4  -8  -7 7991.15 159.866   3
   4  -8  -6 507.001 62.4275   3
   4  -8  -5 2.41835 49.2598   3
   4  -8  -4 52.2567 55.6802   3
   4  -8  -3 511.742 69.7468   3
   4  -8  -3 522.510 60.3639   0
   4  -8  -2 505.559 62.1264   2
   4  -8  -2 416.767 54.8431   0
   4  -8  -2 413.255 73.9851   3
   4  -8  -1 1923.74 82.4372   0
   4  -8  -1 2275.38 90.6429   2
   4  -8   0 1342.79 70.8043   0
   4  -8   1 1497.16 77.1584   0
   4  -8   2 320.328 62.1086   0
   4  -8   3 3404.53 99.0561   0
   4  -8   4 1489.35 75.2219   0
   4  -8   5 108.444 57.7063   0
   4  -8   6 4250.35 112.455   0
   4  -8   7 5204.88 127.765   0
   4  -8   8 1402.36 81.8794   0
   4  -8   9-10.9770 69.2754   0
   4  -7 -10 210.050 53.1047   2
   4  -7  -9 2172.08 103.410   2
   4  -7  -9 2098.83 96.1581   3
   4  -7  -8 181.299 66.9435   3
   4  -7  -8 62.9787 55.0036   2
   4  -7  -7 41.3428 48.9272   3
   4  -7  -7-27.4739 63.8464   2
   4  -7  -6 2334.54 97.0242   2
   4  -7  -6 1797.65 83.6933   3
   4  -7  -5-23.4409 46.8578   3
   4  -7  -5 1.88615 52.3162   2
   4  -7  -4 73.9515 56.9997   3
   4  -7  -4 108.535 60.4354   2
   4  -7  -3 100.760 54.3973   3
   4  -7  -3 207.416 49.0920   0
   4  -7  -3 148.304 58.0982   2
   4  -7  -2 201.433 52.3271   0
   4  -7  -2 209.002 52.7580   2
   4  -7  -1 736.417 57.3616   0
   4  -7  -1 860.094 68.9047   2
   4  -7   0 1430.32 73.7044   2
   4  -7   0 1233.87 69.0375   0
   4  -7   1 4526.49 108.032   0
   4  -7   2 3785.47 99.9444   0
   4  -7   3 27.7178 50.1637   0
   4  -7   4 626.067 57.9058   0
   4  -7   5 4032.04 103.287   0
   4  -7   6 583.820 65.0624   0
   4  -7   7 2.30254 61.1574   0
   4  -7   8 100.516 62.0959   0
   4  -7   9 2744.90 102.541   0
   4  -7  10-7.69170 56.2976   0
   4  -6 -11 142.817 59.3512   3
   4  -6 -11 69.5781 58.7087   2
   4  -6 -10 350.036 65.7387   3
   4  -6 -10 406.589 72.2926   2
   4  -6  -9 1517.47 87.6881   2
   4  -6  -9 1324.47 78.2858   3
   4  -6  -8-41.7808 53.8347   3
   4  -6  -8-0.78897 58.5983   2
   4  -6  -7 684.672 65.0397   2
   4  -6  -7 592.383 61.6376   3
   4  -6  -6 3862.14 107.994   2
   4  -6  -6 3358.76 98.3083   3
   4  -6  -5 10788.7 170.267   2
   4  -6  -5 9899.62 155.418   3
   4  -6  -4 8059.86 144.855   2
   4  -6  -4 6660.00 133.307   3
   4  -6  -3 616.897 64.7502   2
   4  -6  -3 749.592 57.6465   0
   4  -6  -2 1733.88 79.0095   2
   4  -6  -2 1809.74 71.5428   0
   4  -6  -1 6181.53 113.929   0
   4  -6  -1 6624.21 128.841   2
   4  -6   0 6045.22 120.371   2
   4  -6   0 5513.33 108.611   0
   4  -6   1 117.391 55.8420   0
   4  -6   2 1182.72 69.3026   0
   4  -6   3 76.7940 48.2705   0
   4  -6   4 314.021 55.1981   0
   4  -6   4 334.444 43.6274   5
   4  -6   5 345.211 53.6142   0
   4  -6   5 421.712 47.3160   5
   4  -6   6 224.725 49.0169   0
   4  -6   6 243.797 46.4398   5
   4  -6   7 190.087 56.3922   0
   4  -6   7 147.511 47.7157   5
   4  -6   8 3278.14 99.9440   0
   4  -6   8 3363.85 96.7739   5
   4  -6   9 5941.36 130.720   0
   4  -6  10 269.330 59.7083   0
   4  -6  11-16.0926 50.9657   0
   4  -5 -12-22.9406 45.7627   3
   4  -5 -12 29.8487 60.8808   2
   4  -5 -11 3637.16 115.361   2
   4  -5 -11 3072.61 98.3658   3
   4  -5 -10-2.75157 43.1918   3
   4  -5 -10 15.2515 58.7023   2
   4  -5  -9 5606.43 127.086   2
   4  -5  -9 5029.22 115.373   3
   4  -5  -8-80.2786 46.9261   3
   4  -5  -8-42.6714 54.3093   2
   4  -5  -7 311.577 53.9761   3
   4  -5  -7 217.696 51.2037   2
   4  -5  -6 9512.17 153.037   2
   4  -5  -6 8788.18 143.924   3
   4  -5  -5 623.467 63.1184   2
   4  -5  -5 765.036 63.5979   3
   4  -5  -4 8764.80 146.643   2
   4  -5  -3 9946.54 148.100   2
   4  -5  -3 9342.77 129.640   0
   4  -5  -2 114.393 50.3983   0
   4  -5  -2 133.172 47.8693   2
   4  -5  -1 4068.12 92.5883   0
   4  -5  -1 4153.74 98.2789   2
   4  -5   0 181.836 45.0419   0
   4  -5   0 136.809 39.2764   5
   4  -5   0 185.241 53.9970   2
   4  -5   1 21493.7 178.880   5
   4  -5   1 22214.6 199.248   0
   4  -5   2 1254.20 60.8539   5
   4  -5   2 1199.12 68.8694   0
   4  -5   3 496.496 56.9845   0
   4  -5   3 461.042 50.0816   5
   4  -5   4 10003.4 139.762   0
   4  -5   4 9870.63 133.362   5
   4  -5   5 412.510 53.9085   0
   4  -5   5 378.375 50.6463   5
   4  -5   6 60.0880 50.3970   0
   4  -5   6 40.0685 43.9387   5
   4  -5   7 14330.1 174.107   0
   4  -5   7 14233.0 174.843   5
   4  -5   8 3806.15 104.777   0
   4  -5   9 198.502 54.7285   0
   4  -5  10 2033.82 92.9375   0
   4  -5  11 8772.26 161.166   0
   4  -4 -12 802.658 72.7102   2
   4  -4 -11 3258.87 103.225   2
   4  -4 -11 2868.88 94.8391   3
   4  -4 -10-5.40565 50.9564   3
   4  -4 -10 100.884 54.1084   2
   4  -4  -9 226.178 51.1667   3
   4  -4  -9 300.446 55.4070   2
   4  -4  -8 160.727 44.4111   3
   4  -4  -8 82.3475 53.0116   2
   4  -4  -7 2151.68 85.6850   2
   4  -4  -7 2046.14 77.0048   3
   4  -4  -6-53.9176 53.5775   2
   4  -4  -5 71.7022 48.2903   2
   4  -4  -4 1536.42 71.9234   2
   4  -4  -3 62.9515 41.8536   0
   4  -4  -3 139.863 45.3478   2
   4  -4  -2 27.1498 41.0371   0
   4  -4  -2 17.9432 42.7128   2
   4  -4  -1 2987.32 80.4194   2
   4  -4  -1 3024.36 80.5947   0
   4  -4   0 180.593 44.0418   0
   4  -4   0 127.296 40.0739   5
   4  -4   0 223.437 47.4275   2
   4  -4   1 2263.30 69.0500   2
   4  -4   1 2448.99 71.5319   5
   4  -4   1 2406.95 76.3753   0
   4  -4   2 22145.9 189.785   5
   4  -4   2 22987.7 196.409   0
   4  -4   3 35734.4 241.855   0
   4  -4   3 34498.4 235.312   5
   4  -4   4 140.862 46.8111   0
   4  -4   4 95.6429 49.2164   5
   4  -4   5-1.79169 43.5363   0
   4  -4   5 26.5350 47.4717   5
   4  -4   6 652.356 51.7734   0
   4  -4   6 194.838 42.9349   5
   4  -4   7 1238.68 66.8637   0
   4  -4   8 524.387 58.3221   0
   4  -4   9 270.390 58.3123   0
   4  -4  10 528.608 65.6225   0
  -4   4 -11 1365.97 79.6604   6
   4  -4  11 1840.66 84.3563   0
  -4   4 -12 25.3821 53.6088   6
  -4   4 -13 2090.97 89.9659   6
   4  -3 -13 130.580 56.3502   2
   4  -3 -12 328.368 52.3363   2
   4  -3 -11 4193.97 105.428   2
   4  -3 -10 409.672 52.6603   2
   4  -3  -9 4157.33 103.597   2
   4  -3  -8 11991.8 162.262   2
   4  -3  -7 3757.92 99.6023   2
   4  -3  -6 13819.8 171.237   2
   4  -3  -5 141.124 48.1417   2
   4  -3  -4 5566.50 108.373   2
   4  -3  -3 207.092 49.3782   2
   4  -3  -2 4507.07 96.4298   2
   4  -3  -2 4408.62 88.3899   0
   4  -3  -1 21838.1 187.119   2
   4  -3  -1 23876.4 188.033   0
   4  -3   0-15.0045 35.7896   5
   4  -3   0 104.315 40.8802   0
   4  -3   0-22.8314 41.0939   2
   4  -3   0 41.2217 31.0617   1
   4  -3   1 219.957 42.7328   0
   4  -3   1 179.914 39.9237   2
   4  -3   1 196.130 41.2856   5
   4  -3   1 210.012 34.5219   1
   4  -3   2 15504.2 159.551   5
   4  -3   2 16375.7 160.542   0
   4  -3   2 16537.1 137.991   1
   4  -3   3 8343.73 103.820   1
   4  -3   3 8215.40 119.173   0
   4  -3   3 7949.69 120.739   5
   4  -3   4 16247.8 161.960   0
   4  -3   4 16761.6 173.666   5
   4  -3   5 297.787 49.8697   0
   4  -3   5 258.489 51.9063   5
   4  -3   6 6530.48 111.056   0
   4  -3   6 7202.96 126.183   5
   4  -3   7 4574.79 95.6053   0
   4  -3   8 266.812 43.6198   0
  -4   3  -9 16472.8 167.707   6
   4  -3   9 15811.3 172.654   0
  -4   3 -10 3057.17 84.3159   6
   4  -3  10 2871.19 85.8652   0
  -4   3 -11 126.484 43.0189   6
  -4   3 -12 1654.94 76.9988   6
  -4   3 -13 3462.74 101.286   6
   4  -2 -13 2122.38 87.9670   2
   4  -2 -12 384.151 54.9475   2
   4  -2 -11 3017.54 90.0781   2
   4  -2 -10-16.5946 45.0680   2
   4  -2  -9 500.420 54.0053   2
   4  -2  -8 12478.0 157.943   2
   4  -2  -7 143.915 52.5027   2
   4  -2  -6 20171.2 195.669   2
   4  -2  -5 36629.1 252.744   2
   4  -2  -4 2516.14 77.7882   2
   4  -2  -3 1481.08 62.5337   2
   4  -2  -2 2318.84 69.8004   2
   4  -2  -2 2514.46 70.9431   0
   4  -2  -2 2324.41 61.9757   1
   4  -2  -1 682.434 45.2170   2
   4  -2  -1 754.473 47.3863   0
   4  -2  -1 678.072 44.5710   5
   4  -2  -1 740.170 40.5633   1
   4  -2   0 1411.39 50.6788   1
   4  -2   0 1380.68 55.7731   2
   4  -2   0 1427.63 55.3092   0
   4  -2   0 1196.44 51.6111   5
   4  -2   1 8581.92 110.376   0
   4  -2   1 8849.90 108.115   1
   4  -2   1 7921.23 107.062   2
   4  -2   1 8688.87 119.447   5
   4  -2   2 2726.54 64.3495   1
   4  -2   2 2594.81 75.2957   5
   4  -2   2 2785.79 71.7107   0
   4  -2   3 1047.11 51.1291   1
   4  -2   3 1007.70 61.4451   5
   4  -2   3 916.187 58.0468   0
   4  -2   4 35845.9 208.425   1
   4  -2   4 36140.7 228.691   0
   4  -2   4 37471.1 253.605   5
   4  -2   5 70739.3 312.972   0
   4  -2   5 73491.6 359.752   5
   4  -2   6 7673.33 112.836   0
   4  -2   6 8104.37 134.594   5
   4  -2   7 2847.05 76.8870   0
  -4   2  -8 3087.82 76.3689   6
   4  -2   8 2982.47 78.4803   0
  -4   2  -9 47.5200 43.6457   6
  -4   2 -10 431.721 50.9807   6
  -4   2 -11 984.453 66.0117   6
  -4   2 -12 526.328 63.4562   6
  -4   2 -13-12.2425 55.2062   6
   4  -1 -14 3432.39 113.265   2
   4  -1 -13 184.884 52.8802   2
   4  -1 -12 487.614 54.5306   2
   4  -1 -11 1234.33 66.0821   2
   4  -1 -10 1587.16 68.9893   2
   4  -1  -9 894.591 53.7640   2
   4  -1  -8 188.336 44.6434   2
   4  -1  -7 338.402 51.1008   2
   4  -1  -6 8505.48 128.482   2
   4  -1  -5 7184.17 120.716   2
   4  -1  -4 12029.0 142.366   2
   4  -1  -4 11950.2 129.115   1
   4  -1  -3 136.706 40.4748   1
   4  -1  -3 112.060 36.3513   2
   4  -1  -2 82.9233 33.8833   2
   4  -1  -2 146.696 34.2408   1
   4  -1  -1 5818.83 91.2984   1
   4  -1  -1 5451.86 90.2513   2
   4  -1  -1 5648.13 90.6586   5
   4  -1  -1 6058.76 92.7203   0
   4  -1   0 2419.24 61.1009   1
   4  -1   0 2400.20 65.1430   2
   4  -1   0 2711.76 66.9769   0
   4  -1   0 2560.94 68.8836   5
   4  -1   1 2264.42 61.0372   2
   4  -1   1 2386.62 62.3685   0
   4  -1   1 2414.24 62.0603   1
   4  -1   1 2421.95 72.4644   5
   4  -1   2 29500.4 194.980   1
   4  -1   2 29978.3 216.419   5
   4  -1   2 28488.9 183.261   0
   4  -1   3 4612.52 83.7717   1
   4  -1   3 4539.03 97.3888   5
   4  -1   3 4535.33 82.9478   0
   4  -1   4 9903.21 116.354   1
   4  -1   4 10008.6 140.727   5
   4  -1   4 9998.30 119.418   0
   4  -1   5 8349.38 108.879   1
   4  -1   5 8064.75 108.897   0
   4  -1   5 7917.39 127.526   5
   4  -1   6 652.086 46.9179   0
   4  -1   6 768.752 60.9839   5
  -4   1  -7 2748.80 69.4372   6
  -4   1  -8 18.1700 34.6321   6
  -4   1  -9 5578.64 104.147   6
  -4   1 -10 127.045 50.8863   6
  -4   1 -11 1267.17 67.7366   6
  -4   1 -12 3483.98 95.4833   6
  -4   1 -13 209.924 53.9783   6
   4   0 -14 29.3828 49.9822   2
   4   0 -13 2344.78 90.0090   2
   4   0 -12 368.992 55.6852   2
   4   0 -11 5508.61 111.120   2
   4   0 -10 4575.57 99.3906   2
   4   0  -9 1428.85 64.5737   2
   4   0  -8 5072.21 94.7765   2
   4   0  -7 6240.60 107.324   2
   4   0  -6 850.565 57.6703   2
   4   0  -6 669.110 52.9475   1
   4   0  -5 5219.84 102.710   2
   4   0  -5 4490.18 85.2625   1
   4   0  -4 16922.1 152.477   1
   4   0  -4 17811.9 165.867   2
   4   0  -3 68194.1 295.269   1
   4   0  -3 68617.9 310.946   2
   4   0  -2 1804.81 59.0202   1
   4   0  -2 2005.91 61.3971   2
   4   0  -1 6992.67 98.6714   1
   4   0  -1 6662.78 94.9005   2
   4   0  -1 6442.87 97.9232   5
   4   0   0 7275.04 102.157   2
   4   0   0 7389.74 103.636   1
   4   0   0 7072.14 104.689   5
   4   0   0 7508.48 97.1787   0
   4   0   1 513.000 41.2260   1
   4   0   1 521.441 39.2592   0
   4   0   1 463.419 50.4467   5
   4   0   2 27874.8 175.676   0
   4   0   2 27188.3 189.010   1
   4   0   2 26972.2 206.496   5
   4   0   3 18486.7 158.313   1
   4   0   3 19301.1 180.138   5
   4   0   3 19186.7 145.504   0
   4   0   4 18105.8 158.841   1
   4   0   4 18551.4 183.465   5
   4   0   4 18699.2 146.574   0
  -4   0  -5 12919.5 121.219   6
   4   0   5 12326.2 135.038   1
   4   0   5 12817.9 157.956   5
  -4   0  -6 4303.02 82.3426   6
   4   0   6 4477.45 89.8768   1
   4   0   6 4536.23 106.165   5
  -4   0  -7 19928.1 167.222   6
  -4   0  -8 3434.01 80.6721   6
  -4   0  -9 504.832 48.3721   6
  -4   0 -10 5846.91 112.733   6
  -4   0 -11 1450.73 67.6853   6
  -4   0 -12-64.4531 49.0476   6
  -4   0 -13 100.824 56.4109   6
   4   1 -14 365.272 53.7759   2
   4   1 -13 666.567 65.0726   2
   4   1 -12 88.5187 48.4259   2
   4   1 -11 500.435 51.2232   2
   4   1 -10 3828.17 90.9419   2
   4   1  -9 118.876 40.3649   2
   4   1  -8 3982.82 84.6308   2
   4   1  -7 13525.2 148.029   2
   4   1  -7 13609.7 142.345   1
   4   1  -6 28140.2 211.760   2
   4   1  -6 25833.4 188.021   1
   4   1  -5 17255.8 160.410   1
   4   1  -5 18976.9 175.441   2
   4   1  -4-9.76133 40.0563   2
   4   1  -4 240.282 45.0770   1
   4   1  -3 811.719 54.1078   1
   4   1  -3 1001.84 48.5966   2
   4   1  -2 5386.41 93.8852   1
   4   1  -2 5285.85 83.2381   2
   4   1  -1 962.510 42.0988   2
   4   1  -1 1013.60 53.6325   1
   4   1   0-18.0170 27.3571   2
   4   1   0-15.7319 33.3208   5
   4   1   1 192.703 40.2653   5
   4   1   1 214.472 36.6562   1
   4   1   2 3952.14 81.8165   1
   4   1   2 3805.88 64.5022   0
   4   1   2 3990.97 86.7878   5
   4   1   3 3625.59 79.5978   1
   4   1   3 3768.37 87.0112   5
  -4  -1  -4 8010.39 95.2373   6
   4   1   4 7522.89 109.010   1
   4   1   4 8237.87 127.109   5
  -4  -1  -5 22185.7 162.268   6
   4   1   5 21319.4 180.586   1
   4   1   5 22638.7 206.208   5
   4   1   6 46.4017 44.5937   1
  -4  -1  -6-32.5511 44.4628   6
   4   1   6 1.93506 54.7529   5
  -4  -1  -7 3309.47 81.4428   6
   4   1   7 3363.37 83.0881   1
  -4  -1  -8-28.4042 42.6438   6
  -4  -1  -9 66.0553 45.5295   6
  -4  -1 -10 306.341 48.4379   6
  -4  -1 -11 108.524 41.8373   6
  -4  -1 -12 146.943 48.2659   6
   4   2 -14 17.9826 45.6427   2
   4   2 -13 843.054 58.8365   2
   4   2 -12 286.450 54.4517   4
   4   2 -12 280.239 45.9810   2
   4   2 -11 1517.26 65.2430   2
   4   2 -11 1608.02 71.0473   4
   4   2 -10 304.105 41.0085   2
   4   2 -10 280.043 45.6635   4
   4   2  -9 1010.27 54.0281   2
   4   2  -9 873.455 55.3320   4
   4   2  -8 808.568 49.4894   2
   4   2  -8 876.118 57.8879   4
   4   2  -8 1011.73 53.5027   1
   4   2  -7 775.186 53.0347   2
   4   2  -7 719.512 59.5988   4
   4   2  -7 780.794 55.4828   1
   4   2  -6 44679.0 250.658   1
   4   2  -6 46404.3 263.018   2
   4   2  -5 28135.8 201.015   1
   4   2  -5 27711.2 206.581   4
   4   2  -4 21243.0 175.365   1
   4   2  -4 21974.7 167.842   2
   4   2  -4 21197.8 173.666   4
   4   2  -3 23911.3 187.616   1
   4   2  -3 23254.7 164.764   2
   4   2  -3 23718.4 179.770   4
   4   2  -2 919.245 43.4115   2
   4   2  -2 986.997 57.4879   1
   4   2  -2 1055.67 51.2279   4
   4   2  -1 16173.6 134.412   2
   4   2  -1 15947.6 154.948   1
   4   2   0 11017.9 129.927   1
   4   2   0 10683.1 123.442   5
   4   2   1 116.155 38.2730   5
   4   2   1 93.0905 37.8753   1
   4   2   2 8889.09 118.983   1
   4   2   2 9445.82 127.544   5
  -4  -2  -3 5915.45 79.0457   6
   4   2   3 5762.50 99.9404   1
   4   2   3 6001.02 106.203   5
   4   2   4 42.7153 40.0459   1
  -4  -2  -4-41.0537 36.0527   6
   4   2   4 28.7954 42.9090   5
  -4  -2  -5 5397.14 89.4960   6
   4   2   5 5422.16 101.455   1
   4   2   5 5868.58 113.629   5
  -4  -2  -6 25604.5 189.344   6
   4   2   6 26122.5 228.436   5
   4   2   6 24601.3 206.573   1
  -4  -2  -7 6679.85 108.399   6
   4   2   7 6708.25 130.056   5
  -4  -2  -8 1832.23 69.6631   6
  -4  -2  -9 3773.87 96.4104   6
  -4  -2 -10 2019.00 75.3372   6
  -4  -2 -11 47.3944 45.6820   6
  -4  -2 -12 4283.39 110.887   6
   4   3 -15 1587.20 82.9920   2
   4   3 -15 1229.39 74.5334   4
   4   3 -14 234.155 48.6488   2
   4   3 -14 245.893 60.3575   4
   4   3 -13 1082.99 64.3497   2
   4   3 -13 1148.27 71.1215   4
   4   3 -12 1021.21 62.9980   2
   4   3 -12 1152.40 68.7970   4
   4   3 -11 343.214 42.3728   2
   4   3 -11 383.188 55.6769   4
   4   3 -10 1214.21 54.7058   2
   4   3 -10 1309.79 70.6092   4
   4   3  -9 1528.28 58.4943   2
   4   3  -9 1427.45 71.8718   4
   4   3  -9 1579.48 59.5911   1
   4   3  -8 137.221 42.3574   1
   4   3  -8 90.3429 36.0845   2
   4   3  -8 46.8465 48.8838   4
   4   3  -7 19387.0 169.457   1
   4   3  -7 19406.2 169.629   2
   4   3  -7 19094.0 185.599   4
   4   3  -6 8645.21 117.014   1
   4   3  -6 8737.55 128.032   4
   4   3  -5 18534.4 171.089   1
   4   3  -5 19537.7 158.493   2
   4   3  -5 18710.7 175.560   4
   4   3  -4 4447.88 97.0241   1
   4   3  -4 4660.74 79.4969   2
   4   3  -4 4881.70 93.7617   4
   4   3  -3 35739.2 195.140   2
   4   3  -3 36460.5 234.947   1
   4   3  -3 35376.0 222.665   4
   4   3  -2 34294.5 226.682   1
   4   3  -2 34496.9 214.713   4
   4   3  -1 2573.97 75.3129   1
   4   3  -1 2565.14 66.4149   4
   4   3   0 4766.65 92.5026   1
   4   3   0 4725.12 85.4681   5
   4   3   0 4449.16 77.0388   4
   4   3   1 763.493 51.0636   1
   4   3   1 724.463 47.5610   5
  -4  -3  -2 2752.24 58.8709   6
   4   3   2 3031.61 80.3610   5
   4   3   2 2570.11 72.3531   1
  -4  -3  -3 8735.39 103.803   6
   4   3   3 9224.59 129.567   5
   4   3   3 8838.24 125.512   1
  -4  -3  -4 4197.50 81.3810   6
   4   3   4 4549.24 99.7422   5
   4   3   4 4146.77 93.1538   1
  -4  -3  -5 3502.49 80.8394   6
   4   3   5 3314.93 94.0212   5
  -4  -3  -6 239.623 41.6602   6
   4   3   6 303.412 57.9936   5
  -4  -3  -7 5466.11 102.504   6
   4   3   7 6063.95 123.578   5
  -4  -3  -8 12266.1 152.666   6
   4   3   8 13576.8 182.239   5
  -4  -3  -9 850.517 60.5304   6
  -4  -3 -10-10.7875 48.1352   6
  -4  -3 -11 1302.78 73.3995   6
   4   4 -14 1473.36 76.7675   4
   4   4 -13 1686.03 83.2230   4
   4   4 -12 16.2898 53.5350   4
   4   4 -11 420.306 60.7027   4
   4   4 -10 164.357 47.2488   4
   4   4  -9 43.0755 35.3144   1
   4   4  -9 7.45822 44.8354   4
   4   4  -8 4497.69 91.3202   1
   4   4  -8 3989.90 96.2307   4
   4   4  -7 5010.06 93.2507   1
   4   4  -7 4871.37 103.786   4
   4   4  -6 146.376 41.8376   1
   4   4  -6 34.9540 40.9279   4
   4   4  -5 476.336 51.6463   1
   4   4  -5 544.211 48.1916   4
   4   4  -4 1370.44 66.2365   1
   4   4  -4 1330.27 58.9406   4
   4   4  -3 24013.9 197.153   1
   4   4  -3 24240.2 188.419   4
   4   4  -2 14860.2 158.912   1
   4   4  -2 14454.2 144.532   4
   4   4  -1 3964.94 92.4614   1
   4   4  -1 3933.34 79.2592   4
   4   4   0 679.399 52.8198   1
   4   4   0 658.782 43.4458   4
   4   4   0 496.849 34.3033   6
  -4  -4  -1 546.646 42.6510   6
   4   4   1 543.954 46.1855   5
   4   4   1 611.084 51.1654   1
   4   4   1 398.644 39.6604   6
  -4  -4  -2 1966.84 61.2619   6
   4   4   2 2077.84 70.7415   5
   4   4   2 1961.91 69.9673   1
  -4  -4  -3 248.914 45.2793   6
   4   4   3 329.480 50.9304   1
   4   4   3 176.927 47.1264   5
  -4  -4  -4 19374.9 168.409   6
   4   4   4 20705.0 190.848   5
  -4  -4  -5 1302.95 60.8122   6
   4   4   5 1525.34 69.6808   5
  -4  -4  -6 123.707 43.8133   6
   4   4   6 147.092 48.1674   5
  -4  -4  -7 1240.01 64.2607   6
  -4  -4  -8 2498.24 79.6582   6
  -4  -4  -9-19.9545 41.1803   6
  -4  -4 -10 35.5551 43.3509   6
   4   5 -14 910.199 74.2155   4
   4   5 -13 2413.34 97.2584   4
   4   5 -12 959.335 66.1806   4
   4   5 -11 2424.84 88.7615   4
   4   5 -10 5329.48 113.575   4
   4   5  -9 5991.13 116.797   4
   4   5  -8 8221.49 119.143   1
   4   5  -8 8135.96 132.373   4
   4   5  -7 4608.97 93.2894   1
   4   5  -7 4858.58 105.067   4
   4   5  -6 1708.11 67.1162   1
   4   5  -6 1787.64 71.2672   4
   4   5  -5 10360.4 134.818   1
   4   5  -5 10038.4 137.722   4
   4   5  -4 743.571 53.1648   1
   4   5  -4 594.457 54.9824   4
   4   5  -3 4638.44 97.7789   1
   4   5  -3 4350.83 90.5509   4
   4   5  -2 10862.9 142.572   1
   4   5  -2 10518.4 127.868   4
   4   5  -1 21374.1 195.070   1
   4   5  -1 21124.7 170.144   4
   4   5   0 25946.0 213.687   1
   4   5   0 20530.6 160.180   6
   4   5   1 9905.17 141.218   1
   4   5   1 11055.7 130.207   6
  -4  -5  -2 1629.79 65.8264   6
   4   5   2 1766.79 72.5780   1
  -4  -5  -3 6268.59 103.083   6
  -4  -5  -4 2197.16 69.8926   6
  -4  -5  -5 946.621 55.9543   6
  -4  -5  -6 705.333 53.9228   6
  -4  -5  -7 1011.31 63.7966   6
  -4  -5  -8 164.201 47.3574   6
  -4  -5  -9 1213.91 64.9512   6
   4   6 -12 137.468 56.5291   4
   4   6 -11 278.652 59.8227   4
   4   6 -10 501.561 56.9548   4
   4   6  -9 3387.50 98.4387   4
   4   6  -8 4179.60 105.469   4
   4   6  -7 2459.41 77.5587   1
   4   6  -7 2370.38 79.7944   4
   4   6  -6 849.586 56.9759   1
   4   6  -6 901.631 64.2201   4
   4   6  -5 1708.64 69.4887   1
   4   6  -5 1544.71 67.7894   4
   4   6  -4 101.678 40.7669   4
   4   6  -4 123.828 42.3028   1
   4   6  -3 979.449 57.9929   1
   4   6  -3 902.550 56.9065   4
   4   6  -2 48.1269 33.5276   6
   4   6  -2 71.6604 35.9731   4
   4   6  -2 67.0402 46.3430   1
   4   6  -1 3522.56 93.8128   1
   4   6  -1 3770.78 83.2921   6
   4   6   0 3711.76 98.1910   1
   4   6   0 3527.86 81.0689   6
   4   6   1 147.756 51.7975   1
   4   6   1 181.863 48.5468   6
   4   6   2 84.4824 46.5510   6
  -4  -6  -3 4330.36 97.3912   6
  -4  -6  -4 1440.12 67.7105   6
  -4  -6  -5 1387.73 69.2219   6
  -4  -6  -6 548.116 60.6656   6
  -4  -6  -7 71.3313 44.5012   6
  -4  -6  -8 60.8061 49.0495   6
   4   7 -11 975.713 76.3377   4
   4   7 -10 1138.09 76.6351   4
   4   7  -9 670.143 63.0130   4
   4   7  -8 995.905 66.8679   4
   4   7  -7 1950.34 80.9312   4
   4   7  -6-7.98970 48.9394   1
   4   7  -6 18.3112 48.1467   4
   4   7  -5 4460.42 98.8277   1
   4   7  -5 4225.60 101.391   4
   4   7  -4 5506.86 113.089   1
   4   7  -4 5295.76 109.000   4
   4   7  -3 5750.08 116.041   1
   4   7  -3 5411.71 107.813   4
   4   7  -3 5666.01 100.408   6
   4   7  -2 5948.73 119.327   1
   4   7  -2 5464.61 103.618   4
   4   7  -2 6214.30 108.832   6
   4   7  -1 3566.69 96.4376   1
   4   7  -1 3714.35 91.9849   6
   4   7   0 3739.59 103.851   1
   4   7   0 3536.91 85.2660   6
   4   7   1 7488.97 121.185   6
   4   7   2 7014.48 125.173   6
  -4  -7  -3 643.604 57.0649   6
  -4  -7  -4 893.742 60.9430   6
  -4  -7  -5 1487.77 74.6902   6
  -4  -7  -6-36.6332 53.1905   6
  -4  -7  -7 35.9100 39.5511   6
   4   8 -10 556.599 71.7878   4
   4   8  -9 178.008 54.5301   4
   4   8  -8 259.065 54.5575   4
   4   8  -7 1406.42 75.6123   4
   4   8  -6 679.239 59.6818   4
   4   8  -5 4931.67 109.627   1
   4   8  -5 5081.56 113.571   4
   4   8  -4 3305.19 94.4169   1
   4   8  -4 3252.52 90.9890   4
   4   8  -4 3619.01 91.1614   6
   4   8  -3 2334.48 86.4548   1
   4   8  -3 2489.73 83.1187   4
   4   8  -3 2291.77 77.3303   6
   4   8  -2 1196.54 68.3666   1
   4   8  -2 1170.72 69.3696   6
   4   8  -1 160.166 51.3086   1
   4   8  -1 121.358 48.7753   6
   4   8   0 2749.70 99.6849   1
   4   8   0 2604.87 79.7950   6
   4   8   1 2607.99 82.8685   6
   4   8   2 283.708 55.5712   6
  -4  -8  -3 25.0764 52.1409   6
  -4  -8  -4 139.493 49.4747   6
  -4  -8  -5 408.511 62.5337   6
   4   9  -8 528.581 64.3005   4
   4   9  -7 666.248 58.5010   4
   4   9  -6 501.895 63.6439   4
   4   9  -5 85.2755 42.3052   4
   4   9  -4 185.248 46.3086   6
   4   9  -4 170.092 42.8689   4
   4   9  -3 115.760 44.4373   6
   4   9  -3 238.774 58.6156   1
   4   9  -2 602.682 64.7696   1
   4   9  -2 614.411 62.3126   6
   4   9  -1 350.309 57.2255   6
   4   9  -1 570.210 71.1421   1
   4   9   0 654.737 67.4812   1
   4   9   0 635.204 66.0941   6
   4   9   1 620.719 64.3743   6
   4   9   2 77.9346 51.0662   6
  -4  -9  -3 299.783 59.9327   6
   4  10  -5 427.786 52.8065   6
   4  10  -5 678.220 66.0223   4
   4  10  -4 501.246 53.1111   6
   4  10  -3 383.001 67.9053   6
   4  10  -2 1689.48 85.3753   1
   4  10  -2 1651.46 81.8527   6
   4  10  -1 191.308 69.9989   1
   4  10  -1 136.648 51.8395   6
   5  -9  -3 59.8773 50.5822   0
   5  -9  -2 23.5655 44.5292   0
   5  -9  -1-37.5606 47.2074   0
   5  -9   0 294.949 70.5833   0
   5  -9   1 308.603 63.1553   0
   5  -9   2 40.5863 50.4855   0
   5  -9   3 2030.95 95.8316   0
   5  -8  -6 112.624 52.0139   2
   5  -8  -5 493.948 69.7017   2
   5  -8  -4 323.103 67.7959   2
   5  -8  -3 523.987 78.6551   2
   5  -8  -3 442.723 61.1745   0
   5  -8  -2 165.708 60.7047   2
   5  -8  -2 136.322 57.7999   0
   5  -8  -1 693.249 68.1885   2
   5  -8  -1 576.908 69.3551   0
   5  -8   0-27.6821 52.4889   0
   5  -8   1 304.649 65.6134   0
   5  -8   2 1297.51 82.6461   0
   5  -8   3 79.7281 61.6456   0
   5  -8   4 293.477 74.9503   0
   5  -8   5 459.412 69.5253   0
   5  -8   6 1884.73 98.4785   0
   5  -7  -8 519.623 75.9498   2
   5  -7  -7 2604.05 110.532   2
   5  -7  -6 70.5560 55.9326   2
   5  -7  -5-53.5531 58.5806   2
   5  -7  -4 5021.22 134.888   2
   5  -7  -3 34.5494 63.9948   2
   5  -7  -3 41.1185 50.1591   0
   5  -7  -2 333.162 74.5482   2
   5  -7  -2 351.811 57.3229   0
   5  -7  -1 464.755 65.0369   0
   5  -7  -1 433.460 73.4376   2
   5  -7   0 76.0793 58.0924   2
   5  -7   0 55.4054 60.1667   0
   5  -7   1 694.077 64.1286   0
   5  -7   2 92.2597 59.6340   0
   5  -7   3 3553.73 110.871   0
   5  -7   4 67.4782 56.4208   0
   5  -7   5 1109.03 88.9779   0
   5  -7   6 6175.58 143.130   0
   5  -7   7-5.30145 65.2335   0
   5  -7   8 402.851 76.3784   0
   5  -6  -9 1828.88 94.7340   2
   5  -6  -8-10.3827 54.8907   2
   5  -6  -7 1287.59 89.7380   2
   5  -6  -6 912.980 81.4598   2
   5  -6  -5 27.0671 65.7208   2
   5  -6  -4 1012.68 83.8547   2
   5  -6  -3 2441.01 103.932   2
   5  -6  -3 2422.12 92.6209   0
   5  -6  -2 5432.66 133.610   2
   5  -6  -2 5514.64 123.285   0
   5  -6  -1 5040.42 131.900   2
   5  -6  -1 4374.92 114.488   0
   5  -6   0 53.6756 50.7533   2
   5  -6   0 39.1885 56.7107   0
   5  -6   1 1216.35 74.0531   0
   5  -6   2-12.4443 56.7316   0
   5  -6   3 301.800 51.5725   5
   5  -6   3 262.334 65.4752   0
   5  -6   4 6339.64 129.774   5
   5  -6   4 5894.66 129.627   0
   5  -6   5 6437.87 136.783   0
   5  -6   5 6367.08 128.682   5
   5  -6   6 12.4661 54.5740   0
   5  -6   6-31.8345 59.5521   5
   5  -6   7 310.054 64.3180   0
   5  -6   7 439.959 71.3709   5
   5  -6   8 3265.66 109.943   0
   5  -6   8 3611.51 110.961   5
   5  -6   9 1144.42 81.6626   0
   5  -6   9 1324.63 86.6058   5
   5  -6  10-2.10467 53.0142   5
   5  -5 -10-13.6518 59.1402   2
   5  -5  -9 2.46689 58.7740   2
   5  -5  -8 764.941 79.5875   2
   5  -5  -7 871.766 69.1809   2
   5  -5  -6 2322.24 98.2390   2
   5  -5  -5 1035.09 79.0839   2
   5  -5  -4 1617.78 93.7361   2
   5  -5  -3 380.193 72.6690   2
   5  -5  -3 498.886 68.9202   0
   5  -5  -2 7913.35 149.066   2
   5  -5  -2 7847.85 137.108   0
   5  -5  -1 2095.02 91.3056   2
   5  -5  -1 2069.47 89.6058   0
   5  -5   0 9309.05 152.042   2
   5  -5   0 9722.88 153.582   0
   5  -5   1 7.85651 55.3644   0
   5  -5   1 47.0770 42.0435   5
   5  -5   2 95.2453 57.6569   0
   5  -5   2 169.491 44.7253   5
   5  -5   3-67.3840 53.8521   5
   5  -5   3 31.1320 50.2599   0
   5  -5   4 1013.32 71.3344   5
   5  -5   4 1078.20 72.9604   0
   5  -5   5 98.8266 61.6871   0
   5  -5   5 64.6457 58.0873   5
   5  -5   6 592.793 64.1895   0
   5  -5   6 649.757 71.8266   5
   5  -5   7 146.221 54.3308   0
   5  -5   7 154.322 63.6329   5
   5  -5   8 4744.32 125.256   0
   5  -5   8 5120.53 129.308   5
   5  -5   9 919.159 82.3987   0
   5  -5   9 1049.46 77.0999   5
   5  -5  10 425.912 73.5875   0
   5  -5  10 387.353 78.4870   5
   5  -4 -11 1904.16 94.7976   2
   5  -4 -10-57.1980 53.1136   2
   5  -4  -9 3246.97 105.132   2
   5  -4  -8 221.973 57.5541   2
   5  -4  -7 762.353 66.5861   2
   5  -4  -6 7893.06 149.019   2
   5  -4  -5 904.244 83.2130   2
   5  -4  -4 9719.64 163.001   2
   5  -4  -3 12204.0 178.084   2
   5  -4  -2 322.051 59.4440   0
   5  -4  -2 244.233 69.4420   2
   5  -4  -1 9076.06 153.359   2
   5  -4  -1 9695.94 148.777   0
   5  -4   0 9784.42 150.990   2
   5  -4   0 10230.0 150.786   0
   5  -4   0 9597.59 136.196   5
   5  -4   1 9730.71 149.603   0
   5  -4   1 8857.50 133.465   5
   5  -4   2-31.0831 56.6543   0
   5  -4   2 6.11887 46.7612   5
   5  -4   3 400.176 56.1096   0
   5  -4   3 501.013 59.9159   5
   5  -4   4 651.970 63.3716   5
   5  -4   4 635.677 59.0939   0
   5  -4   5 29.2029 46.4733   5
   5  -4   5-4.38855 58.8727   0
   5  -4   6 8531.21 144.707   0
   5  -4   6 8758.65 153.791   5
   5  -4   7 10744.0 162.128   0
   5  -4   7 10953.1 174.813   5
   5  -4   8 644.606 62.9284   0
   5  -4   8 721.947 73.0446   5
   5  -4   9 1934.22 87.0414   0
   5  -4   9 2158.44 99.3555   5
   5  -4  10 5610.24 127.025   0
   5  -4  10 6936.22 160.509   5
   5  -3 -11 1206.21 80.4596   2
   5  -3 -10 31.8820 51.0499   2
   5  -3  -9 513.733 63.0273   2
   5  -3  -8 4773.68 118.269   2
   5  -3  -7 68.1724 50.8651   2
   5  -3  -6 4373.66 111.511   2
   5  -3  -5 1279.05 81.3971   2
   5  -3  -4 42.2155 58.8582   2
   5  -3  -3 14590.3 184.687   2
   5  -3  -2 2655.71 91.8507   2
   5  -3  -2 2779.46 90.0490   0
   5  -3  -1 318.779 55.6346   0
   5  -3  -1 324.309 61.6461   2
   5  -3   0 841.141 66.1196   2
   5  -3   0 807.140 63.7114   0
   5  -3   0 792.939 62.8754   5
   5  -3   0 809.816 57.4299   1
   5  -3   1 481.331 60.3180   0
   5  -3   1 614.757 62.8435   5
   5  -3   1 523.762 51.5569   1
   5  -3   2 19384.6 192.082   0
   5  -3   2 20127.4 208.073   5
   5  -3   2 19657.9 173.207   1
   5  -3   3 4244.20 107.233   5
   5  -3   3 4416.51 103.394   0
   5  -3   4 1842.05 78.9097   5
   5  -3   4 1813.29 76.6090   0
   5  -3   5 557.047 58.1660   5
   5  -3   5 499.128 56.2715   0
   5  -3   6 63.8473 51.4698   0
   5  -3   6 101.674 54.5730   5
   5  -3   7-29.4012 49.3280   0
   5  -3   7 36.9458 55.0467   5
   5  -3   8-23.5679 43.5000   0
   5  -3   8 103.587 57.3302   5
   5  -3   9 982.022 77.6108   5
   5  -3  10 306.738 75.2944   5
   5  -2 -12 222.639 54.4459   2
   5  -2 -11 2520.40 99.8784   2
   5  -2 -10 324.936 63.6930   2
   5  -2  -9 4927.39 121.058   2
   5  -2  -8 670.541 67.3264   2
   5  -2  -7 1097.31 71.7838   2
   5  -2  -6 255.860 51.8804   2
   5  -2  -5 1014.93 70.6179   2
   5  -2  -4 796.044 67.6617   2
   5  -2  -3 30.7467 60.5118   2
   5  -2  -3 23.6135 49.9681   1
   5  -2  -2 10621.2 147.977   2
   5  -2  -2 11237.8 139.564   1
   5  -2  -1 22046.6 211.601   2
   5  -2  -1 22881.2 204.306   0
   5  -2  -1 21973.8 187.893   1
   5  -2   0 1077.94 60.7432   1
   5  -2   0 816.920 63.3234   2
   5  -2   0 970.742 66.1207   0
   5  -2   0 841.005 65.3033   5
   5  -2   1 9016.55 126.894   1
   5  -2   1 8873.95 131.665   0
   5  -2   1 8820.09 140.056   5
   5  -2   2 9639.02 128.165   1
   5  -2   2 9328.05 134.409   0
   5  -2   2 9866.75 150.535   5
   5  -2   3 1899.33 68.6412   1
   5  -2   3 1958.56 84.3326   5
   5  -2   3 2113.70 73.7573   0
   5  -2   4 2589.30 90.5342   5
   5  -2   4 2652.75 79.5970   0
   5  -2   5 1215.70 74.5817   5
   5  -2   5 1185.71 59.6963   0
   5  -2   6 3588.75 108.397   5
   5  -2   6 3460.12 91.9639   0
   5  -2   7 1880.51 91.6334   5
   5  -2   8 574.888 77.8438   5
   5  -2   9 1863.66 97.8082   5
   5  -2  10 264.060 72.4430   5
   5  -1 -12 41.2630 58.6540   2
   5  -1 -11 3732.24 106.986   2
   5  -1 -10 401.121 59.0523   2
   5  -1  -9 1940.78 82.9879   2
   5  -1  -8 12946.2 179.236   2
   5  -1  -7 2865.11 93.3679   2
   5  -1  -6 11461.0 160.753   2
   5  -1  -5 21291.5 212.240   2
   5  -1  -5 20836.2 190.519   1
   5  -1  -4 5987.06 122.010   2
   5  -1  -4 5860.55 108.343   1
   5  -1  -3 13694.3 169.725   2
   5  -1  -3 12988.0 151.161   1
   5  -1  -2 278.817 55.1860   2
   5  -1  -2 346.126 55.7123   1
   5  -1  -1 5190.07 101.748   1
   5  -1  -1 5096.96 105.084   2
   5  -1   0 5337.53 102.283   1
   5  -1   0 5185.53 103.421   2
   5  -1   0 5404.75 107.977   5
   5  -1   0 5822.49 105.483   0
   5  -1   1 4905.08 96.8677   1
   5  -1   1 5355.01 102.091   0
   5  -1   1 5157.92 110.318   5
   5  -1   2 1383.30 61.5086   1
   5  -1   2 1406.07 64.3312   0
   5  -1   2 1530.89 79.2923   5
   5  -1   3 1089.58 56.4167   0
   5  -1   3 1158.71 63.3590   1
   5  -1   3 1216.84 73.7171   5
   5  -1   4 10340.8 135.252   1
   5  -1   4 10360.9 156.264   5
   5  -1   4 10383.2 130.684   0
   5  -1   5 6542.48 132.652   5
   5  -1   6 692.960 71.6355   5
   5  -1   7 13802.2 192.809   5
   5  -1   8 1109.67 83.4721   5
   5  -1   9-28.3311 60.3766   5
   5  -1  10 4.02709 71.4908   5
   5   0 -13 13.5631 56.0129   2
   5   0 -12 64.3823 56.4247   2
   5   0 -11 295.336 50.6072   2
   5   0 -10 349.577 52.6494   2
   5   0  -9 2348.91 87.8388   2
   5   0  -8 4255.33 107.264   2
   5   0  -7 792.467 61.8347   2
   5   0  -6 1203.83 66.8096   2
   5   0  -6 1159.01 65.3958   1
   5   0  -5 3478.79 93.9491   2
   5   0  -5 2988.26 85.5692   1
   5   0  -4 16324.3 170.420   1
   5   0  -4 16316.1 177.126   2
   5   0  -3 989.127 65.6076   1
   5   0  -3 963.948 60.6801   2
   5   0  -2 2474.63 80.1749   1
   5   0  -2 2475.92 76.4808   2
   5   0  -1 6442.37 114.310   1
   5   0  -1 6432.99 110.916   2
   5   0   0 774.907 50.6415   2
   5   0   0 871.019 60.0509   1
   5   0   0 784.004 57.1848   5
   5   0   1 12574.7 151.275   1
   5   0   1 12477.9 160.747   5
   5   0   1 13034.4 141.366   0
   5   0   2 1748.46 69.6086   1
   5   0   2 1886.46 62.9835   0
   5   0   2 1941.04 82.5348   5
   5   0   3 727.806 56.9626   1
   5   0   3 727.783 67.5389   5
   5   0   4 119.073 50.1523   5
   5   0   4 113.342 43.3317   1
   5   0   5 145.030 59.2203   5
   5   0   5 109.410 44.3560   1
   5   0   6 193.179 59.6037   5
   5   0   7 186.874 62.3653   5
   5   0   8 4488.13 124.569   5
   5   0   9 50.1400 71.3749   5
   5   0  10 218.359 62.3512   5
   5   1 -13 2803.88 94.7020   2
   5   1 -12 205.223 47.0556   2
   5   1 -11 2388.06 86.4467   2
   5   1 -10 372.218 55.4260   2
   5   1  -9 2198.62 80.8373   2
   5   1  -8 6949.19 126.387   2
   5   1  -8 7099.41 121.236   1
   5   1  -7 7997.16 132.326   2
   5   1  -7 7669.40 122.449   1
   5   1  -6 1474.72 69.3468   2
   5   1  -6 1337.32 70.7006   1
   5   1  -5 10500.0 145.669   1
   5   1  -5 10982.5 149.824   2
   5   1  -4 9052.21 135.252   1
   5   1  -4 9271.48 134.018   2
   5   1  -3 21235.8 191.918   1
   5   1  -3 20745.4 189.710   2
   5   1  -2 2571.05 81.4986   1
   5   1  -2 2467.03 75.0906   2
   5   1  -1 18883.8 176.823   2
   5   1  -1 18822.1 186.098   1
   5   1   0 7644.75 125.070   1
   5   1   0 7497.38 123.482   5
   5   1   1 1445.17 67.5730   1
   5   1   1 1351.29 68.8013   5
   5   1   2 10286.8 139.828   1
   5   1   2 10913.2 159.060   5
   5   1   3 9224.20 135.013   1
   5   1   3 9867.89 153.678   5
   5   1   4 160.803 55.8131   5
   5   1   4 174.883 53.0767   1
   5   1   5 3327.76 91.9206   1
   5   1   5 3313.44 104.201   5
   5   1   6 1928.38 79.2186   1
   5   1   6 2100.29 92.5506   5
   5   1   7 1282.01 83.3048   5
   5   1   8 316.854 63.2346   5
   5   1   9 3663.73 124.184   5
   5   1  10 4887.41 136.271   5
   5   2 -13 777.730 62.1028   2
   5   2 -12 245.944 50.0598   2
   5   2 -11 43.8609 46.8150   2
   5   2 -10 884.647 61.2179   2
   5   2  -9 532.290 53.4269   2
   5   2  -9 521.334 50.2127   1
   5   2  -8 43.4943 48.9727   1
   5   2  -8 28.8571 45.3086   2
   5   2  -7-59.2702 55.7019   1
   5   2  -7 27.4607 38.8049   2
   5   2  -6-45.4170 57.0517   1
   5   2  -6 16.5534 42.2450   2
   5   2  -5 27178.1 224.564   1
   5   2  -5 29600.8 230.815   2
   5   2  -4 7982.74 130.575   1
   5   2  -4 8384.39 121.652   2
   5   2  -3 2918.62 91.3050   1
   5   2  -3 2713.15 72.9790   2
   5   2  -2 989.158 55.0017   2
   5   2  -2 746.070 64.0700   1
   5   2  -1 420.246 39.6080   2
   5   2  -1 327.037 56.5436   1
   5   2   0-17.9622 40.2987   5
   5   2   0-1.44743 42.5083   1
   5   2   1 729.468 53.9373   1
   5   2   1 706.549 58.3525   5
   5   2   2 2.31821 45.5874   5
   5   2   3 1070.24 62.9589   1
   5   2   3 1177.60 72.3194   5
   5   2   4 40.2729 59.3301   5
   5   2   4 40.5185 51.5159   1
   5   2   5 9265.75 144.015   1
   5   2   5 10096.3 158.935   5
   5   2   6 1144.15 69.5336   1
   5   2   6 1328.98 82.9195   5
   5   2   7 94.2328 45.8838   1
   5   2   7 80.9239 62.4033   5
   5   2   8 1500.35 89.1560   5
   5   2   9 429.348 63.5611   5
   5   2  10-21.1540 74.1571   5
   5   3 -12 347.877 64.3472   4
   5   3 -11 2127.72 90.5019   4
   5   3 -10 1.85447 47.4804   4
   5   3 -10 137.687 39.7106   1
   5   3  -9 52.3518 43.9826   1
   5   3  -9 25.6432 53.6198   4
   5   3  -8 2749.90 89.7211   4
   5   3  -8 2807.53 82.7324   1
   5   3  -7 5503.99 109.067   1
   5   3  -7 5480.03 114.621   4
   5   3  -6 21648.9 205.382   1
   5   3  -6 19743.8 198.647   4
   5   3  -5 11633.3 156.973   1
   5   3  -5 11383.8 150.860   4
   5   3  -4 781.005 73.0389   1
   5   3  -4 847.997 60.9892   4
   5   3  -3 2995.02 94.2794   1
   5   3  -3 3014.39 85.2836   4
   5   3  -2 530.330 59.4620   1
   5   3  -1 2710.74 83.4451   1
   5   3   0 2720.03 83.6478   1
   5   3   1 2306.69 79.4118   1
   5   3   1 2479.45 81.2226   5
   5   3   2 2518.38 84.0638   1
   5   3   2 2742.99 85.4108   5
   5   3   3 1022.27 63.2490   1
   5   3   3 1126.56 69.3880   5
   5   3   4-0.41786 61.2036   5
   5   3   4 29.9281 47.7725   1
   5   3   5 6684.44 131.626   1
   5   3   5 6965.92 138.120   5
   5   3   6 1879.75 80.2578   1
   5   3   6 1989.78 89.9369   5
   5   3   7 159.172 53.9548   1
   5   3   7 84.1738 59.1001   5
   5   3   8 55.0235 48.9043   1
   5   3   8-31.5009 67.0770   5
   5   3   9 681.591 71.3377   5
   5   3  10 63.9503 61.4948   5
   5   4 -12 1430.14 80.1600   4
   5   4 -11 1412.52 81.2688   4
   5   4 -10 570.475 63.1613   4
   5   4 -10 553.924 53.3091   1
   5   4  -9 6.78809 42.2616   1
   5   4  -9-0.28464 48.6892   4
   5   4  -8 2612.84 80.2695   1
   5   4  -8 2540.33 91.5516   4
   5   4  -7 1998.38 75.0871   1
   5   4  -7 1994.04 82.2639   4
   5   4  -6 2934.29 91.2836   1
   5   4  -6 2931.82 91.3618   4
   5   4  -5 4822.85 112.268   1
   5   4  -5 4796.75 106.301   4
   5   4  -4 6313.44 126.855   1
   5   4  -4 6560.50 119.874   4
   5   4  -3 19738.8 201.311   1
   5   4  -3 19552.2 190.084   4
   5   4  -2 3751.71 98.3103   1
   5   4  -2 3640.79 86.5049   4
   5   4  -1 382.903 51.3825   1
   5   4   0 1887.94 74.7274   1
   5   4   1 137.428 41.7247   5
   5   4   1 121.788 52.3002   1
   5   4   2-22.5351 46.0096   5
   5   4   2-5.85210 44.4183   1
   5   4   3 150.218 45.8954   1
   5   4   3 220.836 54.3657   5
   5   4   4 753.815 60.9403   1
   5   4   4 694.328 63.4412   5
   5   4   5 1334.75 79.6647   1
   5   4   6 2071.70 91.6427   1
   5   4   7 4402.07 122.351   1
   5   4   8 1443.82 86.8295   1
   5   5 -11-24.2189 56.8909   4
   5   5 -10 549.157 67.4379   4
   5   5  -9 133.367 46.1229   1
   5   5  -9 134.324 60.2830   4
   5   5  -8 17.9872 44.3087   1
   5   5  -8 28.3251 45.6465   4
   5   5  -7 260.034 47.4048   1
   5   5  -7 272.935 56.0052   4
   5   5  -6 112.993 45.4692   1
   5   5  -6 60.4438 49.4514   4
   5   5  -5 450.278 53.6859   4
   5   5  -5 343.830 53.3304   1
   5   5  -4 25.9258 49.4654   4
   5   5  -4-13.3207 48.6966   1
   5   5  -3 2620.54 91.0053   1
   5   5  -3 2430.69 80.4986   4
   5   5  -2 741.039 63.5443   1
   5   5  -2 615.714 56.5225   4
   5   5  -1 66.0240 48.5431   1
   5   5   0 34.5215 51.8578   1
   5   5   1 35.7002 48.1944   1
   5   5   2 16.0556 53.2110   1
   5   5   3 45.8705 54.5983   1
   5   5   4 138.991 48.3926   1
   5   5   5 156.237 58.6638   1
   5   5   6 1808.53 91.4049   1
   5   5   7-26.1294 67.3610   1
   5   6 -10 4930.14 126.512   4
   5   6  -9 206.075 61.6859   4
   5   6  -8 675.633 58.5612   1
   5   6  -8 517.318 57.0427   4
   5   6  -7 19.8803 43.8644   1
   5   6  -7-8.08121 52.7762   4
   5   6  -6 84.0840 43.3428   1
   5   6  -6 48.1558 49.8501   4
   5   6  -5 1472.46 70.7825   1
   5   6  -5 1340.09 72.5476   4
   5   6  -4 104.056 43.2218   4
   5   6  -4 163.288 56.7792   1
   5   6  -3 4874.78 111.400   1
   5   6  -3 4880.79 106.912   4
   5   6  -2 4126.20 110.368   1
   5   6  -1 4448.99 112.689   1
   5   6   0 3749.46 106.623   1
   5   6   1 540.798 62.1068   1
   5   6   2 4677.47 121.509   1
   5   6   3 4005.78 114.227   1
   5   6   4 647.263 75.2904   1
   5   6   5-44.8575 59.4604   1
   5   7  -9 104.196 48.3409   4
   5   7  -8 187.764 59.3774   4
   5   7  -7 36.2980 43.0767   4
   5   7  -6 72.6049 51.8580   1
   5   7  -6 135.412 47.3366   4
   5   7  -5 204.459 47.0766   4
   5   7  -5 201.793 54.3078   1
   5   7  -4 88.9830 46.8243   4
   5   7  -4 71.5006 52.9804   1
   5   7  -3 1606.26 77.7430   1
   5   7  -2 3406.33 102.677   1
   5   7  -1 2921.33 99.0777   1
   5   7   0 171.987 66.7881   1
   5   7   1 235.206 61.4412   1
   5   7   2 451.299 76.6714   1
   5   7   3 470.567 71.6897   1
   5   8  -7-15.4483 42.2480   4
   5   8  -6 153.659 49.6639   4
   5   8  -5 1097.19 67.4601   1
   5   8  -5 955.299 63.0437   4
   5   8  -4 550.399 67.4657   1
   5   8  -3 875.450 75.8903   1
   5   8  -2 524.413 72.0042   1
   5   8  -1 66.0809 52.0232   1
   5   8   0 727.177 75.7366   1
   5   9  -4 328.914 61.4657   1
   6  -7  -4 521.027 78.8602   2
   6  -7  -3 99.2505 60.5034   2
   6  -7  -2-33.7191 70.0639   2
   6  -7  -2 54.9475 59.2483   0
   6  -7  -1 24.4874 68.6709   0
   6  -7  -1 107.616 58.8184   2
   6  -7   0 389.064 78.7606   0
   6  -7   1 1731.80 103.654   0
   6  -7   2 1058.01 92.0024   0
   6  -6  -6 96.4544 66.0832   2
   6  -6  -5 1933.80 103.329   2
   6  -6  -4 1751.75 98.4504   2
   6  -6  -3 116.046 68.8524   2
   6  -6  -2 69.5318 67.9913   0
   6  -6  -2 116.059 78.6121   2
   6  -6  -1 1583.08 95.0442   2
   6  -6  -1 1305.67 78.9127   0
   6  -6   0 678.167 77.7256   0
   6  -6   1 958.556 83.7471   0
   6  -6   2 1018.80 79.3436   0
   6  -6   3 868.989 76.1920   0
   6  -6   4 137.292 67.8626   0
   6  -6   4 83.7500 66.7334   5
   6  -6   5 2332.17 96.2453   5
   6  -6   5 2577.25 112.317   0
   6  -6   6 812.068 74.6952   5
   6  -6   7 582.570 73.2502   5
   6  -5  -7 993.949 88.9627   2
   6  -5  -6 903.248 79.9727   2
   6  -5  -5 495.238 75.3081   2
   6  -5  -4 7054.63 160.046   2
   6  -5  -3 8372.32 173.274   2
   6  -5  -2 3279.42 123.399   2
   6  -5  -2 3316.38 116.549   0
   6  -5  -1 6559.71 145.820   2
   6  -5  -1 6621.95 138.256   0
   6  -5   0 635.837 77.3346   0
   6  -5   1 357.525 71.9453   0
   6  -5   1 329.165 61.0955   5
   6  -5   2 72.7474 57.2021   5
   6  -5   2 17.3485 63.7426   0
   6  -5   3 975.319 75.9331   0
   6  -5   3 1044.17 75.6899   5
   6  -5   4 2455.83 99.4498   5
   6  -5   4 2706.49 103.037   0
   6  -5   5 270.503 59.0114   0
   6  -5   5 396.290 63.6777   5
   6  -5   6 32.5170 61.5930   5
   6  -5   6 87.2185 57.1476   0
   6  -5   7 1837.03 104.459   5
   6  -5   7 2002.12 92.6853   0
   6  -4  -8 173.951 67.0189   2
   6  -4  -7 898.772 86.8974   2
   6  -4  -6-72.5035 69.5116   2
   6  -4  -5 421.777 84.3196   2
   6  -4  -4-10.8948 59.6087   2
   6  -4  -3 532.213 81.4923   2
   6  -4  -2-9.19081 72.8324   2
   6  -4  -1 5496.78 137.791   2
   6  -4  -1 5965.23 131.248   0
   6  -4   0-1.01129 62.5919   2
   6  -4   0 75.1464 55.2867   0
   6  -4   1 1264.84 74.9564   0
   6  -4   1 1128.16 70.1313   5
   6  -4   2 12.9793 52.5392   0
   6  -4   2 1.77743 49.0408   5
   6  -4   3 296.491 60.3061   0
   6  -4   3 322.149 64.7183   5
   6  -4   4 153.119 61.2150   0
   6  -4   4 68.7986 63.8338   5
   6  -4   5-17.3768 52.8168   0
   6  -4   5-93.9767 67.3957   5
   6  -4   6 291.817 55.0398   0
   6  -4   6 426.992 71.6270   5
   6  -4   7 770.614 85.6601   5
   6  -4   7 953.945 71.4568   0
   6  -3  -9 2669.24 110.866   2
   6  -3  -8 4.94884 61.6266   2
   6  -3  -7 1207.77 89.1907   2
   6  -3  -6 4339.67 128.936   2
   6  -3  -5 2789.91 114.612   2
   6  -3  -4 6485.38 145.629   2
   6  -3  -3 10383.5 175.278   2
   6  -3  -2 45.6314 68.7195   2
   6  -3  -1 7371.00 146.842   2
   6  -3  -1 7599.73 130.076   1
   6  -3   0 1914.58 80.3723   0
   6  -3   0 2094.15 78.0315   1
   6  -3   1 2307.90 84.5967   0
   6  -3   1 2023.19 86.8373   5
   6  -3   1 2197.84 78.6636   1
   6  -3   2 556.103 58.3349   0
   6  -3   2 431.892 65.0252   5
   6  -3   3 2282.83 85.7288   0
   6  -3   3 2358.43 92.9693   5
   6  -3   4 289.829 59.6946   0
   6  -3   4 331.613 69.1496   5
   6  -3   5 33.1128 44.8330   0
   6  -3   5-25.0205 66.4713   5
   6  -3   6 1348.42 81.5821   5
   6  -3   6 1425.77 79.0669   0
   6  -3   7 1158.63 89.0461   5
   6  -2 -10 314.675 63.5321   2
   6  -2  -9 413.552 69.5500   2
   6  -2  -8 1315.46 86.9614   2
   6  -2  -6 5102.94 132.788   2
   6  -2  -5 252.463 65.4200   2
   6  -2  -4 1444.85 90.3022   2
   6  -2  -3 5957.56 134.505   2
   6  -2  -3 5962.15 123.920   1
   6  -2  -2 1217.30 82.2721   2
   6  -2  -2 1081.76 71.1000   1
   6  -2  -1 1560.31 81.4036   2
   6  -2  -1 1489.63 77.0904   1
   6  -2   0 10.1258 53.4381   2
   6  -2   0 179.649 54.4716   0
   6  -2   0 72.6805 48.6475   1
   6  -2   1 35.4233 50.4349   0
   6  -2   1 54.5944 48.7187   5
   6  -2   1 32.5250 45.0436   1
   6  -2   2 351.098 57.8236   0
   6  -2   2 383.383 56.8379   5
   6  -2   2 289.375 51.0734   1
   6  -2   3 834.636 65.4951   0
   6  -2   3 801.697 76.9233   5
   6  -2   4 133.902 61.7256   5
   6  -2   4 110.583 46.1915   0
   6  -2   5 1754.50 93.3146   5
   6  -2   6 567.694 79.9434   5
   6  -2   7 55.3816 60.2515   5
   6  -1 -10 835.840 77.4950   2
   6  -1  -9 501.700 71.0765   2
   6  -1  -8 89.9126 51.2347   2
   6  -1  -7 573.130 63.5877   2
   6  -1  -6 242.802 56.6377   2
   6  -1  -5 135.453 59.3573   2
   6  -1  -5 209.397 50.3789   1
   6  -1  -4 60.3014 49.1694   1
   6  -1  -4 67.5018 61.8945   2
   6  -1  -3 3420.25 103.227   2
   6  -1  -3 3277.33 93.5958   1
   6  -1  -2 9383.14 146.171   1
   6  -1  -2 10195.1 161.355   2
   6  -1  -1 8905.75 146.429   1
   6  -1  -1 8398.85 139.475   2
   6  -1   0 90.9253 55.6604   5
   6  -1   0 73.8181 52.1823   1
   6  -1   1 2762.21 89.5748   1
   6  -1   1 2762.58 97.7866   5
   6  -1   1 2965.44 86.2516   0
   6  -1   2 493.736 49.8435   1
   6  -1   2 575.721 69.6093   5
   6  -1   2 520.492 51.3025   0
   6  -1   3 445.896 50.6541   1
   6  -1   3 366.504 68.8280   5
   6  -1   4 1917.13 92.7910   5
   6  -1   5 1799.56 94.0579   5
   6  -1   6 74.0096 67.9328   5
   6  -1   7-18.1512 63.3516   5
   6   0 -11 5888.29 143.465   2
   6   0 -10 951.969 73.0128   2
   6   0  -9 2275.56 92.1316   2
   6   0  -8 2294.93 92.1841   2
   6   0  -7 23.2759 52.9499   2
   6   0  -6 1440.75 79.1389   2
   6   0  -6 1439.59 69.6023   1
   6   0  -5 160.468 51.5032   1
   6   0  -5 50.3265 50.1434   2
   6   0  -4-0.85734 49.0200   2
   6   0  -4 13.3275 51.7752   1
   6   0  -3 7031.04 133.262   1
   6   0  -3 6719.40 130.533   2
   6   0  -2 2454.55 90.9133   1
   6   0  -2 2491.17 87.4259   2
   6   0  -1 6462.59 127.402   1
   6   0  -1 5992.35 115.574   2
   6   0   0 6131.92 121.451   1
   6   0   0 6279.93 128.526   5
   6   0   1 3777.75 102.954   1
   6   0   1 3689.16 104.748   5
   6   0   2 645.769 61.7127   1
   6   0   2 628.566 64.0433   5
   6   0   3-71.0405 63.8062   5
   6   0   3 19.0393 46.1113   1
   6   0   4 925.477 64.9838   1
   6   0   4 898.855 82.9610   5
   6   0   5-12.1775 70.3607   5
   6   0   6 394.385 69.0693   5
   6   0   7 5359.79 145.908   5
   6   1 -11 1120.30 79.9186   2
   6   1 -10 247.580 58.6719   2
   6   1  -9 363.214 59.0700   2
   6   1  -8 2142.22 84.6537   2
   6   1  -8 2021.14 82.2675   1
   6   1  -7 2139.39 85.6764   2
   6   1  -7 1979.92 84.8279   1
   6   1  -6 22.6467 51.1034   1
   6   1  -6 25.1375 41.6463   2
   6   1  -5 87.4341 45.4670   2
   6   1  -5 100.397 49.0546   1
   6   1  -4 3036.39 95.4135   1
   6   1  -4 2855.38 88.1621   2
   6   1  -3 6.37647 39.7233   2
   6   1  -3 24.1337 56.0587   1
   6   1  -2 199.880 42.5196   2
   6   1  -2 207.834 59.3647   1
   6   1  -1 2195.39 68.6834   2
   6   1  -1 2183.13 87.5485   1
   6   1   0-14.2368 53.2137   1
   6   1   1 510.817 66.6251   5
   6   1   1 318.816 66.2069   1
   6   1   2 552.714 61.4859   5
   6   1   2 391.958 60.3656   1
   6   1   3 466.064 56.0817   1
   6   1   3 481.398 70.2356   5
   6   1   4-75.6764 62.9591   5
   6   1   4-29.6531 48.9682   1
   6   1   5 93.1460 70.8319   5
   6   1   5 102.405 54.7432   1
   6   1   6 1317.68 88.0912   5
   6   1   7-16.5582 72.3589   5
   6   2 -12-16.4973 41.8986   2
   6   2 -11 3110.85 106.692   2
   6   2 -10 1430.72 73.9307   2
   6   2  -9 4817.69 119.357   2
   6   2  -9 5185.09 117.699   1
   6   2  -8 3944.15 106.739   2
   6   2  -8 3568.37 97.8615   1
   6   2  -7 180.788 61.5063   1
   6   2  -6 2413.12 85.9682   1
   6   2  -5 456.330 64.4284   1
   6   2  -4 2141.68 84.9328   1
   6   2  -3 2449.96 86.8837   1
   6   2  -2 256.869 53.4463   1
   6   2  -1 4279.04 110.451   1
   6   2   0-7.82747 62.5345   1
   6   2   1 1069.63 69.0033   1
   6   2   1 1204.16 76.9400   5
   6   2   2 3895.68 105.749   1
   6   2   2 4083.28 110.548   5
   6   2   3 1015.24 67.9705   1
   6   2   3 1122.33 81.7648   5
   6   2   4 84.8362 67.3043   5
   6   2   4 145.964 51.4211   1
   6   2   5 171.311 68.1179   5
   6   2   5 88.6160 55.0640   1
   6   2   6 37.4357 68.9812   5
   6   2   6 4.10348 57.9290   1
   6   2   7 1142.94 86.5776   5
   6   3 -10 50.3693 49.1264   1
   6   3  -9-81.9141 45.1760   1
   6   3  -8 58.6665 55.8461   1
   6   3  -7 310.617 62.9596   1
   6   3  -6 2479.62 87.4472   1
   6   3  -5 4678.95 114.057   1
   6   3  -4 2529.73 91.6520   1
   6   3  -3 1167.41 70.7372   1
   6   3  -2 3724.73 103.166   1
   6   3  -1 689.064 66.0894   1
   6   3   0 156.141 55.1223   1
   6   3   1-23.6643 57.0236   5
   6   3   1 17.4427 50.6293   1
   6   3   2 51.7057 46.7371   5
   6   3   2 18.0894 49.1909   1
   6   3   3 637.683 66.2619   1
   6   3   3 688.427 70.9221   5
   6   3   4 627.436 75.7464   5
   6   3   4 393.946 63.7448   1
   6   3   5 236.230 70.6236   5
   6   3   5 241.110 62.3347   1
   6   3   6 18.8869 62.7993   5
   6   3   6 66.8697 52.3425   1
   6   3   7 1355.69 81.2493   1
   6   3   7 1598.61 93.8552   5
   6   4 -10 454.700 62.4621   1
   6   4  -9 723.979 67.9847   4
   6   4  -9 777.554 70.1033   1
   6   4  -8 4672.72 112.963   1
   6   4  -8 4735.78 124.155   4
   6   4  -7 472.815 56.7021   1
   6   4  -7 455.020 60.0917   4
   6   4  -6 713.959 67.9860   1
   6   4  -5-16.9568 50.0563   1
   6   4  -4 217.611 63.2482   1
   6   4  -3-32.4875 58.1724   1
   6   4  -2 731.629 69.1121   1
   6   4  -1 377.333 56.2933   1
   6   4   0-98.4347 58.0321   1
   6   4   1 1.34938 52.1881   1
   6   4   2 326.136 58.9916   5
   6   4   2 371.868 60.7479   1
   6   4   3 70.3673 53.1233   5
   6   4   3 172.974 62.1739   1
   6   4   4 1205.89 75.2599   1
   6   4   5 583.351 75.8203   1
   6   5  -9 445.621 63.0835   1
   6   5  -8 2716.02 95.8255   1
   6   5  -8 2350.50 97.6392   4
   6   5  -7 674.687 60.9395   1
   6   5  -7 634.085 65.4179   4
   6   5  -6 783.471 72.9028   1
   6   5  -6 720.905 65.5567   4
   6   5  -5 918.647 68.9078   1
   6   5  -5 782.639 65.5210   4
   6   5  -4 89.8872 55.7392   1
   6   5  -4 56.8943 41.7600   4
   6   5  -3 158.531 61.5710   1
   6   5  -2 376.460 56.0317   1
   6   5  -1 3715.31 111.287   1
   6   5   0 5069.61 123.543   1
   6   5   1 4231.90 119.045   1
   6   5   2 724.044 70.1540   1
   6   5   3 553.452 70.5959   1
   6   6  -8 19.7836 46.9908   1
   6   6  -7 131.444 61.1339   1
   6   6  -7 196.066 61.0323   4
   6   6  -6-22.1829 57.1454   1
   6   6  -6 91.1978 55.1779   4
   6   6  -5 1461.37 88.4798   1
   6   6  -5 1378.61 80.0955   4
   6   6  -4 432.874 67.2791   1
   6   6  -3-33.8203 63.2940   1
   6   6  -2 81.9354 62.5164   1
   6   6  -1 66.5424 57.7923   1
   6   6   0 310.772 60.3876   1
   7  -5   2 26.4118 52.2463   5
   7  -4  -2 1405.83 89.6063   2
   7  -4  -1 2288.42 104.701   2
   7  -4   0-25.3137 65.9803   0
   7  -4   1 748.585 82.2312   0
   7  -4   2-25.4783 63.7645   5
   7  -4   2 9.36665 50.4293   0
   7  -4   3-25.1629 65.1644   0
   7  -3  -5-41.2151 63.3268   2
   7  -3  -4 680.465 73.1752   2
   7  -3  -3 554.829 77.5076   2
   7  -3  -2 407.626 65.5020   2
   7  -3  -1 2.03452 61.5405   2
   7  -3   0 760.047 66.3563   1
   7  -3   1 299.530 68.3731   0
   7  -3   2 1278.35 89.8879   5
   7  -3   2 1085.71 69.8271   0
   7  -3   3-30.2429 62.3224   5
   7  -3   3 56.8664 59.4514   0
   7  -3   4-23.0220 61.0934   0
   7  -2  -6 1700.27 98.8886   2
   7  -2  -5 1002.96 83.9791   2
   7  -2  -4 2002.79 98.5178   2
   7  -2  -3 105.222 67.2584   2
   7  -2  -3-39.1644 55.2310   1
   7  -2  -2 181.107 55.3299   2
   7  -2  -2 265.535 64.0111   1
   7  -2  -1 810.175 68.7088   2
   7  -2  -1 740.761 70.3784   1
   7  -2   0 843.820 69.4267   1
   7  -2   1 1931.51 88.6929   1
   7  -2   2 906.498 75.4766   5
   7  -2   2 1044.06 79.3945   0
   7  -2   3 695.938 76.7728   5
   7  -1  -7-45.1696 49.8750   2
   7  -1  -6 589.799 71.3075   2
   7  -1  -5 464.169 67.1780   2
   7  -1  -5 528.288 67.3095   1
   7  -1  -4 456.532 61.5551   2
   7  -1  -4 483.873 68.2091   1
   7  -1  -3 1230.82 82.2053   2
   7  -1  -3 928.494 74.2232   1
   7  -1  -2 184.405 59.3248   2
   7  -1  -2 194.472 59.2729   1
   7  -1  -1 729.007 66.0696   1
   7  -1   0 769.115 61.0967   1
   7  -1   1 32.1569 46.1622   1
   7  -1   2 1215.00 73.9665   1
   7  -1   2 1174.50 85.8209   5
   7  -1   3 308.398 72.4687   5
   7   0  -8 181.513 53.5119   2
   7   0  -7 354.481 59.3383   2
   7   0  -6-32.6605 47.3471   1
   7   0  -6 51.6109 51.1995   2
   7   0  -5 402.955 63.9700   1
   7   0  -5 346.355 53.6995   2
   7   0  -4 1440.05 75.8024   2
   7   0  -4 1417.84 84.0211   1
   7   0  -3 505.552 58.6100   2
   7   0  -3 393.894 59.1340   1
   7   0  -2 916.250 80.3653   1
   7   0  -2 973.765 64.0780   2
   7   0  -1 55.0104 56.3186   1
   7   0   0 356.503 55.9662   1
   7   0   1 713.601 63.0115   1
   7   0   2 161.818 59.4183   5
   7   0   2 126.498 54.0364   1
   7   0   3-1.70976 57.8159   5
   7   0   3 35.4279 59.6161   1
   7   1  -8 135.106 48.3088   2
   7   1  -7 200.771 49.0250   2
   7   1  -6-46.9829 46.7079   1
   7   1  -6-25.3149 50.5104   2
   7   1  -5 57.1775 49.8899   2
   7   1  -5 40.0583 50.5727   1
   7   1  -4 369.597 65.1290   1
   7   1  -3 1091.70 77.4394   1
   7   1  -2 1807.41 89.4906   1
   7   1  -1 2325.57 94.7557   1
   7   1   0 2951.31 102.269   1
   7   1   1 1231.10 80.1765   1
   7   1   2 1018.33 77.3011   1
   7   1   2 1062.83 86.7980   5
   7   1   3 1968.35 85.8418   1
   7   1   3 2195.01 102.812   5
   7   1   4 1557.73 90.4332   1
   7   2  -6 403.879 62.0371   1
   7   2  -5 452.227 68.7429   1
   7   2  -4 335.779 66.5996   1
   7   2  -3 1149.89 75.5993   1
   7   2  -2 660.228 69.3094   1
   7   2  -1 306.007 59.9062   1
   7   2   0 1762.86 91.6985   1
   7   2   1 148.151 63.7434   1
   7   2   2 235.069 62.5486   5
   7   2   2 121.554 53.9688   1
   7   2   3-28.4359 56.6815   1
   7   3  -4 74.6418 50.6590   1
   7   3  -3 25.5083 63.3532   1
   7   3  -2 149.997 57.5279   1
   7   3  -1 116.187 61.1573   1
   7   3   0 25.7962 59.2503   1
;
_shelx_hkl_checksum              73124
_shelx_res_file
;
TITL N4CB4CBSH P-1
CELL  0.71073  5.93060  9.47700 13.04000 98.82200 96.04600 92.41600
ZERR 2  0.00060  0.00100  0.00200  0.00900  0.00900  0.00900
LATT 1
SFAC C H N O CL S
UNIT 26 20 4 4 4 2
PLAN 30
FMAP 2
SHEL 14 0.83
SIZE 0.48 0.40 0.36
OMIT 0 1 1
L.S. 4
BOND $H
DFIX 0.86 0.02 N1 H1N
HTAB N1 O1_$1
EQIV $1 -x+1, -y+1, -z
CONF
ACTA
WGHT    0.052300    0.308200
EXTI    0.024835
FVAR       7.80773
C1    1    0.386716    0.194284    0.080455    11.00000    0.03473    0.03513 =
         0.03695   -0.00239    0.00355   -0.00021
C2    1    0.609907    0.231721    0.121625    11.00000    0.03725    0.04984 =
         0.05472    0.00319    0.00479   -0.00563
AFIX  43
H2    2    0.685310    0.311925    0.105214    11.00000   -1.20000
AFIX   0
C3    1    0.719317    0.148560    0.187367    11.00000    0.03942    0.06321 =
         0.05802   -0.00294   -0.00543    0.00687
AFIX  43
H3    2    0.868347    0.173121    0.216565    11.00000   -1.20000
AFIX   0
C4    1    0.605448    0.028948    0.209211    11.00000    0.06610    0.04150 =
         0.04429   -0.00602   -0.00794    0.01701
C5    1    0.385038   -0.010264    0.166828    11.00000    0.06819    0.03464 =
         0.05806    0.00444   -0.00384   -0.00396
AFIX  43
H5    2    0.311846   -0.092474    0.181303    11.00000   -1.20000
AFIX   0
C6    1    0.274556    0.073620    0.102862    11.00000    0.04326    0.03769 =
         0.04989    0.00334   -0.00535   -0.00660
AFIX  43
H6    2    0.124780    0.049338    0.074708    11.00000   -1.20000
AFIX   0
C7    1    0.175675    0.578385    0.228641    11.00000    0.04290    0.03832 =
         0.04594    0.00776    0.00556    0.00154
AFIX  43
H7    2    0.296459    0.638628    0.218537    11.00000   -1.20000
AFIX   0
C8    1    0.060890    0.613965    0.322424    11.00000    0.04595    0.04055 =
         0.04199    0.00681    0.00361    0.00829
C9    1   -0.140500    0.543335    0.336118    11.00000    0.05712    0.05191 =
         0.05014   -0.00397    0.00999   -0.00222
AFIX  43
H9    2   -0.203719    0.468113    0.285541    11.00000   -1.20000
AFIX   0
C10   1   -0.248037    0.583151    0.423627    11.00000    0.05700    0.07081 =
         0.05735    0.00295    0.01748    0.00032
AFIX  43
H10   2   -0.383737    0.535607    0.431891    11.00000   -1.20000
AFIX   0
C11   1   -0.153862    0.693468    0.498675    11.00000    0.05812    0.07233 =
         0.04162    0.00230    0.00710    0.01859
C12   1    0.044885    0.765782    0.487403    11.00000    0.06655    0.06658 =
         0.04732   -0.01174   -0.00267    0.00534
AFIX  43
H12   2    0.106819    0.840992    0.538300    11.00000   -1.20000
AFIX   0
C13   1    0.151775    0.725167    0.399220    11.00000    0.05216    0.05730 =
         0.05115   -0.00040    0.00307    0.00015
AFIX  43
H13   2    0.287150    0.773371    0.391308    11.00000   -1.20000
AFIX   0
N1    3    0.234558    0.459847    0.073241    11.00000    0.04594    0.03573 =
         0.04612    0.00321    0.01328   -0.00447
H1N   2    0.345364    0.516830    0.074270    11.00000   -1.20000
N2    3    0.117260    0.468714    0.160493    11.00000    0.04259    0.03962 =
         0.04379    0.00741    0.01095    0.00389
O1    4    0.385556    0.335526   -0.076381    11.00000    0.05692    0.04753 =
         0.03964    0.00053    0.01169   -0.01071
O2    4    0.019893    0.242975   -0.030665    11.00000    0.04131    0.04741 =
         0.05586    0.00930   -0.00551   -0.00804
CL1   5    0.742914   -0.074767    0.292140    11.00000    0.11996    0.05946 =
         0.07542    0.00254   -0.03721    0.02897
CL2   5   -0.292712    0.745003    0.608423    11.00000    0.08680    0.12698 =
         0.05464   -0.01325    0.02301    0.01933
S1    6    0.244037    0.304346    0.000689    11.00000    0.03815    0.03524 =
         0.03718    0.00245    0.00356   -0.00503
HKLF 4
REM  N4CB4CBSH P-1
REM R1 =  0.0379 for    2321 Fo > 4sig(Fo)  and  0.0433 for all    2626 data
REM    185 parameters refined using      1 restraints
END
WGHT      0.0526      0.3076
REM Highest difference peak  0.373,  deepest hole -0.348,  1-sigma level  0.050
Q1    1  -0.2837  0.8335  0.5775  11.00000  0.05    0.37
Q2    1   0.4452  0.3439 -0.0171  11.00000  0.05    0.22
Q3    1   0.6832 -0.0328  0.3347  11.00000  0.05    0.22
Q4    1   0.2341  0.3858  0.0480  11.00000  0.05    0.22
Q5    1   0.3126  0.2316  0.0447  11.00000  0.05    0.20
Q6    1  -0.0077  0.1859  0.0209  11.00000  0.05    0.20
Q7    1   0.5036  0.1838  0.0709  11.00000  0.05    0.19
Q8    1   0.0857  0.6178  0.2771  11.00000  0.05    0.18
Q9    1   0.6802  0.0661  0.1632  11.00000  0.05    0.18
Q10   1   0.3096  0.3860 -0.0449  11.00000  0.05    0.17
Q11   1  -0.2142  0.7139  0.5390  11.00000  0.05    0.17
Q12   1  -0.0461  0.6032  0.3180  11.00000  0.05    0.17
Q13   1   0.4197  0.3845 -0.0979  11.00000  0.05    0.17
Q14   1   0.3032  0.1679  0.1139  11.00000  0.05    0.17
Q15   1  -0.0981  0.7547  0.4822  11.00000  0.05    0.17
Q16   1   0.4950  0.3137 -0.0520  11.00000  0.05    0.16
Q17   1   0.6315  0.1101  0.2369  11.00000  0.05    0.16
Q18   1   0.0723  0.2640  0.0242  11.00000  0.05    0.16
Q19   1   0.3558  0.1394  0.0593  11.00000  0.05    0.16
Q20   1   0.4725  0.0492  0.2242  11.00000  0.05    0.16
Q21   1   0.6905 -0.1409  0.2843  11.00000  0.05    0.16
Q22   1   0.7630 -0.0212  0.2392  11.00000  0.05    0.15
Q23   1   0.0129  0.5590  0.3404  11.00000  0.05    0.15
Q24   1  -0.0032  0.3050 -0.0579  11.00000  0.05    0.15
Q25   1  -0.5137  0.6844  0.6019  11.00000  0.05    0.14
Q26   1   0.2345 -0.0648  0.2218  11.00000  0.05    0.14
Q27   1   0.3391  0.2705 -0.0661  11.00000  0.05    0.14
Q28   1   0.1263  0.6444  0.3561  11.00000  0.05    0.14
Q29   1   0.8884 -0.0418  0.2969  11.00000  0.05    0.13
Q30   1   0.0797  0.6713  0.3458  11.00000  0.05    0.13
;
_shelx_res_checksum              70228
_shelxl_version_number           2014/6
loop_
_space_group_symop_operation_xyz
'x, y, z'
'-x, -y, -z'
loop_
_atom_site_type_symbol
_atom_site_label
_atom_site_fract_x
_atom_site_fract_y
_atom_site_fract_z
_atom_site_U_iso_or_equiv
_atom_site_adp_type
_atom_site_calc_flag
_atom_site_occupancy
C C1 0.3867(3) 0.1943(2) 0.08046(14) 0.0366(4) Uani d 1
C C2 0.6099(3) 0.2317(2) 0.12163(17) 0.0481(5) Uani d 1
H H2 0.6853 0.3119 0.1052 0.058 Uiso calc 1
C C3 0.7193(4) 0.1486(3) 0.18737(19) 0.0556(6) Uani d 1
H H3 0.8683 0.1731 0.2166 0.067 Uiso calc 1
C C4 0.6054(4) 0.0289(2) 0.20921(17) 0.0526(6) Uani d 1
C C5 0.3850(4) -0.0103(2) 0.16683(18) 0.0549(6) Uani d 1
H H5 0.3118 -0.0925 0.1813 0.066 Uiso calc 1
C C6 0.2746(4) 0.0736(2) 0.10286(16) 0.0450(5) Uani d 1
H H6 0.1248 0.0493 0.0747 0.054 Uiso calc 1
C C7 0.1757(3) 0.5784(2) 0.22864(16) 0.0423(4) Uani d 1
H H7 0.2965 0.6386 0.2185 0.051 Uiso calc 1
C C8 0.0609(3) 0.6140(2) 0.32242(16) 0.0427(5) Uani d 1
C C9 -0.1405(4) 0.5433(3) 0.33612(18) 0.0542(5) Uani d 1
H H9 -0.2037 0.4681 0.2855 0.065 Uiso calc 1
C C10 -0.2480(4) 0.5832(3) 0.4236(2) 0.0618(6) Uani d 1
H H10 -0.3837 0.5356 0.4319 0.074 Uiso calc 1
C C11 -0.1539(4) 0.6935(3) 0.49867(18) 0.0575(6) Uani d 1
C C12 0.0449(4) 0.7658(3) 0.48740(19) 0.0630(6) Uani d 1
H H12 0.1068 0.8410 0.5383 0.076 Uiso calc 1
C C13 0.1518(4) 0.7252(3) 0.39922(18) 0.0548(6) Uani d 1
H H13 0.2872 0.7734 0.3913 0.066 Uiso calc 1
N N1 0.2346(3) 0.45985(18) 0.07324(14) 0.0426(4) Uani d 1
H H1N 0.345(3) 0.517(2) 0.0743(19) 0.051 Uiso d 1
N N2 0.1173(3) 0.46871(18) 0.16049(13) 0.0414(4) Uani d 1
O O1 0.3856(3) 0.33553(16) -0.07638(11) 0.0487(4) Uani d 1
O O2 0.0199(2) 0.24297(16) -0.03067(12) 0.0492(4) Uani d 1
Cl Cl1 0.74291(16) -0.07477(8) 0.29214(6) 0.0886(3) Uani d 1
Cl Cl2 -0.29271(14) 0.74500(11) 0.60842(6) 0.0909(3) Uani d 1
S S1 0.24404(8) 0.30435(5) 0.00069(4) 0.03746(17) Uani d 1
loop_
_atom_site_aniso_label
_atom_site_aniso_U_11
_atom_site_aniso_U_22
_atom_site_aniso_U_33
_atom_site_aniso_U_12
_atom_site_aniso_U_13
_atom_site_aniso_U_23
C1 0.0347(9) 0.0351(9) 0.0370(9) -0.0002(7) 0.0035(7) -0.0024(8)
C2 0.0372(10) 0.0498(12) 0.0547(12) -0.0056(9) 0.0048(9) 0.0032(10)
C3 0.0394(11) 0.0632(15) 0.0580(13) 0.0069(10) -0.0054(10) -0.0029(11)
C4 0.0661(14) 0.0415(11) 0.0443(11) 0.0170(10) -0.0079(10) -0.0060(9)
C5 0.0682(15) 0.0346(11) 0.0581(13) -0.0040(10) -0.0038(11) 0.0044(9)
C6 0.0433(11) 0.0377(10) 0.0499(11) -0.0066(8) -0.0053(9) 0.0033(9)
C7 0.0429(11) 0.0383(10) 0.0459(11) 0.0015(8) 0.0056(9) 0.0078(9)
C8 0.0460(11) 0.0406(10) 0.0420(11) 0.0083(8) 0.0036(9) 0.0068(8)
C9 0.0571(13) 0.0519(13) 0.0501(12) -0.0022(10) 0.0100(10) -0.0040(10)
C10 0.0570(14) 0.0708(16) 0.0574(14) 0.0003(12) 0.0175(11) 0.0030(12)
C11 0.0581(14) 0.0723(16) 0.0416(11) 0.0186(12) 0.0071(10) 0.0023(11)
C12 0.0666(16) 0.0666(16) 0.0473(13) 0.0053(12) -0.0027(11) -0.0117(11)
C13 0.0522(13) 0.0573(13) 0.0512(12) 0.0001(10) 0.0031(10) -0.0004(10)
N1 0.0459(9) 0.0357(9) 0.0461(9) -0.0045(7) 0.0133(8) 0.0032(7)
N2 0.0426(9) 0.0396(9) 0.0438(9) 0.0039(7) 0.0110(7) 0.0074(7)
O1 0.0569(9) 0.0475(8) 0.0396(7) -0.0107(7) 0.0117(6) 0.0005(6)
O2 0.0413(8) 0.0474(8) 0.0559(9) -0.0080(6) -0.0055(6) 0.0093(7)
Cl1 0.1200(7) 0.0595(4) 0.0754(5) 0.0290(4) -0.0372(4) 0.0025(3)
Cl2 0.0868(5) 0.1270(7) 0.0546(4) 0.0193(5) 0.0230(4) -0.0133(4)
S1 0.0382(3) 0.0352(3) 0.0372(3) -0.00503(18) 0.00356(19) 0.00245(19)
loop_
_atom_type_symbol
_atom_type_description
_atom_type_scat_dispersion_real
_atom_type_scat_dispersion_imag
_atom_type_scat_source
C C 0.0033 0.0016 'International Tables Vol C Tables 4.2.6.8 and 6.1.1.4'
H H 0.0000 0.0000 'International Tables Vol C Tables 4.2.6.8 and 6.1.1.4'
N N 0.0061 0.0033 'International Tables Vol C Tables 4.2.6.8 and 6.1.1.4'
O O 0.0106 0.0060 'International Tables Vol C Tables 4.2.6.8 and 6.1.1.4'
Cl Cl 0.1484 0.1585 'International Tables Vol C Tables 4.2.6.8 and 6.1.1.4'
S S 0.1246 0.1234 'International Tables Vol C Tables 4.2.6.8 and 6.1.1.4'
loop_
_geom_angle_atom_site_label_1
_geom_angle_atom_site_label_2
_geom_angle_atom_site_label_3
_geom_angle
C6 C1 C2 120.77(19)
C6 C1 S1 120.05(15)
C2 C1 S1 119.18(15)
C3 C2 C1 119.3(2)
C3 C2 H2 120.4
C1 C2 H2 120.4
C4 C3 C2 119.3(2)
C4 C3 H3 120.3
C2 C3 H3 120.3
C5 C4 C3 121.6(2)
C5 C4 Cl1 119.19(19)
C3 C4 Cl1 119.22(18)
C6 C5 C4 119.2(2)
C6 C5 H5 120.4
C4 C5 H5 120.4
C5 C6 C1 119.84(19)
C5 C6 H6 120.1
C1 C6 H6 120.1
N2 C7 C8 122.74(19)
N2 C7 H7 118.6
C8 C7 H7 118.6
C13 C8 C9 118.4(2)
C13 C8 C7 119.19(19)
C9 C8 C7 122.40(19)
C10 C9 C8 120.8(2)
C10 C9 H9 119.6
C8 C9 H9 119.6
C11 C10 C9 119.6(2)
C11 C10 H10 120.2
C9 C10 H10 120.2
C12 C11 C10 121.0(2)
C12 C11 Cl2 119.5(2)
C10 C11 Cl2 119.4(2)
C11 C12 C13 119.0(2)
C11 C12 H12 120.5
C13 C12 H12 120.5
C12 C13 C8 121.2(2)
C12 C13 H13 119.4
C8 C13 H13 119.4
N2 N1 S1 118.76(13)
N2 N1 H1N 118.8(17)
S1 N1 H1N 115.6(17)
C7 N2 N1 114.02(16)
O2 S1 O1 119.93(9)
O2 S1 N1 109.69(9)
O1 S1 N1 102.85(9)
O2 S1 C1 107.94(9)
O1 S1 C1 109.14(9)
N1 S1 C1 106.52(9)
loop_
_geom_bond_atom_site_label_1
_geom_bond_atom_site_label_2
_geom_bond_distance
C1 C6 1.384(3)
C1 C2 1.385(3)
C1 S1 1.763(2)
C2 C3 1.382(3)
C2 H2 0.9300
C3 C4 1.377(4)
C3 H3 0.9300
C4 C5 1.377(3)
C4 Cl1 1.734(2)
C5 C6 1.374(3)
C5 H5 0.9300
C6 H6 0.9300
C7 N2 1.269(3)
C7 C8 1.463(3)
C7 H7 0.9300
C8 C13 1.385(3)
C8 C9 1.386(3)
C9 C10 1.376(3)
C9 H9 0.9300
C10 C11 1.373(4)
C10 H10 0.9300
C11 C12 1.371(4)
C11 Cl2 1.741(2)
C12 C13 1.382(3)
C12 H12 0.9300
C13 H13 0.9300
N1 N2 1.388(2)
N1 S1 1.6311(17)
N1 H1N 0.830(16)
O1 S1 1.4316(14)
O2 S1 1.4212(15)
loop_
_geom_hbond_atom_site_label_D
_geom_hbond_atom_site_label_H
_geom_hbond_atom_site_label_A
_geom_hbond_site_symmetry_A
_geom_hbond_distance_DH
_geom_hbond_distance_HA
_geom_hbond_distance_DA
_geom_hbond_angle_DHA
N1 H1N O1 2_665 0.830(16) 2.073(17) 2.903(2) 178(2)
C4 Cl1 Cg2 1_645 1.734(2) 3.4121(14) 5.112(2) 166.02(8)
C11 Cl2 Cg1 2_566 1.741(2) 3.6469(13) 5.372(3) 170.47(9)
loop_
_geom_torsion_atom_site_label_1
_geom_torsion_atom_site_label_2
_geom_torsion_atom_site_label_3
_geom_torsion_atom_site_label_4
_geom_torsion
C6 C1 C2 C3 -1.2(3)
S1 C1 C2 C3 177.57(16)
C1 C2 C3 C4 1.1(3)
C2 C3 C4 C5 0.2(3)
C2 C3 C4 Cl1 -179.75(17)
C3 C4 C5 C6 -1.3(4)
Cl1 C4 C5 C6 178.64(17)
C4 C5 C6 C1 1.1(3)
C2 C1 C6 C5 0.1(3)
S1 C1 C6 C5 -178.67(17)
N2 C7 C8 C13 172.1(2)
N2 C7 C8 C9 -10.0(3)
C13 C8 C9 C10 0.3(4)
C7 C8 C9 C10 -177.6(2)
C8 C9 C10 C11 -0.5(4)
C9 C10 C11 C12 0.7(4)
C9 C10 C11 Cl2 179.13(19)
C10 C11 C12 C13 -0.6(4)
Cl2 C11 C12 C13 -179.08(19)
C11 C12 C13 C8 0.4(4)
C9 C8 C13 C12 -0.3(4)
C7 C8 C13 C12 177.7(2)
C8 C7 N2 N1 175.01(17)
S1 N1 N2 C7 158.96(15)
N2 N1 S1 O2 54.13(17)
N2 N1 S1 O1 -177.17(15)
N2 N1 S1 C1 -62.44(17)
C6 C1 S1 O2 -0.97(19)
C2 C1 S1 O2 -179.78(15)
C6 C1 S1 O1 -132.84(16)
C2 C1 S1 O1 48.35(18)
C6 C1 S1 N1 116.77(17)
C2 C1 S1 N1 -62.04(18)

_cod_database_fobs_code 2242741
