#------------------------------------------------------------------------------
#$Date: 2018-07-20 10:04:38 +0300 (Fri, 20 Jul 2018) $
#$Revision: 209165 $
#$URL: file:///home/coder/svn-repositories/cod/cif/2/24/25/2242568.cif $
#------------------------------------------------------------------------------
#
# This file is available in the Crystallography Open Database (COD),
# http://www.crystallography.net/. The original data for this entry
# were provided by IUCr Journals, http://journals.iucr.org/.
#
# The file may be used within the scientific community so long as
# proper attribution is given to the journal article from which the
# data were obtained.
#
data_2242568
loop_
_publ_author_name
'Bairagi, Keshab M.'
'Kumar, Vipin B. S.'
'Bhandary, Subhrajyoti'
'Venugopala, Katharigatta N.'
'Nayak, Susanta K.'
_publ_section_title
;
 Structural analysis of 2-iodobenzamide and
 2-iodo-<i>N</i>-phenylbenzamide
;
_journal_coeditor_code           SJ5558
_journal_issue                   8
_journal_name_full               'Acta Crystallographica Section E'
_journal_page_first              1130
_journal_page_last               1133
_journal_paper_doi               10.1107/S2056989018010162
_journal_volume                  74
_journal_year                    2018
_chemical_formula_iupac          'C7 H6 I N O'
_chemical_formula_moiety         'C7 H6 I N O'
_chemical_formula_sum            'C7 H6 I N O'
_chemical_formula_weight         247.03
_chemical_name_common            Benzamide
_chemical_name_systematic
;
2-Iodobenzamide
;
_space_group_crystal_system      monoclinic
_space_group_IT_number           14
_space_group_name_Hall           '-P 2yn'
_space_group_name_H-M_alt        'P 1 21/n 1'
_symmetry_space_group_name_Hall  '-P 2yn'
_symmetry_space_group_name_H-M   'P 1 21/n 1'
_atom_sites_solution_hydrogens   geom
_cell_angle_alpha                90
_cell_angle_beta                 93.2450(10)
_cell_angle_gamma                90
_cell_formula_units_Z            4
_cell_length_a                   5.0531(2)
_cell_length_b                   11.4478(5)
_cell_length_c                   13.2945(5)
_cell_measurement_reflns_used    1504
_cell_measurement_temperature    296(2)
_cell_measurement_theta_max      26.0
_cell_measurement_theta_min      2.3
_cell_volume                     767.81(5)
_computing_cell_refinement
;
SAINT (Bruker, 2014)
;
_computing_data_collection
;
APEX2 (Bruker, 2014)
;
_computing_data_reduction
;
SAINT (Bruker, 2014)
;
_computing_molecular_graphics
;
PLATON (Spek, 2009) and Mercury (Macrae <i>et al.</i>, 2008)
;
_computing_publication_material
;
WinGX (Farrugia, 2012), PLATON (Spek, 2009) and PARST (Nardelli,
1995)
;
_computing_structure_refinement
;
SHELXL2014 (Sheldrick, 2015)
;
_computing_structure_solution
;
SHELXS14 (Sheldrick, 2008)
;
_diffrn_ambient_temperature      296(2)
_diffrn_measured_fraction_theta_full 0.995
_diffrn_measured_fraction_theta_max 0.995
_diffrn_measurement_device_type  'Bruker Kappa APEXII DUO'
_diffrn_measurement_method       \w
_diffrn_radiation_monochromator  graphite
_diffrn_radiation_source         'fine-focus sealed tube'
_diffrn_radiation_type           MoK\a
_diffrn_radiation_wavelength     0.71073
_diffrn_reflns_av_R_equivalents  0.0208
_diffrn_reflns_limit_h_max       6
_diffrn_reflns_limit_h_min       -6
_diffrn_reflns_limit_k_max       11
_diffrn_reflns_limit_k_min       -14
_diffrn_reflns_limit_l_max       16
_diffrn_reflns_limit_l_min       -15
_diffrn_reflns_number            5827
_diffrn_reflns_theta_full        25.242
_diffrn_reflns_theta_max         25.999
_diffrn_reflns_theta_min         2.349
_diffrn_standards_number         0
_exptl_absorpt_coefficient_mu    4.098
_exptl_absorpt_correction_T_max  0.456
_exptl_absorpt_correction_T_min  0.429
_exptl_absorpt_correction_type   multi-scan
_exptl_absorpt_process_details
;
(SADABS; Bruker, 2014)
;
_exptl_crystal_colour            colorless
_exptl_crystal_density_diffrn    2.137
_exptl_crystal_description       plate
_exptl_crystal_F_000             464
_exptl_crystal_size_max          0.230
_exptl_crystal_size_mid          0.220
_exptl_crystal_size_min          0.210
_refine_diff_density_max         0.446
_refine_diff_density_min         -0.347
_refine_ls_extinction_coef       0.0170(5)
_refine_ls_extinction_expression Fc^*^=kFc[1+0.001xFc^2^\l^3^/sin(2\q)]^-1/4^
_refine_ls_extinction_method
;
SHELXL2014 (Sheldrick, 2015)
;
_refine_ls_goodness_of_fit_ref   1.157
_refine_ls_hydrogen_treatment    constr
_refine_ls_matrix_type           full
_refine_ls_number_parameters     92
_refine_ls_number_reflns         1504
_refine_ls_number_restraints     0
_refine_ls_restrained_S_all      1.157
_refine_ls_R_factor_all          0.0151
_refine_ls_R_factor_gt           0.0144
_refine_ls_shift/su_max          0.002
_refine_ls_shift/su_mean         0.000
_refine_ls_structure_factor_coef Fsqd
_refine_ls_weighting_details
'w=1/[\s^2^(Fo^2^)+(0.0075P)^2^+0.6908P] where P=(Fo^2^+2Fc^2^)/3'
_refine_ls_weighting_scheme      calc
_refine_ls_wR_factor_gt          0.0328
_refine_ls_wR_factor_ref         0.0330
_reflns_number_gt                1461
_reflns_number_total             1504
_reflns_threshold_expression     'I > 2\s(I)'
_cod_data_source_file            sj5558sup1.cif
_cod_data_source_block           I
_cod_database_code               2242568
_shelx_space_group_comment
;
The symmetry employed for this shelxl refinement is uniquely defined
by the following loop, which should always be used as a source of
symmetry information in preference to the above space-group names.
They are only intended as comments.
;
_shelx_estimated_absorpt_t_min   0.452
_shelx_estimated_absorpt_t_max   0.480
_shelx_hkl_file
;
   1   0   0   -0.02    0.07
  -1   0   0   -0.10    0.07
   2   0   0  193.71    4.56
   2   0   0  197.26    4.62
  -2   0   0  188.83    4.84
   2   0   0  197.61    4.85
   3   0   0    0.02    0.08
  -3   0   0    0.00    0.11
   3   0   0    0.03    0.07
  -3   0   0    0.12    0.09
  -4   0   0  182.50    4.60
   4   0   0  186.33    4.58
   4   0   0  185.26    4.70
   5   0   0    0.62    0.19
  -5   0   0    0.08    0.13
  -5   0   0    0.55    0.18
   5   0   0    0.06    0.14
  -6   0   0   55.62    2.03
   6   0   0   54.10    2.01
   1  -1   0   54.93    1.49
  -1  -1   0   64.00    1.60
  -2  -1   0  118.66    3.17
  -2  -1   0  119.29    2.90
   2  -1   0  116.18    2.98
   2  -1   0  124.63    2.93
   2   1   0  121.38    3.18
  -2   1   0  122.73    3.23
   2   1   0  117.89    2.90
   3  -1   0  435.92   10.17
   3  -1   0  428.14   10.06
  -3  -1   0  424.00   10.04
  -3  -1   0  431.14   10.49
  -3   1   0  441.41   10.57
  -3   1   0  439.61   10.05
   3   1   0  439.48   10.04
   3   1   0  438.00   10.51
   3   1   0  435.81   10.10
   4  -1   0   33.30    1.23
  -4  -1   0   31.13    1.09
   4  -1   0   31.68    1.11
  -4  -1   0   32.51    1.15
  -4  -1   0   32.25    1.17
   4   1   0   31.25    1.15
   4   1   0   31.56    1.09
  -4   1   0   33.38    1.12
  -5  -1   0    1.19    0.27
  -5  -1   0    1.21    0.25
  -5  -1   0    1.24    0.28
   5  -1   0    1.40    0.26
   5  -1   0    1.49    0.31
   5   1   0    1.41    0.29
   6  -1   0    2.73    0.48
  -6   1   0    3.09    0.51
   1  -2   0  323.47    7.63
   1  -2   0  324.35    7.51
  -1  -2   0  301.78    8.06
  -2  -2   0   26.90    1.04
  -2  -2   0   27.08    0.80
  -2  -2   0   27.37    0.82
   2  -2   0   28.03    0.91
   2  -2   0   27.08    0.88
   2  -2   0   28.44    0.85
  -2   2   0   27.46    1.09
   2   2   0   26.74    0.82
   2   2   0   28.43    0.81
  -3  -2   0   13.39    0.54
  -3  -2   0   12.06    0.74
  -3  -2   0   12.71    0.54
   3  -2   0   12.59    0.55
   3  -2   0   12.57    0.62
   3   2   0   12.98    0.54
   3   2   0   12.39    0.75
   3   2   0   11.41    0.51
  -3   2   0   12.37    0.78
  -3   2   0   12.67    0.52
  -4  -2   0  136.56    3.51
   4  -2   0  137.18    3.70
   4  -2   0  135.61    3.55
  -4  -2   0  139.21    3.57
  -4   2   0  135.47    3.49
   4   2   0  139.01    3.56
  -5  -2   0   67.81    2.15
   5  -2   0   72.41    2.31
   5  -2   0   69.15    2.12
  -5  -2   0   68.17    2.08
  -5  -2   0   67.92    2.16
   6  -2   0   57.98    2.17
  -6   2   0   59.26    2.18
   0  -3   0   -0.47    0.08
  -1  -3   0  229.82    5.74
  -1  -3   0  235.99    5.48
   1  -3   0  235.93    5.50
   1  -3   0  240.96    5.50
   1   3   0  233.81    5.77
  -2  -3   0  674.02   17.66
   2  -3   0  731.60   17.08
   2  -3   0  702.51   16.33
   2  -3   0  663.12   16.43
  -2  -3   0  668.60   15.98
   2   3   0  610.43   15.88
  -3  -3   0   99.46    2.61
  -3  -3   0   98.39    2.57
  -3  -3   0  100.89    3.04
   3  -3   0  100.30    2.66
   3  -3   0   99.50    2.76
  -3   3   0  102.41    2.61
   3   3   0  101.14    2.58
   3   3   0  109.91    2.64
  -3   3   0  100.11    3.12
   4  -3   0  119.34    3.32
   4  -3   0  119.29    3.18
  -4  -3   0  119.64    3.12
  -4  -3   0  116.02    3.10
   4   3   0  120.89    3.12
  -4   3   0  118.81    3.11
  -5  -3   0    1.94    0.31
   5  -3   0    1.89    0.32
   5  -3   0    2.30    0.40
   6  -3   0   59.77    2.24
  -6   3   0   58.59    2.22
   0  -4   0   14.68    0.58
  -1  -4   0  390.94    9.28
   1  -4   0  376.60    8.93
  -1  -4   0  386.73    8.92
   1  -4   0  404.29    9.22
   1   4   0  371.46    9.77
  -2  -4   0   78.95    2.09
   2  -4   0   78.74    2.13
  -2  -4   0   76.85    2.41
   2  -4   0   79.58    2.17
   2   4   0   83.03    2.11
  -3  -4   0   42.55    1.23
   3  -4   0   42.21    1.43
  -3  -4   0   42.14    1.67
  -3  -4   0   42.12    1.31
   3  -4   0   42.59    1.36
   3  -4   0   45.10    1.65
   3   4   0   43.80    1.24
   3   4   0   40.56    1.31
  -4  -4   0    5.75    0.40
   4  -4   0    5.43    0.43
   4  -4   0    5.82    0.50
   4   4   0    4.65    0.37
   5  -4   0  166.49    4.42
   5  -4   0  165.44    4.61
   6  -4   0    3.70    0.59
  -6  -4   0    3.89    0.56
  -6   4   0    3.59    0.57
   0  -5   0   -0.36    0.07
   1  -5   0    7.15    0.41
  -1  -5   0    7.13    0.39
   1  -5   0    6.46    0.35
   1   5   0    7.12    0.57
  -2  -5   0  577.99   13.55
   2  -5   0  563.48   13.11
   2  -5   0  558.63   13.10
  -2  -5   0  565.17   13.05
   2   5   0  568.88   14.21
  -3  -5   0   31.35    1.41
   3  -5   0   29.57    1.14
   3  -5   0   28.80    1.09
  -3  -5   0   29.95    1.05
   3   5   0   30.38    1.06
  -4  -5   0  138.29    3.72
   4  -5   0  139.46    3.82
   4  -5   0  138.70    3.94
   4   5   0  157.56    3.78
   5  -5   0    0.45    0.20
   5  -5   0    0.12    0.16
   6  -5   0   35.39    1.67
   0  -6   0  543.95   13.01
   0  -6   0  582.82   13.35
   1  -6   0  390.39    9.34
  -1  -6   0  385.19    9.29
   1  -6   0  413.16    9.22
   1   6   0  398.83    9.92
   2  -6   0   44.60    1.44
   2  -6   0   45.38    1.47
  -2  -6   0   48.17    1.45
  -2  -6   0   44.96    1.79
   2   6   0   43.97    1.83
  -3  -6   0   24.63    0.94
  -3  -6   0   23.46    1.26
   3  -6   0   22.51    0.99
   3  -6   0   23.91    0.99
   4  -6   0   27.59    1.26
   4  -6   0   29.63    1.22
  -4  -6   0   29.75    1.14
   4   6   0   31.59    1.16
   5  -6   0  109.09    3.26
   5  -6   0  112.19    3.43
   6  -6   0   17.30    1.13
   6  -6   0   17.96    1.28
   0  -7   0    0.03    0.06
   0  -7   0    0.00    0.08
   1  -7   0   77.13    2.05
   1  -7   0   72.95    2.17
  -1  -7   0   74.01    2.14
   1   7   0   74.85    2.69
   2  -7   0  160.98    4.15
  -2  -7   0  168.61    4.17
   2  -7   0  163.46    4.24
   2   7   0  158.58    4.81
  -3  -7   0  129.31    3.47
   3  -7   0  126.45    3.55
   3  -7   0  134.20    3.58
   4  -7   0   22.94    1.13
  -4  -7   0   23.39    1.02
   4  -7   0   23.76    1.10
   5  -7   0    0.93    0.29
   5  -7   0    2.26    0.41
   6  -7   0   16.59    1.04
   6  -7   0   17.33    1.16
   0  -8   0  444.62   10.05
   0  -8   0  428.84   10.36
  -1  -8   0   27.55    1.07
   1  -8   0   26.45    1.08
   1  -8   0   26.21    0.94
   2  -8   0   66.45    2.01
   2  -8   0   67.77    2.12
  -2  -8   0   66.90    2.04
  -3  -8   0    6.73    0.50
   3  -8   0    6.22    0.52
   3  -8   0    5.81    0.50
  -4  -8   0   97.72    2.92
   4  -8   0  106.29    3.15
   4  -8   0   99.32    3.07
   5  -8   0   22.15    1.19
   5  -8   0   23.60    1.28
   0  -9   0   -0.08    0.08
   1  -9   0  167.75    4.43
  -1  -9   0  167.61    4.39
   1  -9   0  165.34    4.18
  -2  -9   0    0.70    0.20
   2  -9   0    1.00    0.28
   2  -9   0    0.87    0.22
  -3  -9   0  215.34    5.54
   3  -9   0  216.89    5.60
   3  -9   0  214.55    5.68
   4  -9   0    0.63    0.27
  -4  -9   0    0.40    0.19
   4  -9   0    0.47    0.22
   5  -9   0    2.21    0.46
   5  -9   0    3.07    0.53
   0 -10   0  304.05    7.56
   1 -10   0   11.49    0.73
  -1 -10   0   10.96    0.69
  -2 -10   0   37.34    1.45
   2 -10   0   36.99    1.50
   2 -10   0   37.20    1.37
   3 -10   0    0.18    0.16
  -3 -10   0    0.05    0.14
   3 -10   0    0.05    0.12
   4 -10   0   78.34    2.62
   4 -10   0   74.04    2.65
  -4 -10   0   77.83    2.50
   5 -10   0    8.81    0.81
   5 -10   0    8.46    0.80
   0 -11   0   -0.09    0.10
   1 -11   0   44.92    1.71
  -1 -11   0   43.42    1.66
   2 -11   0  106.01    3.05
   2 -11   0  109.46    3.29
  -2 -11   0  105.67    3.17
   3 -11   0   71.31    2.51
   3 -11   0   68.74    2.34
  -3 -11   0   72.61    2.37
  -4 -11   0   30.87    1.40
   4 -11   0   29.75    1.44
   4 -11   0   31.33    1.55
   0 -12   0   48.04    1.81
   1 -12   0  105.71    3.24
  -1 -12   0  103.78    3.17
   2 -12   0    3.06    0.49
  -2 -12   0    3.02    0.48
   3 -12   0    9.51    0.81
   3 -12   0    8.75    0.69
  -3 -12   0   10.26    0.77
   4 -12   0   17.60    1.17
   4 -12   0   17.67    1.09
   0 -13   0    0.14    0.17
   1 -13   0    7.15    0.67
  -1 -13   0    7.26    0.66
  -2 -13   0   96.48    3.10
   2 -13   0  100.66    3.25
  -3 -13   0    5.26    0.66
   3 -13   0    4.42    0.66
   0 -14   0   22.83    1.23
  -1 -14   0   87.00    2.89
   1 -14   0   86.07    2.93
  -2 -14   0    1.52    0.38
   2 -14   0    1.26    0.37
   3 -14   0    7.96    0.94
  -3 -14   0    7.80    0.74
   0 -15   0    0.51    0.27
  -1 -15   0    4.95    0.67
   1 -15   0    3.42    0.56
  -2 -15   0   52.62    2.16
   2 -15   0   55.53    2.29
   6   0  -1   -0.24    0.14
  -6   0   1    0.03    0.16
   5   0  -1  208.81    5.44
   5   0  -1  211.43    5.31
  -5   0   1  209.54    5.45
  -4   0   1    3.27    0.40
   3   0  -1    1.38    0.24
   3   0  -1    0.96    0.18
  -3   0   1    1.39    0.24
  -3   0   1    1.42    0.31
  -3   0   1    1.61    0.22
   2   0  -1    0.06    0.06
  -2   0   1    0.33    0.11
   2   0  -1    0.04    0.05
  -1   0   1  511.11   12.63
   1   0   1  173.97    4.22
  -1   0  -1  175.24    4.22
   2   0   1   -0.50    0.12
  -2   0  -1   -0.10    0.16
   2   0   1   -0.45    0.08
   2   0   1   -0.25    0.08
   3   0   1  375.36    9.46
   3   0   1  378.10    8.92
  -3   0  -1  393.93    9.01
  -3   0  -1  387.70    9.50
  -3   0  -1  390.61    9.35
   3   0   1  391.60    9.05
   4   0   1   -0.12    0.08
   4   0   1    0.25    0.11
  -4   0  -1    0.07    0.10
   5   0   1  394.45    9.60
  -5   0  -1  396.54    9.52
   6   0   1    0.03    0.13
  -6   0  -1    0.04    0.14
  -6  -1   1    6.93    0.61
   6  -1  -1    7.24    0.65
   6  -1  -1    7.72    0.65
  -6   1   1    7.84    0.67
   6   1  -1    7.90    0.65
  -5  -1   1    9.78    0.60
   5  -1  -1    9.17    0.59
  -5  -1   1    8.72    0.61
   5  -1  -1    9.05    0.65
   5   1  -1    9.90    0.64
   5   1  -1    9.42    0.58
  -5   1   1    9.91    0.67
  -4  -1   1  288.49    7.04
   4  -1  -1  281.70    7.17
  -4  -1   1  301.68    7.60
  -4  -1   1  301.06    7.14
   4  -1  -1  287.65    7.06
   4   1  -1  302.45    7.06
  -4   1   1  293.94    6.99
   4   1  -1  295.02    7.12
  -3  -1   1   35.78    1.38
   3  -1  -1   36.71    1.21
  -3  -1   1   35.21    1.16
   3  -1  -1   38.04    1.16
  -3   1   1   36.98    1.09
  -3   1   1   35.78    1.41
   3   1  -1   36.28    1.13
   3   1  -1   36.27    1.16
   2  -1  -1  522.37   12.39
  -2  -1   1  510.88   13.73
   2  -1  -1  539.48   12.85
  -2  -1   1  533.38   12.78
   2   1  -1  533.00   13.48
  -2   1   1  532.81   13.86
   2   1  -1  543.19   12.67
   2   1  -1  531.02   12.72
  -1  -1   1   30.03    0.87
  -1  -1   1   30.88    0.85
   1   1  -1   31.22    0.87
   0  -1   1   68.52    1.80
   0  -1  -1   72.63    1.84
   0   1   1   73.22    1.83
   0   1  -1   73.39    1.82
  -1  -1  -1  354.72    9.08
  -1   1  -1  388.22    9.77
   1   1   1  355.18    9.34
  -1   1  -1  388.80    9.47
  -2  -1  -1  396.48    9.57
   2  -1   1  398.46    9.26
  -2  -1  -1  394.60    9.53
   2   1   1  411.50    9.69
  -2   1  -1  407.72    9.56
  -2   1  -1  397.18    9.96
   2   1   1  396.98    9.89
   2   1   1  398.15    9.48
   3  -1   1   40.58    1.31
  -3  -1  -1   41.27    1.20
  -3  -1  -1   41.06    1.59
  -3   1  -1   42.28    1.26
  -3   1  -1   41.58    1.63
   3   1   1   40.16    1.58
   3   1   1   42.47    1.20
  -4  -1  -1    0.93    0.21
   4  -1   1    0.96    0.22
   4  -1   1    0.78    0.17
  -4  -1  -1    0.83    0.17
   4   1   1    1.06    0.22
   4   1   1    1.18    0.20
  -4   1  -1    0.88    0.19
  -5  -1  -1   23.19    1.05
   5  -1   1   24.09    1.11
  -5  -1  -1   23.60    1.05
   5   1   1   23.46    1.05
  -5   1  -1   24.65    1.03
   6  -1   1   94.61    2.99
  -6   1  -1   91.02    2.96
   6  -2  -1   79.75    2.70
   6  -2  -1   78.51    2.50
  -6   2   1   79.88    2.70
   5  -2  -1  116.68    3.20
  -5  -2   1  114.84    3.20
   5  -2  -1  114.44    3.35
  -5  -2   1  114.72    3.16
  -5  -2   1  110.55    3.20
   5   2  -1  117.82    3.16
  -5   2   1  113.90    3.36
   4  -2  -1  110.55    3.10
   4  -2  -1  112.74    2.99
  -4  -2   1  112.95    3.41
  -4  -2   1  110.24    2.97
  -4  -2   1  108.80    2.94
   4   2  -1  108.89    2.93
   3  -2  -1   22.87    0.83
  -3  -2   1   22.31    0.80
  -3  -2   1   22.98    0.81
  -3  -2   1   20.84    0.99
   3  -2  -1   22.93    0.89
   3   2  -1   24.58    0.83
   3   2  -1   22.58    1.01
  -3   2   1   22.59    1.09
   3   2  -1   20.77    0.79
  -3   2   1   23.00    0.75
  -2  -2   1  215.78    5.19
   2  -2  -1  222.11    5.22
  -2  -2   1  217.97    5.40
   2  -2  -1  222.23    5.27
  -2  -2   1  219.78    5.18
   2   2  -1  215.46    5.39
   2   2  -1  230.52    5.21
   2   2  -1  224.37    5.18
  -1  -2   1  927.08   23.32
   1  -2  -1  989.05   22.63
   1  -2  -1 1000.00   22.86
  -1  -2   1  983.67   22.56
   1   2  -1  914.15   23.37
   1   2  -1  980.87   22.68
   0   2   1   22.10    0.80
   1  -2   1  270.63    6.41
  -1  -2  -1  289.75    7.22
   1  -2   1  271.91    7.32
   1   2   1  278.51    6.96
   2  -2   1    1.61    0.15
   2  -2   1    1.34    0.19
  -2  -2  -1    1.81    0.15
  -2  -2  -1    2.24    0.27
   2   2   1    1.49    0.28
   2   2   1    1.75    0.14
   2   2   1    2.06    0.15
  -3  -2  -1  157.36    3.93
   3  -2   1  162.85    4.13
  -3  -2  -1  163.22    4.48
   3   2   1  167.73    3.95
  -3   2  -1  164.27    4.54
   3   2   1  159.93    4.47
  -3   2  -1  163.55    4.00
   3   2   1  164.00    3.98
  -4  -2  -1  113.01    2.94
  -4  -2  -1  114.14    3.03
   4  -2   1  111.37    3.16
   4   2   1  116.34    2.95
  -4   2  -1  114.91    3.01
   4   2   1  111.22    3.01
  -5  -2  -1  123.60    3.46
   5  -2   1  118.65    3.52
  -5   2  -1  126.01    3.51
   6  -2   1   33.31    1.53
  -6  -2  -1   33.51    1.44
   6  -3  -1    3.13    0.48
   6  -3  -1    2.25    0.45
  -6   3   1    2.19    0.44
   5  -3  -1   72.38    2.26
  -5  -3   1   72.39    2.20
   5  -3  -1   70.58    2.38
  -5   3   1   72.22    2.40
   5   3  -1   74.41    2.21
  -4  -3   1   75.24    2.53
  -4  -3   1   73.00    2.09
   4  -3  -1   72.61    2.14
  -4  -3   1   72.73    2.09
   4  -3  -1   70.70    2.23
   4   3  -1   70.76    2.07
   4   3  -1   71.53    2.08
   3  -3  -1  339.14    8.21
   3  -3  -1  352.19    8.53
  -3  -3   1  351.67    8.14
   3  -3  -1  338.18    8.29
  -3  -3   1  352.04    8.56
  -3  -3   1  343.20    8.17
  -3   3   1  352.37    8.09
   3   3  -1  355.60    8.18
   3   3  -1  357.10    8.14
  -3   3   1  343.55    8.69
   3   3  -1  345.73    8.54
  -2  -3   1   92.11    2.25
  -2  -3   1   91.07    2.31
  -2  -3   1   90.61    2.53
   2  -3  -1   87.83    2.33
   2  -3  -1   88.83    2.37
   2   3  -1   94.72    2.26
   2   3  -1   91.36    2.52
   2   3  -1   86.87    2.31
   1  -3  -1  365.97    8.70
   1  -3  -1  368.45    8.50
  -1  -3   1  363.85    8.37
  -1  -3   1  361.09    8.77
   1   3  -1  360.94    9.08
   0  -3   1    0.37    0.10
   0  -3  -1    0.27    0.10
   1  -3   1  612.76   15.12
  -1  -3  -1  598.89   14.45
   1  -3   1  584.19   13.84
   1  -3   1  619.17   14.55
  -1  -3  -1  613.55   16.08
   1   3   1  592.43   15.95
   2  -3   1  126.68    3.12
  -2  -3  -1  125.37    3.07
   2  -3   1  127.04    3.34
  -2  -3  -1  127.20    3.49
   2  -3   1  121.44    3.19
   2   3   1  129.19    3.52
  -3  -3  -1  257.47    6.86
   3  -3   1  263.77    6.49
  -3  -3  -1  261.02    6.26
   3  -3   1  268.89    6.36
  -3  -3  -1  264.36    6.29
  -3   3  -1  267.52    6.36
   3   3   1  264.61    6.26
  -3   3  -1  272.24    6.98
   3   3   1  293.24    6.33
   3   3   1  256.18    6.86
  -4  -3  -1    1.06    0.19
   4  -3   1    1.04    0.25
   4  -3   1    1.64    0.26
   4   3   1    0.97    0.18
  -4   3  -1    1.21    0.22
   5  -3   1   46.49    1.59
   5  -3   1   46.67    1.77
  -6  -3  -1   37.73    1.59
   6  -3   1   41.50    1.76
   6  -4  -1  144.82    4.24
   6  -4  -1  138.68    3.98
  -6   4   1  136.01    4.17
   5  -4  -1    5.82    0.57
   5  -4  -1    6.18    0.52
  -5  -4   1    6.12    0.48
   5   4  -1    4.47    0.43
  -4  -4   1  126.31    3.24
   4  -4  -1  125.64    3.30
   4  -4  -1  127.41    3.43
   4   4  -1  105.57    3.17
   3  -4  -1    6.66    0.47
  -3  -4   1    7.99    0.60
  -3  -4   1    7.32    0.43
   3  -4  -1    7.25    0.59
   3  -4  -1    7.57    0.46
  -3  -4   1    7.38    0.39
   3   4  -1    7.18    0.58
   3   4  -1    8.01    0.45
   3   4  -1    7.42    0.39
   2  -4  -1  325.50    7.76
   2  -4  -1  333.29    7.74
  -2  -4   1  335.43    7.71
  -2  -4   1  342.57    7.59
  -2  -4   1  333.74    8.02
   2   4  -1  322.81    8.00
   2   4  -1  311.91    7.69
   1  -4  -1    0.26    0.12
   1  -4  -1    0.62    0.16
  -1  -4   1    0.87    0.18
   1   4  -1    0.28    0.18
   0  -4   1  422.97    9.89
   0  -4  -1  434.89   10.24
   1  -4   1   12.97    0.52
   1  -4   1   13.02    0.54
  -1  -4  -1   12.58    0.72
  -1  -4  -1   12.03    0.49
   1   4   1   12.94    0.75
   2  -4   1   12.53    0.57
   2  -4   1   13.10    0.61
   2  -4   1   12.57    0.73
  -2  -4  -1   14.70    0.56
  -2  -4  -1   12.66    0.78
   2   4   1   13.70    0.81
   3  -4   1   19.50    0.79
  -3  -4  -1   20.16    1.09
  -3  -4  -1   20.36    0.76
   3   4   1   20.98    0.76
   3   4   1   20.17    1.10
   4  -4   1  266.65    6.58
   4  -4   1  262.88    6.75
  -4  -4  -1  272.16    6.48
  -4   4  -1  262.06    6.55
   4   4   1  280.89    6.51
   5  -4   1    4.08    0.41
   5  -4   1    4.66    0.61
   6  -4   1   20.00    1.20
  -6  -4  -1   21.40    1.15
   6  -5  -1    1.06    0.36
   6  -5  -1    0.21    0.19
  -6   5   1    0.46    0.25
   5  -5  -1   44.11    1.75
  -5  -5   1   44.66    1.57
   5  -5  -1   45.69    1.66
   5   5  -1   40.67    1.53
   4  -5  -1    5.33    0.49
   4  -5  -1    6.41    0.49
  -4  -5   1    6.27    0.45
   4   5  -1    6.93    0.47
   3  -5  -1  472.09   11.05
  -3  -5   1  470.68   10.98
   3  -5  -1  444.26   11.07
  -3  -5   1  472.83   11.45
   3   5  -1  497.42   11.02
   3   5  -1  463.08   11.44
  -2  -5   1    6.27    0.52
  -2  -5   1    5.95    0.29
   2  -5  -1    7.02    0.41
  -2  -5   1    5.78    0.37
   2  -5  -1    5.85    0.39
   2   5  -1    5.51    0.36
   1  -5  -1    9.00    0.46
  -1  -5   1    8.64    0.45
   1  -5  -1    8.47    0.41
   0  -5   1    0.16    0.10
   0  -5  -1    0.02    0.07
   0  -5   1    0.17    0.08
   1  -5   1  608.09   13.76
  -1  -5  -1  549.31   13.19
  -1  -5  -1  590.81   13.75
   1  -5   1  562.93   13.54
   1   5   1  568.24   14.44
   2  -5   1    2.64    0.27
   2  -5   1    2.43    0.27
   2  -5   1    2.61    0.37
  -2  -5  -1    3.05    0.26
  -2  -5  -1    2.68    0.39
   2   5   1    3.07    0.42
  -3  -5  -1  218.64    5.83
   3  -5   1  212.40    5.35
   3  -5   1  214.79    5.26
  -3  -5  -1  213.90    5.16
   3   5   1  199.37    5.13
   4  -5   1    0.28    0.15
  -4  -5  -1    0.19    0.11
   4  -5   1    0.14    0.14
   4   5   1    0.17    0.11
   5  -5   1   47.94    1.71
   5  -5   1   47.97    1.87
   6  -5   1    0.00    0.16
  -6  -5  -1    0.27    0.22
   6  -6  -1   89.67    2.92
   6  -6  -1   92.16    3.11
  -6   6   1   83.78    3.02
   5  -6  -1   27.85    1.27
  -5  -6   1   26.87    1.18
   5  -6  -1   29.54    1.39
   5   6  -1   28.03    1.19
   4  -6  -1   72.67    2.33
   4  -6  -1   75.51    2.41
  -4  -6   1   74.43    2.25
   4   6  -1   78.32    2.29
  -3  -6   1    0.24    0.12
  -3  -6   1    0.49    0.22
   3  -6  -1    0.09    0.10
   3  -6  -1    1.91    0.32
   3   6  -1    0.06    0.10
   3   6  -1    0.03    0.13
  -2  -6   1   32.21    1.12
   2  -6  -1   32.12    1.15
  -2  -6   1   32.56    1.40
   2  -6  -1   32.06    1.11
   2   6  -1   31.53    1.43
   1  -6  -1  153.47    3.86
  -1  -6   1  159.99    3.88
   1  -6  -1  154.67    3.74
   1   6  -1  142.47    4.28
   0  -6  -1  386.57    8.50
   0  -6  -1  365.94    8.73
   0  -6   1  363.57    8.77
   0  -6   1  370.43    8.56
  -1  -6  -1   24.26    0.89
   1  -6   1   23.19    0.84
   1  -6   1   23.35    0.91
   1   6   1   26.41    1.30
   2  -6   1   16.78    0.76
  -2  -6  -1   17.39    0.72
  -2  -6  -1   17.89    1.05
   2  -6   1   17.76    0.76
   2   6   1   17.08    1.07
   3  -6   1   60.43    1.89
  -3  -6  -1   62.73    1.83
   3  -6   1   59.31    1.93
  -4  -6  -1  227.51    5.65
   4  -6   1  230.20    5.79
   4  -6   1  225.11    5.91
   5  -6   1   88.70    2.90
   5  -6   1   86.56    2.70
   6  -6   1   11.17    0.90
   6  -7  -1    2.42    0.47
   6  -7  -1    2.29    0.52
  -6   7   1    1.63    0.42
   5  -7  -1   13.44    0.87
  -5  -7   1   14.04    0.81
   5  -7  -1   14.11    0.93
   5   7  -1   13.88    0.82
   4  -7  -1  165.74    4.54
  -4  -7   1  166.39    4.38
   4  -7  -1  165.11    4.48
   3  -7  -1  222.17    5.69
   3  -7  -1  223.46    5.71
  -3  -7   1  228.53    5.65
   2  -7  -1  140.42    3.73
  -2  -7   1  141.30    3.69
   2  -7  -1  143.64    3.66
   2   7  -1  138.19    4.25
   1  -7  -1    2.96    0.25
   1  -7  -1    3.57    0.32
  -1  -7   1    3.19    0.31
   1   7  -1    3.13    0.45
   0  -7  -1   13.61    0.65
   0  -7   1   13.74    0.54
   0  -7   1   13.43    0.67
   0  -7  -1   13.72    0.49
   0   7   1   12.61    0.90
   1  -7   1   88.17    2.49
   1  -7   1   85.76    2.34
  -1  -7  -1   87.39    2.43
   1   7   1   89.61    3.05
   2  -7   1  194.37    4.94
  -2  -7  -1  193.65    4.84
   2  -7   1  193.63    4.88
  -2  -7  -1  193.50    5.49
   3  -7   1   58.84    1.92
  -3  -7  -1   59.62    1.82
   3  -7   1   57.30    1.92
   4  -7   1    0.20    0.16
   4  -7   1    0.62    0.23
  -4  -7  -1    0.31    0.16
   5  -7   1    8.42    0.68
   5  -7   1    8.83    0.75
   6  -7   1   50.30    2.16
   5  -8  -1   95.55    3.14
   5  -8  -1   95.41    3.08
   4  -8  -1    3.23    0.47
   4  -8  -1    3.74    0.53
  -4  -8   1    4.03    0.49
   3  -8  -1    2.80    0.41
  -3  -8   1    2.63    0.37
   3  -8  -1    4.57    0.45
   2  -8  -1   24.06    1.05
  -2  -8   1   24.30    1.02
   2  -8  -1   24.43    0.98
   1  -8  -1  468.64   11.37
  -1  -8   1  481.64   11.38
   1  -8  -1  493.54   11.18
   1   8  -1  483.40   12.54
   0  -8   1  101.35    2.59
   0  -8   1  101.68    2.86
   0  -8  -1  101.90    2.82
   1  -8   1   85.85    2.54
  -1  -8  -1   87.52    2.49
   1  -8   1   88.51    2.39
   2  -8   1    5.65    0.44
  -2  -8  -1    5.74    0.43
   2  -8   1    5.94    0.49
   3  -8   1  132.30    3.68
   3  -8   1  131.06    3.71
  -3  -8  -1  134.25    3.57
   4  -8   1   30.20    1.35
   4  -8   1   31.66    1.40
   5  -8   1  122.43    3.66
   5  -8   1  118.91    3.75
   5  -9  -1    2.69    0.49
   5  -9  -1    3.03    0.53
  -4  -9   1  126.33    3.58
   4  -9  -1  123.82    3.71
   4  -9  -1  123.77    3.68
   3  -9  -1    0.83    0.26
  -3  -9   1    1.70    0.32
   3  -9  -1    1.01    0.27
   2  -9  -1  171.42    4.61
   2  -9  -1  174.82    4.46
  -2  -9   1  172.63    4.55
   1  -9  -1    1.31    0.28
   1  -9  -1    1.33    0.22
  -1  -9   1    2.50    0.36
   0  -9   1   22.14    1.01
   0  -9  -1   22.21    0.98
  -1  -9  -1    0.33    0.15
   1  -9   1    0.50    0.20
   2  -9   1  221.27    5.69
  -2  -9  -1  228.34    5.74
   2  -9   1  231.49    5.88
   3  -9   1    2.01    0.37
  -3  -9  -1    1.36    0.28
   3  -9   1    1.41    0.32
   4  -9   1    3.71    0.53
   4  -9   1    4.22    0.56
   5  -9   1    0.73    0.28
   5  -9   1    0.71    0.31
   5 -10  -1   75.24    2.73
   5 -10  -1   71.77    2.65
   4 -10  -1    4.87    0.60
   4 -10  -1    4.46    0.65
  -4 -10   1    3.77    0.51
  -3 -10   1    7.37    0.59
   3 -10  -1    7.49    0.59
   3 -10  -1    6.68    0.61
  -2 -10   1   15.45    0.85
   2 -10  -1   15.85    0.80
   2 -10  -1   16.26    0.91
   1 -10  -1  236.67    6.03
  -1 -10   1  233.68    6.03
   0 -10  -1   28.56    1.20
   0 -10   1   29.88    1.25
   1 -10   1   54.23    1.89
  -1 -10  -1   51.81    1.80
   1 -10   1   54.11    1.68
   2 -10   1    0.80    0.22
   2 -10   1    1.59    0.36
  -2 -10  -1    0.85    0.23
   3 -10   1  104.53    3.11
  -3 -10  -1  104.54    3.04
   3 -10   1  101.65    3.21
   4 -10   1   16.09    1.02
   4 -10   1   14.79    0.97
   5 -10   1   69.70    2.62
   5 -10   1   72.90    2.67
  -4 -11   1   52.84    1.99
   4 -11  -1   51.90    2.03
   4 -11  -1   54.03    2.16
   3 -11  -1   62.76    2.28
  -3 -11   1   63.59    2.18
   3 -11  -1   60.59    2.12
   2 -11  -1  116.44    3.49
  -2 -11   1  117.55    3.44
  -1 -11   1    3.05    0.47
   1 -11  -1    2.89    0.46
   0 -11   1   32.95    1.41
   0 -11  -1   35.07    1.40
  -1 -11  -1   81.88    2.54
   1 -11   1   80.17    2.61
  -2 -11  -1  110.40    3.23
   2 -11   1  110.69    3.16
   2 -11   1  109.29    3.36
   3 -11   1   44.62    1.75
   3 -11   1   48.50    1.93
  -3 -11  -1   47.26    1.76
   4 -11   1    0.06    0.19
   4 -11   1    0.15    0.21
   4 -12  -1   30.44    1.47
   4 -12  -1   31.55    1.61
  -4 -12   1   29.76    1.43
  -3 -12   1    0.44    0.23
   3 -12  -1    0.31    0.23
   3 -12  -1    0.57    0.24
  -2 -12   1   39.75    1.65
   2 -12  -1   42.30    1.74
  -1 -12   1   17.31    0.99
   1 -12  -1   18.27    1.02
   0 -12  -1   99.53    3.01
   0 -12   1   95.73    3.02
  -1 -12  -1    8.89    0.68
   1 -12   1    8.43    0.70
   2 -12   1    0.33    0.22
  -2 -12  -1    0.67    0.25
   3 -12   1   16.33    0.97
  -3 -12  -1   17.08    0.98
   3 -12   1   17.87    1.12
   4 -12   1   64.24    2.38
   4 -12   1   60.32    2.46
   3 -13  -1  126.72    3.97
  -3 -13   1  124.41    3.81
  -2 -13   1    2.80    0.49
   2 -13  -1    3.12    0.54
   1 -13  -1    9.80    0.77
  -1 -13   1   10.30    0.78
   0 -13  -1    2.18    0.41
   0 -13   1    2.97    0.50
  -1 -13  -1  113.01    3.46
   1 -13   1  118.25    3.60
   2 -13   1    6.32    0.77
  -2 -13  -1    7.17    0.64
   3 -13   1   52.81    2.20
  -3 -13  -1   52.28    2.01
  -3 -14   1    0.20    0.24
   3 -14  -1    0.04    0.17
   2 -14  -1   40.23    1.81
  -2 -14   1   38.25    1.71
  -1 -14   1    1.93    0.41
   1 -14  -1    1.39    0.38
   0 -14   1   79.01    2.78
   0 -14  -1   85.75    2.82
  -1 -14  -1    1.91    0.42
   1 -14   1    1.30    0.37
  -2 -14  -1    4.70    0.61
   2 -14   1    4.87    0.71
   3 -14   1    0.79    0.35
  -3 -14  -1    0.97    0.33
  -2 -15   1   15.01    1.03
   2 -15  -1   13.97    1.05
   1 -15  -1    1.34    0.38
  -1 -15   1    1.54    0.42
   0 -15  -1    3.13    0.55
   0 -15   1    3.12    0.55
   1 -15   1   38.41    1.78
  -1 -15  -1   37.95    1.70
   6   0  -2  150.47    4.24
  -6   0   2  145.99    4.22
  -6   0   2  143.83    4.08
   6   0  -2  148.80    4.08
  -5   0   2    0.00    0.11
   5   0  -2    0.35    0.19
   5   0  -2    0.64    0.21
  -4   0   2   10.04    0.60
  -4   0   2   11.16    0.54
  -4   0   2   10.78    0.76
   4   0  -2   11.00    0.58
   4   0  -2   10.52    0.61
   3   0  -2    0.04    0.08
  -3   0   2   -0.01    0.06
  -3   0   2    0.12    0.11
   3   0  -2    0.11    0.09
   2   0  -2  549.09   20.68
  -2   0   2  559.17   14.18
  -2   0   2  521.77   12.80
   2   0  -2  551.20   13.16
   0   0   2  510.85   12.65
   0   0  -2  530.12   12.74
   1   0   2   -0.61    0.08
  -1   0  -2   -0.58    0.08
   2   0   2  271.31    6.80
   2   0   2  275.71    6.47
  -2   0  -2  276.11    6.47
  -2   0  -2  282.98    6.83
   3   0   2    0.13    0.15
   3   0   2    0.50    0.15
  -3   0  -2   -0.11    0.06
  -3   0  -2   -0.04    0.12
   3   0   2    0.12    0.09
   4   0   2  480.04   11.33
   4   0   2  483.21   11.12
  -4   0  -2  470.46   11.28
  -4   0  -2  486.99   12.32
   5   0   2    0.13    0.16
  -5   0  -2    0.04    0.12
  -6   0  -2    4.35    0.77
  -6   0  -2    2.92    0.47
   6   0   2    3.80    0.53
  -6  -1   2    0.51    0.23
   6  -1  -2    0.29    0.20
  -6  -1   2    0.59    0.24
   6  -1  -2    1.14    0.32
   6   1  -2    0.68    0.25
   6   1  -2    0.34    0.20
  -6   1   2    0.82    0.29
  -5  -1   2   82.56    2.43
   5  -1  -2   81.36    2.42
   5  -1  -2   81.55    2.54
  -5  -1   2   80.36    2.48
   5   1  -2   75.30    2.36
   5   1  -2   80.95    2.48
  -5   1   2   81.73    2.55
  -4  -1   2   49.38    1.86
  -4  -1   2   49.00    1.56
   4  -1  -2   51.05    1.66
  -4  -1   2   51.18    1.62
   4  -1  -2   49.09    1.56
   4   1  -2   49.41    1.60
  -4   1   2   47.80    1.64
   4   1  -2   47.84    1.54
  -4   1   2   49.16    1.92
   3  -1  -2  487.46   11.52
  -3  -1   2  482.19   11.46
   3  -1  -2  498.71   11.46
  -3  -1   2  507.15   12.07
  -3   1   2  498.87   11.79
   3   1  -2  493.82   11.48
  -3   1   2  501.46   11.54
   3   1  -2  489.65   11.43
   2  -1  -2   19.56    0.68
  -2  -1   2   19.03    0.73
  -2  -1   2   20.34    0.69
   2  -1  -2   19.56    0.71
   2   1  -2   19.09    0.68
  -2   1   2   20.28    0.72
   2   1  -2   22.00    0.69
   2   1  -2   18.80    0.72
   1  -1  -2  144.91    3.43
  -1  -1   2  141.62    3.68
  -1  -1   2  147.39    3.41
  -1   1   2  144.69    3.43
   1   1  -2  142.67    3.70
   1   1  -2  147.39    3.40
   1   1  -2  139.86    3.47
   0  -1  -2   20.26    0.72
   0   1  -2   20.28    0.72
   0   1  -2   20.21    0.61
   0   1   2   24.95    0.75
   1  -1   2  733.64   18.54
   1  -1   2  826.33   19.83
  -1  -1  -2  776.97   19.70
   1   1   2  761.53   19.62
  -1   1  -2  843.03   19.69
  -2  -1  -2   94.42    2.74
   2  -1   2   90.21    2.71
   2  -1   2   96.53    2.46
   2  -1   2   99.31    2.33
  -2   1  -2   97.19    2.43
  -2   1  -2   97.04    2.52
   2   1   2   93.41    2.74
  -2   1  -2   95.35    2.75
   2   1   2   97.16    2.38
  -3  -1  -2   53.66    1.59
   3  -1   2   53.46    1.62
  -3  -1  -2   53.96    1.44
  -3  -1  -2   52.22    1.94
   3  -1   2   54.65    1.48
  -3   1  -2   55.54    1.58
  -3   1  -2   52.61    1.61
  -3   1  -2   54.11    1.97
   3   1   2   51.94    1.93
   3   1   2   51.14    1.43
  -4  -1  -2    1.03    0.19
   4  -1   2    1.32    0.21
  -4  -1  -2    0.94    0.21
   4  -1   2    0.85    0.21
   4   1   2    1.06    0.19
  -4   1  -2    0.73    0.18
  -5  -1  -2   64.68    2.09
   5  -1   2   65.17    2.15
  -5   1  -2   65.08    2.05
   5   1   2   62.58    2.06
  -6  -1  -2   36.11    1.51
   6  -1   2   37.37    1.60
   6  -2  -2   77.53    2.48
  -6  -2   2   80.62    2.48
   6  -2  -2   77.27    2.65
  -6   2   2   74.81    2.62
   6   2  -2   73.70    2.41
   5  -2  -2   57.36    2.06
   5  -2  -2   59.85    1.96
  -5  -2   2   56.93    1.92
  -5  -2   2   64.23    2.02
  -5   2   2   58.75    2.08
   5   2  -2   60.33    1.94
   5   2  -2   67.78    2.04
   4  -2  -2    3.55    0.40
  -4  -2   2    3.25    0.31
   4  -2  -2    2.27    0.33
  -4  -2   2    3.18    0.66
  -4  -2   2    2.63    0.34
   4   2  -2    3.00    0.31
  -4   2   2    2.38    0.35
   4   2  -2    2.86    0.34
   3  -2  -2   41.92    1.34
   3  -2  -2   40.30    1.27
  -3  -2   2   39.83    1.25
  -3  -2   2   40.02    1.42
  -3  -2   2   41.61    1.26
   3   2  -2   37.68    1.23
   3   2  -2   38.97    1.24
  -3   2   2   39.60    1.52
   3   2  -2   39.45    1.41
  -3   2   2   40.50    1.33
   2  -2  -2  227.69    5.39
  -2  -2   2  227.92    5.32
  -2  -2   2  224.07    5.55
  -2  -2   2  221.37    5.42
  -2  -2   2  226.09    5.33
   2  -2  -2  220.47    5.34
   2   2  -2  231.76    5.34
   2   2  -2  225.57    5.41
   1  -2  -2  531.23   12.39
  -1  -2   2  508.68   13.16
   1  -2  -2  539.04   12.33
  -1  -2   2  504.61   12.23
  -1  -2   2  511.94   12.67
   1   2  -2  508.43   12.40
   1   2  -2  491.38   12.61
  -1   2   2  522.06   12.31
   0  -2   2  188.39    4.49
   0  -2  -2  181.97    4.52
   0   2   2  178.56    4.50
   0   2  -2  180.61    4.46
  -1  -2  -2    2.24    0.25
   1  -2   2    2.50    0.19
  -1   2  -2    2.38    0.24
   1   2   2    2.19    0.25
  -1   2  -2    2.40    0.24
   2  -2   2  275.31    6.23
  -2  -2  -2  265.76    6.69
   2  -2   2  264.97    6.36
  -2  -2  -2  268.32    6.17
   2   2   2  255.53    6.68
  -2   2  -2  262.70    6.50
   2   2   2  278.07    6.21
  -2   2  -2  270.90    6.70
  -2   2  -2  273.08    6.30
   3  -2   2  224.20    5.24
  -3  -2  -2  218.68    5.83
   3  -2   2  220.22    5.41
  -3  -2  -2  215.07    5.18
   3   2   2  223.67    5.26
  -3   2  -2  219.11    5.31
  -3   2  -2  215.71    5.51
  -3   2  -2  215.20    5.86
   3   2   2  211.14    5.82
   3   2   2  232.79    5.19
  -4  -2  -2  360.41    8.70
   4  -2   2  364.31    8.54
   4  -2   2  363.45    8.77
   4   2   2  359.93    8.58
  -4   2  -2  361.46    8.62
  -5  -2  -2    8.00    0.59
   5  -2   2    7.84    0.62
  -5   2  -2    7.46    0.55
   6  -2   2    6.30    0.63
  -6  -2  -2    6.00    0.58
  -6  -3   2    3.90    0.51
   6  -3  -2    4.68    0.59
   6  -3  -2    5.86    0.74
   6   3  -2    5.09    0.59
  -6   3   2    6.22    0.76
   5  -3  -2   36.82    1.41
   5  -3  -2   34.51    1.47
  -5  -3   2   36.28    1.36
   5   3  -2   35.51    1.34
  -5   3   2   35.89    1.49
  -4  -3   2  180.44    4.55
  -4  -3   2  178.83    4.56
   4  -3  -2  176.25    4.60
   4  -3  -2  178.53    4.71
   4   3  -2  186.57    4.58
   4   3  -2  181.62    4.56
  -4   3   2  180.52    4.73
   3  -3  -2   71.63    2.03
  -3  -3   2   71.85    1.97
  -3  -3   2   72.10    2.21
   3  -3  -2   68.11    2.07
  -3  -3   2   72.07    2.01
  -3  -3   2   71.42    2.00
   3   3  -2   72.16    2.00
   3   3  -2   73.63    1.98
   3   3  -2   71.84    2.19
   2  -3  -2    1.24    0.20
  -2  -3   2    0.98    0.15
  -2  -3   2    0.84    0.18
  -2  -3   2    0.58    0.16
   2  -3  -2    0.54    0.13
  -2  -3   2    0.64    0.12
   2   3  -2    0.61    0.13
   2   3  -2    0.65    0.15
   2   3  -2    0.55    0.13
  -1  -3   2    9.64    0.42
  -1  -3   2    9.63    0.54
   1  -3  -2   10.20    0.42
   1   3  -2   11.80    0.51
   0  -3   2  836.86   20.57
   0  -3   2  964.03   22.77
   0  -3  -2  868.73   20.25
   0  -3   2  765.36   20.17
   0   3   2  855.51   22.43
   1  -3   2  229.91    5.72
   1  -3   2  228.65    5.46
  -1  -3  -2  234.55    5.80
   1  -3   2  227.73    5.42
   1   3   2  234.36    5.82
   2  -3   2  495.43   11.55
  -2  -3  -2  487.83   11.52
  -2  -3  -2  474.81   11.27
   2  -3   2  462.08   11.11
  -2   3  -2  489.66   11.53
   2   3   2  475.33   11.53
   2   3   2  475.33   11.29
  -2   3  -2  477.31   11.07
  -3  -3  -2   24.87    1.22
   3  -3   2   21.26    0.91
  -3  -3  -2   22.92    0.76
  -3   3  -2   22.55    0.86
   3   3   2   21.69    0.75
   3   3   2   21.74    0.76
   3   3   2   23.70    1.41
   4  -3   2    1.37    0.23
   4  -3   2    1.30    0.28
  -4   3  -2    1.35    0.24
   5  -3   2   41.32    1.64
  -5  -3  -2   39.19    1.54
  -5   3  -2   40.21    1.48
   6  -3   2  146.29    4.33
  -6  -3  -2  144.89    4.19
   6  -4  -2    5.30    0.70
   6  -4  -2    5.96    0.68
  -6   4   2    4.99    0.69
  -5  -4   2  185.68    4.86
   5  -4  -2  186.98    5.07
   5  -4  -2  186.35    4.93
  -5   4   2  184.71    5.07
   5   4  -2  187.47    4.85
  -4  -4   2    3.63    0.35
   4  -4  -2    3.88    0.44
   4  -4  -2    3.46    0.45
   4   4  -2    2.93    0.36
   3  -4  -2   73.88    2.16
   3  -4  -2   76.20    2.12
  -3  -4   2   72.31    2.30
  -3  -4   2   74.50    2.00
  -3  -4   2   70.97    2.05
  -3  -4   2   74.78    2.18
   3   4  -2   67.93    2.05
   3   4  -2   75.57    2.01
   3   4  -2   73.11    2.28
  -2  -4   2   89.18    2.49
   2  -4  -2   87.86    2.32
  -2  -4   2   88.08    2.31
  -2  -4   2   90.32    2.24
   2  -4  -2   88.47    2.34
   2   4  -2   76.56    2.26
   2   4  -2   88.62    2.47
  -1  -4   2  460.01   10.71
   1  -4  -2  459.64   10.68
   1  -4  -2  442.76   10.41
  -1  -4   2  456.05   10.65
   1   4  -2  452.57   11.90
   0  -4   2    3.54    0.23
   0  -4   2    3.83    0.27
   0  -4  -2    4.16    0.25
   0  -4   2    3.74    0.37
   0   4   2    4.02    0.40
   1  -4   2   10.52    0.48
   1  -4   2    8.99    0.61
   1  -4   2    9.29    0.45
  -1  -4  -2    9.12    0.64
  -1  -4  -2    9.80    0.42
   1   4   2    9.46    0.66
   2  -4   2    7.69    0.45
  -2  -4  -2    8.98    0.66
   2  -4   2    7.76    0.56
   2  -4   2    8.44    0.43
  -2  -4  -2    8.13    0.39
   2   4   2    7.80    0.62
   3  -4   2  399.41    9.07
  -3  -4  -2  391.08    8.95
  -3  -4  -2  405.02    9.75
   3  -4   2  388.42    9.22
   3   4   2  342.64    8.92
   4  -4   2    1.49    0.31
   4  -4   2    0.61    0.17
  -4   4  -2    1.36    0.26
   5  -4   2   71.85    2.45
  -6  -4  -2    0.73    0.30
   6  -4   2    0.23    0.20
   6  -5  -2    5.67    0.73
   6  -5  -2    7.42    0.66
  -6   5   2    7.18    0.71
   5  -5  -2    3.21    0.46
   5  -5  -2    3.37    0.52
  -5  -5   2    3.59    0.46
  -5   5   2    3.52    0.52
   5   5  -2    3.69    0.47
  -4  -5   2  195.93    4.87
   4  -5  -2  190.33    5.01
   4  -5  -2  192.66    4.94
   4   5  -2  182.38    4.85
  -3  -5   2   41.52    1.52
   3  -5  -2   41.76    1.42
  -3  -5   2   37.24    1.54
  -3  -5   2   39.41    1.56
  -3  -5   2   40.82    1.35
   3  -5  -2   40.16    1.37
   3   5  -2   39.32    1.33
   3   5  -2   43.27    1.59
  -2  -5   2  137.19    3.74
  -2  -5   2  139.41    3.49
  -2  -5   2  133.79    3.35
   2  -5  -2  137.78    3.51
   2  -5  -2  138.76    3.50
   2   5  -2  136.27    3.75
   2   5  -2  137.08    3.49
   1  -5  -2   23.44    0.84
   1  -5  -2   22.85    0.78
  -1  -5   2   24.86    0.78
  -1  -5   2   23.64    0.86
   1   5  -2   23.92    1.08
   0  -5   2  599.51   13.95
   0  -5  -2  566.74   13.50
   0  -5   2  565.87   13.64
   0   5   2  587.85   13.90
  -1  -5  -2   11.13    0.78
   1  -5   2   11.49    0.76
   1  -5   2   11.19    0.56
  -1  -5  -2   11.53    0.51
   1  -5   2   11.17    0.52
   1   5   2   10.99    0.79
   2  -5   2  478.44   11.44
   2  -5   2  480.84   11.41
  -2  -5  -2  489.91   11.31
   2  -5   2  510.65   11.89
  -2  -5  -2  499.99   12.01
   2   5   2  483.65   12.03
   3  -5   2    0.30    0.15
  -3  -5  -2    0.30    0.11
   3  -5   2    0.23    0.12
   4  -5   2   17.88    0.94
   4  -5   2   17.89    0.84
   5  -5   2    0.41    0.23
   6  -5   2  112.31    3.61
  -6  -5  -2  108.36    3.45
   6  -6  -2   28.15    1.48
   6  -6  -2   27.97    1.38
  -6   6   2   27.08    1.45
  -5  -6   2   80.76    2.50
   5  -6  -2   80.36    2.60
   5  -6  -2   77.71    2.67
   5   6  -2   85.55    2.54
  -5   6   2   76.16    2.66
  -4  -6   2    2.89    0.39
   4  -6  -2    2.81    0.42
   4  -6  -2    2.72    0.41
   4   6  -2    2.51    0.36
   3  -6  -2  128.96    3.52
   3  -6  -2  137.42    3.54
  -3  -6   2  132.31    3.47
   3   6  -2  123.59    3.44
  -2  -6   2   91.31    2.51
   2  -6  -2   90.22    2.52
  -2  -6   2   91.51    2.34
   2   6  -2   89.62    2.83
   1  -6  -2  348.53    8.31
   1  -6  -2  350.51    8.19
  -1  -6   2  358.35    8.14
  -1  -6   2  352.67    8.33
   1   6  -2  349.15    8.80
   0  -6   2   88.34    2.19
   0  -6  -2   85.10    2.26
   0  -6   2   79.80    2.31
   0   6   2   80.18    2.77
   1  -6   2    1.08    0.21
   1  -6   2    1.42    0.35
  -1  -6  -2    1.56    0.23
   1  -6   2    1.40    0.22
   1   6   2    1.42    0.36
   2  -6   2   46.82    1.52
  -2  -6  -2   47.37    1.95
  -2  -6  -2   45.91    1.42
   2  -6   2   47.21    1.51
   3  -6   2  183.16    4.65
  -3  -6  -2  187.14    4.53
   3  -6   2  173.21    4.70
   4  -6   2   96.70    2.82
   4  -6   2   98.17    2.98
   5  -6   2   48.69    1.82
   5  -6   2   49.48    1.97
   6  -6   2    0.06    0.23
   6  -7  -2    0.46    0.26
   6  -7  -2    0.30    0.24
  -6   7   2    0.39    0.27
   5  -7  -2   37.13    1.64
   5  -7  -2   36.69    1.57
  -5  -7   2   37.22    1.49
   5   7  -2   37.93    1.49
  -5   7   2   36.99    1.64
   4  -7  -2   69.50    2.39
   4  -7  -2   77.54    2.42
  -4  -7   2   73.01    2.30
   4   7  -2   78.92    2.35
   3  -7  -2  154.22    4.09
  -3  -7   2  152.64    4.05
   3  -7  -2  154.96    4.12
   2  -7  -2    9.51    0.57
   2  -7  -2    9.70    0.54
  -2  -7   2    9.61    0.57
   2   7  -2    9.29    0.76
  -1  -7   2   10.38    0.44
  -1  -7   2   10.58    0.58
   1  -7  -2   10.39    0.48
   1  -7  -2   10.41    0.56
   1   7  -2    8.36    0.72
   0  -7  -2  213.14    5.40
   0  -7  -2  228.20    5.16
   0  -7   2  221.32    5.28
   0  -7   2  220.90    5.50
  -1  -7  -2  292.77    7.01
   1  -7   2  285.82    7.10
   1  -7   2  280.77    6.96
   1  -7   2  309.57    7.77
   2  -7   2  162.86    4.20
   2  -7   2  163.99    4.25
  -2  -7  -2  159.93    4.09
   3  -7   2   42.81    1.58
   3  -7   2   44.79    1.58
  -3  -7  -2   45.93    1.47
   4  -7   2   14.52    0.88
   4  -7   2   15.49    0.85
   5  -7   2   30.30    1.50
   5  -7   2   33.49    1.41
   6  -7   2   25.17    1.45
   5  -8  -2    6.63    0.67
   5  -8  -2    7.45    0.68
  -5  -8   2    6.92    0.60
  -5   8   2    7.49    0.71
  -4  -8   2    0.22    0.16
   4  -8  -2    0.13    0.17
   4  -8  -2    0.12    0.16
  -3  -8   2    1.49    0.29
   3  -8  -2    3.33    0.44
   3  -8  -2    1.50    0.30
   2  -8  -2  296.10    7.30
  -2  -8   2  299.06    7.28
   2  -8  -2  306.12    7.19
   2   8  -2  285.15    7.92
   1  -8  -2   40.87    1.41
   1  -8  -2   41.46    1.26
  -1  -8   2   38.58    1.40
   0  -8   2  138.08    3.42
   0  -8   2  134.39    3.65
   0  -8  -2  135.15    3.57
   1  -8   2    1.19    0.26
   1  -8   2    0.20    0.10
  -1  -8  -2    0.07    0.09
   2  -8   2  130.41    3.46
  -2  -8  -2  126.54    3.39
   2  -8   2  124.63    3.53
   3  -8   2   35.87    1.43
   3  -8   2   37.99    1.47
  -3  -8  -2   37.55    1.33
   4  -8   2  227.47    6.00
   4  -8   2  222.80    5.91
   5  -8   2   14.39    1.00
   5  -8   2   14.40    0.92
   5  -9  -2   69.16    2.52
   5  -9  -2   69.95    2.52
  -5  -9   2   66.80    2.35
  -5   9   2   67.07    2.51
   4  -9  -2   12.44    0.85
  -4  -9   2   11.31    0.76
   4  -9  -2   10.62    0.78
   3  -9  -2  155.00    4.26
   3  -9  -2  160.34    4.38
  -3  -9   2  159.88    4.30
  -2  -9   2    0.28    0.16
   2  -9  -2    0.27    0.16
   2  -9  -2    0.28    0.14
   1  -9  -2   17.22    0.85
   1  -9  -2   17.22    0.74
  -1  -9   2   17.72    0.88
   0  -9  -2    9.40    0.59
   0  -9   2    9.66    0.56
   0  -9   2    9.01    0.62
  -1  -9  -2  336.51    8.24
   1  -9   2  352.79    8.17
   1  -9   2  333.10    8.35
   2  -9   2    4.70    0.43
   2  -9   2    4.17    0.52
  -2  -9  -2    4.48    0.41
   3  -9   2   27.53    1.26
   3  -9   2   26.52    1.20
  -3  -9  -2   26.52    1.11
   4  -9   2    0.96    0.30
   4  -9   2    1.18    0.33
   5  -9   2   63.57    2.38
   5  -9   2   66.99    2.51
   5 -10  -2   27.74    1.46
  -5 -10   2   29.61    1.41
   5 -10  -2   29.26    1.52
  -5  10   2   27.45    1.47
  -4 -10   2    6.52    0.59
   4 -10  -2    5.38    0.68
   4 -10  -2    5.94    0.58
   3 -10  -2    9.09    0.65
   3 -10  -2    7.54    0.65
  -3 -10   2    8.59    0.65
   2 -10  -2  177.78    4.65
  -2 -10   2  182.08    4.83
   2 -10  -2  183.01    4.87
   1 -10  -2    9.07    0.63
  -1 -10   2    9.54    0.66
   0 -10  -2   82.52    2.46
   0 -10   2   78.36    2.50
  -1 -10  -2    3.52    0.44
   1 -10   2    2.86    0.36
   1 -10   2    4.25    0.52
  -2 -10  -2   82.76    2.48
   2 -10   2   78.96    2.45
   2 -10   2   81.22    2.63
   3 -10   2   10.81    0.79
   3 -10   2   10.87    0.75
  -3 -10  -2   11.03    0.70
   4 -10   2  121.01    3.79
   4 -10   2  126.45    3.78
   5 -10   2    9.82    0.85
   5 -10   2   11.64    0.94
   4 -11  -2   32.67    1.52
   4 -11  -2   35.40    1.65
  -4 -11   2   35.39    1.55
  -3 -11   2   54.15    1.95
   3 -11  -2   50.39    1.99
   3 -11  -2   51.27    1.87
  -2 -11   2   13.40    0.84
   2 -11  -2   12.69    0.83
   1 -11  -2    5.13    0.51
  -1 -11   2    5.81    0.54
   0 -11  -2   85.93    2.66
   0 -11   2   87.94    2.75
   1 -11   2  151.69    4.28
  -1 -11  -2  152.51    4.16
  -2 -11  -2   75.63    2.39
   2 -11   2   72.65    2.53
   2 -11   2   77.01    2.37
  -3 -11  -2   23.10    1.21
   3 -11   2   23.44    1.17
   3 -11   2   22.32    1.23
   4 -11   2    1.94    0.42
   4 -11   2    1.93    0.45
   4 -12  -2    0.25    0.21
  -4 -12   2    0.40    0.23
   4 -12  -2    0.22    0.23
  -4  12   2    0.19    0.22
  -3 -12   2   24.42    1.25
   3 -12  -2   25.97    1.36
   2 -12  -2   51.66    1.99
  -2 -12   2   52.65    1.98
  -1 -12   2  134.57    3.95
   1 -12  -2  138.97    3.96
   0 -12   2   18.27    1.04
   0 -12  -2   20.29    1.05
   1 -12   2    0.81    0.29
  -1 -12  -2    0.64    0.23
  -2 -12  -2   17.75    0.97
   2 -12   2   18.07    1.09
   3 -12   2   84.33    2.91
   3 -12   2   82.13    2.73
   4 -12   2   10.30    0.91
   4 -12   2   11.66    0.90
   3 -13  -2    2.40    0.51
  -3 -13   2    2.19    0.47
   2 -13  -2    6.40    0.75
  -2 -13   2    4.55    0.63
  -1 -13   2    0.30    0.22
   1 -13  -2    0.32    0.22
   0 -13   2  100.71    3.19
   0 -13  -2  100.68    3.14
  -1 -13  -2    2.41    0.42
   1 -13   2    3.51    0.57
   2 -13   2  108.68    3.49
  -2 -13  -2  105.79    3.27
   3 -13   2    0.09    0.18
   3 -13   2   -0.05    0.16
  -3 -14   2    4.93    0.69
   3 -14  -2    5.22    0.77
  -2 -14   2    7.33    0.71
   2 -14  -2    6.03    0.74
  -1 -14   2  121.19    3.76
   1 -14  -2  120.50    3.73
   0 -14   2    2.39    0.46
   0 -14  -2    3.06    0.53
   1 -14   2    2.21    0.47
  -1 -14  -2    2.77    0.49
  -2 -14  -2    0.29    0.23
   2 -14   2    0.30    0.24
   1 -15  -2    1.11    0.36
  -1 -15   2    0.65    0.30
   0 -15   2   44.18    1.92
   0 -15  -2   43.20    1.85
  -1 -15  -2   18.37    1.11
   1 -15   2   19.53    1.23
  -6   0   3    0.09    0.18
   6   0  -3   -0.03    0.15
   6   0  -3    0.33    0.21
  -6   0   3   -0.01    0.15
   5   0  -3   11.89    0.69
   5   0  -3   10.68    0.71
  -5   0   3   11.15    0.72
   4   0  -3    0.10    0.11
  -4   0   3   -0.03    0.09
   4   0  -3   -0.04    0.08
  -4   0   3    0.43    0.21
  -3   0   3  428.35   10.19
   3   0  -3  449.02   10.16
   3   0  -3  424.48   10.19
  -3   0   3  440.18   10.36
   2   0  -3   -0.17    0.11
   2   0  -3    0.65    0.16
  -2   0   3   -0.06    0.12
  -2   0   3   -0.17    0.11
  -1   0   3  549.78   13.80
   1   0  -3  645.73   14.05
   1   0  -3  562.64   13.49
  -1   0  -3  265.15    6.44
   1   0   3  269.81    6.23
   1   0   3  269.06    6.46
  -3   0  -3  491.78   12.12
  -3   0  -3  501.20   11.58
   3   0   3  486.36   11.57
   3   0   3  511.64   11.49
  -4   0  -3    0.08    0.11
   4   0   3    0.02    0.10
  -5   0  -3   55.55    1.89
   5   0   3   55.75    1.91
  -6   0  -3    0.09    0.15
  -6  -1   3   52.20    1.97
   6  -1  -3   54.01    2.04
   6  -1  -3   53.25    1.90
  -6  -1   3   51.58    1.89
   6   1  -3   50.96    1.86
  -6   1   3   51.58    2.01
   6   1  -3   50.97    1.96
  -6   1   3   53.66    1.93
   5  -1  -3   22.64    1.02
  -5  -1   3   21.95    1.01
  -5  -1   3   22.80    1.06
   5  -1  -3   22.98    1.10
  -5   1   3   24.66    1.13
   5   1  -3   20.76    0.98
   5   1  -3   23.61    1.08
   4  -1  -3  336.23    8.27
  -4  -1   3  337.14    8.27
  -4  -1   3  349.21    8.35
   4  -1  -3  348.44    8.40
   4   1  -3  348.39    8.27
  -4   1   3  351.61    8.41
   4   1  -3  343.77    8.33
  -4   1   3  352.74    8.72
   3  -1  -3    0.26    0.12
  -3  -1   3    0.18    0.09
  -3  -1   3    1.09    0.20
  -3  -1   3    0.33    0.14
   3  -1  -3    0.45    0.14
  -3   1   3    0.38    0.15
   3   1  -3    0.16    0.09
  -3   1   3    0.31    0.13
   3   1  -3    0.81    0.17
   2  -1  -3    6.44    0.35
  -2  -1   3    6.62    0.35
   2  -1  -3    6.91    0.38
  -2  -1   3    5.98    0.34
  -2  -1   3    6.57    0.37
   2   1  -3    6.74    0.34
   2   1  -3    7.02    0.38
  -2   1   3    8.15    0.41
   2   1  -3    6.34    0.35
  -1  -1   3  143.10    3.51
  -1  -1   3  146.24    3.47
   1  -1  -3  144.38    3.51
   1  -1  -3  148.27    3.47
  -1   1   3  145.50    3.51
   1   1  -3  142.64    3.62
   1   1  -3  150.37    3.47
   1   1  -3  149.95    3.53
   0  -1   3  671.77   15.68
   0  -1  -3  612.52   16.17
   0   1  -3  695.12   15.90
   0   1   3  606.67   16.01
  -1  -1  -3   89.27    2.49
   1  -1   3   93.86    2.29
   1  -1   3   91.88    2.45
   1   1   3   88.20    2.48
  -1   1  -3   86.83    2.43
   2  -1   3  305.77    7.28
   2  -1   3  306.85    7.62
  -2  -1  -3  317.30    7.27
  -2  -1  -3  308.15    7.64
   2   1   3  296.24    7.63
  -2   1  -3  322.27    7.67
   2   1   3  310.19    7.19
  -2   1  -3  310.39    7.25
  -3  -1  -3    2.71    0.39
  -3  -1  -3    2.32    0.30
   3  -1   3    2.61    0.21
   3  -1   3    3.17    0.30
  -3  -1  -3    2.42    0.18
  -3   1  -3    2.64    0.40
   3   1   3    2.61    0.19
   3   1   3    2.42    0.24
  -3   1  -3    2.36    0.28
  -3   1  -3    2.54    0.26
   4  -1   3  154.31    4.11
  -4  -1  -3  158.16    4.09
  -4   1  -3  155.04    4.05
  -5  -1  -3   27.44    1.21
   5  -1   3   29.16    1.27
  -5   1  -3   27.87    1.18
   6  -1   3   62.04    2.29
  -6  -1  -3   67.94    2.29
  -6   1  -3   63.51    2.22
  -6  -2   3   45.87    1.73
   6  -2  -3   46.56    1.75
   6  -2  -3   44.29    1.85
  -6   2   3   43.53    1.83
   6   2  -3   46.22    1.72
   5  -2  -3    0.60    0.20
   5  -2  -3    0.26    0.16
  -5  -2   3    0.23    0.15
  -5  -2   3    0.20    0.15
   5   2  -3    0.64    0.21
   5   2  -3    0.61    0.21
  -5   2   3    0.34    0.18
  -4  -2   3    7.94    0.51
   4  -2  -3    7.70    0.54
   4  -2  -3    7.96    0.52
  -4  -2   3    7.31    0.49
   4   2  -3    7.64    0.50
   4   2  -3    8.05    0.52
  -4   2   3    8.24    0.56
  -3  -2   3  231.89    5.67
   3  -2  -3  232.74    5.76
  -3  -2   3  233.86    5.80
  -3  -2   3  229.96    5.68
   3  -2  -3  234.66    5.69
  -3   2   3  236.49    6.00
   3   2  -3  237.10    5.70
   3   2  -3  242.87    5.69
  -3   2   3  233.06    5.76
   2  -2  -3  429.64    9.95
  -2  -2   3  427.85    9.90
   2  -2  -3  431.52    9.90
  -2  -2   3  428.26    9.89
  -2  -2   3  430.05   10.62
  -2   2   3  428.00    9.95
   2   2  -3  420.66    9.89
   2   2  -3  435.31   10.84
   2   2  -3  425.79    9.90
  -1  -2   3  329.70    7.60
  -1  -2   3  327.57    7.56
  -1  -2   3  331.79    8.77
   1  -2  -3  328.22    7.54
   1  -2  -3  328.01    7.58
   1   2  -3  324.83    7.55
   1   2  -3  334.58    8.88
   1   2  -3  318.32    7.84
  -1   2   3  330.51    7.58
   0  -2   3  166.83    4.02
   0  -2   3  168.45    4.23
   0  -2  -3  164.73    4.25
   0   2  -3  170.73    4.24
   0   2   3  166.63    4.23
   1  -2   3   52.43    1.48
  -1  -2  -3   54.03    1.72
  -1   2  -3   53.96    1.64
   1   2   3   55.02    1.73
  -1   2  -3   51.17    1.66
   2  -2   3  195.81    4.59
   2  -2   3  198.74    4.78
  -2  -2  -3  196.77    5.13
  -2   2  -3  194.49    4.96
  -2   2  -3  193.17    5.09
  -2   2  -3  194.11    4.71
   2   2   3  194.86    5.14
   2   2   3  195.78    4.59
  -3  -2  -3  203.13    4.77
   3  -2   3  209.11    4.85
   3  -2   3  195.36    5.05
  -3  -2  -3  203.07    5.53
  -3   2  -3  196.63    4.97
  -3   2  -3  206.93    5.23
   3   2   3  204.49    4.89
   4  -2   3   43.72    1.57
  -4  -2  -3   44.34    1.54
   4   2   3   45.45    1.44
  -4   2  -3   43.15    1.48
   5  -2   3    0.41    0.18
  -5  -2  -3    0.56    0.24
  -5   2  -3    1.05    0.26
  -6  -2  -3    4.65    0.61
   6  -2   3    4.93    0.67
   6  -3  -3    7.00    0.62
  -6  -3   3    7.45    0.61
   6  -3  -3    6.17    0.75
  -6   3   3    6.30    0.65
   6   3  -3    6.32    0.57
  -5  -3   3  146.39    4.00
   5  -3  -3  148.68    4.18
   5  -3  -3  149.65    4.06
  -5  -3   3  147.19    4.01
   5   3  -3  150.17    4.00
  -5   3   3  146.62    4.18
  -4  -3   3  126.10    3.36
   4  -3  -3  125.31    3.39
   4  -3  -3  123.75    3.46
  -4  -3   3  126.96    3.35
  -4   3   3  128.95    3.50
   4   3  -3  118.70    3.31
  -3  -3   3   81.59    2.25
  -3  -3   3   81.37    2.36
  -3  -3   3   80.92    2.32
   3  -3  -3   82.86    2.33
  -3  -3   3   87.55    2.26
   3  -3  -3   81.17    2.27
  -3   3   3   79.59    2.32
   3   3  -3   79.90    2.33
   3   3  -3   80.01    2.25
  -2  -3   3    0.46    0.16
   2  -3  -3    0.13    0.08
   2  -3  -3    0.39    0.13
  -2  -3   3    0.32    0.11
  -2  -3   3    0.65    0.15
  -2   3   3    0.29    0.12
   2   3  -3    0.50    0.12
   2   3  -3    0.23    0.10
  -1  -3   3  219.36    5.28
  -1  -3   3  220.29    5.29
   1  -3  -3  227.75    5.27
  -1  -3   3  218.95    5.56
   1  -3  -3  225.66    5.27
  -1   3   3  230.10    5.27
   1   3  -3  217.78    5.71
   1   3  -3  231.36    5.28
   0  -3  -3  269.14    6.12
   0  -3   3  273.31    6.57
   0  -3   3  259.79    6.19
   0  -3   3  264.69    6.23
   0   3  -3  259.45    6.54
   0   3   3  265.94    6.58
   1  -3   3  444.87   10.71
   1  -3   3  486.87   12.49
  -1  -3  -3  438.56   10.82
   1   3   3  460.63   11.81
  -1   3  -3  439.48   10.77
   2  -3   3   37.64    1.24
   2  -3   3   38.72    1.13
  -2  -3  -3   37.49    1.05
  -2  -3  -3   38.75    1.54
   2   3   3   39.36    1.57
  -2   3  -3   37.42    1.49
  -2   3  -3   38.60    1.46
  -2   3  -3   40.34    1.23
  -3  -3  -3    0.71    0.32
   3  -3   3    0.50    0.13
   3  -3   3    1.21    0.24
  -3  -3  -3    0.18    0.08
   3   3   3    0.35    0.10
   3   3   3    0.63    0.13
  -3   3  -3    0.11    0.10
   4  -3   3   17.51    0.89
   4  -3   3   18.15    0.76
  -4   3  -3   17.11    0.82
   5  -3   3  261.49    6.74
  -5  -3  -3  253.55    6.63
  -5   3  -3  261.63    6.56
  -6  -3  -3   35.76    1.58
   6  -3   3   35.94    1.66
   6  -4  -3   60.91    2.23
   6  -4  -3   62.84    2.40
  -6  -4   3   62.00    2.19
   6   4  -3   70.83    2.27
  -6   4   3   64.43    2.41
  -5  -4   3    0.55    0.20
   5  -4  -3    0.76    0.24
   5  -4  -3    0.35    0.20
   5   4  -3    1.56    0.33
  -5   4   3    0.21    0.18
   4  -4  -3   55.33    1.80
  -4  -4   3   56.96    1.77
   4  -4  -3   53.08    1.84
  -4  -4   3   54.89    1.71
   4   4  -3   56.67    1.73
   4   4  -3   49.97    1.72
  -4   4   3   55.16    1.87
  -3  -4   3    3.02    0.33
   3  -4  -3    2.58    0.34
  -3  -4   3    3.40    0.29
  -3  -4   3    2.92    0.33
   3  -4  -3    3.15    0.31
  -3  -4   3    2.95    0.34
   3   4  -3    3.17    0.33
  -3   4   3    3.19    0.39
   3   4  -3    2.98    0.27
   3   4  -3    3.05    0.29
  -2  -4   3  873.04   21.13
  -2  -4   3  857.14   19.78
   2  -4  -3  879.71   20.68
  -2  -4   3  867.73   22.20
  -2  -4   3  814.74   19.91
   2  -4  -3  859.70   20.22
   2   4  -3  858.63   20.68
  -2   4   3  870.30   20.49
   2   4  -3  840.39   21.09
  -1  -4   3   45.91    1.33
   1  -4  -3   44.91    1.30
  -1  -4   3   45.47    1.61
  -1  -4   3   45.27    1.30
   1  -4  -3   47.39    1.29
   1   4  -3   44.07    1.31
  -1   4   3   43.42    1.27
   1   4  -3   45.36    1.45
   0  -4   3  257.69    6.18
   0  -4   3  261.86    6.59
   0  -4   3  260.89    6.16
   0  -4  -3  260.48    6.09
   0   4   3  264.74    6.65
   1  -4   3   -0.03    0.06
   1  -4   3    0.02    0.10
  -1  -4  -3    0.08    0.06
   1  -4   3    0.00    0.07
   1   4   3    0.15    0.15
   2  -4   3  263.78    6.68
  -2  -4  -3  263.82    6.86
   2  -4   3  269.01    6.40
  -2  -4  -3  255.41    6.15
   2   4   3  262.02    6.88
  -2   4  -3  269.72    6.81
   3  -4   3   62.89    1.97
  -3  -4  -3   63.10    1.72
   3  -4   3   62.33    1.80
   4  -4   3   72.26    2.33
   4  -4   3   73.82    2.11
  -4   4  -3   71.97    2.22
   5  -4   3    0.92    0.30
  -5  -4  -3    0.98    0.29
  -5   4  -3    0.84    0.27
   6  -4   3   20.91    1.23
  -6  -4  -3   21.56    1.19
  -6  -5   3    1.40    0.34
   6  -5  -3    0.73    0.33
   6  -5  -3    1.17    0.34
  -6   5   3    1.17    0.36
   6   5  -3    1.32    0.33
   5  -5  -3  154.44    4.27
   5  -5  -3  149.90    4.36
  -5  -5   3  153.88    4.19
   5   5  -3  160.24    4.22
  -5   5   3  151.78    4.38
   4  -5  -3   19.17    0.96
   4  -5  -3   20.95    0.96
  -4  -5   3   19.19    0.89
  -4   5   3   20.13    0.99
   4   5  -3   20.22    0.92
  -3  -5   3   55.06    1.91
   3  -5  -3   52.87    1.71
  -3  -5   3   53.73    1.69
  -3  -5   3   52.33    1.60
   3  -5  -3   53.09    1.74
   3   5  -3   60.02    1.73
  -3   5   3   53.27    1.75
   2  -5  -3    8.03    0.47
  -2  -5   3    7.78    0.42
   2  -5  -3    8.13    0.47
  -2  -5   3    8.20    0.47
  -2  -5   3    9.68    0.65
   2   5  -3    7.95    0.53
   2   5  -3    7.50    0.46
  -1  -5   3  365.07    8.34
   1  -5  -3  363.36    8.30
   1  -5  -3  351.73    8.36
  -1  -5   3  362.80    8.85
  -1  -5   3  352.36    8.41
   1   5  -3  351.67    8.68
   0  -5   3   23.56    0.87
   0  -5  -3   23.72    0.81
   0  -5   3   23.61    0.82
   0  -5   3   23.23    1.13
   0   5   3   23.25    1.18
   1  -5   3  525.51   12.46
   1  -5   3  489.32   11.93
   1  -5   3  514.45   11.92
  -1  -5  -3  515.47   11.80
  -1  -5  -3  524.24   12.54
   1   5   3  517.94   12.56
  -2  -5  -3   38.76    1.70
   2  -5   3   40.86    1.31
   2  -5   3   42.77    1.84
  -2  -5  -3   40.70    1.21
   2  -5   3   39.94    1.35
   2   5   3   40.45    1.81
  -3  -5  -3    0.55    0.19
   3  -5   3    0.21    0.13
   3  -5   3    0.43    0.15
   4  -5   3    2.95    0.37
   5  -5   3  179.14    5.02
   6  -5   3    0.41    0.29
  -6  -5  -3    0.34    0.23
   6  -6  -3   63.30    2.48
   6  -6  -3   66.72    2.42
  -6  -6   3   69.08    2.35
   6   6  -3   63.88    2.28
  -6   6   3   66.88    2.53
   5  -6  -3    3.23    0.53
  -5  -6   3    3.11    0.44
   5  -6  -3    2.80    0.45
   5   6  -3    4.36    0.54
  -5   6   3    3.24    0.53
  -4  -6   3   11.91    0.70
   4  -6  -3   12.61    0.77
   4   6  -3   11.61    0.69
  -4   6   3   13.25    0.80
  -3  -6   3   60.09    1.90
   3  -6  -3   60.97    1.93
   3  -6  -3   61.13    1.94
   3   6  -3   64.15    1.94
   2  -6  -3  351.85    8.35
  -2  -6   3  352.81    8.35
  -2  -6   3  351.05    8.19
  -2  -6   3  350.86    8.82
   2  -6  -3  349.50    8.30
   2   6  -3  343.91    8.63
   1  -6  -3  119.72    3.12
  -1  -6   3  124.24    3.04
  -1  -6   3  119.23    3.16
  -1  -6   3  117.53    3.59
   1  -6  -3  120.33    3.02
   1   6  -3  115.01    3.47
  -1   6   3  124.92    3.03
   0  -6   3   72.19    2.50
   0  -6   3   73.17    2.00
   0  -6   3   70.65    2.10
   0  -6  -3   70.62    1.87
   0  -6  -3   74.31    2.02
   0   6   3   73.20    2.59
   0   6   3   80.26    1.94
  -1  -6  -3   14.73    0.98
   1  -6   3   14.87    0.67
   1  -6   3   15.25    0.72
   1  -6   3   15.43    0.97
  -1  -6  -3   15.57    0.63
   2  -6   3  221.73    5.48
   2  -6   3  216.17    5.48
  -2  -6  -3  223.15    5.32
   3  -6   3  115.65    3.12
   3  -6   3  110.71    3.20
   4  -6   3  110.40    3.33
   4  -6   3  113.27    3.15
   5  -6   3   11.85    0.87
  -6  -6  -3   18.18    1.12
   6  -6   3   16.82    1.15
   6  -7  -3   15.22    1.06
   6  -7  -3   14.28    1.00
  -6  -7   3   14.78    1.00
  -6   7   3   12.76    0.99
   6   7  -3   14.04    1.01
  -5  -7   3   53.12    1.89
   5  -7  -3   48.67    1.97
   5  -7  -3   50.89    1.95
  -5   7   3   53.03    2.03
   5   7  -3   48.92    1.85
  -4  -7   3  204.62    5.50
   4  -7  -3  214.90    5.64
   4  -7  -3  212.86    5.62
   4   7  -3  224.05    5.57
  -4   7   3  215.61    5.66
  -3  -7   3   73.49    2.23
   3  -7  -3   71.81    2.23
   3  -7  -3   73.48    2.27
  -2  -7   3    3.59    0.35
   2  -7  -3    3.87    0.36
   2  -7  -3    3.86    0.33
  -2  -7   3    3.70    0.48
   2   7  -3    3.62    0.46
  -1  -7   3   76.12    2.03
   1  -7  -3   77.00    2.16
  -1  -7   3   73.98    2.65
   1  -7  -3   75.66    2.03
  -1  -7   3   76.01    2.20
   1   7  -3   73.22    2.56
  -1   7   3   72.56    2.02
   0  -7   3  221.44    6.16
   0  -7  -3  225.80    5.48
   0  -7   3  229.19    5.42
   0  -7   3  220.44    5.59
  -1  -7  -3  163.55    4.07
   1  -7   3  163.43    4.78
   1  -7   3  160.93    4.09
   1  -7   3  158.98    4.21
   2  -7   3   45.98    1.58
  -2  -7  -3   46.76    1.46
   2  -7   3   46.86    1.57
   3  -7   3    9.42    0.62
   3  -7   3    9.34    0.64
   4  -7   3   27.65    1.20
   4  -7   3   27.24    1.29
   5  -7   3   59.17    2.27
   6  -7   3   38.88    1.88
   5  -8  -3    0.19    0.18
   5  -8  -3    0.23    0.21
  -5  -8   3    0.48    0.22
  -5   8   3    0.20    0.22
  -4  -8   3   20.65    1.02
   4  -8  -3   18.82    1.03
   4  -8  -3   19.28    1.04
  -4   8   3   19.38    1.05
  -3  -8   3  113.93    3.23
   3  -8  -3  115.50    3.21
   3  -8  -3  109.55    3.24
   2  -8  -3   40.62    1.37
  -2  -8   3   40.40    1.46
   2  -8  -3   38.99    1.44
   1  -8  -3  237.42    5.58
  -1  -8   3  230.84    6.46
   1  -8  -3  235.01    5.76
  -1  -8   3  228.00    5.80
  -1   8   3  234.18    5.58
   1   8  -3  221.88    6.34
   0  -8   3    2.57    0.57
   0  -8   3    2.50    0.30
   0  -8   3    1.75    0.30
   0  -8  -3    2.03    0.29
   1  -8   3   40.86    1.50
  -1  -8  -3   43.24    1.41
   1  -8   3   42.37    1.41
  -2  -8  -3   11.77    0.61
   2  -8   3    9.39    0.61
   2  -8   3   10.72    0.68
   3  -8   3  272.62    6.92
   3  -8   3  275.25    6.94
   4  -8   3    8.77    0.68
   4  -8   3    9.12    0.73
   5  -8   3    1.75    0.44
   5  -9  -3    0.40    0.25
  -5  -9   3    0.37    0.23
   5  -9  -3    0.17    0.21
  -5   9   3    0.13    0.23
   4  -9  -3  190.92    5.25
   4  -9  -3  190.74    5.29
  -4  -9   3  193.96    5.22
  -4   9   3  201.02    5.32
   3  -9  -3    2.50    0.38
  -3  -9   3    2.60    0.40
   3  -9  -3    3.85    0.51
   2  -9  -3   -0.08    0.08
   2  -9  -3    0.75    0.24
  -2  -9   3    0.09    0.11
  -1  -9   3    0.29    0.15
  -1  -9   3    0.73    0.31
   1  -9  -3    0.24    0.14
   0  -9   3  319.42    7.91
   0  -9   3  319.06    9.97
   0  -9  -3  323.41    7.80
   0  -9   3  320.72    7.64
   1  -9   3    2.62    0.40
   1  -9   3    2.71    0.35
  -1  -9  -3    2.30    0.33
   2  -9   3  101.18    3.00
  -2  -9  -3  108.26    2.95
   2  -9   3  107.52    3.15
   3  -9   3    2.75    0.46
   3  -9   3    3.12    0.47
   4  -9   3   44.97    1.84
   4  -9   3   44.57    1.79
   5  -9   3    2.59    0.50
  -5 -10   3    4.77    0.64
   5 -10  -3    4.84    0.71
   5 -10  -3    5.51    0.74
  -5  10   3    4.16    0.64
  -4 -10   3    9.73    0.74
   4 -10  -3    8.37    0.70
   4 -10  -3    9.76    0.79
  -4  10   3    9.31    0.74
   3 -10  -3  184.48    4.85
  -3 -10   3  177.82    4.89
   3 -10  -3  175.49    4.95
  -3  10   3  186.54    4.88
   2 -10  -3   57.78    1.85
   2 -10  -3   57.03    1.99
  -2 -10   3   57.83    1.99
  -1 -10   3  178.81    5.64
   1 -10  -3  174.83    4.72
  -1 -10   3  183.02    4.81
   0 -10   3   21.50    1.04
   0 -10  -3   19.77    0.95
   1 -10   3   26.52    1.09
  -1 -10  -3   30.21    1.18
   1 -10   3   27.69    1.25
   2 -10   3   11.28    0.77
  -2 -10  -3   11.33    0.67
   2 -10   3    9.52    0.66
   3 -10   3  126.02    3.81
   3 -10   3  130.56    3.74
   4 -10   3    1.43    0.38
   4 -10   3    0.89    0.30
   5 -10   3    1.56    0.42
   4 -11  -3   30.65    1.44
   4 -11  -3   30.05    1.51
  -4 -11   3   31.07    1.45
  -4  11   3   30.85    1.46
  -3 -11   3   13.26    0.87
   3 -11  -3   13.14    0.90
   3 -11  -3   14.57    0.86
  -3  11   3   13.66    0.84
  -2 -11   3    1.40    0.33
   2 -11  -3    0.79    0.25
   1 -11  -3   54.26    1.91
  -1 -11   3   53.59    1.95
   0 -11   3  101.03    3.07
   0 -11  -3   98.95    2.95
  -1 -11  -3   85.24    2.59
   1 -11   3   85.99    2.76
   2 -11   3   28.14    1.34
   2 -11   3   25.76    1.19
  -2 -11  -3   28.59    1.21
   3 -11   3    4.62    0.67
   4 -11   3   41.88    1.87
   4 -11   3   42.49    1.84
   4 -12  -3    7.17    0.84
   4 -12  -3    7.20    0.69
  -4 -12   3    8.35    0.73
  -4  12   3    6.90    0.69
   3 -12  -3   29.41    1.46
  -3 -12   3   30.47    1.43
   2 -12  -3  118.35    3.60
  -2 -12   3  120.24    3.62
   1 -12  -3   17.44    0.99
  -1 -12   3   18.53    1.05
   0 -12   3   28.74    1.36
   0 -12  -3   28.26    1.28
   1 -12   3   15.39    0.97
  -1 -12  -3   15.20    0.87
   2 -12   3   66.31    2.40
  -2 -12  -3   64.07    2.18
   2 -12   3   63.14    2.17
   3 -12   3   27.32    1.45
   3 -12   3   27.74    1.35
   4 -12   3   41.52    1.85
   4 -12   3   42.64    1.96
  -3 -13   3   30.92    1.50
   3 -13  -3   29.07    1.50
   2 -13  -3    0.13    0.18
  -2 -13   3    0.51    0.25
  -1 -13   3   58.74    2.19
   1 -13  -3   56.33    2.10
   0 -13   3    8.50    0.74
   0 -13  -3    8.75    0.70
  -1 -13  -3  110.71    3.34
   1 -13   3  112.94    3.53
  -2 -13  -3    1.13    0.33
   2 -13   3    2.08    0.49
   3 -13   3    3.56    0.64
   3 -13   3    3.57    0.54
   2 -14  -3  107.55    3.52
  -2 -14   3  111.18    3.54
   1 -14  -3    1.41    0.37
  -1 -14   3    1.12    0.33
   0 -14   3    7.62    0.71
   0 -14  -3    6.23    0.62
  -1 -14  -3    2.14    0.44
   1 -14   3    2.85    0.55
   2 -14   3   40.86    1.90
  -2 -14  -3   43.46    1.89
   1 -15  -3   22.07    1.27
  -1 -15   3   22.37    1.31
   0 -15   3   23.40    1.32
   0 -15  -3   21.48    1.23
  -1 -15  -3   77.81    2.75
   1 -15   3   85.90    3.00
  -6   0   4   24.00    1.24
   6   0  -4   25.36    1.19
  -6   0   4   23.45    1.17
   6   0  -4   21.70    1.19
  -5   0   4    0.29    0.15
   5   0  -4   -0.15    0.12
   5   0  -4    0.14    0.15
  -5   0   4    0.09    0.13
   4   0  -4  129.93    3.56
   4   0  -4  129.93    3.49
  -4   0   4  133.95    3.58
  -3   0   4    0.09    0.12
  -3   0   4    0.00    0.10
   3   0  -4    0.00    0.09
   3   0  -4   -0.09    0.09
  -2   0   4  320.62    7.56
   2   0  -4  313.28    7.47
  -2   0   4  305.72    7.46
   2   0  -4  327.88    7.43
  -1   0   4    0.28    0.10
  -1   0   4    0.26    0.08
   1   0  -4    0.06    0.06
   1   0  -4   -0.01    0.06
   0   0   4  169.16    4.16
   0   0  -4  173.90    4.18
   0   0   4  172.19    4.15
   1   0   4    0.05    0.05
   1   0   4    0.15    0.09
  -1   0  -4    0.34    0.12
   2   0   4  522.01   12.40
  -2   0  -4  525.77   12.39
  -2   0  -4  506.41   11.95
   2   0   4  520.56   12.50
  -3   0  -4    1.03    0.20
   4   0   4   63.10    1.97
  -4   0  -4   61.96    1.96
   5   0   4    0.28    0.16
  -5   0  -4    0.06    0.14
  -6   0  -4   94.68    3.00
  -6  -1   4   11.59    0.81
   6  -1  -4   10.90    0.82
   6  -1  -4   10.69    0.75
  -6  -1   4    9.60    0.72
  -6   1   4   10.09    0.79
  -6   1   4   10.88    0.77
   6   1  -4    9.85    0.72
   6   1  -4   11.09    0.80
  -5  -1   4  280.20    6.95
  -5  -1   4  281.62    7.03
   5  -1  -4  282.21    6.95
   5  -1  -4  271.33    7.05
  -5   1   4  274.22    7.06
   5   1  -4  269.05    6.91
   5   1  -4  284.17    7.03
  -4  -1   4   35.27    1.27
   4  -1  -4   35.51    1.28
  -4  -1   4   34.76    1.30
   4  -1  -4   33.92    1.32
   4   1  -4   36.12    1.32
   4   1  -4   35.04    1.26
  -4   1   4   36.38    1.35
   3  -1  -4   50.38    1.51
   3  -1  -4   50.21    1.56
  -3  -1   4   48.69    1.50
  -3  -1   4   49.77    1.55
  -3  -1   4   49.15    1.53
   3   1  -4   47.99    1.49
  -3   1   4   48.50    1.55
   3   1  -4   48.44    1.53
  -3   1   4   47.43    1.63
   2  -1  -4   15.15    0.62
   2  -1  -4   14.04    0.57
  -2  -1   4   15.08    0.61
  -2  -1   4   13.83    0.51
  -2  -1   4   14.15    0.57
   2   1  -4   14.01    0.57
   2   1  -4   13.73    0.62
   2   1  -4   15.20    0.62
  -2   1   4   13.19    0.59
   1  -1  -4  456.72   11.25
   1  -1  -4  509.96   11.42
  -1  -1   4  452.45   10.93
  -1  -1   4  487.47   11.22
  -1   1   4  470.45   11.43
   1   1  -4  478.10   11.32
   0  -1  -4  130.32    3.37
   0  -1   4  131.04    3.20
   0  -1   4  133.03    3.27
   0   1  -4  134.53    3.21
   0   1   4  128.29    3.34
   0   1   4  130.17    3.20
   1  -1   4  449.17   11.10
   1  -1   4  450.79   11.30
  -1  -1  -4  458.35   11.61
  -1   1  -4  428.73   10.56
   1   1   4  447.64   11.03
   1   1   4  448.25   11.64
  -1   1  -4  469.25   10.34
   2  -1   4   30.89    1.04
  -2  -1  -4   29.77    1.27
  -2  -1  -4   29.67    1.00
  -2   1  -4   30.12    1.00
   2   1   4   30.60    1.30
  -2   1  -4   30.41    1.27
   2   1   4   31.10    0.97
   3  -1   4  130.50    3.47
  -3  -1  -4  132.94    3.46
   3  -1   4  131.04    3.31
  -3   1  -4  130.43    3.43
  -3   1  -4  139.01    3.82
   3   1   4  131.19    3.39
  -4  -1  -4   52.16    1.71
   4  -1   4   53.40    1.74
   4   1   4   42.57    1.57
  -4   1  -4   54.29    1.70
   5  -1   4  172.47    4.71
  -5  -1  -4  179.65    4.71
  -5   1  -4  168.90    4.62
   6  -1   4   19.52    1.12
  -6  -1  -4   19.00    1.08
  -6   1  -4   21.15    1.11
  -6  -2   4   31.11    1.37
   6  -2  -4   28.58    1.43
  -6  -2   4   29.74    1.40
   6  -2  -4   31.18    1.38
   6   2  -4   29.88    1.34
  -6   2   4   30.95    1.48
   6   2  -4   31.36    1.53
   5  -2  -4    3.78    0.48
  -5  -2   4    3.86    0.46
  -5  -2   4    4.27    0.44
   5  -2  -4    4.72    0.59
   5   2  -4    4.58    0.45
   5   2  -4    4.01    0.49
  -5   2   4    3.77    0.53
   4  -2  -4   86.74    2.51
  -4  -2   4   85.03    2.48
   4  -2  -4   85.00    2.57
  -4  -2   4   86.10    2.51
   4   2  -4   89.29    2.53
  -4   2   4   86.27    2.58
   4   2  -4   87.31    2.48
   3  -2  -4  229.28    5.75
   3  -2  -4  230.93    5.69
  -3  -2   4  233.33    5.68
  -3  -2   4  231.09    5.69
  -3  -2   4  234.38    5.71
   3   2  -4  240.71    5.73
   3   2  -4  233.67    5.68
  -3   2   4  235.07    5.76
   2  -2  -4  275.66    6.47
  -2  -2   4  275.20    6.47
   2  -2  -4  274.31    6.52
  -2  -2   4  271.81    6.80
  -2  -2   4  268.19    6.49
   2   2  -4  282.01    6.52
   2   2  -4  272.96    6.47
  -2   2   4  269.07    6.51
   1  -2  -4  125.49    3.03
  -1  -2   4  127.41    3.06
  -1  -2   4  123.87    3.12
   1  -2  -4  125.57    3.09
   1   2  -4  122.57    3.32
   1   2  -4  125.00    3.06
  -1   2   4  125.89    3.09
   0  -2   4  107.07    2.69
   0  -2  -4  108.31    2.93
   0   2   4   99.67    2.66
   0   2  -4  109.87    2.93
   0   2   4  108.07    2.89
   0   2  -4   97.87    2.52
   0   2  -4  101.91    2.61
   1  -2   4   64.30    1.77
  -1  -2  -4   63.35    2.00
  -1   2  -4   62.19    1.71
  -1   2  -4   61.58    1.88
  -1   2  -4   61.76    1.97
   1   2   4   63.55    2.00
   2  -2   4  437.51   10.42
   2  -2   4  450.94   10.40
  -2  -2  -4  434.03   10.81
   2   2   4  447.40   10.86
  -2   2  -4  465.90   10.82
   2   2   4  462.75   10.56
  -2   2  -4  421.43   10.66
  -2   2  -4  448.56   10.35
  -3  -2  -4  218.45    5.62
   3  -2   4  226.75    5.69
   3  -2   4  240.91    5.41
  -3   2  -4  227.02    5.61
   3   2   4  231.51    5.51
   4  -2   4   57.25    1.91
  -4  -2  -4   57.42    1.87
  -4   2  -4   56.15    1.82
   5  -2   4    4.85    0.50
  -5  -2  -4    4.79    0.49
  -5   2  -4    5.18    0.49
  -6  -2  -4   44.59    1.80
   6  -2   4   41.67    1.82
  -6   2  -4   44.22    1.75
   6  -3  -4   93.11    2.98
  -6  -3   4   93.07    2.94
   6  -3  -4   93.91    3.12
  -6   3   4   95.63    3.14
   6   3  -4   95.72    2.94
   5  -3  -4   50.62    1.89
  -5  -3   4   53.59    1.80
  -5  -3   4   51.09    1.78
   5  -3  -4   48.96    1.78
   5   3  -4   50.24    1.77
  -5   3   4   50.70    1.88
   5   3  -4   46.84    1.72
  -4  -3   4   94.79    2.71
  -4  -3   4   96.41    2.72
   4  -3  -4   95.16    2.74
   4  -3  -4   97.10    2.83
   4   3  -4   97.52    2.71
  -4   3   4   94.57    2.82
   4   3  -4   93.93    2.71
   3  -3  -4    6.35    0.46
   3  -3  -4    6.33    0.43
  -3  -3   4    6.79    0.44
  -3  -3   4    5.90    0.40
   3   3  -4    6.68    0.43
   3   3  -4    6.95    0.44
  -3   3   4    6.53    0.46
  -2  -3   4   93.66    2.35
  -2  -3   4   90.95    2.44
   2  -3  -4   91.75    2.44
  -2  -3   4   93.38    2.70
  -2  -3   4   93.83    2.46
   2  -3  -4   98.15    2.51
   2   3  -4   94.52    2.31
   2   3  -4   92.71    2.45
  -2   3   4   89.78    2.47
  -1  -3   4  110.07    3.16
   1  -3  -4  114.74    2.84
  -1  -3   4  115.93    2.91
   1  -3  -4  117.65    2.82
  -1  -3   4  112.21    2.84
   1   3  -4  109.35    2.78
   1   3  -4  115.06    3.17
  -1   3   4  115.86    2.84
   0  -3   4  411.64    9.46
   0  -3   4  380.29    9.00
   0  -3  -4  408.95    9.23
   0  -3  -4  372.65    9.46
   0  -3   4  400.39    9.12
   0   3  -4  368.41    9.39
   0   3   4  390.47    9.44
   1  -3   4   87.80    2.35
   1  -3   4   89.85    2.26
  -1  -3  -4   87.23    2.67
   1   3   4   88.13    2.69
  -1   3  -4   88.05    2.52
  -1   3  -4   84.73    2.63
  -2  -3  -4    3.10    0.41
   2  -3   4    3.14    0.23
   2  -3   4    3.21    0.30
   2   3   4    3.25    0.20
   2   3   4    2.35    0.44
  -2   3  -4    3.13    0.28
  -2   3  -4    2.36    0.34
  -2   3  -4    2.76    0.36
   3  -3   4   34.34    1.09
   3  -3   4   36.14    1.31
  -3   3  -4   35.57    1.24
   4  -3   4  167.25    4.47
  -4  -3  -4  164.22    4.38
  -4   3  -4  164.27    4.34
   5  -3   4   41.89    1.72
  -5  -3  -4   44.10    1.69
  -5   3  -4   44.15    1.65
   6  -3   4   58.03    2.29
  -6  -3  -4   61.21    2.24
  -6   3  -4   59.04    2.39
  -6  -4   4    3.27    0.51
   6  -4  -4    1.87    0.44
   6  -4  -4    2.52    0.47
  -6   4   4    2.26    0.48
   6   4  -4    1.60    0.36
  -5  -4   4    1.05    0.27
   5  -4  -4    0.88    0.28
   5  -4  -4    1.33    0.31
   5   4  -4    1.50    0.31
  -5   4   4    1.09    0.30
   4  -4  -4    3.66    0.45
  -4  -4   4    3.83    0.44
   4  -4  -4    3.09    0.42
  -4  -4   4    3.16    0.39
  -4   4   4    3.92    0.41
   4   4  -4    4.13    0.38
   4   4  -4    4.12    0.39
   3  -4  -4  441.85   10.45
   3  -4  -4  436.25   10.40
  -3  -4   4  443.24   10.63
  -3  -4   4  435.26   10.38
  -3  -4   4  442.20   10.35
  -3   4   4  440.53   10.46
   3   4  -4  448.96   10.40
   2  -4  -4    6.31    0.39
  -2  -4   4    6.22    0.51
  -2  -4   4    6.52    0.39
   2  -4  -4    6.22    0.40
  -2  -4   4    5.61    0.37
  -2   4   4    5.88    0.39
   2   4  -4    5.99    0.39
   2   4  -4    6.08    0.35
  -1  -4   4  180.88    4.32
  -1  -4   4  185.42    4.76
   1  -4  -4  176.43    4.26
  -1  -4   4  176.83    4.33
   1  -4  -4  177.99    4.27
  -1   4   4  170.24    4.25
   1   4  -4  171.17    4.30
   1   4  -4  173.93    4.39
   0  -4   4    1.76    0.21
   0  -4   4    1.82    0.25
   0  -4   4    1.55    0.29
   0  -4  -4    1.72    0.17
   0  -4  -4    1.15    0.18
   0   4   4    1.41    0.34
   0   4  -4    1.46    0.29
   0   4   4    1.66    0.18
   1  -4   4  470.45   11.12
   1  -4   4  438.15   10.67
  -1  -4  -4  457.16   11.19
  -1  -4  -4  461.52   10.45
  -1   4  -4  463.74   11.16
   1   4   4  459.66   11.20
  -2  -4  -4   10.62    0.79
   2  -4   4   10.38    0.50
  -2  -4  -4   11.08    0.43
   2  -4   4    9.54    0.56
  -2   4  -4    9.80    0.73
   2   4   4   10.94    0.81
  -2   4  -4   10.43    0.76
   3  -4   4  391.51    9.41
   3  -4   4  390.16    9.15
   4  -4   4    0.15    0.14
  -4   4  -4    0.02    0.12
  -5  -4  -4    1.03    0.29
   5  -4   4    1.10    0.32
  -5   4  -4    1.23    0.30
  -6  -4  -4    3.50    0.55
   6  -4   4    3.76    0.64
   6  -5  -4  110.91    3.46
  -6  -5   4  110.16    3.38
   6  -5  -4  110.79    3.59
  -6   5   4  112.06    3.59
   6   5  -4  111.51    3.38
   5  -5  -4    6.57    0.58
   5  -5  -4    6.47    0.61
  -5  -5   4    6.08    0.53
   5   5  -4    7.32    0.59
  -5   5   4    6.96    0.64
  -4  -5   4  107.99    3.09
   4  -5  -4  109.79    3.20
   4  -5  -4  110.51    3.15
   4   5  -4  110.27    3.11
  -4   5   4  111.46    3.22
   3  -5  -4    0.53    0.18
  -3  -5   4    0.55    0.15
  -3  -5   4    0.86    0.21
   3  -5  -4    0.70    0.19
  -3  -5   4    0.73    0.27
   3   5  -4    0.64    0.17
  -3   5   4    0.72    0.20
   2  -5  -4   73.56    2.13
  -2  -5   4   75.13    2.10
  -2  -5   4   76.32    2.16
  -2  -5   4   77.28    2.50
   2  -5  -4   77.29    2.15
   2   5  -4   77.02    2.17
   2   5  -4   78.68    2.18
  -2   5   4   73.05    2.13
   1  -5  -4    6.12    0.37
  -1  -5   4    6.00    0.39
   1  -5  -4    5.75    0.34
  -1  -5   4    6.51    0.56
   1   5  -4    5.49    0.44
   0  -5   4  370.63    8.97
   0  -5   4  397.01    9.54
   0  -5   4  378.52    8.96
   0  -5  -4  378.72    8.87
   0  -5  -4  380.18    8.86
   0   5   4  387.48    8.76
   0   5   4  383.08    9.57
   1  -5   4   20.01    0.80
   1  -5   4   19.99    0.80
  -1  -5  -4   19.80    0.68
  -1  -5  -4   19.30    1.11
   1  -5   4   18.46    1.05
   1   5   4   18.77    1.10
  -2  -5  -4    0.85    0.16
   2  -5   4    0.31    0.15
   2  -5   4    0.08    0.08
  -2  -5  -4    0.54    0.26
  -2   5  -4    0.29    0.19
   3  -5   4    2.65    0.33
   3  -5   4    2.36    0.37
   4  -5   4  350.33    8.73
   5  -5   4    2.61    0.48
  -6  -5  -4   69.47    2.55
   6  -5   4   70.33    2.67
   6  -6  -4    7.36    0.88
   6  -6  -4    6.90    0.68
  -6  -6   4    6.89    0.65
  -6   6   4    7.22    0.74
   6   6  -4    6.27    0.62
   5  -6  -4    1.94    0.38
   5  -6  -4    1.84    0.39
  -5  -6   4    2.31    0.39
  -5   6   4    2.03    0.42
   5   6  -4    1.56    0.33
   4  -6  -4   24.20    1.10
   4  -6  -4   23.53    1.11
  -4  -6   4   22.04    1.03
  -4   6   4   24.01    1.13
   4   6  -4   21.96    1.02
   3  -6  -4  317.02    7.80
   3  -6  -4  315.46    7.81
  -3  -6   4  318.61    7.79
   3   6  -4  332.64    7.83
  -3   6   4  320.37    7.83
  -2  -6   4   34.88    1.54
  -2  -6   4   33.59    1.14
   2  -6  -4   33.14    1.19
   2  -6  -4   32.86    1.17
  -2  -6   4   32.88    1.20
  -2   6   4   33.56    1.18
   2   6  -4   37.42    1.25
   1  -6  -4  135.68    3.40
  -1  -6   4  134.94    3.40
   1  -6  -4  135.17    3.31
  -1  -6   4  132.57    3.95
  -1  -6   4  131.57    3.46
  -1   6   4  127.19    3.30
   1   6  -4  129.39    3.73
   0  -6  -4   50.54    1.36
   0  -6  -4   52.67    1.51
   0  -6   4   52.39    1.56
   0  -6   4   50.98    1.60
   0  -6   4   51.17    2.02
   0   6   4   49.39    2.04
   0   6   4   52.71    1.37
   1  -6   4  189.11    4.77
  -1  -6  -4  186.05    4.57
   1  -6   4  192.04    4.75
  -1  -6  -4  192.85    5.42
   1  -6   4  184.28    5.29
  -2  -6  -4   77.82    2.06
   2  -6   4   74.66    2.27
   2  -6   4   75.84    2.23
   3  -6   4   82.74    2.65
   3  -6   4  111.76    2.94
   4  -6   4   29.25    1.34
   5  -6   4    1.76    0.41
   6  -6   4   17.65    1.20
  -6  -6  -4   17.72    1.13
   6  -7  -4   33.74    1.62
  -6  -7   4   34.66    1.56
   6  -7  -4   34.91    1.70
   6   7  -4   31.47    1.50
  -6   7   4   32.86    1.67
  -5  -7   4  120.25    3.52
   5  -7  -4  115.26    3.59
   5  -7  -4  117.83    3.65
  -5   7   4  121.10    3.69
   5   7  -4  121.11    3.54
   4  -7  -4   48.52    1.78
   4  -7  -4   48.88    1.81
  -4  -7   4   48.68    1.74
  -4   7   4   48.59    1.81
   4   7  -4   46.98    1.73
   3  -7  -4   27.67    1.16
  -3  -7   4   27.91    1.15
   3  -7  -4   27.95    1.15
   3   7  -4   26.69    1.14
  -3   7   4   28.83    1.17
  -2  -7   4   27.47    1.09
  -2  -7   4   25.96    1.38
   2  -7  -4   25.71    1.04
  -2  -7   4   28.00    1.06
   2  -7  -4   25.93    1.01
  -2   7   4   26.36    1.01
  -1  -7   4  180.68    4.55
  -1  -7   4  177.97    4.39
   1  -7  -4  181.84    4.48
   1  -7  -4  175.79    4.34
  -1  -7   4  179.25    5.13
  -1   7   4  173.30    4.34
   1   7  -4  172.78    4.92
   0  -7   4  165.15    4.26
   0  -7   4  162.52    4.12
   0  -7  -4  162.27    4.10
   0  -7   4  165.00    4.84
   1  -7   4  253.12    6.41
  -1  -7  -4  261.80    6.21
   1  -7   4  260.52    6.33
   2  -7   4    3.42    0.44
  -2  -7  -4    3.07    0.28
   2  -7   4    3.12    0.41
   3  -7   4   64.58    2.07
   3  -7   4   63.99    2.14
   4  -7   4   88.10    2.81
   4  -7   4   82.83    2.59
   5  -7   4   73.37    2.67
   5  -8  -4    0.09    0.16
  -5  -8   4   -0.08    0.16
   5  -8  -4    0.09    0.19
   5   8  -4    0.10    0.16
  -5   8   4    0.15    0.20
   4  -8  -4   87.31    2.80
   4  -8  -4   88.81    2.79
  -4  -8   4   86.60    2.73
  -4   8   4   89.27    2.81
  -3  -8   4   12.81    0.78
   3  -8  -4   14.08    0.78
   3  -8  -4   15.29    0.84
  -3   8   4   14.43    0.80
   2  -8  -4  220.56    5.49
   2  -8  -4  213.34    5.58
  -2  -8   4  224.37    5.64
  -2   8   4  224.20    5.50
  -1  -8   4    0.11    0.10
   1  -8  -4    0.38    0.13
  -1  -8   4    0.38    0.16
  -1  -8   4    0.97    0.38
   1  -8  -4    0.23    0.13
   1   8  -4    0.55    0.25
  -1   8   4    0.38    0.13
   0  -8   4   38.99    1.29
   0  -8  -4   39.63    1.32
   0  -8   4   36.08    1.81
   0  -8   4   38.59    1.42
  -1  -8  -4   47.27    1.48
   1  -8   4   47.93    1.67
   1  -8   4   44.32    1.53
   2  -8   4  214.65    5.57
  -2  -8  -4  222.77    5.33
   2  -8   4  207.78    5.48
   3  -8   4   36.13    1.48
   3  -8   4   36.54    1.46
   4  -8   4   45.73    1.83
   4  -8   4   44.00    1.70
   5  -8   4    1.57    0.42
   5  -9  -4  121.27    3.76
   5  -9  -4  120.41    3.77
  -5  -9   4  118.73    3.66
  -5   9   4  118.65    3.77
  -4  -9   4    5.09    0.61
   4  -9  -4    4.18    0.56
   4  -9  -4    4.92    0.64
  -4   9   4    4.87    0.63
  -3  -9   4    5.73    0.52
   3  -9  -4    6.57    0.53
   3  -9  -4    6.28    0.56
  -3   9   4    6.85    0.55
   2  -9  -4    0.63    0.20
  -2  -9   4    0.30    0.18
   2  -9  -4    0.46    0.20
  -1  -9   4  181.23    5.55
   1  -9  -4  187.78    4.79
   0  -9   4    4.16    0.36
   0  -9   4    3.96    0.51
   0  -9  -4    2.64    0.35
  -1  -9  -4  137.81    3.62
   1  -9   4  134.97    3.82
   1  -9   4  137.78    3.67
  -2  -9  -4    4.66    0.40
   2  -9   4    4.80    0.46
   2  -9   4    4.61    0.56
   3  -9   4   49.09    1.86
   3  -9   4   50.14    1.87
   4  -9   4    0.38    0.23
   4  -9   4    0.76    0.29
   5  -9   4  105.42    3.53
  -5 -10   4    4.90    0.64
   5 -10  -4    6.48    0.82
   5 -10  -4    6.47    0.80
  -5  10   4    6.12    0.78
   4 -10  -4   29.76    1.39
   4 -10  -4   30.10    1.44
  -4 -10   4   29.12    1.38
  -4  10   4   28.15    1.37
   3 -10  -4   31.92    1.34
   3 -10  -4   30.71    1.39
  -3 -10   4   31.61    1.39
  -3  10   4   32.74    1.36
   2 -10  -4  126.94    3.58
  -2 -10   4  121.39    3.57
   1 -10  -4   12.93    0.75
  -1 -10   4   13.65    0.82
   0 -10  -4   20.17    0.95
   0 -10   4   21.05    1.05
   1 -10   4   40.28    1.46
  -1 -10  -4   42.84    1.47
   1 -10   4   38.15    1.57
   2 -10   4  276.90    7.17
  -2 -10  -4  281.16    6.91
   2 -10   4  275.83    7.01
   3 -10   4   23.95    1.26
   3 -10   4   26.72    1.27
   4 -10   4   20.38    1.17
   4 -10   4   17.71    1.10
   5 -10   4    2.57    0.54
  -4 -11   4   10.46    0.81
   4 -11  -4    9.83    0.83
   4 -11  -4    9.30    0.76
  -4  11   4   10.48    0.82
   3 -11  -4    3.25    0.46
  -3 -11   4    4.58    0.62
   3 -11  -4    3.87    0.55
  -3  11   4    3.58    0.49
  -2 -11   4   10.85    0.77
   2 -11  -4   11.38    0.78
   1 -11  -4  121.45    3.52
  -1 -11   4  124.39    3.63
   0 -11   4   56.75    2.07
   0 -11  -4   58.77    1.96
   1 -11   4   31.86    1.28
  -1 -11  -4   32.92    1.31
   1 -11   4   34.58    1.48
   2 -11   4    0.73    0.27
   2 -11   4    0.93    0.27
   3 -11   4   10.42    0.83
   3 -11   4   10.62    0.79
   4 -11   4   58.01    2.30
   4 -11   4   57.28    2.27
  -4 -12   4   11.90    0.92
   4 -12  -4   13.49    1.01
   4 -12  -4   14.03    0.95
  -4  12   4   13.23    0.95
  -3 -12   4  102.03    3.26
   3 -12  -4  101.64    3.30
  -2 -12   4   39.89    1.70
   2 -12  -4   39.65    1.67
   1 -12  -4   32.28    1.40
  -1 -12   4   29.96    1.42
   0 -12   4    3.27    0.52
   0 -12  -4    3.58    0.48
   1 -12   4   36.53    1.61
  -1 -12  -4   36.42    1.46
   2 -12   4   46.42    1.77
   2 -12   4   47.05    1.94
   3 -12   4   71.93    2.52
   3 -12   4   71.32    2.65
   4 -12   4    0.80    0.37
   4 -12   4    0.66    0.31
   3 -13  -4    0.05    0.16
  -3 -13   4    0.23    0.22
  -2 -13   4   18.40    1.12
   2 -13  -4   19.30    1.13
   1 -13  -4    5.35    0.65
  -1 -13   4    5.64    0.69
   0 -13   4  157.34    4.59
   0 -13  -4  157.13    4.42
  -1 -13  -4    3.47    0.50
   1 -13   4    3.24    0.54
   2 -13   4    0.06    0.18
   3 -13   4    1.22    0.42
   3 -13   4    0.61    0.28
  -2 -14   4    5.34    0.74
   2 -14  -4    4.23    0.62
  -1 -14   4   13.32    0.96
   1 -14  -4   12.69    0.91
   0 -14  -4    0.04    0.17
   0 -14   4    0.23    0.22
  -1 -14  -4   46.58    1.83
   1 -14   4   44.76    1.96
   2 -14   4    5.33    0.77
  -1 -15   4   12.99    0.99
   1 -15  -4   13.05    0.95
   0 -15  -4   55.80    2.15
   0 -15   4   55.25    2.25
  -1 -15  -4    6.30    0.73
   1 -15   4    7.07    0.89
   6   0  -5    0.03    0.15
  -6   0   5   -0.01    0.16
   6   0  -5   -0.01    0.16
  -6   0   5    0.09    0.17
  -5   0   5   38.41    1.55
   5   0  -5   37.76    1.54
  -5   0   5   38.02    1.48
   5   0  -5   39.97    1.49
  -4   0   5    0.17    0.14
   4   0  -5    0.03    0.11
   4   0  -5    0.10    0.10
   3   0  -5  343.09    8.30
  -3   0   5  347.43    8.26
   3   0  -5  344.41    8.21
  -3   0   5  350.28    8.30
   2   0  -5    0.07    0.08
  -2   0   5    0.27    0.11
   2   0  -5   -0.05    0.05
  -1   0   5   23.72    0.85
   1   0  -5   24.50    0.77
  -1   0   5   23.92    0.77
   0   0  -5    0.10    0.08
   0   0   5    0.05    0.07
   0   0   5    0.00    0.07
   1   0   5  724.78   18.67
   1   0   5  872.35   21.07
  -1   0  -5  848.65   19.33
  -1   0  -5  770.38   19.66
  -2   0  -5    0.04    0.14
   2   0   5    0.04    0.14
   3   0   5  118.15    3.15
  -3   0  -5  118.01    3.15
   4   0   5    0.06    0.10
  -4   0  -5   -0.01    0.10
  -5   0  -5   82.57    2.63
   5   0   5   86.15    2.65
  -6   0  -5    0.24    0.18
   6  -1  -5  101.93    3.12
   6  -1  -5  101.45    3.25
  -6  -1   5  101.95    3.13
  -6  -1   5  103.13    3.22
  -6   1   5  103.00    3.27
   6   1  -5   98.92    3.19
   6   1  -5   97.06    3.07
  -6   1   5   97.73    3.11
  -5  -1   5    8.96    0.64
  -5  -1   5    9.65    0.69
   5  -1  -5    8.77    0.67
   5  -1  -5    9.25    0.65
   5   1  -5    8.79    0.62
   5   1  -5    8.84    0.66
  -5   1   5    9.13    0.69
   4  -1  -5   24.54    1.08
   4  -1  -5   24.43    1.02
  -4  -1   5   26.02    1.08
  -4  -1   5   24.75    1.02
  -4   1   5   24.84    1.08
   4   1  -5   24.32    1.06
   4   1  -5   22.69    0.99
   3  -1  -5    2.12    0.31
  -3  -1   5    2.41    0.30
  -3  -1   5    1.66    0.26
   3  -1  -5    1.48    0.24
   3   1  -5    1.57    0.24
   3   1  -5    2.10    0.30
  -3   1   5    1.86    0.29
  -3   1   5    1.89    0.26
  -2  -1   5  447.85   10.17
   2  -1  -5  450.05   10.18
  -2  -1   5  423.09   10.23
  -2  -1   5  459.71   10.49
   2  -1  -5  429.38   10.24
  -2   1   5  415.34   10.22
   2   1  -5  455.49   10.18
   2   1  -5  430.68   10.25
   1  -1  -5   33.33    1.07
   1  -1  -5   34.79    1.00
  -1  -1   5   35.23    1.01
  -1  -1   5   34.19    1.11
  -1   1   5   33.82    1.08
  -1   1   5   33.41    1.12
   1   1  -5   32.52    1.00
   0  -1   5  768.57   18.58
   0  -1   5  720.61   18.24
   0  -1  -5  755.93   19.84
   0   1   5  772.19   19.43
   0   1  -5  801.11   18.76
   0   1   5  706.44   17.47
   1  -1   5   30.49    1.13
   1  -1   5   30.27    1.03
  -1  -1  -5   28.95    1.18
  -1   1  -5   28.72    1.12
   1   1   5   30.10    1.18
  -1   1  -5   29.03    0.93
  -2  -1  -5    3.02    0.38
   2  -1   5    2.69    0.36
   2  -1   5    2.82    0.28
  -2  -1  -5    2.61    0.25
  -2   1  -5    2.73    0.25
  -2   1  -5    2.31    0.34
   2   1   5    2.77    0.25
   2   1   5    2.40    0.35
  -3  -1  -5   14.83    0.72
   3  -1   5   15.94    0.75
  -3   1  -5   15.12    0.71
   3   1   5   15.22    0.69
  -4  -1  -5  249.07    6.19
   4  -1   5  241.71    6.19
   4   1   5  246.51    6.09
  -4   1  -5  243.11    6.14
  -5  -1  -5    8.49    0.65
   5  -1   5    8.08    0.65
  -5   1  -5    8.51    0.63
  -6  -1  -5   15.54    0.96
   6  -1   5   12.41    0.91
  -6   1  -5   10.99    0.82
  -6  -2   5    3.33    0.54
   6  -2  -5    2.66    0.52
  -6  -2   5    2.59    0.47
   6  -2  -5    2.26    0.43
   6   2  -5    2.17    0.42
  -6   2   5    2.78    0.53
   6   2  -5    3.11    0.51
   5  -2  -5   27.24    1.29
  -5  -2   5   31.30    1.27
   5  -2  -5   28.24    1.23
  -5  -2   5   28.77    1.26
   5   2  -5   28.29    1.25
   5   2  -5   28.63    1.22
  -5   2   5   28.45    1.32
   4  -2  -5  134.82    3.76
  -4  -2   5  136.08    3.70
  -4  -2   5  137.49    3.68
   4  -2  -5  136.35    3.68
   4   2  -5  139.49    3.67
  -4   2   5  137.45    3.78
   4   2  -5  137.78    3.72
   3  -2  -5  178.13    4.46
  -3  -2   5  182.57    4.47
  -3  -2   5  172.46    4.48
   3  -2  -5  173.82    4.52
   3   2  -5  179.69    4.45
  -3   2   5  175.03    4.52
   3   2  -5  178.10    4.49
  -2  -2   5  123.77    3.18
  -2  -2   5  126.35    3.25
   2  -2  -5  123.46    3.25
   2  -2  -5  128.88    3.19
  -2   2   5  127.35    3.26
   1  -2  -5    6.29    0.35
  -1  -2   5    6.30    0.38
  -1  -2   5    5.77    0.31
   1  -2  -5    6.02    0.31
   1   2  -5    5.58    0.45
   1   2  -5    5.61    0.31
  -1   2   5    6.05    0.44
  -1   2   5    5.54    0.34
   0  -2  -5  197.35    5.07
   0  -2   5  199.08    4.83
   0  -2   5  199.66    4.63
   0   2  -5  200.48    4.62
   0   2   5  190.18    4.99
   0   2  -5  200.31    5.11
   0   2  -5  189.95    4.72
  -1  -2  -5  350.94    7.75
   1  -2   5  318.04    7.87
   1  -2   5  333.00    8.03
  -1   2  -5  351.97    8.07
   1   2   5  337.88    8.19
  -1   2  -5  342.05    7.81
   1   2   5  323.67    7.76
  -1   2  -5  302.91    8.14
  -2  -2  -5  337.81    8.02
  -2  -2  -5  340.99    8.57
   2  -2   5  354.93    7.80
   2  -2   5  329.47    8.43
   2  -2   5  339.68    8.11
  -2   2  -5  349.97    8.50
   2   2   5  327.04    8.53
  -2   2  -5  337.13    8.03
   2   2   5  347.63    7.93
  -2   2  -5  332.34    8.41
   3  -2   5   88.17    2.58
  -3  -2  -5   88.63    2.54
   3   2   5   91.61    2.42
  -3   2  -5   90.07    2.51
   4  -2   5    5.88    0.51
  -4  -2  -5    5.65    0.49
  -4   2  -5    5.56    0.46
   5  -2   5   52.24    1.91
  -5  -2  -5   46.75    1.79
  -5   2  -5   45.73    1.74
  -6  -2  -5   28.86    1.41
   6  -2   5   28.06    1.45
  -6   2  -5   30.67    1.42
  -6  -3   5   30.21    1.40
   6  -3  -5   30.76    1.43
   6  -3  -5   32.83    1.56
   6   3  -5   31.03    1.40
  -6   3   5   32.13    1.55
  -5  -3   5   73.48    2.36
   5  -3  -5   73.17    2.37
  -5  -3   5   72.19    2.34
   5  -3  -5   74.66    2.48
   5   3  -5   73.19    2.35
  -5   3   5   74.86    2.49
   5   3  -5   70.96    2.31
   4  -3  -5   11.96    0.73
  -4  -3   5   11.99    0.68
   4  -3  -5   11.32    0.68
  -4  -3   5   11.66    0.67
  -4   3   5   12.53    0.75
   4   3  -5   12.10    0.69
   4   3  -5   13.34    0.71
  -3  -3   5   39.63    1.36
  -3  -3   5   41.29    1.39
   3  -3  -5   39.93    1.37
   3  -3  -5   41.32    1.43
  -3   3   5   41.09    1.43
   3   3  -5   44.71    1.44
   3   3  -5   42.83    1.38
  -2  -3   5  108.93    2.86
   2  -3  -5  108.22    2.85
  -2  -3   5  105.89    2.80
   2  -3  -5  111.62    2.81
   2   3  -5  103.63    2.79
  -2   3   5  108.21    2.85
  -1  -3   5  566.01   13.55
  -1  -3   5  569.56   13.16
   1  -3  -5  579.13   13.18
   1  -3  -5  594.05   13.13
  -1   3   5  573.54   13.18
  -1   3   5  572.63   14.45
   1   3  -5  539.68   13.15
   1   3  -5  591.85   14.68
   1   3  -5  581.48   13.55
   0  -3   5  218.08    5.38
   0  -3  -5  231.05    5.92
   0  -3   5  234.50    5.55
   0  -3  -5  236.56    5.28
   0   3  -5  230.22    5.47
   0   3   5  228.37    5.39
   0   3  -5  218.05    5.84
   0   3   5  221.91    5.83
   1  -3   5   17.80    0.76
  -1  -3  -5   17.45    0.95
   1  -3   5   17.66    0.66
   1   3   5   18.09    0.65
   1   3   5   17.96    0.96
  -1   3  -5   17.54    0.84
  -1   3  -5   17.84    0.96
   2  -3   5   23.24    0.76
  -2  -3  -5   22.64    1.19
   2  -3   5   22.88    0.93
   2   3   5   22.70    0.75
  -2   3  -5   21.60    0.88
   2   3   5   24.73    1.46
  -2   3  -5   21.88    1.12
  -2   3  -5   23.06    1.15
   3  -3   5  223.99    5.63
  -3   3  -5  219.34    5.53
  -4  -3  -5   59.20    1.98
   4  -3   5   59.39    2.04
  -4   3  -5   59.02    1.95
  -5  -3  -5   92.59    2.88
   5  -3   5   90.20    2.95
  -5   3  -5   90.52    2.83
  -6  -3  -5    0.85    0.31
   6  -3   5    1.22    0.38
  -6   3  -5    0.75    0.29
   6  -4  -5    0.31    0.23
   6  -4  -5    0.28    0.23
  -6  -4   5    1.02    0.30
   6   4  -5    2.65    0.46
  -6   4   5    0.27    0.24
   5  -4  -5    2.76    0.45
   5  -4  -5    2.15    0.41
  -5  -4   5    2.63    0.42
  -5   4   5    2.72    0.48
   5   4  -5    1.71    0.34
   4  -4  -5  277.87    6.67
  -4  -4   5  280.15    6.62
  -4  -4   5  272.43    6.62
   4  -4  -5  276.52    6.75
   4   4  -5  251.48    6.57
   4   4  -5  226.56    6.53
  -4   4   5  275.97    6.75
   3  -4  -5   17.87    0.80
  -3  -4   5   16.63    0.77
  -3  -4   5   17.80    0.79
   3  -4  -5   17.21    0.82
  -3   4   5   15.99    0.79
   3   4  -5   16.95    0.78
  -2  -4   5  226.53    5.56
  -2  -4   5  225.17    5.58
   2  -4  -5  231.60    5.59
   2  -4  -5  226.11    5.54
  -2  -4   5  224.70    5.96
  -2   4   5  234.91    5.59
   2   4  -5  232.75    5.58
   2   4  -5  226.33    5.30
  -1  -4   5    0.11    0.12
  -1  -4   5    0.04    0.18
  -1  -4   5    0.01    0.12
   1  -4  -5   -0.01    0.09
   1   4  -5    0.49    0.15
  -1   4   5   -0.13    0.12
   1   4  -5   -0.12    0.13
  -1   4   5    0.11    0.11
   0  -4   5   73.01    2.41
   0  -4   5   72.07    1.98
   0  -4  -5   74.58    1.87
   0  -4   5   71.04    2.05
   0   4   5   71.66    2.40
   0   4   5   72.40    1.89
   0   4  -5   69.86    2.37
  -1  -4  -5   14.54    0.92
  -1  -4  -5   15.08    0.50
   1  -4   5   14.30    0.63
   1  -4   5   13.55    0.67
  -1   4  -5   14.12    0.89
  -1   4  -5   14.50    0.79
   1   4   5   14.92    0.93
   2  -4   5  572.24   13.34
  -2  -4  -5  602.59   14.25
   2  -4   5  565.23   13.55
  -2   4  -5  580.09   13.96
   3  -4   5    6.68    0.52
   3  -4   5    6.76    0.45
   4  -4   5    2.00    0.37
  -4  -4  -5    1.47    0.32
  -4   4  -5    2.75    0.41
   5  -4   5    5.05    0.66
  -5  -4  -5    4.63    0.58
  -5   4  -5    5.25    0.63
  -6  -4  -5   89.02    3.02
   6  -4   5   89.49    3.14
   6  -5  -5    4.53    0.66
  -6  -5   5    5.60    0.68
   6  -5  -5    4.37    0.60
  -6   5   5    4.68    0.69
   6   5  -5    5.63    0.67
  -5  -5   5  107.40    3.19
   5  -5  -5  108.73    3.34
   5  -5  -5  108.99    3.26
  -5   5   5  104.58    3.31
   5   5  -5  106.12    3.19
  -4  -5   5    1.57    0.30
   4  -5  -5    1.39    0.32
  -4  -5   5    1.19    0.28
   4  -5  -5    1.27    0.29
  -4   5   5    1.16    0.28
   4   5  -5    1.09    0.26
   3  -5  -5   20.76    0.93
  -3  -5   5   19.10    0.85
  -3  -5   5   20.93    0.90
   3  -5  -5   20.47    0.90
  -3   5   5   18.93    0.89
   3   5  -5   20.28    0.90
  -2  -5   5   14.40    0.68
   2  -5  -5   14.29    0.67
  -2  -5   5   15.34    0.70
  -2  -5   5   14.51    0.91
   2   5  -5   14.96    0.70
   1  -5  -5  573.75   13.22
   1  -5  -5  599.97   13.25
  -1  -5   5  592.47   13.93
  -1  -5   5  548.55   13.32
  -1  -5   5  561.64   13.31
  -1   5   5  574.28   13.91
   0  -5   5   56.42    1.67
   0  -5  -5   57.11    1.51
   0  -5   5   53.32    2.05
   0  -5   5   54.51    1.67
   0  -5  -5   54.97    1.53
   0   5   5   55.52    1.51
   0   5   5   55.44    2.10
   0   5  -5   56.11    2.10
   1  -5   5   17.25    0.73
   1  -5   5   14.30    0.71
   1  -5   5   15.51    0.97
  -1  -5  -5   16.16    1.04
  -1  -5  -5   15.79    0.57
  -1   5  -5   15.65    0.87
  -1   5  -5   14.78    0.98
   1   5   5   14.57    1.01
   2  -5   5    0.83    0.19
   2  -5   5    1.00    0.22
   3  -5   5  139.91    3.61
   3  -5   5  139.20    3.85
   4  -5   5   10.62    0.76
   5  -5   5   76.59    2.71
  -5  -5  -5   78.91    2.64
  -6  -5  -5    1.72    0.42
   6  -5   5    1.28    0.40
   6  -6  -5    0.38    0.26
  -6  -6   5    0.77    0.30
   6  -6  -5    0.72    0.29
  -6   6   5    0.51    0.29
   6   6  -5    0.40    0.22
   5  -6  -5   11.97    0.82
  -5  -6   5   11.85    0.79
   5  -6  -5   12.84    0.88
   5   6  -5   11.42    0.77
  -5   6   5   13.30    0.89
   4  -6  -5  143.96    3.93
   4  -6  -5  143.83    3.97
  -4  -6   5  147.37    3.91
  -4   6   5  146.10    4.00
   4   6  -5  123.24    3.78
   3  -6  -5   78.09    2.34
  -3  -6   5   77.61    2.25
   3  -6  -5   74.08    2.30
  -3  -6   5   77.13    2.32
  -3   6   5   77.78    2.34
   3   6  -5   75.17    2.31
   2  -6  -5   76.09    2.21
  -2  -6   5   78.81    2.70
  -2  -6   5   75.04    2.23
  -2  -6   5   77.76    2.20
   2  -6  -5   73.45    2.18
  -2   6   5   73.98    2.18
   2   6  -5   80.55    2.27
  -1  -6   5    4.52    0.37
  -1  -6   5    4.25    0.52
  -1  -6   5    4.70    0.37
   1  -6  -5    4.30    0.33
   1  -6  -5    4.26    0.31
   1   6  -5    4.54    0.44
  -1   6   5    4.18    0.31
   0  -6  -5  160.45    3.98
   0  -6   5  163.52    4.14
   0  -6  -5  153.79    3.86
   0  -6   5  162.35    4.11
   0  -6   5  159.22    4.71
   0   6   5  168.61    3.90
   1  -6   5   75.18    2.21
  -1  -6  -5   73.68    1.99
   1  -6   5   73.71    2.69
   1  -6   5   76.63    2.21
   2  -6   5  400.82    9.91
   2  -6   5  434.53   10.03
   3  -6   5   22.70    0.96
   3  -6   5   23.21    1.09
   4  -6   5    0.92    0.28
   5  -6   5   16.46    1.08
  -5  -7   5   32.71    1.44
   5  -7  -5   32.55    1.52
   5  -7  -5   32.58    1.48
  -5   7   5   34.06    1.54
   5   7  -5   29.49    1.39
   4  -7  -5    7.66    0.63
  -4  -7   5    7.14    0.58
   4  -7  -5    7.82    0.63
  -4   7   5    8.94    0.68
   4   7  -5    7.30    0.60
   3  -7  -5   14.73    0.79
   3  -7  -5   14.56    0.79
  -3  -7   5   14.95    0.80
   3   7  -5   13.75    0.77
  -3   7   5   14.17    0.78
   2  -7  -5  141.71    3.69
   2  -7  -5  135.76    3.61
  -2  -7   5  136.47    3.73
  -2  -7   5  134.35    4.24
  -2  -7   5  141.87    3.62
  -2   7   5  139.15    3.62
  -1  -7   5  203.92    5.16
   1  -7  -5  205.05    4.96
  -1  -7   5  209.04    5.08
   1  -7  -5  205.20    5.07
  -1  -7   5  197.80    5.75
   1   7  -5  200.95    5.51
  -1   7   5  203.62    4.96
   0  -7   5  350.90    8.36
   0  -7  -5  352.89    8.26
   0  -7   5  356.60    9.16
   0  -7   5  337.49    8.42
   1  -7   5   17.33    0.84
  -1  -7  -5   19.15    0.74
   1  -7   5   19.57    0.90
   2  -7   5    3.05    0.41
   2  -7   5    2.78    0.39
   3  -7   5   42.63    1.54
   4  -7   5   84.48    2.80
   5  -7   5   31.58    1.58
   5  -8  -5   25.94    1.36
   5  -8  -5   25.93    1.34
  -5  -8   5   25.91    1.29
  -5   8   5   27.24    1.39
   5   8  -5   26.24    1.30
   4  -8  -5   21.03    1.10
   4  -8  -5   20.09    1.07
  -4  -8   5   21.46    1.08
  -4   8   5   20.16    1.09
   3  -8  -5  135.30    3.72
  -3  -8   5  132.42    3.76
   3  -8  -5  130.74    3.74
  -3   8   5  138.56    3.75
   2  -8  -5   25.12    1.02
   2  -8  -5   26.38    1.10
  -2  -8   5   26.36    1.13
  -2   8   5   25.29    1.02
  -1  -8   5   10.00    0.56
   1  -8  -5    9.83    0.58
   1  -8  -5   10.31    0.53
  -1  -8   5    9.65    0.87
  -1   8   5   10.16    0.57
   0  -8   5   15.21    0.73
   0  -8   5   14.41    1.09
   0  -8  -5   15.06    0.71
   0  -8   5   17.17    0.85
   1  -8   5  262.48    6.74
  -1  -8  -5  278.96    6.50
   1  -8   5  264.30    6.64
   2  -8   5    1.62    0.33
   2  -8   5    1.40    0.31
   3  -8   5  107.84    3.11
   3  -8   5   99.19    3.11
   4  -8   5    1.22    0.34
   5  -8   5   36.82    1.77
   5  -9  -5    0.17    0.22
  -5  -9   5    0.23    0.21
   5  -9  -5    0.21    0.21
  -5   9   5    0.41    0.28
   4  -9  -5   23.14    1.22
  -4  -9   5   23.77    1.22
   4  -9  -5   25.56    1.24
  -4   9   5   25.10    1.24
   3  -9  -5    0.19    0.16
   3  -9  -5   -0.07    0.12
  -3  -9   5    0.19    0.16
  -3   9   5    0.03    0.13
   2  -9  -5  202.99    5.30
   2  -9  -5  217.33    5.47
  -2  -9   5  212.13    5.51
  -1  -9   5    7.30    0.82
  -1  -9   5    7.07    0.56
   1  -9  -5    8.25    0.56
   0  -9  -5  294.75    7.17
   0  -9   5  296.47    7.38
   0  -9   5  291.41    7.17
   1  -9   5    9.05    0.66
   1  -9   5    9.79    0.62
  -1  -9  -5    9.58    0.57
   2  -9   5   18.55    0.95
   2  -9   5   17.34    0.97
   3  -9   5    4.86    0.61
   3  -9   5    4.99    0.61
   4  -9   5  119.74    3.73
   5  -9   5    0.84    0.34
   5 -10  -5   17.55    1.18
   5 -10  -5   20.41    1.23
  -5 -10   5   21.22    1.22
  -5  10   5   22.48    1.28
   4 -10  -5   21.20    1.18
  -4 -10   5   21.32    1.16
   4 -10  -5   19.07    1.09
  -4  10   5   19.54    1.11
   3 -10  -5  134.87    3.75
   3 -10  -5  127.69    3.83
  -3 -10   5  132.94    3.86
  -3  10   5  132.56    3.75
   2 -10  -5   10.39    0.70
  -2 -10   5    9.69    0.71
   0 -10   5    6.15    0.48
   0 -10  -5    5.98    0.49
   0 -10   5    6.00    0.56
   1 -10   5  170.86    4.56
   1 -10   5  173.79    4.75
  -1 -10  -5  173.42    4.49
   2 -10   5   47.78    1.86
   2 -10   5   47.63    1.77
   3 -10   5   36.44    1.62
   3 -10   5   38.20    1.62
   4 -10   5    1.30    0.36
   4 -11  -5    3.23    0.55
  -4 -11   5    3.12    0.52
   4 -11  -5    3.26    0.52
  -4  11   5    3.13    0.52
  -3 -11   5    1.43    0.36
   3 -11  -5    1.81    0.37
   2 -11  -5   84.61    2.72
  -2 -11   5   84.77    2.76
   1 -11  -5  107.31    3.13
  -1 -11   5  104.05    3.23
   0 -11  -5   56.48    1.91
   0 -11   5   56.18    2.06
   1 -11   5    3.43    0.46
   1 -11   5    3.90    0.57
  -1 -11  -5    3.59    0.44
   2 -11   5    3.51    0.56
   2 -11   5    5.94    0.55
   3 -11   5   23.47    1.25
   3 -11   5   24.95    1.33
   4 -11   5   53.56    2.19
  -4 -12   5   69.56    2.56
   4 -12  -5   66.99    2.57
   3 -12  -5   19.79    1.16
  -3 -12   5   21.05    1.18
  -2 -12   5   40.51    1.69
   2 -12  -5   35.34    1.57
   1 -12  -5    0.10    0.17
  -1 -12   5    0.01    0.17
   0 -12  -5   66.25    2.20
   0 -12   5   64.93    2.35
   1 -12   5   82.49    2.82
  -1 -12  -5   85.99    2.62
   2 -12   5  118.45    3.73
   2 -12   5  119.45    3.55
   3 -12   5    7.74    0.71
   3 -12   5    7.95    0.77
  -3 -13   5   12.66    0.94
   3 -13  -5   11.71    0.91
  -2 -13   5    1.85    0.42
   2 -13  -5    3.22    0.54
  -1 -13   5   99.95    3.26
   1 -13  -5  100.34    3.14
   0 -13  -5    0.41    0.23
   0 -13   5    0.31    0.24
  -1 -13  -5   36.76    1.52
   1 -13   5   38.73    1.73
   2 -13   5    2.08    0.47
   3 -13   5   64.69    2.38
   3 -13   5   58.79    2.45
  -2 -14   5   48.05    2.06
   2 -14  -5   50.65    2.06
   1 -14  -5    1.26    0.34
  -1 -14   5    1.55    0.41
   0 -14   5   50.92    2.12
   0 -14  -5   52.07    1.98
   1 -14   5   10.96    0.90
   2 -14   5   48.01    2.11
   0 -15   5   21.15    1.29
   0 -15  -5   20.40    1.16
  -6   0   6   29.95    1.38
   6   0  -6   28.75    1.34
   6   0  -6   26.94    1.39
  -6   0   6   27.95    1.41
  -5   0   6    0.42    0.20
   5   0  -6    0.29    0.17
  -5   0   6    0.21    0.17
   5   0  -6    0.32    0.19
  -4   0   6  331.93    8.25
   4   0  -6  341.98    8.17
   4   0  -6  334.25    8.26
   3   0  -6    0.02    0.08
  -3   0   6    0.04    0.08
   3   0  -6    0.42    0.15
  -2   0   6   75.15    2.11
   2   0  -6   75.30    2.02
   2   0  -6   69.74    2.09
  -1   0   6    0.95    0.19
   0   0  -6  254.33    6.21
   0   0   6  249.46    5.94
   0   0   6  250.88    6.14
   0   0   6  251.30    6.15
   0   0  -6  267.46    5.88
  -1   0  -6    0.58    0.16
   1   0   6    0.43    0.19
  -1   0  -6    0.33    0.20
   2   0   6  211.17    5.19
   2   0   6  210.56    5.61
  -2   0  -6  209.53    5.13
  -2   0  -6  206.71    5.58
  -3   0  -6    0.05    0.10
   3   0   6    0.09    0.11
   4   0   6   92.80    2.71
  -4   0  -6   89.24    2.69
   5   0   6    0.25    0.17
  -5   0  -6    0.18    0.18
  -6   0  -6  152.90    4.43
   6  -1  -6   15.34    0.94
  -6  -1   6   14.87    0.97
  -6  -1   6   13.75    0.91
   6  -1  -6   15.16    1.01
   6   1  -6   14.37    0.96
   6   1  -6   14.12    0.91
  -6   1   6   14.21    0.92
  -6   1   6   14.87    0.99
  -5  -1   6   46.57    1.71
  -5  -1   6   46.47    1.76
   5  -1  -6   46.15    1.70
   5  -1  -6   45.57    1.77
   5   1  -6   46.18    1.76
   5   1  -6   44.45    1.67
  -5   1   6   44.95    1.77
  -4  -1   6    0.98    0.25
  -4  -1   6    0.66    0.20
   4  -1  -6    0.95    0.25
   4  -1  -6    0.41    0.18
   4   1  -6    0.59    0.20
  -4   1   6    0.96    0.26
   4   1  -6    0.47    0.18
  -3  -1   6  204.05    5.15
   3  -1  -6  205.18    5.06
   3  -1  -6  202.03    5.15
  -3  -1   6  202.80    5.05
  -3   1   6  201.69    5.15
   3   1  -6  202.56    5.14
   3   1  -6  207.21    5.07
   2  -1  -6  117.21    3.10
  -2  -1   6  116.24    3.00
   2  -1  -6  118.59    3.00
  -2  -1   6  114.57    3.09
   2   1  -6  120.79    3.01
  -2   1   6  114.15    3.08
  -1  -1   6  634.15   14.41
   1  -1  -6  658.87   14.62
  -1  -1   6  563.90   14.07
  -1  -1   6  633.35   14.57
   1   1  -6  606.46   14.22
  -1   1   6  585.20   14.06
  -1   1   6  597.01   15.06
   0  -1   6    6.72    0.30
   0  -1   6    6.92    0.43
   0  -1  -6    6.90    0.49
   0  -1   6    6.37    0.39
   0   1  -6    6.34    0.40
   0   1   6    7.55    0.43
   0   1  -6    5.85    0.29
   0   1   6    6.90    0.46
   1  -1   6    1.61    0.26
  -1  -1  -6    1.96    0.20
  -1  -1  -6    2.09    0.31
   1  -1   6    1.83    0.29
   1   1   6    1.97    0.30
  -1   1  -6    1.63    0.26
  -1   1  -6    1.81    0.23
   1   1   6    2.03    0.29
   2  -1   6   47.23    1.53
  -2  -1  -6   46.91    1.83
  -2  -1  -6   47.40    1.46
  -2   1  -6   47.92    1.47
   2   1   6   46.33    1.88
  -2   1  -6   46.67    1.79
   3  -1   6  331.45    8.11
  -3  -1  -6  337.68    8.06
  -3   1  -6  332.41    8.02
   3   1   6  333.18    7.99
  -4  -1  -6   24.36    1.10
   4  -1   6   25.85    1.15
   4   1   6   26.12    1.08
  -4   1  -6   25.36    1.09
   5  -1   6   55.91    2.03
  -5  -1  -6   55.90    2.00
  -5   1  -6   53.65    1.96
  -6  -1  -6    0.96    0.34
  -6   1  -6    1.90    0.44
  -6  -2   6    6.34    0.62
  -6  -2   6    6.02    0.62
   6  -2  -6    6.46    0.79
   6  -2  -6    6.32    0.62
   6   2  -6    6.91    0.63
  -6   2   6    6.75    0.80
   6   2  -6    6.52    0.63
   5  -2  -6   95.23    3.03
  -5  -2   6   97.46    2.92
  -5  -2   6   95.97    2.96
   5  -2  -6   96.11    2.92
   5   2  -6   97.53    2.91
   5   2  -6   95.16    2.95
  -5   2   6   98.72    3.06
   4  -2  -6  158.19    4.34
  -4  -2   6  163.66    4.25
   4  -2  -6  161.01    4.24
  -4  -2   6  160.10    4.29
  -4   2   6  155.91    4.33
   4   2  -6  160.55    4.29
   4   2  -6  164.72    4.25
   3  -2  -6  109.63    3.08
  -3  -2   6  112.32    3.06
   3  -2  -6  110.39    3.00
  -3  -2   6  109.15    2.99
   3   2  -6  116.83    3.10
   3   2  -6  113.14    3.01
  -3   2   6  109.32    3.07
  -2  -2   6   20.65    0.79
   2  -2  -6   19.86    0.78
   2  -2  -6   20.52    0.84
  -2  -2   6   21.01    0.86
   2   2  -6   22.32    0.81
  -2   2   6   20.25    0.84
   1  -2  -6    1.03    0.18
  -1  -2   6    2.00    0.19
   1  -2  -6    1.73    0.17
  -1  -2   6    1.40    0.23
   1   2  -6    1.28    0.18
   1   2  -6    1.36    0.31
  -1   2   6    1.39    0.26
  -1   2   6    0.87    0.17
   0  -2  -6  306.49    7.60
   0  -2  -6  321.57    7.01
   0  -2   6  305.64    7.09
   0  -2   6  299.16    7.33
   0   2  -6  301.73    7.07
   0   2   6  314.73    7.53
   0   2  -6  302.71    7.23
   0   2   6  291.50    7.22
  -1  -2  -6  261.45    6.11
   1  -2   6  255.79    6.43
  -1  -2  -6  270.42    6.67
   1  -2   6  249.49    6.29
   1  -2   6  247.47    6.02
  -1   2  -6  271.26    6.47
   1   2   6  262.01    6.61
   1   2   6  247.74    6.19
   2  -2   6   68.09    2.06
  -2  -2  -6   68.62    2.41
   2  -2   6   68.02    2.37
  -2  -2  -6   66.45    1.94
  -2   2  -6   68.59    2.33
   2   2   6   66.45    1.90
  -2   2  -6   70.03    3.18
  -2   2  -6   66.48    1.96
   3  -2   6   11.24    0.68
  -3  -2  -6   11.79    0.65
   3   2   6   11.57    0.58
  -3   2  -6   11.61    0.64
   4  -2   6   64.55    2.16
  -4  -2  -6   66.25    2.12
  -4   2  -6   61.98    2.05
   5  -2   6   60.72    2.22
  -5  -2  -6   61.68    2.18
  -5   2  -6   61.96    2.14
  -6  -2  -6   62.57    2.35
   6  -2   6   62.37    2.41
  -6   2  -6   64.24    2.35
  -6  -3   6   91.49    2.90
   6  -3  -6   87.41    3.02
   6  -3  -6   86.95    2.87
  -6   3   6   86.28    3.01
   6   3  -6   86.57    2.84
  -5  -3   6   11.44    0.75
  -5  -3   6   10.77    0.73
   5  -3  -6   10.42    0.73
   5  -3  -6   10.03    0.76
   5   3  -6   11.82    0.77
   5   3  -6   10.98    0.73
  -5   3   6   11.88    0.82
   4  -3  -6    6.79    0.55
  -4  -3   6    6.47    0.51
  -4  -3   6    6.18    0.50
   4  -3  -6    6.97    0.53
  -4   3   6    6.37    0.54
   4   3  -6    7.13    0.54
   4   3  -6    6.71    0.50
   3  -3  -6   68.37    2.08
   3  -3  -6   64.12    1.98
  -3  -3   6   67.24    2.04
  -3  -3   6   65.85    1.99
   3   3  -6   65.73    1.99
  -3   3   6   67.79    2.07
   2  -3  -6  291.65    7.17
  -2  -3   6  299.11    7.12
  -2  -3   6  294.59    7.20
   2  -3  -6  299.27    7.10
   2   3  -6  303.25    7.12
  -2   3   6  302.26    7.18
   1  -3  -6  102.59    2.59
   1  -3  -6   97.21    2.66
  -1  -3   6  101.40    2.76
  -1  -3   6  102.05    2.64
  -1   3   6  105.24    2.68
   1   3  -6  100.75    2.64
   1   3  -6  102.26    3.34
   1   3  -6  102.18    2.41
  -1   3   6  104.23    3.02
   0  -3  -6   48.93    1.28
   0  -3   6   48.32    1.54
   0  -3  -6   47.80    1.81
   0   3  -6   45.97    1.79
   0   3   6   48.30    1.76
   0   3   6   48.65    1.42
   0   3  -6   47.25    1.46
   1  -3   6    6.16    0.36
   1  -3   6    6.31    0.45
  -1  -3  -6    6.43    0.58
   1   3   6    6.55    0.59
  -1   3  -6    6.52    0.51
   1   3   6    6.30    0.39
  -1   3  -6    7.09    0.62
   2  -3   6  151.39    3.99
  -2  -3  -6  148.21    3.83
   2  -3   6  147.82    3.64
  -2   3  -6  147.04    3.88
   2   3   6  154.33    3.72
  -2   3  -6  152.02    4.31
  -3  -3  -6   97.54    2.77
   3  -3   6   99.31    2.88
  -3   3  -6   95.11    2.77
  -4  -3  -6  145.32    3.99
   4  -3   6  145.96    4.10
  -4   3  -6  142.73    3.97
  -5  -3  -6   13.79    0.89
   5  -3   6   15.20    0.97
  -5   3  -6   14.65    0.90
  -6  -3  -6    7.52    0.71
   6  -3   6    6.84    0.72
  -6   3  -6    7.15    0.70
   6  -4  -6    0.52    0.26
   6  -4  -6    0.29    0.22
  -6  -4   6    0.33    0.23
   6   4  -6    0.55    0.24
  -6   4   6    0.69    0.28
   5  -4  -6  166.67    4.81
  -5  -4   6  174.32    4.70
   5  -4  -6  170.17    4.72
  -5  -4   6  172.73    4.70
  -5   4   6  173.32    4.85
   5   4  -6  179.01    4.71
   4  -4  -6    6.50    0.55
   4  -4  -6    6.61    0.53
  -4  -4   6    7.12    0.54
  -4  -4   6    7.04    0.53
   4   4  -6    6.33    0.51
  -4   4   6    6.14    0.54
   3  -4  -6  195.76    4.94
   3  -4  -6  190.48    4.98
  -3  -4   6  192.91    4.93
  -3  -4   6  199.12    4.98
   3   4  -6  193.60    4.94
  -3   4   6  195.71    5.00
   2  -4  -6   12.59    0.61
  -2  -4   6   14.31    0.66
   2  -4  -6   13.25    0.66
  -2  -4   6   13.11    0.67
  -2   4   6   13.07    0.65
   2   4  -6   13.28    0.64
  -1  -4   6   75.61    2.17
   1  -4  -6   76.57    2.01
   1  -4  -6   78.42    2.08
  -1  -4   6   71.55    2.06
  -1   4   6   74.27    2.49
  -1   4   6   73.44    2.05
   1   4  -6   73.59    1.90
   0  -4  -6   34.64    1.54
   0  -4  -6   33.62    0.98
   0  -4   6   34.02    1.21
   0  -4   6   33.75    1.10
   0   4  -6   34.94    1.51
   0   4   6   31.10    1.43
   0   4  -6   31.31    1.14
   0   4   6   33.19    1.06
  -1  -4  -6  620.98   14.89
   1  -4   6  601.20   14.33
  -1  -4  -6  641.57   14.39
   1  -4   6  579.85   14.16
  -1   4  -6  645.44   14.55
  -1   4  -6  624.89   14.89
   1   4   6  564.16   14.51
   1   4   6  642.59   14.92
   2  -4   6   10.07    0.61
   2  -4   6    7.44    0.43
  -2   4  -6    8.39    0.83
   3  -4   6   24.98    1.13
  -4  -4  -6    0.98    0.27
   4  -4   6    1.09    0.29
  -4   4  -6    0.97    0.28
   5  -4   6  104.45    3.39
  -5  -4  -6  108.00    3.31
  -5   4  -6  106.91    3.28
  -6  -4  -6    2.14    0.46
   6  -4   6    2.26    0.51
   6  -5  -6   91.65    3.05
  -6  -5   6   92.45    3.02
   6  -5  -6   92.66    3.18
  -6   5   6   94.56    3.20
   6   5  -6   88.84    2.98
   5  -5  -6    2.17    0.44
   5  -5  -6    0.09    0.17
  -5  -5   6    0.09    0.16
   5   5  -6    0.10    0.16
  -5   5   6    1.55    0.39
   4  -5  -6    0.85    0.24
   4  -5  -6    2.92    0.44
  -4  -5   6    0.74    0.21
  -4  -5   6    1.24    0.29
   4   5  -6    0.86    0.24
  -3  -5   6    5.17    0.43
   3  -5  -6    6.64    0.50
  -3  -5   6    5.42    0.44
   3  -5  -6    5.57    0.45
   3   5  -6    5.00    0.43
  -3   5   6    5.69    0.46
  -2  -5   6  413.38    9.69
  -2  -5   6  408.74    9.71
   2  -5  -6  409.77    9.64
   2  -5  -6  404.68    9.67
   2   5  -6  402.22    9.68
  -2   5   6  413.92    9.68
   1  -5  -6   31.85    1.05
   1  -5  -6   30.32    1.05
  -1  -5   6   31.40    1.49
  -1  -5   6   31.30    1.11
  -1  -5   6   31.22    1.16
  -1   5   6   31.91    1.49
   0  -5   6   88.19    2.52
   0  -5   6   88.80    2.45
   0  -5  -6   89.46    2.30
   0   5  -6   89.67    3.00
   0   5   6   86.16    2.94
   0   5   6   89.96    2.34
   0   5  -6   91.85    2.56
  -1  -5  -6   11.42    0.45
  -1  -5  -6   11.32    0.91
   1  -5   6    9.83    0.60
  -1   5  -6   11.56    0.88
  -1   5  -6   10.77    0.72
   2  -5   6  178.76    4.48
   2  -5   6  176.99    4.66
   3  -5   6    7.64    0.59
   4  -5   6  166.74    4.69
   5  -5   6    9.59    0.81
  -5  -5  -6    8.84    0.75
   6  -5   6    6.04    0.84
  -6  -5  -6    6.76    0.83
   6  -6  -6    5.56    0.73
  -6  -6   6    4.53    0.65
   6  -6  -6    4.19    0.64
  -6   6   6    4.25    0.65
   6   6  -6    4.31    0.59
   5  -6  -6   96.72    3.09
   5  -6  -6   98.92    3.17
  -5  -6   6   99.67    3.06
   5   6  -6   97.64    3.03
  -5   6   6   97.46    3.17
   4  -6  -6   48.90    1.82
  -4  -6   6   49.55    1.81
   4  -6  -6   53.32    1.90
  -4   6   6   52.09    1.90
   4   6  -6   54.15    1.84
   3  -6  -6  188.82    4.96
  -3  -6   6  199.93    5.01
   3  -6  -6  191.20    4.99
  -3  -6   6  192.37    4.95
   3   6  -6  188.47    4.98
  -3   6   6  195.30    5.02
  -2  -6   6   28.20    1.11
  -2  -6   6   28.12    1.09
   2  -6  -6   27.55    1.07
  -2  -6   6   27.21    1.43
   2  -6  -6   27.38    1.06
   2   6  -6   28.44    1.11
  -2   6   6   28.93    1.08
  -1  -6   6   15.67    0.75
   1  -6  -6   14.30    0.64
  -1  -6   6   14.75    0.72
  -1  -6   6   15.36    1.03
   1  -6  -6   15.22    0.67
  -1   6   6   14.50    0.64
   0  -6   6   99.21    3.36
   0  -6  -6  100.26    2.64
   0  -6   6  101.02    2.81
   0  -6   6  101.57    2.83
   0   6   6  106.52    2.62
   1  -6   6  255.29    6.32
  -1  -6  -6  258.67    6.01
   1  -6   6  242.18    6.26
  -1   6  -6  259.80    6.64
   2  -6   6   26.44    1.07
   2  -6   6   27.01    1.16
   3  -6   6    2.24    0.40
   4  -6   6   11.50    0.83
  -5  -6  -6  100.01    3.22
   5  -6   6   99.60    3.34
   5  -7  -6   22.28    1.21
  -5  -7   6   22.40    1.18
   5  -7  -6   22.54    1.24
  -5   7   6   23.27    1.27
   5   7  -6   20.93    1.15
   4  -7  -6   -0.20    0.10
  -4  -7   6    0.02    0.11
   4  -7  -6    0.22    0.16
  -4   7   6   -0.07    0.13
   4   7  -6    0.20    0.17
   3  -7  -6  123.20    3.47
  -3  -7   6  122.28    3.48
   3  -7  -6  123.68    3.48
   3   7  -6  127.70    3.51
  -3   7   6  123.26    3.47
   2  -7  -6   76.76    2.32
  -2  -7   6   79.04    2.39
  -2  -7   6   79.19    2.33
   2  -7  -6   80.80    2.31
  -2   7   6   78.05    2.30
  -1  -7   6  127.95    4.16
  -1  -7   6  127.89    3.53
   1  -7  -6  132.68    3.37
   1  -7  -6  132.37    3.43
  -1  -7   6  133.22    3.50
  -1   7   6  130.00    3.36
   0  -7   6   34.60    1.29
   0  -7   6   33.36    1.71
   0  -7  -6   34.14    1.14
   0  -7   6   34.79    1.27
   1  -7   6    1.97    0.34
   1  -7   6    1.79    0.30
  -1  -7  -6    2.10    0.25
   2  -7   6   64.65    2.06
   2  -7   6   62.93    2.10
   3  -7   6  150.70    4.24
   3  -7   6  149.86    4.80
   4  -7   6   60.30    2.27
   5  -7   6   37.73    1.80
   5  -8  -6    7.05    0.80
   5  -8  -6    5.35    0.69
  -5  -8   6    7.23    0.67
  -5   8   6    5.25    0.68
   5   8  -6    5.90    0.69
   4  -8  -6  136.78    3.93
  -4  -8   6  133.37    3.88
   4  -8  -6  140.00    3.93
  -4   8   6  133.01    3.91
   4   8  -6  129.54    3.86
   3  -8  -6   16.44    0.88
   3  -8  -6   15.92    0.88
  -3  -8   6   16.95    0.92
  -3   8   6   16.90    0.89
   2  -8  -6   60.12    1.94
   2  -8  -6   62.60    1.89
  -2  -8   6   61.54    2.01
  -2   8   6   53.62    1.83
  -1  -8   6   46.39    2.16
  -1  -8   6   44.90    1.54
  -1  -8   6   46.49    1.64
   1  -8  -6   46.21    1.54
   0  -8  -6  208.22    5.21
   0  -8   6  211.19    5.34
   0  -8   6  211.73    5.44
   1  -8   6   45.66    1.66
   1  -8   6   45.45    1.63
  -1  -8  -6   46.16    1.44
   2  -8   6   50.96    1.82
   2  -8   6   50.29    1.81
   3  -8   6    0.07    0.10
   3  -8   6    0.31    0.19
   4  -8   6   55.03    2.16
   5  -8   6    9.25    0.86
   5  -9  -6   23.05    1.30
   5  -9  -6   24.55    1.34
  -5  -9   6   22.96    1.27
  -5   9   6   22.01    1.28
   4  -9  -6    2.77    0.49
  -4  -9   6    2.48    0.44
   4  -9  -6    4.18    0.57
  -4   9   6    3.59    0.54
   3  -9  -6  106.23    3.17
  -3  -9   6  103.35    3.18
   3  -9  -6  106.90    3.11
  -3   9   6  104.57    3.11
  -2  -9   6    0.07    0.13
   2  -9  -6    0.01    0.12
   2  -9  -6    0.37    0.18
  -2   9   6   -0.06    0.10
  -1  -9   6  244.90    6.24
  -1  -9   6  237.31    7.05
  -1  -9   6  245.35    6.06
   1  -9  -6  244.66    6.10
   0  -9   6    3.96    0.39
   0  -9   6    3.79    0.48
   0  -9  -6    4.13    0.38
  -1  -9  -6    1.00    0.23
   1  -9   6    0.75    0.27
   2  -9   6    0.20    0.17
   2  -9   6    0.28    0.18
   3  -9   6  160.16    4.56
   3  -9   6  166.41    4.64
   4  -9   6    0.31    0.22
   5  -9   6   36.20    1.81
   4 -10  -6  102.58    3.36
  -4 -10   6  108.49    3.38
   4 -10  -6  103.54    3.28
  -4  10   6  108.09    3.34
   3 -10  -6    7.09    0.60
  -3 -10   6    6.27    0.61
   3 -10  -6    7.44    0.64
  -3  10   6    7.03    0.60
  -2 -10   6    2.69    0.45
   2 -10  -6    2.31    0.40
  -1 -10   6    5.05    0.58
   1 -10  -6    4.97    0.46
   0 -10   6  128.39    3.53
   0 -10  -6  126.28    3.49
   0 -10   6  128.72    3.73
   1 -10   6   58.89    1.99
   1 -10   6   58.05    2.11
   2 -10   6  100.35    3.18
   2 -10   6  102.38    3.11
   3 -10   6    5.49    0.69
   3 -10   6    5.49    0.58
   4 -10   6   18.22    1.16
   4 -11  -6    0.30    0.24
   4 -11  -6    0.44    0.28
  -4 -11   6    0.44    0.27
  -4  11   6   -0.11    0.17
   3 -11  -6   21.75    1.18
  -3 -11   6   21.42    1.18
   2 -11  -6   66.49    2.28
  -2 -11   6   66.69    2.35
  -1 -11   6  129.95    3.86
   1 -11  -6  131.48    3.70
   0 -11  -6   24.76    1.10
   0 -11   6   24.54    1.24
   1 -11   6   24.80    1.15
   1 -11   6   25.24    1.27
   2 -11   6   14.01    0.95
   2 -11   6   12.81    0.86
   3 -11   6   68.36    2.46
   3 -11   6   65.14    2.46
   4 -11   6   42.86    1.94
   3 -12  -6   70.89    2.56
  -3 -12   6   73.05    2.61
  -2 -12   6    0.12    0.16
   2 -12  -6    0.10    0.19
  -1 -12   6    5.39    0.67
   1 -12  -6    5.65    0.55
   0 -12  -6    2.35    0.39
   0 -12   6    4.31    0.60
   1 -12   6   97.43    3.16
   2 -12   6   15.54    1.05
   2 -12   6   15.21    0.95
   3 -12   6    2.90    0.53
   3 -12   6    2.60    0.52
  -3 -13   6    0.51    0.27
   3 -13  -6    0.37    0.24
  -2 -13   6   70.65    2.63
   2 -13  -6   75.01    2.59
   1 -13  -6    6.60    0.62
  -1 -13   6    7.58    0.86
   0 -13  -6   25.12    1.21
   0 -13   6   24.57    1.34
   1 -13   6    3.61    0.60
   2 -13   6   48.57    2.07
   2 -13   6   53.65    2.18
   2 -14  -6    4.32    0.63
  -2 -14   6    3.90    0.63
   1 -14  -6   22.63    1.23
  -1 -14   6   23.72    1.35
   0 -14  -6    0.70    0.25
   0 -14   6    1.45    0.43
   1 -14   6   84.19    2.99
  -6   0   7    0.32    0.23
   6   0  -7   -0.02    0.18
   6   0  -7    0.21    0.21
  -6   0   7    0.28    0.20
   5   0  -7   95.71    3.02
   5   0  -7   96.96    2.92
  -5   0   7   93.78    3.01
  -5   0   7   97.69    2.94
   4   0  -7   -0.02    0.10
   4   0  -7    0.21    0.15
  -4   0   7   -0.03    0.10
   3   0  -7   96.23    2.76
   3   0  -7   95.13    2.66
  -3   0   7   96.95    2.77
   2   0  -7   -0.05    0.08
  -2   0   7    0.14    0.09
  -2   0   7    0.46    0.17
  -1   0   7  535.81   12.83
  -1   0   7  544.07   12.29
   1   0  -7  536.99   12.29
  -1   0   7  529.66   12.50
   0   0   7    0.25    0.10
   0   0  -7    0.89    0.17
   0   0   7   -0.08    0.10
  -1   0  -7  323.56    8.07
   1   0   7  333.54    8.06
  -1   0  -7  331.06    7.66
   1   0   7  312.69    7.82
  -2   0  -7    0.01    0.14
  -2   0  -7    0.05    0.11
   2   0   7   -0.09    0.07
   3   0   7   30.87    1.20
  -3   0  -7   28.69    1.14
  -4   0  -7    0.06    0.14
   4   0   7    0.07    0.12
  -5   0  -7  131.90    3.83
  -6   0  -7    0.10    0.21
   6  -1  -7   54.26    2.07
   6  -1  -7   56.30    2.20
  -6  -1   7   54.86    2.09
  -6  -1   7   57.27    2.19
  -6   1   7   55.97    2.21
   6   1  -7   51.88    2.11
  -6   1   7   56.37    2.10
   6   1  -7   57.78    2.11
   5  -1  -7    6.91    0.58
   5  -1  -7    8.09    0.67
  -5  -1   7    8.20    0.66
  -5  -1   7    7.92    0.63
   5   1  -7    7.40    0.60
   5   1  -7    8.29    0.66
  -5   1   7    7.78    0.66
  -4  -1   7  102.29    3.05
   4  -1  -7  102.46    2.96
  -4  -1   7  103.31    2.98
   4  -1  -7  103.28    3.07
   4   1  -7  106.35    2.98
   4   1  -7  108.76    3.09
  -4   1   7  103.31    3.08
   3  -1  -7   26.61    1.10
   3  -1  -7   26.08    1.01
  -3  -1   7   25.53    1.07
  -3  -1   7   24.91    1.00
   3   1  -7   26.07    1.09
   3   1  -7   25.40    1.00
  -3   1   7   26.30    1.09
   2  -1  -7  293.66    6.97
  -2  -1   7  294.33    6.98
   2  -1  -7  293.88    7.11
  -2  -1   7  289.28    7.11
  -2   1   7  290.85    7.10
  -2   1   7  289.10    7.06
   2   1  -7  298.83    6.98
  -1  -1   7   12.98    0.54
  -1  -1   7   13.75    0.49
   1  -1  -7   12.90    0.53
  -1  -1   7   13.75    0.67
   1   1  -7   11.89    0.53
  -1   1   7   12.92    0.64
  -1   1   7   14.46    0.67
   0  -1   7   10.70    0.43
   0  -1  -7    9.92    0.64
   0  -1   7    9.99    0.55
   0  -1  -7   10.38    0.39
   0  -1  -7   12.91    0.48
   0  -1   7   10.86    0.60
   0   1   7   10.27    0.61
   0   1  -7   10.27    0.57
   0   1  -7   10.44    0.42
   0   1   7   10.27    0.57
   1  -1   7   18.58    0.82
   1  -1   7   16.27    0.85
  -1  -1  -7   16.92    0.68
  -1  -1  -7   17.59    0.94
   1   1   7   17.28    0.92
  -1   1  -7   16.87    0.70
  -1   1  -7   17.28    0.88
   1   1   7   16.99    0.77
  -2  -1  -7  442.81   10.58
  -2  -1  -7  472.41   11.67
   2  -1   7  437.56   10.72
  -2   1  -7  466.30   11.17
  -2   1  -7  441.44   10.59
   3  -1   7   54.20    1.81
  -3  -1  -7   51.87    1.72
  -3   1  -7   53.45    1.74
   3   1   7   53.15    1.72
  -4  -1  -7  145.07    4.08
   4  -1   7  151.12    4.15
   4   1   7  152.07    4.06
  -4   1  -7  152.22    4.11
  -5  -1  -7    0.47    0.24
   5  -1   7    1.07    0.32
  -5   1  -7    0.73    0.27
  -6  -1  -7   13.68    0.95
  -6   1  -7   13.52    0.95
  -6  -2   7   25.81    1.35
   6  -2  -7   26.02    1.31
  -6  -2   7   26.65    1.32
   6  -2  -7   27.53    1.43
  -6   2   7   28.30    1.45
   6   2  -7   26.08    1.35
   6   2  -7   23.24    1.24
  -5  -2   7  105.58    3.12
   5  -2  -7   99.41    3.19
   5  -2  -7  101.91    3.09
  -5  -2   7  104.96    3.18
  -5   2   7  104.50    3.24
   5   2  -7  103.55    3.08
   5   2  -7  101.35    3.16
   4  -2  -7   47.53    1.73
   4  -2  -7   45.97    1.63
  -4  -2   7   46.33    1.68
  -4  -2   7   47.30    1.64
   4   2  -7   46.38    1.62
   4   2  -7   46.71    1.70
  -4   2   7   45.67    1.71
   3  -2  -7  101.40    2.79
  -3  -2   7  101.77    2.88
  -3  -2   7   97.59    2.77
   3   2  -7  103.04    2.80
  -3   2   7   99.94    2.88
   2  -2  -7   22.57    0.86
  -2  -2   7   22.05    0.86
   2  -2  -7   23.61    0.94
  -2  -2   7   22.21    0.95
   2   2  -7   22.85    0.87
  -2   2   7   23.80    1.03
  -2   2   7   22.47    0.93
   1  -2  -7  137.33    3.34
  -1  -2   7  139.71    3.38
  -1  -2   7  137.95    3.58
   1   2  -7  130.65    3.35
  -1   2   7  132.72    3.48
   1   2  -7  133.82    3.23
  -1   2   7  133.93    3.66
   0  -2   7  428.39    9.97
   0  -2  -7  419.89   10.14
   0  -2   7  404.60    9.54
   0  -2  -7  421.83    9.46
   0  -2   7  389.87    9.82
   0  -2  -7  422.45    9.63
   0   2   7  391.88    9.72
   0   2   7  412.53   10.01
   0   2  -7  429.46   10.46
   0   2  -7  421.20    9.54
   1  -2   7  227.22    5.62
  -1  -2  -7  239.08    6.29
  -1  -2  -7  246.23    5.74
   1  -2   7  235.32    6.06
   1  -2   7  243.05    5.97
  -1   2  -7  251.50    6.11
   1   2   7  237.98    6.25
   1   2   7  233.34    5.86
  -2  -2  -7   52.71    1.67
   2  -2   7   53.31    1.79
   2   2   7   57.57    1.69
  -2   2  -7   54.57    1.71
  -2   2  -7   55.46    2.07
  -3  -2  -7    9.81    0.61
   3  -2   7   12.23    0.72
  -3   2  -7    9.70    0.61
   3   2   7   11.59    0.61
  -4  -2  -7   37.82    1.51
   4  -2   7   40.69    1.60
  -4   2  -7   39.66    1.51
   5  -2   7  100.78    3.22
  -5  -2  -7  104.18    3.17
  -5   2  -7   97.39    3.10
   6  -2   7   30.56    1.56
  -6  -2  -7   30.13    1.50
  -6   2  -7   29.10    1.47
  -6  -3   7   14.01    0.93
  -6  -3   7   14.51    1.42
   6  -3  -7   12.64    0.97
   6  -3  -7   13.44    0.92
   6   3  -7   12.73    0.89
  -6   3   7   14.12    1.01
   5  -3  -7    8.40    0.71
  -5  -3   7   10.00    0.71
   5  -3  -7    8.61    0.68
  -5  -3   7    9.60    0.71
   5   3  -7    9.30    0.68
  -5   3   7    9.66    0.75
   5   3  -7    9.68    0.72
  -4  -3   7   10.11    0.66
  -4  -3   7   10.36    0.68
   4  -3  -7   10.64    0.72
   4  -3  -7   10.61    0.67
   4   3  -7   10.65    0.66
  -4   3   7   11.37    0.74
   3  -3  -7  190.59    4.93
  -3  -3   7  191.34    4.85
   3  -3  -7  194.81    4.85
  -3  -3   7  195.01    4.94
   3   3  -7  186.60    4.83
  -3   3   7  185.06    4.92
  -2  -3   7  127.23    3.21
   2  -3  -7  121.19    3.27
   2  -3  -7  123.97    3.18
  -2  -3   7  119.82    3.30
  -2   3   7  123.15    3.53
  -2   3   7  118.10    3.25
   2   3  -7  120.58    3.18
   1  -3  -7  151.05    3.80
  -1  -3   7  148.80    3.71
   1  -3  -7  150.73    3.66
  -1  -3   7  146.29    3.88
   1   3  -7  148.60    3.72
  -1   3   7  145.93    3.77
  -1   3   7  145.23    4.09
   1   3  -7  148.92    3.48
   0  -3  -7    6.94    0.35
   0  -3   7    7.12    0.49
   0  -3  -7    6.95    0.32
   0  -3  -7    6.86    0.62
   0  -3   7    6.85    0.39
   0   3  -7    6.65    0.62
   0   3  -7    7.00    0.44
   0   3   7    6.59    0.57
   0   3   7    4.88    0.37
  -1  -3  -7  100.68    2.62
   1  -3   7   97.69    2.58
   1  -3   7   98.83    2.82
  -1  -3  -7   98.16    3.16
   1   3   7  100.09    2.71
  -1   3  -7  102.68    3.24
  -1   3  -7   95.35    2.90
   1   3   7  101.53    3.16
  -2  -3  -7  123.18    3.33
   2  -3   7  124.82    3.49
   2   3   7  130.54    3.27
   3  -3   7  231.38    5.94
  -3  -3  -7  232.46    5.80
  -3   3  -7  224.74    5.82
  -4  -3  -7   23.99    1.14
   4  -3   7   24.58    1.21
  -4   3  -7   24.40    1.14
  -5  -3  -7   -0.08    0.15
   5  -3   7    0.31    0.21
  -5   3  -7    0.20    0.20
   6  -3   7    3.56    0.63
  -6  -3  -7    4.00    0.62
  -6   3  -7    3.22    0.56
  -6  -4   7   55.77    2.10
   6  -4  -7   54.23    2.21
   6  -4  -7   49.51    2.04
   6   4  -7   51.91    2.04
  -6   4   7   53.26    2.20
  -5  -4   7    5.74    0.55
   5  -4  -7    5.53    0.58
   5  -4  -7    5.42    0.54
  -5  -4   7    6.00    0.57
  -5   4   7    6.08    0.60
   5   4  -7    6.51    0.58
  -4  -4   7  183.18    4.85
  -4  -4   7  184.36    4.81
   4  -4  -7  174.26    4.88
   4  -4  -7  180.72    4.81
   4   4  -7  190.44    4.83
  -4   4   7  179.29    4.90
   3  -4  -7   10.63    0.62
  -3  -4   7   10.26    0.62
  -3  -4   7   11.13    0.67
   3  -4  -7   11.88    0.69
   3   4  -7   10.83    0.64
  -3   4   7   11.11    0.67
  -2  -4   7   39.76    1.39
   2  -4  -7   39.77    1.35
   2  -4  -7   37.41    1.26
  -2  -4   7   37.89    1.30
  -2   4   7   39.14    1.34
   2   4  -7   37.69    1.30
  -2   4   7   36.40    1.59
  -1  -4   7    5.95    0.40
   1  -4  -7    5.31    0.38
   1  -4  -7    6.24    0.37
  -1  -4   7    6.18    0.45
  -1   4   7    6.13    0.41
  -1   4   7    6.24    0.58
   1   4  -7    5.33    0.38
   1   4  -7    6.23    0.34
   0  -4  -7  540.14   13.23
   0  -4  -7  547.98   12.30
   0  -4   7  553.31   12.70
   0   4   7  516.95   13.07
   0   4  -7  546.02   13.20
   0   4   7  523.86   12.47
   0   4  -7  542.00   12.58
   1  -4   7   10.30    0.53
   1  -4   7    8.73    0.58
  -1  -4  -7    9.77    0.80
  -1   4  -7    9.13    0.78
  -1   4  -7    8.99    0.65
   1   4   7    9.29    0.51
  -3  -4  -7    1.67    0.30
   3  -4   7    2.17    0.41
  -4  -4  -7   96.54    2.97
   4  -4   7   98.96    3.11
   5  -4   7    6.57    0.68
  -5  -4  -7    5.97    0.61
   6  -5  -7    3.29    0.61
   6  -5  -7    3.10    0.55
  -6  -5   7    3.80    0.59
  -6   5   7    3.45    0.64
   6   5  -7    2.70    0.49
   5  -5  -7   10.98    0.84
   5  -5  -7   11.32    0.81
  -5  -5   7   12.04    0.81
  -5   5   7   11.75    0.87
   5   5  -7   11.36    0.80
   4  -5  -7   15.51    0.89
   4  -5  -7   15.19    0.85
  -4  -5   7   13.59    0.81
  -4  -5   7   14.25    0.82
   4   5  -7   15.14    0.85
  -4   5   7   14.27    0.86
   3  -5  -7  114.96    3.15
  -3  -5   7  114.02    3.17
   3  -5  -7  113.12    3.20
  -3  -5   7  107.33    3.12
  -3   5   7  111.87    3.19
   3   5  -7  111.91    3.16
  -2  -5   7    0.36    0.15
  -2  -5   7    0.29    0.14
   2  -5  -7    0.32    0.15
   2  -5  -7    0.17    0.12
   2   5  -7    0.27    0.12
  -2   5   7    0.15    0.12
   1  -5  -7  198.64    4.83
  -1  -5   7  197.46    4.99
  -1  -5   7  193.51    4.87
   1  -5  -7  190.21    4.75
  -1   5   7  193.34    5.78
   0  -5   7    0.31    0.14
   0  -5  -7    0.55    0.13
   0  -5   7    0.18    0.13
   0   5  -7    0.25    0.14
   0   5  -7    0.40    0.25
   0   5   7    0.51    0.14
   1  -5   7  160.46    4.17
   1  -5   7  164.49    4.31
  -1   5  -7  161.99    4.47
   2  -5   7   16.90    0.89
   2  -5   7   16.24    0.74
   3  -5   7  314.62    7.95
  -4  -5  -7   12.00    0.80
   4  -5   7   11.24    0.83
  -5  -5  -7    1.69    0.42
   5  -5   7    0.55    0.28
   5  -6  -7   15.17    0.99
   5  -6  -7   14.42    0.94
   5   6  -7   14.65    0.92
  -5   6   7   14.69    0.99
  -4  -6   7  106.28    3.11
   4  -6  -7  103.62    3.10
   4  -6  -7  101.92    3.14
   4   6  -7  105.79    3.08
  -4   6   7   98.09    3.12
   3  -6  -7   22.60    1.03
   3  -6  -7   22.93    1.06
  -3  -6   7   23.21    1.05
  -3  -6   7   22.93    1.04
  -3   6   7   23.84    1.07
   3   6  -7   23.66    1.06
  -2  -6   7   71.19    2.22
   2  -6  -7   72.00    2.15
   2  -6  -7   72.25    2.18
  -2  -6   7   73.62    2.21
  -2   6   7   74.12    2.18
   1  -6  -7   67.03    1.91
  -1  -6   7   69.00    2.04
   1  -6  -7   65.38    1.91
  -1  -6   7   64.40    2.05
  -1   6   7   63.95    1.91
   0  -6   7  350.64    8.66
   0  -6  -7  354.01    8.38
   0  -6   7  356.90    8.60
   0   6  -7  370.43    8.75
   1  -6   7   63.79    2.05
  -1   6  -7   63.08    2.25
   2  -6   7   56.11    1.90
   2  -6   7   50.57    1.72
   3  -6   7    3.88    0.53
   4  -6   7   42.89    1.80
  -5  -6  -7   32.28    1.55
   5  -6   7   33.11    1.66
   5  -7  -7    0.13    0.17
  -5  -7   7    0.29    0.22
   5  -7  -7    0.47    0.25
  -5   7   7    0.32    0.25
   5   7  -7    0.57    0.25
   4  -7  -7   34.32    1.48
   4  -7  -7   35.66    1.52
  -4  -7   7   34.58    1.48
   4   7  -7   36.13    1.51
  -4   7   7   36.67    1.54
  -3  -7   7   76.63    2.56
   3  -7  -7   78.25    2.44
   3  -7  -7   78.80    2.45
  -3  -7   7   74.35    2.43
   3   7  -7   83.33    2.50
  -3   7   7   78.56    2.45
   2  -7  -7  177.76    4.65
   2  -7  -7  183.54    4.66
  -2  -7   7  179.60    4.74
  -2  -7   7  182.01    4.72
  -2   7   7  180.97    4.65
  -1  -7   7   62.19    2.60
  -1  -7   7   69.25    2.12
   1  -7  -7   67.51    1.95
   1  -7  -7   67.73    1.98
  -1  -7   7   65.07    2.09
  -1   7   7   68.28    1.96
   0  -7   7    9.55    0.61
   0  -7  -7    9.27    0.50
   0  -7   7    8.98    0.60
   1  -7   7   44.07    1.61
   1  -7   7   47.70    1.67
   2  -7   7  162.79    4.49
   2  -7   7  176.85    4.65
   3  -7   7   70.37    2.42
   4  -7   7   69.00    2.52
  -5  -7  -7    0.22    0.22
   5  -7   7    0.21    0.20
   5  -8  -7   86.27    3.00
   5  -8  -7   87.50    3.00
  -5  -8   7   91.51    2.99
   5   8  -7   92.31    2.99
  -5   8   7   86.99    3.02
   4  -8  -7   18.15    1.03
  -4  -8   7   16.91    0.99
   4  -8  -7   17.52    1.01
  -4   8   7   17.44    1.02
   4   8  -7   15.78    0.97
  -3  -8   7   34.07    1.43
   3  -8  -7   34.69    1.40
   3  -8  -7   35.22    1.43
  -3   8   7   33.32    1.38
  -2  -8   7    3.78    0.39
   2  -8  -7    3.45    0.43
   2  -8  -7    3.67    0.38
  -2  -8   7    4.05    0.51
  -2   8   7    2.82    0.38
  -1  -8   7  128.49    3.54
  -1  -8   7  128.90    4.33
   1  -8  -7  131.50    3.48
  -1  -8   7  130.35    3.62
   0  -8  -7   36.10    1.26
   0  -8   7   37.98    1.46
   0  -8   7   38.80    1.43
   1  -8   7  193.04    5.11
   1  -8   7  196.10    5.15
   2  -8   7    1.33    0.31
   2  -8   7    2.17    0.41
   3  -8   7    1.89    0.40
   4  -8   7   36.33    1.70
  -5  -8  -7   79.99    2.85
   5  -8   7   80.47    3.00
  -5  -9   7    0.09    0.21
   5  -9  -7    0.24    0.22
   5  -9  -7    0.31    0.24
  -5   9   7    0.18    0.24
  -4  -9   7   26.49    1.31
   4  -9  -7   25.59    1.28
   4  -9  -7   24.80    1.28
  -4   9   7   24.70    1.27
  -3  -9   7    2.69    0.45
   3  -9  -7    2.66    0.43
   3  -9  -7    2.74    0.43
  -3   9   7    2.51    0.41
   2  -9  -7  186.25    4.94
  -2  -9   7  188.01    5.05
  -1  -9   7   13.21    0.75
  -1  -9   7   12.86    0.80
   1  -9  -7   16.00    0.79
   0  -9  -7    0.71    0.20
   0  -9   7    0.68    0.22
   0  -9   7    0.82    0.24
   1  -9   7    1.46    0.34
   1  -9   7    1.17    0.30
   2  -9   7  231.71    6.08
   2  -9   7  230.37    6.09
   3  -9   7    0.91    0.30
   4  -9   7   58.39    2.33
   4 -10  -7   17.48    1.07
   4 -10  -7   20.18    1.17
  -4 -10   7   20.34    1.17
  -4  10   7   19.58    1.13
   3 -10  -7   18.00    1.02
   3 -10  -7   17.86    0.98
  -3 -10   7   17.78    1.05
  -3  10   7   18.30    0.99
  -2 -10   7    4.51    0.57
   2 -10  -7    4.12    0.50
  -1 -10   7   86.43    2.74
   1 -10  -7   84.13    2.58
   0 -10   7   16.27    0.87
   0 -10  -7   16.95    0.83
   0 -10   7   15.96    0.95
   1 -10   7  108.04    3.22
   1 -10   7  109.62    3.35
   2 -10   7   10.42    0.77
   2 -10   7   11.18    0.82
   3 -10   7   10.04    0.80
   4 -10   7    2.04    0.49
  -4 -11   7    7.29    0.83
   4 -11  -7    7.33    0.73
   4 -11  -7    7.79    0.72
  -4  11   7    7.67    0.72
  -3 -11   7   15.39    1.00
   3 -11  -7   16.35    1.01
   2 -11  -7  103.86    3.19
  -2 -11   7  106.52    3.31
  -1 -11   7   23.95    1.25
   1 -11  -7   24.76    1.15
   0 -11  -7    2.84    0.41
   0 -11   7    2.53    0.46
   1 -11   7   24.97    1.28
   1 -11   7   23.14    1.15
   2 -11   7   77.38    2.68
   2 -11   7   73.76    2.56
   3 -11   7   55.62    2.18
   3 -12  -7    0.25    0.20
  -3 -12   7    0.09    0.21
   2 -12  -7    7.34    0.66
  -2 -12   7    7.66    0.72
   1 -12  -7   28.52    1.30
  -1 -12   7   28.10    1.41
   0 -12   7  148.94    4.34
   0 -12  -7  143.63    4.04
   1 -12   7   31.25    1.49
   1 -12   7   28.52    1.34
   2 -12   7   25.50    1.39
   2 -12   7   26.96    1.34
   3 -12   7    2.55    0.50
   2 -13  -7    2.32    0.44
  -2 -13   7    3.13    0.58
   1 -13  -7   37.87    1.61
  -1 -13   7   38.46    1.76
   0 -13  -7    5.45    0.70
   0 -13   7    3.77    0.62
   1 -13   7   16.25    1.08
   2 -13   7    2.59    0.49
   2 -13   7    2.75    0.57
   1 -14  -7    4.15    0.58
  -1 -14   7    3.84    0.62
   0 -14   7  116.91    3.80
   1 -14   7    2.79    0.53
  -6   0   8  109.97    3.44
   6   0  -8  107.27    3.50
  -6   0   8  110.03    3.54
   6   0  -8  105.87    3.36
   5   0  -8    0.10    0.16
   5   0  -8    0.00    0.14
  -5   0   8   -0.02    0.14
  -5   0   8    0.14    0.15
   4   0  -8  187.60    4.90
  -4   0   8  186.16    5.02
  -4   0   8  189.73    4.93
   4   0  -8  188.76    5.05
  -3   0   8    0.02    0.10
   3   0  -8   -0.05    0.09
   3   0  -8   -0.01    0.09
  -3   0   8    0.78    0.23
   2   0  -8   76.50    2.16
  -2   0   8   78.64    2.33
  -2   0   8   79.44    2.19
  -1   0   8    0.59    0.19
   1   0  -8    1.16    0.19
   0   0  -8  389.18    9.45
   0   0  -8  401.93    9.12
   0   0   8  390.09    9.36
   0   0  -8  387.62    8.96
   0   0   8  380.11    9.34
   0   0   8  396.89    8.97
  -1   0  -8    0.10    0.14
  -1   0  -8    0.00    0.07
   1   0   8   -0.01    0.09
   1   0   8    0.37    0.18
   2   0   8    0.85    0.21
  -2   0  -8    1.07    0.21
  -3   0  -8    0.37    0.17
   3   0   8    0.12    0.13
   4   0   8  220.23    5.75
  -4   0  -8  219.52    5.71
  -5   0  -8    0.07    0.17
  -6   0  -8   17.26    1.10
   6  -1  -8    0.19    0.21
  -6  -1   8    0.43    0.28
  -6  -1   8    0.25    0.21
   6  -1  -8   -0.03    0.16
   6   1  -8    0.46    0.25
  -6   1   8    0.06    0.19
  -6   1   8    0.00    0.16
   6   1  -8    0.13    0.21
  -5  -1   8   36.00    1.58
   5  -1  -8   37.80    1.52
   5  -1  -8   38.31    1.64
  -5  -1   8   35.11    1.50
   5   1  -8   37.78    1.61
  -5   1   8   36.78    1.61
   5   1  -8   36.92    1.51
  -4  -1   8    4.44    0.43
   4  -1  -8    3.42    0.43
   4  -1  -8    4.76    0.49
  -4  -1   8    3.83    0.50
   4   1  -8    3.77    0.50
  -4   1   8    5.10    0.50
   4   1  -8    3.96    0.46
   3  -1  -8  311.09    7.62
   3  -1  -8  319.06    7.48
  -3  -1   8  297.67    7.58
  -3  -1   8  304.53    7.46
   3   1  -8  311.12    7.46
  -3   1   8  302.61    7.58
   2  -1  -8   67.50    1.96
  -2  -1   8   71.59    2.16
  -2  -1   8   67.32    1.98
   2   1  -8   68.29    1.97
  -2   1   8   71.93    2.13
  -1  -1   8   41.16    1.24
  -1  -1   8   41.19    1.19
  -1  -1   8   41.68    1.45
   1  -1  -8   41.63    1.23
   1   1  -8   40.39    1.24
   1   1  -8   40.62    1.31
  -1   1   8   41.27    1.41
  -1   1   8   41.10    1.40
   0  -1   8    0.23    0.14
   0  -1  -8    0.27    0.16
   0  -1  -8    0.46    0.12
   0  -1   8    0.20    0.12
   0  -1  -8    0.44    0.10
   0  -1   8    0.28    0.09
   0   1   8    0.11    0.11
   0   1   8    0.25    0.14
   0   1   8    0.32    0.09
   0   1  -8    0.60    0.12
  -1  -1  -8  345.95    8.28
  -1  -1  -8  358.99    8.85
   1  -1   8  343.30    8.54
   1  -1   8  340.66    8.66
  -1   1  -8  364.75    8.74
   1   1   8  342.70    8.50
  -1   1  -8  356.56    8.36
   1   1   8  364.43    8.82
   2  -1   8   26.84    1.14
  -2  -1  -8   27.48    1.05
  -2   1  -8   27.75    1.06
  -3  -1  -8  157.01    4.16
   3  -1   8  161.58    4.30
  -3   1  -8  151.16    4.13
  -4  -1  -8    0.36    0.19
   4  -1   8    0.47    0.22
  -4   1  -8    0.28    0.18
  -5  -1  -8   13.79    0.89
   5  -1   8   14.35    0.95
  -5   1  -8   12.47    0.85
  -6  -1  -8    6.05    0.73
  -6   1  -8    5.11    0.68
   6  -2  -8   36.05    1.73
  -6  -2   8   35.10    1.61
   6  -2  -8   35.04    1.60
  -6  -2   8   37.56    1.70
   6   2  -8   38.34    1.64
  -6   2   8   35.63    1.63
  -6   2   8   38.06    1.77
   6   2  -8   36.61    1.70
   5  -2  -8  102.47    3.10
   5  -2  -8   99.39    3.21
  -5  -2   8  103.10    3.19
  -5  -2   8  100.13    3.10
   5   2  -8   99.48    3.19
   5   2  -8  102.57    3.09
  -5   2   8  104.72    3.26
   4  -2  -8   22.53    1.05
  -4  -2   8   22.95    1.12
  -4  -2   8   25.33    1.10
   4  -2  -8   25.43    1.18
   4   2  -8   23.58    1.07
  -4   2   8   24.04    1.15
   3  -2  -8   26.18    1.04
  -3  -2   8   25.05    1.11
  -3  -2   8   24.97    1.03
   3  -2  -8   26.41    1.13
   3   2  -8   25.76    1.04
  -3   2   8   25.07    1.10
  -2  -2   8  113.77    3.24
  -2  -2   8  117.26    3.09
   2  -2  -8  120.26    3.24
   2  -2  -8  113.07    3.06
  -2   2   8  118.97    3.22
   2   2  -8  117.10    3.10
  -2   2   8  121.59    3.32
  -1  -2   8  181.27    4.83
   1  -2  -8  189.56    4.56
  -1  -2   8  185.85    4.60
   1   2  -8  187.13    4.54
  -1   2   8  191.34    4.79
  -1   2   8  191.30    4.94
   1   2  -8  194.42    4.62
   0  -2  -8  264.99    6.20
   0  -2   8  267.42    6.64
   0  -2  -8  274.66    6.95
   0  -2   8  267.52    6.51
   0  -2   8  271.87    6.31
   0  -2  -8  271.38    6.29
   0   2  -8  251.05    6.27
   0   2  -8  271.33    6.55
   0   2   8  265.32    6.80
   0   2   8  268.71    6.55
   1  -2   8   73.63    2.24
   1  -2   8   71.59    2.30
  -1  -2  -8   71.75    2.50
  -1  -2  -8   72.61    2.00
  -1   2  -8   68.58    2.30
   1   2   8   70.32    2.45
  -2  -2  -8    4.97    0.39
   2  -2   8    2.60    0.41
  -2   2  -8    3.31    0.34
   2   2   8    3.30    0.34
  -3  -2  -8   35.29    1.35
   3  -2   8   34.50    1.44
   3   2   8   36.31    1.73
  -3   2  -8   36.50    1.38
   4  -2   8  102.35    3.15
  -4  -2  -8  100.57    3.02
  -4   2  -8   97.66    3.01
   5  -2   8   87.61    2.98
  -5  -2  -8   87.48    2.89
  -5   2  -8   89.58    2.91
  -6  -3   8    2.50    0.50
  -6  -3   8    2.52    0.47
   6  -3  -8    2.35    0.48
   6  -3  -8    3.04    0.60
  -6   3   8    2.03    0.48
   6   3  -8    2.45    0.48
  -5  -3   8    5.04    0.63
  -5  -3   8    4.13    0.58
   5  -3  -8    3.90    0.57
   5  -3  -8    3.72    0.53
   5   3  -8    4.26    0.56
  -5   3   8    3.56    0.54
   4  -3  -8   60.45    2.01
  -4  -3   8   60.38    2.07
  -4  -3   8   57.84    1.99
   4  -3  -8   58.80    2.09
  -4   3   8   63.78    2.14
   4   3  -8   59.77    2.00
  -3  -3   8  113.36    3.32
   3  -3  -8  117.11    3.21
  -3  -3   8  115.63    3.22
   3  -3  -8  115.61    3.32
  -3   3   8  119.22    3.33
   3   3  -8  122.88    3.25
   2  -3  -8  353.32    8.27
  -2  -3   8  344.34    8.29
  -2  -3   8  343.44    8.45
   2  -3  -8  357.82    8.42
  -2   3   8  345.25    8.39
  -2   3   8  352.18    8.68
   2   3  -8  338.70    8.29
  -1  -3   8   15.89    0.69
   1  -3  -8   16.03    0.64
  -1  -3   8   16.19    0.81
   1   3  -8   16.81    0.70
  -1   3   8   16.54    0.76
  -1   3   8   15.98    0.91
   0  -3   8   11.78    0.69
   0  -3  -8   11.51    0.50
   0  -3  -8   13.06    0.89
   0  -3   8   11.74    0.55
   0  -3  -8   12.03    0.47
   0   3   8   11.15    0.78
   0   3  -8   12.15    0.89
   0   3  -8   12.34    0.64
   1  -3   8   84.11    2.55
  -1  -3  -8   84.10    2.30
  -1  -3  -8   85.96    2.91
   1  -3   8   82.65    2.27
   1   3   8   82.71    2.44
  -1   3  -8   87.77    2.66
   2  -3   8  266.60    6.81
  -2  -3  -8  270.81    6.60
   2   3   8  272.44    6.57
  -3  -3  -8   31.98    1.28
   3  -3   8   33.54    1.41
  -3   3  -8   31.42    1.31
  -4  -3  -8    2.79    0.44
   4  -3   8    2.49    0.47
  -4   3  -8    1.80    0.36
   5  -3   8    5.83    0.75
  -5  -3  -8    5.30    0.65
  -5   3  -8    6.30    0.65
   6  -4  -8    9.39    0.86
  -6  -4   8    8.95    0.78
   6  -4  -8    7.96    0.73
  -6   4   8    8.68    0.83
   6   4  -8    8.51    0.75
  -5  -4   8  114.78    3.40
   5  -4  -8  113.28    3.52
   5  -4  -8  111.89    3.39
  -5  -4   8  112.26    3.42
  -5   4   8  111.96    3.52
   5   4  -8  108.23    3.36
  -4  -4   8    6.47    0.57
  -4  -4   8    6.28    0.54
   4  -4  -8    6.26    0.54
   4  -4  -8    6.24    0.57
  -4   4   8    5.82    0.56
   4   4  -8    6.01    0.53
   3  -4  -8   25.21    1.11
  -3  -4   8   23.54    1.04
   3  -4  -8   23.95    1.03
  -3  -4   8   25.32    1.12
   3   4  -8   24.91    1.06
  -3   4   8   25.06    1.11
   2  -4  -8    0.24    0.14
  -2  -4   8    0.26    0.15
   2  -4  -8    0.17    0.12
  -2  -4   8    0.09    0.11
  -2   4   8    0.28    0.13
  -2   4   8    0.21    0.17
   2   4  -8    0.17    0.12
  -1  -4   8  439.62   10.56
   1  -4  -8  452.19   10.26
  -1  -4   8  453.56   10.37
  -1   4   8  436.82   10.41
   1   4  -8  432.21   10.34
  -1   4   8  433.50   10.89
   0  -4   8   11.19    0.69
   0  -4  -8   12.56    0.52
   0  -4  -8   11.93    0.92
   0  -4  -8   12.04    0.49
   0   4   8   12.74    1.03
   0   4   8   12.05    0.62
   0   4  -8   11.86    0.93
   0   4  -8   10.91    0.62
  -1  -4  -8  160.62    3.98
   1  -4   8  161.88    4.02
   1  -4   8  165.93    4.27
  -1   4  -8  153.80    4.35
   1   4   8  146.27    4.03
  -2  -4  -8    2.15    0.32
   2  -4   8    2.08    0.37
   3  -4   8   74.16    2.41
  -3  -4  -8   67.79    2.22
  -4  -4  -8   10.91    0.76
   4  -4   8   10.56    0.81
  -5  -4  -8   99.74    3.19
   5  -4   8   96.11    3.31
   5  -5  -8    3.10    0.51
  -5  -5   8    3.04    0.47
   5  -5  -8    4.34    0.58
   5   5  -8    2.74    0.47
  -5   5   8    3.29    0.54
  -4  -5   8  145.32    3.98
  -4  -5   8  142.48    3.98
   4  -5  -8  143.22    3.97
   4  -5  -8  139.60    4.04
   4   5  -8  139.82    3.96
  -4   5   8  138.43    4.03
   3  -5  -8   16.79    0.89
   3  -5  -8   16.86    0.85
  -3  -5   8   16.46    0.85
  -3  -5   8   17.89    0.92
  -3   5   8   15.67    0.86
   3   5  -8   18.45    0.91
   2  -5  -8  239.75    5.89
   2  -5  -8  235.98    5.80
  -2  -5   8  231.27    5.85
  -2  -5   8  230.24    5.96
  -2   5   8  235.96    5.88
   2   5  -8  233.54    5.86
   1  -5  -8    9.42    0.50
  -1  -5   8    9.81    0.57
  -1  -5   8    9.39    0.62
   0  -5  -8    8.88    0.43
   0  -5   8    9.65    0.63
   0  -5   8    8.98    0.53
   0   5   8    9.09    0.52
   1  -5   8   12.72    0.75
   1  -5   8   12.22    0.66
  -1   5  -8   12.31    0.81
   2  -5   8  181.18    4.89
  -3  -5  -8    4.38    0.53
   3  -5   8    3.18    0.49
   4  -5   8    6.94    0.67
  -4  -5  -8    6.10    0.59
  -5  -5  -8    0.31    0.22
   5  -5   8    0.20    0.23
   5  -6  -8   65.02    2.43
  -5  -6   8   67.83    2.36
   5  -6  -8   64.45    2.35
   5   6  -8   66.28    2.33
  -5   6   8   64.07    2.42
   4  -6  -8   33.36    1.43
  -4  -6   8   32.95    1.43
   4  -6  -8   35.14    1.50
  -4  -6   8   34.59    1.46
  -4   6   8   35.76    1.51
   4   6  -8   34.10    1.42
  -3  -6   8    2.88    0.42
   3  -6  -8    2.61    0.38
   3  -6  -8    3.29    0.46
  -3  -6   8    3.06    0.42
   3   6  -8    2.35    0.37
  -3   6   8    2.55    0.40
  -2  -6   8    5.82    0.48
  -2  -6   8    5.64    0.49
   2  -6  -8    6.04    0.48
   2  -6  -8    6.38    0.47
  -2   6   8    6.35    0.49
   2   6  -8    6.51    0.50
  -1  -6   8  292.17    7.25
   1  -6  -8  295.29    6.99
  -1  -6   8  290.86    7.15
   1  -6  -8  280.09    7.04
  -1   6   8  296.86    7.06
   0  -6   8   72.61    2.34
   0  -6   8   76.64    2.28
   0  -6  -8   78.06    2.08
   1  -6   8   96.18    2.77
   1  -6   8   99.00    2.90
  -1   6  -8   93.80    3.04
   2  -6   8   10.10    0.72
   3  -6   8  118.05    3.59
  -4  -6  -8   49.00    1.90
   4  -6   8   50.84    2.07
   5  -6   8   74.09    2.83
  -5  -6  -8   74.75    2.67
   5  -7  -8   12.68    0.94
  -5  -7   8   12.96    0.90
   5  -7  -8   12.89    0.91
  -5   7   8   12.57    0.93
   5   7  -8   11.86    0.88
  -4  -7   8   68.70    2.36
   4  -7  -8   67.02    2.34
   4  -7  -8   68.18    2.38
  -4   7   8   67.47    2.38
   4   7  -8   73.05    2.41
  -3  -7   8  139.33    3.88
   3  -7  -8  138.38    3.89
  -3  -7   8  138.05    3.89
   3  -7  -8  143.32    3.88
  -3   7   8  137.64    3.88
   3   7  -8  135.74    3.88
   2  -7  -8   47.79    1.63
   2  -7  -8   45.86    1.62
  -2  -7   8   48.15    1.71
  -2  -7   8   47.53    1.70
  -2   7   8   48.64    1.65
  -1  -7   8    5.49    0.48
   1  -7  -8    5.72    0.42
  -1  -7   8    5.55    0.49
   1  -7  -8    5.36    0.41
  -1   7   8    5.94    0.44
   0  -7   8   24.41    1.05
   0  -7   8   22.64    1.05
   0  -7  -8   21.29    0.85
   1  -7   8  147.92    4.10
   1  -7   8  149.35    4.05
   2  -7   8   87.34    2.78
   3  -7   8   50.97    2.00
   4  -7   8    4.86    0.71
  -4  -7  -8    3.60    0.54
   5  -7   8    0.29    0.25
  -5  -7  -8    0.51    0.28
   5  -8  -8    2.17    0.46
   5  -8  -8    3.28    0.55
  -5  -8   8    3.60    0.58
  -5   8   8    2.91    0.54
   5   8  -8    3.08    0.53
  -4  -8   8   33.48    1.51
   4  -8  -8   34.85    1.54
   4  -8  -8   33.24    1.50
  -4   8   8   33.07    1.52
   4   8  -8   36.70    1.57
  -3  -8   8    1.00    0.28
   3  -8  -8    0.73    0.25
   3  -8  -8   -0.08    0.12
  -3   8   8    0.31    0.18
  -2  -8   8   53.92    1.87
  -2  -8   8   53.66    1.90
   2  -8  -8   53.03    1.80
   2  -8  -8   52.83    1.79
  -1  -8   8   28.28    1.20
   1  -8  -8   27.95    1.10
  -1  -8   8   26.33    1.18
   0  -8  -8  211.48    5.28
   0  -8   8  211.34    5.54
   0  -8   8  217.40    5.56
   1  -8   8    8.74    0.65
   1  -8   8    8.00    0.62
   2  -8   8    1.69    0.35
   3  -8   8    4.83    0.64
   4  -8   8  112.11    3.65
  -4  -9   8    0.88    0.31
   4  -9  -8    0.53    0.24
   4  -9  -8    1.16    0.32
  -4   9   8    0.97    0.31
   3  -9  -8  210.60    5.58
   3  -9  -8  210.84    5.63
  -3  -9   8  206.28    5.68
  -3   9   8  216.91    5.61
  -2  -9   8    0.02    0.14
   2  -9  -8    0.07    0.14
  -1  -9   8   39.17    1.50
  -1  -9   8   40.02    1.58
   1  -9  -8   37.57    1.41
   0  -9  -8    1.69    0.32
   0  -9   8    1.95    0.37
   0  -9   8    2.12    0.40
   1  -9   8  137.58    3.90
   1  -9   8  132.75    3.86
   2  -9   8    1.39    0.34
   2  -9   8    0.13    0.17
   3  -9   8   83.82    2.87
   4  -9   8    5.35    0.77
   4 -10  -8   34.23    1.57
   4 -10  -8   33.49    1.59
  -4 -10   8   31.36    1.56
  -4  10   8   35.02    1.59
   3 -10  -8    2.90    0.47
  -3 -10   8    2.21    0.47
   2 -10  -8   56.78    1.98
  -2 -10   8   54.46    2.05
  -1 -10   8   27.13    1.30
   1 -10  -8   28.79    1.21
   0 -10   8  153.15    4.29
   0 -10   8  146.60    4.15
   1 -10   8   16.17    0.96
   1 -10   8   17.83    1.03
   2 -10   8    1.11    0.32
   2 -10   8    0.42    0.23
   3 -10   8    1.97    0.47
   4 -10   8   46.33    2.09
   4 -11  -8   27.73    1.45
  -4 -11   8   27.71    1.48
   3 -11  -8   45.03    1.85
  -3 -11   8   46.77    1.93
  -2 -11   8   67.43    2.41
   2 -11  -8   65.10    2.27
   1 -11  -8    6.00    0.54
  -1 -11   8    5.91    0.71
   0 -11   8    0.08    0.18
   0 -11   8    0.15    0.16
   1 -11   8   55.48    2.06
   1 -11   8   57.79    2.18
   2 -11   8   30.83    1.48
   2 -11   8   31.51    1.52
   3 -11   8   48.36    2.05
   3 -12  -8    0.76    0.31
  -3 -12   8    0.18    0.22
   2 -12  -8   20.73    1.14
  -2 -12   8   21.43    1.23
   1 -12  -8   97.10    2.96
  -1 -12   8   92.48    3.12
   0 -12   8   22.85    1.27
   1 -12   8   49.38    2.00
   1 -12   8   46.50    1.85
   2 -12   8    8.45    0.75
   2 -12   8    7.97    0.78
   3 -12   8   22.55    1.32
   2 -13  -8   56.55    2.19
  -2 -13   8   59.42    2.35
  -1 -13   8    1.70    0.44
   1 -13  -8    1.67    0.38
   0 -13   8   11.14    0.90
   1 -13   8    1.53    0.39
   2 -13   8   72.22    2.66
   2 -13   8   78.63    2.85
   0 -14   8    5.15    0.74
   6   0  -9    0.30    0.21
   6   0  -9    0.08    0.22
  -6   0   9    0.20    0.23
  -6   0   9    0.22    0.21
  -5   0   9   39.14    1.60
   5   0  -9   35.98    1.54
  -5   0   9   39.25    1.69
   5   0  -9   38.78    1.68
  -4   0   9    0.12    0.15
   4   0  -9    0.08    0.15
   4   0  -9    0.14    0.16
  -4   0   9    0.41    0.20
  -3   0   9   17.24    0.91
  -3   0   9   16.11    0.79
   3   0  -9   16.90    0.80
  -2   0   9    0.13    0.10
   2   0  -9    0.29    0.13
  -2   0   9    0.05    0.10
  -1   0   9  367.90    9.14
  -1   0   9  399.87    9.38
   1   0  -9  368.73    8.83
   0   0  -9    0.22    0.09
   0   0   9    0.16    0.12
   0   0   9    0.02    0.06
   0   0  -9    0.60    0.21
   0   0   9    0.10    0.11
  -1   0  -9   72.73    2.50
  -1   0  -9   74.73    2.12
   1   0   9   72.94    2.46
   1   0   9   75.45    2.33
  -2   0  -9    0.03    0.11
   2   0   9   -0.07    0.09
   3   0   9  235.73    6.10
  -3   0  -9  235.73    5.98
  -4   0  -9    0.95    0.26
   4   0   9    0.11    0.15
  -5   0  -9   41.64    1.74
   6  -1  -9    0.72    0.30
   6  -1  -9    1.11    0.36
  -6  -1   9    1.25    0.35
  -6  -1   9    0.89    0.32
   6   1  -9    1.27    0.39
   6   1  -9    0.77    0.31
  -6   1   9    0.67    0.30
  -6   1   9    1.29    0.37
   5  -1  -9   13.37    0.85
   5  -1  -9   14.62    0.95
  -5  -1   9   11.64    0.86
  -5  -1   9   13.23    0.86
  -5   1   9   13.58    0.87
   5   1  -9   13.55    0.86
   5   1  -9   13.53    0.93
  -5   1   9   14.36    0.95
   4  -1  -9  244.07    6.35
   4  -1  -9  246.43    6.18
  -4  -1   9  238.80    6.18
  -4  -1   9  244.89    6.33
   4   1  -9  238.47    6.16
  -4   1   9  241.43    6.33
   3  -1  -9   53.56    1.76
  -3  -1   9   59.70    1.95
  -3  -1   9   54.45    1.78
   3   1  -9   53.89    1.76
  -3   1   9   53.01    1.88
  -2  -1   9   40.04    1.47
   2  -1  -9   38.74    1.28
  -2  -1   9   39.84    1.31
  -2   1   9   37.46    1.42
   2   1  -9   37.97    1.29
  -1  -1   9    0.06    0.11
  -1  -1   9   -0.01    0.04
   1  -1  -9   -0.06    0.07
  -1   1   9   -0.08    0.07
  -1   1   9    0.10    0.11
   1   1  -9    0.43    0.13
   0  -1   9  338.04    7.76
   0  -1  -9  351.39    7.71
   0  -1  -9  346.53    7.85
   0  -1  -9  338.12    8.39
   0  -1   9  325.59    8.17
   0  -1   9  330.80    8.08
   0   1   9  326.55    8.12
   0   1  -9  316.95    7.73
   0   1  -9  330.06    8.17
   0   1   9  340.74    7.71
   0   1   9  322.06    8.21
   1  -1   9   52.26    1.81
  -1  -1  -9   53.05    1.58
   1  -1   9   49.59    1.87
  -1  -1  -9   52.27    2.01
  -1   1  -9   49.47    1.62
  -1   1  -9   52.58    1.94
   1   1   9   53.62    1.80
   2  -1   9  194.58    5.22
  -2  -1  -9  197.58    5.01
   2   1   9  197.46    5.16
  -2   1  -9  204.57    5.07
  -3  -1  -9   11.66    0.70
   3  -1   9   12.64    0.81
  -3   1  -9   12.87    0.74
  -4  -1  -9    1.75    0.36
   4  -1   9    1.61    0.38
  -4   1  -9    1.69    0.33
  -5  -1  -9   10.35    0.79
   5  -1   9   10.31    0.83
  -5   1  -9    8.59    0.74
   6  -2  -9   37.51    1.68
  -6  -2   9   37.99    1.71
   6  -2  -9   37.41    1.80
  -6  -2   9   37.00    1.75
  -6   2   9   39.00    1.83
  -6   2   9   38.70    1.72
   6   2  -9   40.03    1.71
   5  -2  -9   89.95    2.86
  -5  -2   9   93.05    2.89
   5  -2  -9   85.38    2.95
  -5  -2   9   89.18    2.96
   5   2  -9   91.68    2.87
  -5   2   9   90.71    3.00
   4  -2  -9    2.43    0.40
  -4  -2   9    1.93    0.39
   4  -2  -9    1.76    0.37
  -4  -2   9    1.34    0.29
  -4   2   9    1.33    0.32
   4   2  -9    1.80    0.32
  -3  -2   9    4.79    0.46
  -3  -2   9    3.18    0.39
   3  -2  -9    3.92    0.50
   3  -2  -9    2.74    0.36
  -3   2   9    3.53    0.47
   3   2  -9    3.22    0.39
  -2  -2   9  109.86    2.96
  -2  -2   9  109.64    3.16
   2  -2  -9  111.18    2.93
   2   2  -9  108.74    2.95
  -2   2   9  109.81    3.11
  -1  -2   9  178.99    4.61
   1  -2  -9  175.45    4.26
  -1  -2   9  174.95    4.31
  -1   2   9  171.51    4.62
   1   2  -9  170.94    4.30
  -1   2   9  170.63    4.50
   0  -2   9   86.56    2.53
   0  -2  -9   92.36    2.94
   0  -2   9   87.62    2.66
   0  -2  -9   88.78    2.32
   0  -2   9   87.85    2.32
   0   2   9   88.25    2.58
   0   2   9   87.05    2.77
   0   2  -9   88.50    2.58
   0   2  -9   88.22    2.30
   1  -2   9    0.49    0.19
  -1  -2  -9    0.61    0.16
  -1   2  -9    0.50    0.20
   2  -2   9   63.25    2.14
  -2  -2  -9   62.24    1.94
   2   2   9   65.06    2.05
  -2   2  -9   64.98    2.04
   3  -2   9  165.40    4.61
  -3  -2  -9  168.88    4.43
  -3   2  -9  163.27    4.45
   4  -2   9   81.76    2.72
  -4  -2  -9   77.58    2.55
  -4   2  -9   78.38    2.58
   5  -2   9   43.55    1.93
  -5  -2  -9   45.52    1.85
  -5   2  -9   44.87    1.86
   6  -3  -9    3.46    0.62
  -6  -3   9    1.58    0.42
   6  -3  -9    1.81    0.41
  -6  -3   9    1.85    0.44
   6   3  -9    2.44    0.49
  -6   3   9    2.21    0.52
  -5  -3   9   29.49    1.42
   5  -3  -9   30.16    1.38
  -5  -3   9   30.28    1.39
   5  -3  -9   29.44    1.47
   5   3  -9   30.59    1.38
  -5   3   9   30.97    1.49
  -4  -3   9   23.06    1.09
  -4  -3   9   22.15    1.14
   4  -3  -9   22.76    1.07
   4  -3  -9   24.53    1.19
   4   3  -9   22.19    1.07
  -4   3   9   24.64    1.20
  -3  -3   9  167.75    4.31
   3  -3  -9  161.03    4.27
  -3  -3   9  164.83    4.45
   3  -3  -9  154.11    4.38
   3   3  -9  165.29    4.31
  -3   3   9  165.70    4.42
   2  -3  -9   15.89    0.82
   2  -3  -9   15.64    0.72
  -2  -3   9   15.78    0.85
  -2  -3   9   14.99    0.73
  -2   3   9   14.48    0.78
   2   3  -9   13.70    0.71
   1  -3  -9    1.26    0.20
  -1  -3   9    1.42    0.23
  -1  -3   9    1.98    0.33
  -1   3   9    1.16    0.25
   1   3  -9    0.73    0.17
  -1   3   9    2.13    0.40
   0  -3  -9   56.30    1.58
   0  -3   9   56.46    1.65
   0  -3  -9   57.91    2.24
   0  -3   9   55.83    1.91
   0   3  -9   54.41    2.02
   0   3   9   54.78    2.07
   0   3   9   56.01    1.81
   1  -3   9  165.87    4.43
  -1  -3  -9  166.36    4.12
   1   3   9  160.56    4.30
  -1   3  -9  157.91    4.48
   2  -3   9   97.93    3.01
  -2  -3  -9  100.75    2.80
   3  -3   9   65.79    2.27
  -3  -3  -9   61.16    2.06
  -3   3  -9   62.41    2.12
   4  -3   9    5.51    0.71
  -4  -3  -9    3.88    0.52
  -4   3  -9    6.09    0.70
   5  -3   9   51.89    2.15
  -5  -3  -9   48.28    1.97
  -5   3  -9   48.30    2.00
  -5  -4   9    5.36    0.68
   5  -4  -9    4.01    0.59
   5  -4  -9    4.56    0.60
  -5  -4   9    5.10    0.62
  -5   4   9    5.22    0.69
   5   4  -9    6.32    0.60
   4  -4  -9   10.17    0.69
  -4  -4   9    8.63    0.64
  -4  -4   9    8.52    0.68
   4  -4  -9    9.02    0.70
  -4   4   9    8.83    0.70
   4   4  -9    8.82    0.65
  -3  -4   9   24.00    1.11
  -3  -4   9   22.88    1.03
   3  -4  -9   21.49    1.05
   3  -4  -9   22.09    1.00
   3   4  -9   21.63    1.01
  -3   4   9   23.68    1.10
   2  -4  -9  211.91    5.44
   2  -4  -9  218.97    5.60
  -2  -4   9  219.15    5.69
  -2  -4   9  229.91    5.54
  -2   4   9  217.51    5.59
   2   4  -9  222.37    5.53
  -1  -4   9   21.36    1.02
   1  -4  -9   20.17    0.79
  -1  -4   9   21.22    0.87
  -1   4   9   19.20    1.14
  -1   4   9   21.22    0.93
   1   4  -9   20.75    0.86
   0  -4   9  178.16    4.73
   0  -4  -9  173.99    4.30
   0  -4  -9  185.76    5.75
   0  -4   9  175.10    4.43
   0   4   9  167.18    4.51
   1  -4   9    1.51    0.31
  -1  -4  -9    1.65    0.26
   1   4   9    2.11    0.33
  -1   4  -9    1.51    0.34
   2  -4   9  176.44    4.75
  -2  -4  -9  168.94    4.46
   3  -4   9    1.65    0.35
  -4  -4  -9  200.13    5.40
   4  -4   9  200.19    5.61
  -5  -4  -9    2.98    0.52
   5  -4   9    3.17    0.60
  -5  -5   9   58.40    2.61
  -5  -5   9   55.66    2.11
   5  -5  -9   56.30    2.12
   5  -5  -9   56.02    2.21
  -5   5   9   55.19    2.21
   5   5  -9   59.66    2.16
  -4  -5   9   11.21    0.78
  -4  -5   9   10.98    0.75
   4  -5  -9   10.01    0.72
   4  -5  -9   10.93    0.78
  -4   5   9   11.14    0.80
   4   5  -9   10.60    0.73
   3  -5  -9  234.56    6.11
   3  -5  -9  236.35    6.00
  -3  -5   9  235.63    6.14
  -3  -5   9  236.58    6.04
  -3   5   9  235.78    6.10
   3   5  -9  240.85    6.07
  -2  -5   9    0.38    0.18
   2  -5  -9    0.34    0.16
  -2  -5   9    0.15    0.13
   2  -5  -9    0.05    0.12
  -2   5   9    0.62    0.21
   2   5  -9    0.72    0.20
  -1  -5   9    3.27    0.46
   1  -5  -9    3.62    0.32
  -1  -5   9    4.29    0.39
  -1   5   9    4.62    0.40
   0  -5   9   15.91    0.88
   0   5   9   16.99    0.79
   1  -5   9  281.01    7.03
  -1  -5  -9  278.15    6.70
   1  -5   9  275.20    6.89
  -1   5  -9  269.84    7.14
  -2  -5  -9    3.49    0.43
   2  -5   9    3.95    0.53
   3  -5   9   60.67    2.25
  -3  -5  -9   62.15    2.09
   4  -5   9    6.01    0.79
  -4  -5  -9    5.18    0.64
   5  -5   9   56.06    2.38
  -5  -5  -9   58.19    2.25
   5  -6  -9   10.57    0.86
  -5  -6   9   10.38    0.81
   5  -6  -9    8.70    0.74
   5   6  -9    8.53    0.73
  -5   6   9   11.26    0.88
  -4  -6   9    2.07    0.41
   4  -6  -9    2.14    0.41
  -4  -6   9    1.73    0.37
   4  -6  -9    2.25    0.42
   4   6  -9    2.37    0.43
  -4   6   9    2.06    0.41
  -3  -6   9    3.20    0.45
  -3  -6   9    3.67    0.51
   3  -6  -9    3.13    0.42
   3  -6  -9    3.00    0.45
  -3   6   9    3.32    0.47
   3   6  -9    3.00    0.43
  -2  -6   9  132.30    3.72
   2  -6  -9  134.86    3.54
   2  -6  -9  126.99    3.59
  -2  -6   9  130.59    3.61
   2   6  -9  123.71    3.57
  -2   6   9  136.22    3.62
   1  -6  -9   65.19    1.91
  -1  -6   9   64.98    2.05
  -1  -6   9   62.16    2.13
  -1   6   9   64.86    1.99
   0  -6   9   94.15    2.88
   0  -6   9   97.34    2.77
   1  -6   9   15.26    0.88
   1  -6   9   14.42    0.78
  -2  -6  -9   45.19    1.62
   2  -6   9   47.78    1.84
  -3  -6  -9   26.80    1.23
   3  -6   9   27.74    1.37
  -4  -6  -9  101.36    3.20
   4  -6   9  101.66    3.41
   5  -6   9   15.66    1.17
  -5  -6  -9   17.02    1.11
   5  -7  -9   18.57    1.15
  -5  -7   9   15.58    1.04
   5  -7  -9   16.03    1.05
   5   7  -9   17.94    1.10
  -5   7   9   17.91    1.14
   4  -7  -9   84.97    2.81
  -4  -7   9   84.77    2.77
   4  -7  -9   83.86    2.75
   4   7  -9   86.13    2.80
  -4   7   9   82.74    2.79
   3  -7  -9   54.17    1.96
  -3  -7   9   55.82    1.99
   3  -7  -9   53.11    1.90
  -3  -7   9   56.95    1.99
  -3   7   9   54.29    1.96
   3   7  -9   56.63    1.98
  -2  -7   9   36.48    1.44
   2  -7  -9   35.93    1.38
   2  -7  -9   36.03    1.35
  -2  -7   9   35.75    1.47
  -2   7   9   35.77    1.38
   1  -7  -9    2.23    0.31
  -1  -7   9    1.94    0.35
  -1  -7   9    2.01    0.38
   0  -7   9  106.34    3.05
   0  -7   9  104.05    3.13
   1  -7   9   54.32    1.87
   2  -7   9  133.95    3.95
  -3  -7  -9    2.79    0.44
   3  -7   9    2.36    0.46
   4  -7   9    7.62    0.76
  -4  -7  -9    6.80    0.66
   5  -8  -9   78.72    2.84
  -5  -8   9   80.39    2.81
   5  -8  -9   77.87    2.79
   5   8  -9   76.64    2.75
  -5   8   9   78.98    2.86
   4  -8  -9    2.31    0.42
  -4  -8   9    3.21    0.53
   4  -8  -9    2.94    0.52
  -4   8   9    2.84    0.50
   4   8  -9    3.05    0.50
  -3  -8   9   12.16    0.82
   3  -8  -9   13.10    0.82
   3  -8  -9   12.73    0.81
  -3   8   9   11.65    0.79
  -2  -8   9   22.49    1.12
  -2  -8   9   22.86    1.12
   2  -8  -9   22.22    1.04
   2  -8  -9   23.28    1.06
  -1  -8   9  153.96    4.30
  -1  -8   9  153.52    4.27
   1  -8  -9  160.87    4.11
   0  -8   9    6.38    0.55
   0  -8   9    5.97    0.53
   1  -8   9    3.77    0.54
   1  -8   9    3.30    0.51
   2  -8   9    7.57    0.67
   3  -8   9   80.77    2.84
  -4  -8  -9   25.61    1.35
   4  -8   9   29.07    1.55
   4  -9  -9   64.82    2.42
   4  -9  -9   66.25    2.44
  -4  -9   9   72.37    2.54
  -4   9   9   70.57    2.49
  -3  -9   9    0.35    0.23
   3  -9  -9    0.70    0.27
   3  -9  -9    0.44    0.22
  -3   9   9    0.73    0.28
   2  -9  -9   25.66    1.15
  -2  -9   9   23.50    1.20
  -2  -9   9   26.71    1.65
  -1  -9   9    1.65    0.35
  -1  -9   9    2.31    0.40
   1  -9  -9    2.74    0.39
   0  -9   9  108.59    3.24
   0  -9   9  103.89    3.19
   1  -9   9    5.40    0.55
   1  -9   9    5.69    0.66
   2  -9   9  161.83    4.65
   3  -9   9    3.37    0.58
   4  -9   9    2.14    0.51
  -4 -10   9    0.90    0.35
   4 -10  -9    1.23    0.38
   4 -10  -9    0.56    0.27
  -4  10   9    0.48    0.27
  -3 -10   9   15.88    1.02
   3 -10  -9   15.75    0.97
  -2 -10   9   14.70    0.95
   2 -10  -9   15.83    0.90
  -1 -10   9  139.21    4.05
   1 -10  -9  139.67    3.84
  -1 -10   9  138.25    3.95
   0 -10   9   16.55    0.99
   0 -10   9   15.19    0.91
   1 -10   9    0.93    0.31
   1 -10   9    1.22    0.32
   2 -10   9   11.99    0.87
   3 -10   9   88.81    3.09
   3 -11  -9   37.28    1.65
  -3 -11   9   37.08    1.71
  -2 -11   9   15.00    0.99
   2 -11  -9   13.97    0.89
  -1 -11   9    0.22    0.21
   1 -11  -9    0.26    0.18
   0 -11   9   44.31    1.76
   0 -11   9   45.95    1.88
   1 -11   9   43.32    1.78
   1 -11   9   44.33    1.86
   2 -11   9   41.57    1.82
   3 -11   9   22.78    1.35
  -3 -12   9    3.73    0.61
   3 -12  -9    4.83    0.66
  -2 -12   9   44.39    1.91
   2 -12  -9   42.38    1.76
   1 -12  -9   23.66    1.18
  -1 -12   9   24.96    1.35
   0 -12   9   33.75    1.61
   1 -12   9    0.90    0.34
   1 -12   9    0.89    0.30
   2 -12   9   13.85    0.99
   2 -13  -9    0.10    0.19
  -2 -13   9    0.08    0.23
  -1 -13   9    0.81    0.34
   0 -13   9    2.10    0.48
   1 -13   9   80.48    2.89
  -5   0  10   -0.07    0.14
   5   0 -10    0.01    0.16
  -5   0  10   -0.02    0.18
   5   0 -10    0.30    0.21
   4   0 -10   10.06    0.68
  -4   0  10    9.53    0.68
  -4   0  10    9.80    0.74
  -3   0  10    0.08    0.11
   3   0 -10    0.19    0.13
  -3   0  10    0.04    0.10
   2   0 -10  370.29    8.72
  -2   0  10  364.59    8.98
  -2   0  10  363.77    8.71
  -1   0  10   -0.04    0.09
  -1   0  10    0.24    0.11
   1   0 -10    0.02    0.08
   0   0 -10   30.35    1.34
   0   0  10   28.11    1.23
   0   0  10   29.48    1.23
  -1   0 -10    0.04    0.15
   1   0  10    1.37    0.31
  -1   0 -10    0.13    0.13
  -2   0 -10  128.82    3.45
   2   0  10  123.70    3.64
   3   0  10    0.34    0.20
  -3   0 -10    0.17    0.16
  -4   0 -10  136.88    3.94
   4   0  10  137.49    4.03
  -5   0 -10    0.20    0.20
  -5  -1  10   66.74    2.46
  -5  -1  10   66.93    2.35
   5  -1 -10   66.45    2.32
   5  -1 -10   64.96    2.46
  -5   1  10   66.62    2.47
  -5   1  10   71.20    2.38
   5   1 -10   67.59    2.34
  -4  -1  10    5.53    0.67
   4  -1 -10    5.84    0.59
  -4  -1  10    5.36    0.50
   4  -1 -10    4.76    0.48
  -4   1  10    6.46    0.60
   4   1 -10    5.99    0.52
  -4   1  10    6.36    0.56
  -3  -1  10   53.19    1.77
  -3  -1  10   53.34    1.93
   3  -1 -10   53.41    1.76
  -3   1  10   54.98    1.94
   3   1 -10   52.75    1.76
  -2  -1  10    1.08    0.23
  -2  -1  10    0.22    0.15
   2  -1 -10    0.18    0.12
  -2   1  10    0.46    0.19
  -1  -1  10  104.71    2.98
   1  -1 -10  118.76    2.99
  -1  -1  10  119.60    3.36
  -1   1  10  114.96    2.98
   1   1 -10  122.54    3.04
  -1   1  10  117.25    3.31
   0  -1 -10   15.39    0.96
   0  -1 -10   15.95    0.69
   0  -1  10   17.62    1.28
   0  -1  10   14.34    0.84
   0   1  10   16.03    0.90
   0   1  10   16.34    0.86
  -1  -1 -10  404.59    9.53
   1  -1  10  402.40    9.88
  -1   1 -10  404.94   10.07
  -1   1 -10  409.70    9.63
   1   1  10  396.54    9.84
  -2  -1 -10   54.16    1.76
   2  -1  10   51.41    1.94
   2   1  10   55.52    1.93
  -2   1 -10   55.04    1.81
   3  -1  10    0.52    0.23
  -3  -1 -10    0.45    0.20
  -3   1 -10    0.37    0.18
  -4  -1 -10    5.39    0.54
   4  -1  10    4.74    0.66
  -4   1 -10    3.97    0.54
  -5  -1 -10   89.35    2.98
  -5   1 -10   90.17    3.02
   5  -2 -10   16.92    0.99
   5  -2 -10   18.78    1.14
  -5  -2  10   17.82    1.03
  -5  -2  10   17.19    1.07
   5   2 -10   17.49    1.01
  -5   2  10   17.64    1.10
   4  -2 -10   11.27    0.80
  -4  -2  10   11.13    0.80
   4  -2 -10    9.86    0.69
  -4  -2  10   10.47    0.71
  -4   2  10   10.39    0.77
   4   2 -10   10.56    0.71
   3  -2 -10   67.59    2.12
  -3  -2  10   67.12    2.30
   3  -2 -10   68.43    2.31
  -3  -2  10   69.15    2.15
  -3   2  10   70.18    2.29
   3   2 -10   68.75    2.14
   2  -2 -10  250.90    6.07
  -2  -2  10  248.13    6.10
  -2  -2  10  244.76    6.35
   2   2 -10  248.75    6.10
  -2   2  10  245.02    6.29
  -1  -2  10  152.85    4.14
   1  -2 -10  148.94    3.74
   1   2 -10  149.17    3.81
  -1   2  10  147.00    4.03
   0  -2 -10   84.95    2.26
   0  -2  10   80.49    2.59
   0  -2 -10   84.89    2.89
   0  -2  10   82.49    2.25
   0   2 -10   85.30    2.24
   0   2  10   83.92    2.72
   0   2  10   80.83    2.52
   1  -2  10   63.32    2.14
  -1  -2 -10   61.66    1.85
  -1   2 -10   63.67    2.24
   1   2  10   59.28    2.06
  -2  -2 -10   35.05    1.31
   2  -2  10   37.93    1.54
   2   2  10   34.80    1.40
  -2   2 -10   34.12    1.36
   3  -2  10   71.49    2.47
  -3  -2 -10   68.62    2.26
  -3   2 -10   71.37    2.33
   4  -2  10   49.36    1.98
  -4  -2 -10   47.43    1.82
  -4   2 -10   44.41    1.81
   5  -2  10    8.91    0.83
  -5  -2 -10    8.22    0.74
  -5   2 -10    8.79    0.78
  -5  -3  10   31.38    1.43
  -5  -3  10   30.32    1.49
   5  -3 -10   29.55    1.49
   5  -3 -10   30.70    1.41
   5   3 -10   29.78    1.40
  -5   3  10   30.86    1.53
  -4  -3  10  145.74    4.16
   4  -3 -10  138.99    4.13
   4  -3 -10  143.04    3.99
  -4  -3  10  143.85    4.01
   4   3 -10  141.41    3.99
  -4   3  10  144.09    4.14
   3  -3 -10   16.73    0.83
  -3  -3  10   16.09    0.83
   3  -3 -10   15.51    0.90
  -3  -3  10   16.46    0.94
  -3   3  10   16.44    0.92
   3   3 -10   15.45    0.82
  -2  -3  10    1.24    0.29
   2  -3 -10    1.26    0.24
  -2  -3  10    1.01    0.22
   2   3 -10    1.32    0.26
  -2   3  10    1.16    0.27
   1  -3 -10   48.33    1.47
  -1  -3  10   51.52    1.57
  -1  -3  10   52.04    1.81
   1   3 -10   45.44    1.50
  -1   3  10   49.82    2.01
  -1   3  10   47.03    1.67
   0  -3 -10  181.06    5.14
   0  -3  10  170.03    4.30
   0  -3  10  168.62    4.67
   0   3  10  167.67    4.53
   1  -3  10   64.61    2.21
  -1  -3 -10   63.34    1.91
   1   3  10   64.74    2.13
  -1   3 -10   66.15    2.30
   2  -3  10  157.41    4.46
  -2  -3 -10  159.55    4.18
  -3  -3 -10    0.30    0.18
   3  -3  10    0.11    0.16
   4  -3  10   28.61    1.46
  -4  -3 -10   27.75    1.31
  -4   3 -10   26.53    1.33
   5  -3  10   28.59    1.58
  -5  -3 -10   29.87    1.48
  -5   3 -10   29.97    1.52
   5  -4 -10   10.91    0.88
  -5  -4  10   10.16    0.83
   5  -4 -10   10.86    0.80
  -5   4  10   11.03    0.88
   5   4 -10   11.74    0.84
  -4  -4  10    0.43    0.22
   4  -4 -10    0.29    0.19
   4  -4 -10    0.12    0.15
  -4  -4  10    0.13    0.18
   4   4 -10   -0.01    0.16
  -4   4  10    0.24    0.20
  -3  -4  10  129.74    3.62
  -3  -4  10  128.74    3.78
   3  -4 -10  137.42    3.78
   3  -4 -10  126.70    3.58
  -3   4  10  127.05    3.72
   3   4 -10  131.77    3.65
  -2  -4  10    4.19    0.40
   2  -4 -10    3.24    0.38
  -2  -4  10    4.08    0.53
  -2   4  10    4.53    0.54
   2   4 -10    4.05    0.40
   1  -4 -10  258.59    6.14
  -1  -4  10  251.63    6.54
  -1  -4  10  252.84    6.26
   1   4 -10  257.60    6.26
  -1   4  10  251.80    6.39
   0  -4  10    0.37    0.14
   0  -4  10    1.75    0.35
   0   4  10    0.05    0.10
   1  -4  10   29.17    1.29
  -1  -4 -10   25.12    1.01
  -2  -4 -10   36.68    1.38
   2  -4  10   39.13    1.62
   3  -4  10  178.32    5.11
  -3  -4 -10  183.21    4.86
  -4  -4 -10    0.96    0.29
   4  -4  10    1.39    0.39
  -5  -4 -10   11.46    0.89
   5  -4  10   11.42    0.99
   5  -5 -10    2.81    0.49
  -5  -5  10    3.35    0.52
   5  -5 -10    1.97    0.43
  -5  -5  10    2.98    0.54
   5   5 -10    2.65    0.47
  -5   5  10    2.64    0.52
   4  -5 -10  124.38    3.65
  -4  -5  10  123.71    3.66
  -4  -5  10  129.74    3.79
   4  -5 -10  122.12    3.75
   4   5 -10  130.24    3.71
  -4   5  10  123.13    3.76
   3  -5 -10    1.29    0.32
   3  -5 -10    1.20    0.29
  -3  -5  10    0.84    0.24
  -3  -5  10    1.39    0.32
  -3   5  10    1.16    0.29
   3   5 -10    1.05    0.27
  -2  -5  10    0.46    0.19
   2  -5 -10    0.55    0.18
  -2  -5  10    1.74    0.35
  -2   5  10    1.24    0.27
   2   5 -10    0.65    0.21
  -1  -5  10    3.15    0.45
   1  -5 -10    2.95    0.29
  -1  -5  10    2.78    0.37
  -1   5  10    2.78    0.39
   0  -5  10  259.03    6.84
   0  -5  10  274.71    6.60
   0   5  10  267.88    6.66
   1  -5  10   24.02    1.18
  -2  -5 -10   97.72    2.85
   2  -5  10   98.90    3.12
   3  -5  10    2.63    0.50
  -3  -5 -10    2.61    0.41
  -4  -5 -10   20.90    1.15
   4  -5  10   20.58    1.27
   5  -5  10    3.71    0.70
  -5  -5 -10    4.46    0.65
  -5  -6  10    3.57    0.58
   5  -6 -10    4.07    0.63
   5  -6 -10    3.51    0.56
   5   6 -10    4.50    0.62
  -5   6  10    4.33    0.67
  -4  -6  10    0.59    0.25
   4  -6 -10    0.81    0.29
   4  -6 -10    2.50    0.46
  -4  -6  10    0.37    0.22
   4   6 -10    0.64    0.25
  -4   6  10    0.44    0.24
  -3  -6  10   86.82    2.73
   3  -6 -10   89.09    2.69
  -3  -6  10   88.22    2.83
   3  -6 -10   87.73    2.77
  -3   6  10   87.40    2.77
   3   6 -10   87.43    2.74
   2  -6 -10   72.87    2.30
  -2  -6  10   68.33    2.36
   2  -6 -10   70.21    2.17
  -2  -6  10   67.56    2.23
   2   6 -10   76.10    2.30
  -2   6  10   68.98    2.25
   1  -6 -10  107.63    2.87
  -1  -6  10  106.68    3.03
  -1  -6  10  109.10    3.21
  -1   6  10   97.43    2.97
   0  -6  10   12.50    0.79
   0  -6  10   10.38    0.66
   1  -6  10   22.74    1.16
   2  -6  10   15.14    0.96
  -2  -6 -10   14.81    0.82
  -3  -6 -10  173.24    4.69
   3  -6  10  167.46    4.93
   4  -6  10   27.44    1.53
  -4  -6 -10   32.07    1.48
   5  -7 -10   30.99    1.58
  -5  -7  10   29.57    1.50
   5  -7 -10   32.15    1.56
   5   7 -10   30.94    1.54
  -5   7  10   31.08    1.58
   4  -7 -10   66.21    2.42
   4  -7 -10   68.63    2.37
  -4  -7  10   68.07    2.40
   4   7 -10   70.66    2.43
  -4   7  10   62.25    2.37
  -3  -7  10   18.75    1.03
   3  -7 -10   18.73    1.02
  -3  -7  10   19.64    1.07
   3  -7 -10   19.18    1.00
   3   7 -10   19.20    1.03
  -3   7  10   18.04    1.01
   2  -7 -10    1.07    0.27
  -2  -7  10    1.27    0.31
  -2  -7  10    0.84    0.26
   2  -7 -10    0.79    0.23
  -2   7  10    0.91    0.25
  -1  -7  10   45.12    1.76
  -1  -7  10   45.98    1.67
   1  -7 -10   44.94    1.51
   0  -7  10  127.41    3.58
   0  -7  10  127.00    3.72
   1  -7  10  165.51    4.65
   2  -7  10   16.93    1.05
  -2  -7 -10   16.80    0.89
  -3  -7 -10    4.11    0.55
   3  -7  10    3.37    0.57
   4  -7  10   11.25    0.95
  -4  -7 -10   11.76    0.87
   4  -8 -10    3.75    0.58
   4  -8 -10    5.65    0.68
  -4  -8  10    5.32    0.67
   4   8 -10    4.30    0.60
  -4   8  10    4.23    0.60
  -3  -8  10    8.95    0.73
   3  -8 -10   11.75    0.79
  -3  -8  10   10.75    1.31
   3  -8 -10   10.15    0.73
  -3   8  10    9.90    0.74
   2  -8 -10  170.78    4.75
  -2  -8  10  188.15    5.01
  -2  -8  10  184.03    4.96
  -1  -8  10   11.91    0.80
  -1  -8  10   11.63    0.76
   1  -8 -10   10.80    0.65
   0  -8  10   57.22    2.09
   0  -8  10   60.06    2.05
   1  -8  10    0.26    0.19
   2  -8  10   58.81    2.24
  -3  -8 -10   12.47    0.84
   3  -8  10   10.33    0.88
  -4  -8 -10   49.59    2.04
   4  -8  10   50.07    2.22
   4  -9 -10    1.32    0.38
  -4  -9  10    0.91    0.35
   4  -9 -10    1.20    0.34
  -4   9  10    0.71    0.30
  -3  -9  10   35.75    1.62
   3  -9 -10   35.85    1.55
   3  -9 -10   37.72    1.57
  -3   9  10   37.67    1.59
  -2  -9  10    0.84    0.28
   2  -9 -10    1.10    0.28
  -2  -9  10    0.39    0.21
  -1  -9  10   82.09    2.70
  -1  -9  10   83.53    2.70
   0  -9  10    0.38    0.21
   0  -9  10    0.29    0.19
   1  -9  10  148.31    4.40
   1  -9  10  159.67    4.41
   2  -9  10    2.81    0.53
   3  -9  10    0.17    0.20
  -3 -10  10    2.45    0.48
   3 -10 -10    3.10    0.51
  -2 -10  10  120.05    3.66
   2 -10 -10  118.05    3.49
  -1 -10  10   13.78    0.93
  -1 -10  10   16.89    0.97
   0 -10  10   27.14    1.32
   0 -10  10   24.56    1.25
   1 -10  10    0.03    0.17
   1 -10  10    0.41    0.24
   2 -10  10   63.80    2.42
   3 -10  10   18.71    1.22
   3 -11 -10   17.58    1.08
  -3 -11  10   17.51    1.13
  -2 -11  10    0.12    0.20
  -1 -11  10   22.90    1.26
   0 -11  10   41.56    1.73
   0 -11  10   41.60    1.80
   1 -11  10   64.00    2.38
   1 -11  10   61.04    2.32
   2 -11  10   25.01    1.37
   2 -12 -10   21.89    1.19
  -2 -12  10   24.56    1.36
  -1 -12  10   64.53    2.46
   0 -12  10    0.28    0.24
   1 -12  10    6.07    0.79
   1 -12  10    6.24    0.66
   2 -12  10   25.46    1.42
   0 -13  10   71.63    2.70
  -5   0  11    2.36    0.45
   5   0 -11    2.33    0.44
  -5   0  11    2.17    0.46
  -4   0  11   -0.05    0.13
  -4   0  11    0.48    0.22
   4   0 -11    0.09    0.16
  -3   0  11  318.19    7.78
   3   0 -11  317.73    7.77
  -3   0  11  314.06    8.04
  -2   0  11    0.40    0.18
  -2   0  11    0.40    0.15
   2   0 -11    0.11    0.11
  -1   0  11  120.91    3.46
   1   0 -11  115.94    3.06
  -1   0  11  117.40    3.07
   0   0  11    0.15    0.15
   1   0  11   25.00    1.20
  -1   0 -11   23.52    1.01
  -2   0 -11    1.51    0.31
   2   0  11    0.45    0.22
  -3   0 -11  163.64    4.41
   3   0  11  157.62    4.58
  -4   0 -11   -0.09    0.15
  -5   0 -11    1.01    0.33
   5  -1 -11   34.17    1.51
   5  -1 -11   32.29    1.64
  -5  -1  11   35.36    1.55
  -5  -1  11   34.84    1.65
  -5   1  11   34.25    1.53
  -5   1  11   33.97    1.64
   5   1 -11   33.65    1.50
   4  -1 -11   80.46    2.54
  -4  -1  11   78.64    2.72
  -4  -1  11   79.32    2.56
   4   1 -11   79.21    2.55
  -4   1  11   85.91    2.61
  -4   1  11   79.94    2.73
  -3  -1  11    9.71    0.73
   3  -1 -11    8.57    0.59
  -3  -1  11    9.31    0.62
  -3   1  11    9.04    0.62
   3   1 -11    8.43    0.59
  -3   1  11    8.12    0.66
  -2  -1  11    9.60    0.70
  -2  -1  11    9.14    0.56
   2  -1 -11    9.40    0.55
  -2   1  11    9.21    0.55
  -2   1  11   10.05    0.70
   2   1 -11    9.22    0.56
  -1  -1  11   31.49    1.36
  -1  -1  11   30.85    1.09
   1  -1 -11   31.99    1.08
  -1   1  11   33.25    1.36
   1   1 -11   31.41    1.09
  -1   1  11   29.55    1.05
   0  -1  11  298.74    7.53
   0   1  11  292.88    7.46
  -1  -1 -11    1.67    0.28
   1  -1  11    1.56    0.36
   1   1  11    1.86    0.38
  -2  -1 -11    0.34    0.17
   2  -1  11    0.46    0.22
  -2   1 -11    0.26    0.19
   2   1  11    0.55    0.23
  -3  -1 -11    2.48    0.41
   3  -1  11    2.37    0.45
  -3   1 -11    2.93    0.44
   4  -1  11  124.93    3.91
  -4  -1 -11  129.30    3.76
  -4   1 -11  122.03    3.74
  -5  -1 -11    7.90    0.74
  -5   1 -11    7.92    0.75
  -5  -2  11    0.97    0.33
   5  -2 -11    0.96    0.33
  -5  -2  11    0.65    0.29
   5  -2 -11    0.84    0.28
   5   2 -11    1.39    0.35
  -5   2  11    0.62    0.28
  -5   2  11    1.64    0.44
  -4  -2  11   20.40    1.07
  -4  -2  11   20.89    1.18
   4  -2 -11   21.92    1.21
   4  -2 -11   22.26    1.08
   4   2 -11   22.19    1.09
  -4   2  11   22.03    1.19
   3  -2 -11  146.63    3.94
  -3  -2  11  146.95    3.98
  -3  -2  11  146.79    4.20
  -3   2  11  144.21    4.15
   3   2 -11  146.35    3.96
  -2  -2  11   69.03    2.33
  -2  -2  11   68.59    2.08
   2  -2 -11   66.84    2.03
  -2   2  11   72.97    2.32
   2   2 -11   65.26    2.06
   1  -2 -11   29.77    1.03
  -1  -2  11   29.23    1.07
  -1  -2  11   28.84    1.31
  -1   2  11   28.87    1.26
   1   2 -11   30.22    1.08
   0  -2 -11    5.42    0.68
   0  -2  11    4.21    0.55
   0   2  11    4.57    0.46
   1  -2  11   85.16    2.72
  -1  -2 -11   82.62    2.38
   1   2  11   82.24    2.65
  -2  -2 -11  133.78    3.59
   2  -2  11  131.02    3.89
   2   2  11  127.15    3.74
   3  -2  11  106.26    3.43
  -3  -2 -11  107.60    3.18
  -3   2 -11  108.44    3.27
   4  -2  11   14.41    1.03
  -4  -2 -11   12.58    0.86
  -4   2 -11   14.33    0.94
   5  -2  11    0.20    0.23
  -5  -2 -11    0.04    0.20
  -5   2 -11   -0.08    0.17
  -5  -3  11   93.74    3.11
  -5  -3  11   87.49    2.92
   5  -3 -11   88.71    3.09
   5  -3 -11   88.77    2.92
   5   3 -11   85.50    2.88
  -5   3  11   91.30    3.11
  -4  -3  11   21.84    1.11
   4  -3 -11   22.48    1.23
  -4  -3  11   22.87    1.22
   4  -3 -11   24.62    1.15
  -4   3  11   20.80    1.18
   4   3 -11   22.50    1.12
  -3  -3  11   22.22    1.16
  -3  -3  11   23.05    1.05
   3  -3 -11   21.78    1.01
  -3   3  11   21.24    1.12
   3   3 -11   22.84    1.05
  -2  -3  11    7.95    0.65
   2  -3 -11    8.39    0.54
  -2  -3  11    9.59    0.59
   2   3 -11    9.81    0.61
  -2   3  11    7.73    0.62
   1  -3 -11  186.01    4.59
  -1  -3  11  189.61    5.04
  -1   3  11  188.15    4.91
   1   3 -11  173.83    4.62
   0  -3  11   55.60    2.03
   0   3  11   54.12    1.91
   1  -3  11  125.00    3.58
  -1  -3 -11  109.09    3.12
   1   3  11  119.20    3.45
   2  -3  11    3.51    0.54
  -2  -3 -11    4.11    0.48
   3  -3  11    6.37    0.66
  -3  -3 -11    6.53    0.57
  -4  -3 -11   30.71    1.43
   4  -3  11   32.06    1.63
   5  -3  11   55.05    2.42
  -5  -3 -11   60.36    2.30
   5  -4 -11    0.64    0.29
  -5  -4  11    0.50    0.28
   5  -4 -11    0.73    0.29
  -5  -4  11    0.14    0.21
   5   4 -11    0.70    0.30
  -5   4  11    0.39    0.25
  -4  -4  11   46.08    1.80
  -4  -4  11   47.92    1.93
   4  -4 -11   46.35    1.79
   4  -4 -11   47.59    1.93
   4   4 -11   47.34    1.83
  -4   4  11   50.08    1.96
   3  -4 -11    2.73    0.40
  -3  -4  11    3.12    0.50
   3  -4 -11    2.17    0.41
  -3  -4  11    2.65    0.39
  -3   4  11    2.47    0.43
   3   4 -11    2.63    0.40
   2  -4 -11  156.75    4.07
  -2  -4  11  158.38    4.41
  -2  -4  11  155.43    4.14
  -2   4  11  153.22    4.28
   2   4 -11  152.56    4.12
  -1  -4  11   16.52    0.81
  -1  -4  11   17.34    0.99
   1   4 -11   17.27    0.81
  -1   4  11   16.67    0.90
   1  -4  11    6.39    0.60
   2  -4  11  222.26    5.95
  -2  -4 -11  213.49    5.57
  -3  -4 -11    0.60    0.23
   3  -4  11    0.26    0.23
   4  -4  11   28.87    1.57
  -4  -4 -11   28.51    1.38
   5  -5 -11  127.25    4.02
  -5  -5  11  128.40    3.90
  -5  -5  11  127.18    3.97
   5  -5 -11  124.93    3.86
  -5   5  11  128.16    4.03
   5   5 -11  125.26    3.87
  -4  -5  11    1.95    0.38
   4  -5 -11    2.43    0.45
   4  -5 -11    1.60    0.34
  -4  -5  11    2.08    0.44
  -4   5  11    2.31    0.48
   4   5 -11    2.16    0.41
   3  -5 -11   21.43    1.15
  -3  -5  11   23.79    1.22
   3  -5 -11   22.65    1.07
  -3  -5  11   23.52    1.12
  -3   5  11   24.11    1.19
   3   5 -11   23.51    1.11
  -2  -5  11    3.41    0.45
   2  -5 -11    3.57    0.42
  -2  -5  11    4.76    0.61
  -2   5  11    4.75    0.48
   2   5 -11    4.32    0.51
  -1  -5  11  112.03    3.43
  -1  -5  11  114.46    3.19
  -1   5  11  114.80    3.28
   0  -5  11   23.85    1.20
   0  -5  11   22.25    1.06
   1  -5  11  136.16    4.01
  -2  -5 -11    0.48    0.22
   2  -5  11    0.32    0.21
  -3  -5 -11   34.03    1.45
   3  -5  11   33.56    1.64
   4  -5  11    2.96    0.59
  -4  -5 -11    2.19    0.44
   5  -6 -11    0.35    0.25
  -5  -6  11    0.12    0.21
   5  -6 -11    0.23    0.24
  -5   6  11    0.42    0.29
   5   6 -11   -0.04    0.16
   4  -6 -11   34.65    1.61
  -4  -6  11   34.26    1.60
   4  -6 -11   34.85    1.53
  -4  -6  11   35.34    1.57
   4   6 -11   35.23    1.55
  -4   6  11   38.32    1.66
   3  -6 -11   62.41    2.14
  -3  -6  11   63.52    2.32
   3  -6 -11   66.73    2.30
  -3  -6  11   65.35    2.23
  -3   6  11   65.94    2.28
   3   6 -11   64.25    2.23
  -2  -6  11  158.46    4.34
   2  -6 -11  161.63    4.23
  -2  -6  11  159.17    4.53
   2   6 -11  155.19    4.32
  -2   6  11  160.86    4.38
  -1  -6  11   26.84    1.17
  -1  -6  11   26.29    1.30
   0  -6  11    4.46    0.57
   0  -6  11    4.47    0.52
   1  -6  11    1.82    0.41
  -2  -6 -11   97.37    2.91
   2  -6  11   99.43    3.23
  -3  -6 -11   30.17    1.37
   3  -6  11   30.06    1.56
  -4  -6 -11   16.41    1.05
   4  -6  11   15.92    1.17
   4  -7 -11   32.90    1.56
  -4  -7  11   32.57    1.53
   4  -7 -11   31.48    1.49
  -4   7  11   33.86    1.58
   4   7 -11   33.35    1.55
   3  -7 -11    2.92    0.46
  -3  -7  11    1.69    0.39
  -3  -7  11    1.73    0.38
   3  -7 -11    2.45    0.44
  -3   7  11    2.53    0.44
   3   7 -11    2.19    0.41
   2  -7 -11    5.53    0.50
  -2  -7  11    8.75    0.71
  -2  -7  11    6.00    0.57
  -2   7  11    6.38    0.57
  -1  -7  11   48.93    1.90
  -1  -7  11   47.35    1.76
   0  -7  11   99.52    3.15
   0  -7  11  100.34    2.98
   1  -7  11   58.47    2.19
   2  -7  11    0.30    0.23
  -2  -7 -11    0.37    0.21
   3  -7  11   15.73    1.09
  -3  -7 -11   15.39    0.95
   4  -7  11   58.96    2.49
  -4  -7 -11   58.70    2.26
   4  -8 -11    6.87    0.67
   4  -8 -11    6.39    0.66
  -4  -8  11    6.08    0.72
   4   8 -11    5.05    0.68
  -4   8  11    5.73    0.72
   3  -8 -11  136.28    3.95
   3  -8 -11  136.82    4.04
  -3  -8  11  142.87    4.11
  -3  -8  11  141.31    4.13
  -3   8  11  133.67    4.01
  -2  -8  11   10.53    0.80
  -2  -8  11    8.85    0.71
   2  -8 -11    9.93    0.67
  -1  -8  11   61.70    2.15
  -1  -8  11   61.36    2.23
   0  -8  11    6.24    0.61
   0  -8  11    6.24    0.58
   1  -8  11   50.19    1.99
   2  -8  11   17.84    1.13
  -2  -8 -11   16.34    0.93
  -3  -8 -11   86.00    2.80
   3  -8  11   80.54    2.98
   4  -9 -11   53.90    2.14
  -4  -9  11   52.15    2.16
   4  -9 -11   50.80    2.07
  -4   9  11   51.28    2.12
  -3  -9  11    0.16    0.20
   3  -9 -11    0.06    0.16
  -2  -9  11    7.47    0.68
   2  -9 -11    8.23    0.64
  -2  -9  11    8.40    0.72
  -1  -9  11    0.59    0.25
  -1  -9  11    1.12    0.33
   0  -9  11  128.94    3.88
   0  -9  11  129.04    3.82
   1  -9  11    2.77    0.51
   2  -9  11    6.29    0.79
  -2  -9 -11    6.67    0.61
   3  -9  11    0.93    0.35
  -3  -9 -11    1.39    0.36
  -3 -10  11   72.09    2.64
   3 -10 -11   72.28    2.52
   2 -10 -11   13.55    0.86
  -2 -10  11   13.53    0.95
  -1 -10  11   33.92    1.54
  -1 -10  11   35.06    1.58
   0 -10  11    1.50    0.38
   0 -10  11    1.13    0.32
   1 -10  11   43.38    1.86
   2 -10  11    8.01    0.78
   3 -10  11   52.82    2.29
  -3 -10 -11   53.70    2.10
   2 -11 -11   16.88    1.02
  -2 -11  11   17.52    1.12
  -1 -11  11   17.76    1.11
   0 -11  11   47.79    1.98
   0 -11  11   51.99    2.07
   1 -11  11   38.25    1.76
   2 -11  11    0.58    0.29
  -1 -12  11    9.78    0.86
   0 -12  11    0.40    0.30
   0 -12  11    0.63    0.31
   1 -12  11   13.66    0.99
  -5   0  12   -0.07    0.17
  -5   0  12   -0.01    0.17
   5   0 -12    0.01    0.15
  -4   0  12  106.89    3.42
  -4   0  12  105.48    3.20
   4   0 -12  105.09    3.17
   3   0 -12    0.21    0.14
  -3   0  12    0.17    0.17
  -3   0  12    0.30    0.17
  -2   0  12  119.11    3.51
   2   0 -12  113.22    3.16
  -2   0  12  115.50    3.17
  -1   0  12    0.11    0.14
   0   0  12  151.85    4.32
  -1   0 -12    0.46    0.19
   1   0  12    0.19    0.19
   2   0  12  242.43    6.51
  -2   0 -12  245.20    6.23
   3   0  12    0.11    0.17
  -3   0 -12    0.20    0.19
  -4   0 -12    4.97    0.64
  -5  -1  12   60.39    2.41
   5  -1 -12   62.00    2.24
  -5  -1  12   60.15    2.25
  -5   1  12   62.06    2.27
  -5   1  12   63.79    2.46
   5   1 -12   55.57    2.18
  -4  -1  12    5.08    0.61
   4  -1 -12    4.11    0.53
  -4  -1  12    4.47    0.66
  -4   1  12    4.99    0.69
  -4   1  12    4.39    0.56
   4   1 -12    4.10    0.53
  -3  -1  12    5.67    0.59
  -3  -1  12    5.50    0.49
   3  -1 -12    5.84    0.50
  -3   1  12    6.12    0.51
   3   1 -12    5.37    0.48
  -3   1  12    5.74    0.58
   2  -1 -12   36.39    1.31
  -2  -1  12   34.77    1.54
  -2  -1  12   36.42    1.33
  -2   1  12   36.97    1.32
   2   1 -12   36.75    1.33
  -2   1  12   37.33    1.56
  -1  -1  12  152.52    4.40
  -1  -1  12  167.01    4.53
  -1   1  12  163.55    4.47
   1   1 -12  154.45    4.17
   0  -1  12   56.13    2.09
   0   1  12   57.79    2.08
  -1  -1 -12   45.45    1.57
   1  -1  12   46.22    1.84
   1   1  12   44.65    1.79
   2  -1  12    1.04    0.31
  -2  -1 -12    0.78    0.23
   2   1  12    1.34    0.34
  -2   1 -12    0.84    0.27
  -3  -1 -12   79.78    2.55
   3  -1  12   77.26    2.78
  -3   1 -12   78.86    2.60
   4  -1  12   11.14    0.92
  -4  -1 -12   11.83    0.84
  -4   1 -12   12.86    0.90
  -5  -2  12    2.63    0.49
  -5  -2  12    2.43    0.50
   5  -2 -12    3.32    0.53
   5   2 -12    2.84    0.52
  -5   2  12    3.14    0.58
  -5   2  12    2.56    0.48
  -4  -2  12   66.97    2.47
   4  -2 -12   66.47    2.27
  -4  -2  12   70.76    2.34
  -4   2  12   66.92    2.30
   4   2 -12   66.58    2.29
  -4   2  12   67.44    2.47
  -3  -2  12   23.93    1.11
  -3  -2  12   24.97    1.28
   3  -2 -12   25.21    1.11
   3   2 -12   24.27    1.11
  -3   2  12   26.76    1.30
  -2  -2  12   71.48    2.22
   2  -2 -12   71.61    2.18
  -2  -2  12   74.28    2.52
  -2   2  12   78.20    2.50
   2   2 -12   72.59    2.23
  -1  -2  12    2.30    0.32
  -1  -2  12    1.21    0.31
   1   2 -12    1.19    0.24
  -1   2  12    1.55    0.33
   0  -2  12   34.54    1.53
   0   2  12   35.04    1.48
  -1  -2 -12  105.89    2.94
   1  -2  12  106.76    3.32
   1   2  12  102.81    3.22
  -2  -2 -12  134.03    3.79
   2  -2  12  143.99    4.20
   3  -2  12   35.52    1.72
  -3  -2 -12   39.18    1.55
  -3   2 -12   38.12    1.61
   4  -2  12    0.73    0.31
  -4  -2 -12    0.25    0.22
  -4   2 -12    0.55    0.28
   5  -3 -12   14.84    0.97
   5  -3 -12   14.63    1.08
  -5  -3  12   12.67    0.93
  -5  -3  12   15.21    1.07
   5   3 -12   15.01    0.98
  -5   3  12   15.04    1.08
   4  -3 -12   31.09    1.36
  -4  -3  12   28.34    1.34
  -4  -3  12   29.06    1.48
   4   3 -12   30.72    1.37
  -4   3  12   31.36    1.51
  -3  -3  12    0.37    0.20
  -3  -3  12    0.38    0.21
   3  -3 -12    0.30    0.17
   3   3 -12    0.13    0.15
  -3   3  12    0.29    0.19
  -2  -3  12  119.53    3.34
  -2  -3  12  122.53    3.66
   2  -3 -12  119.26    3.27
  -2   3  12  119.52    3.56
   2   3 -12  120.17    3.35
  -1  -3  12   79.77    2.64
  -1  -3  12   76.27    2.27
   1   3 -12   76.80    2.27
  -1   3  12   76.63    2.52
   0   3  12  104.01    3.15
   1  -3  12    1.49    0.38
   1   3  12    0.72    0.24
   2  -3  12    4.58    0.65
  -2  -3 -12    5.45    0.49
   3  -3  12   24.77    1.39
  -3  -3 -12   23.94    1.16
  -4  -3 -12   76.38    2.63
   4  -3  12   74.81    2.88
   5  -4 -12   10.94    0.84
  -5  -4  12    9.09    0.79
  -5  -4  12   10.86    0.91
   5  -4 -12    9.52    0.87
  -5   4  12   10.35    0.89
   5   4 -12   11.88    0.89
  -4  -4  12    6.01    0.77
  -4  -4  12    6.13    0.60
   4  -4 -12    6.58    0.61
   4  -4 -12    5.04    0.70
   4   4 -12    7.35    0.65
  -4   4  12    5.26    0.70
   3  -4 -12   98.03    2.93
  -3  -4  12   99.78    2.99
  -3  -4  12   96.42    3.17
   3   4 -12  100.28    3.00
  -3   4  12   98.50    3.12
  -2  -4  12    1.93    0.35
   2  -4 -12    1.45    0.27
  -2  -4  12    2.03    0.43
  -2   4  12    1.30    0.31
   2   4 -12    2.33    0.37
  -1  -4  12   10.37    0.79
  -1   4  12   10.48    0.73
   1   4 -12    9.30    0.60
   0  -4  12    0.94    0.31
   0   4  12   -0.01    0.10
   1  -4  12  222.19    6.04
   2  -4  12   10.00    0.81
  -2  -4 -12    8.95    0.64
  -3  -4 -12   69.60    2.38
   3  -4  12   71.36    2.67
  -4  -4 -12    0.76    0.30
   4  -4  12    2.02    0.51
  -4  -5  12   24.52    1.25
  -4  -5  12   25.89    1.37
   4  -5 -12   24.23    1.22
   4  -5 -12   24.06    1.33
  -4   5  12   24.36    1.32
   4   5 -12   24.94    1.26
  -3  -5  12    0.20    0.19
  -3  -5  12    0.26    0.18
   3  -5 -12    0.22    0.18
  -3   5  12    0.14    0.19
   3   5 -12    0.31    0.19
   2  -5 -12  145.76    3.97
  -2  -5  12  148.31    4.34
  -2  -5  12  148.43    4.09
  -2   5  12  150.24    4.23
   2   5 -12  151.02    4.11
  -1  -5  12    0.65    0.22
  -1  -5  12    0.23    0.19
  -1   5  12    0.20    0.15
   0  -5  12  212.79    5.80
   1  -5  12    2.62    0.48
  -2  -5 -12    0.74    0.25
   2  -5  12    0.93    0.32
   3  -5  12    0.57    0.28
  -3  -5 -12    0.35    0.21
   4  -5  12   86.50    3.23
  -4  -5 -12   86.11    2.91
  -4  -6  12   33.65    1.54
   4  -6 -12   32.83    1.48
   4  -6 -12   33.58    1.60
  -4  -6  12   32.78    1.59
  -4   6  12   31.12    1.55
   4   6 -12   30.62    1.48
   3  -6 -12   52.44    1.92
  -3  -6  12   55.41    2.14
  -3  -6  12   54.35    2.01
   3   6 -12   55.93    2.03
  -3   6  12   53.58    2.06
   2  -6 -12   17.44    0.89
  -2  -6  12   18.07    1.08
  -2  -6  12   18.51    0.98
   2   6 -12   16.81    0.94
  -2   6  12   18.40    1.02
  -1  -6  12    1.53    0.39
  -1  -6  12    1.07    0.28
   0  -6  12   12.08    0.87
   1  -6  12  124.90    3.84
   2  -6  12   63.61    2.41
  -2  -6 -12   59.76    2.07
   3  -6  12   41.08    1.95
  -3  -6 -12   43.33    1.74
  -4  -6 -12    4.05    0.61
   4  -6  12    4.40    0.76
   4  -7 -12    6.24    0.78
  -4  -7  12    5.58    0.70
   4  -7 -12    6.31    0.73
  -4  -7  12    7.18    0.73
  -4   7  12    5.30    0.70
   4   7 -12    6.11    0.73
   3  -7 -12    1.04    0.29
  -3  -7  12    0.96    0.32
  -3  -7  12    1.32    0.38
  -3   7  12    0.81    0.29
   3   7 -12    1.65    0.37
  -2  -7  12   25.72    1.24
  -2  -7  12   23.73    1.28
   2  -7 -12   24.76    1.11
  -2   7  12   23.74    1.19
  -1  -7  12  115.12    3.62
  -1  -7  12  120.56    3.47
   0  -7  12   51.74    2.04
   1  -7  12   17.41    1.09
  -2  -7 -12    8.04    0.65
   2  -7  12    8.79    0.79
   3  -7  12   29.86    1.62
  -3  -7 -12   31.03    1.44
   4  -8 -12   62.90    2.33
   4  -8 -12   61.99    2.40
  -4  -8  12   59.75    2.35
  -4   8  12   60.65    2.38
  -3  -8  12   32.09    1.56
   3  -8 -12   31.19    1.42
  -3  -8  12   32.54    1.53
  -3   8  12   32.49    1.51
  -2  -8  12   31.99    1.45
  -2  -8  12   29.68    1.49
  -1  -8  12    0.59    0.27
  -1  -8  12    0.33    0.19
   0  -8  12   21.67    1.21
   1  -8  12   13.38    0.95
  -2  -8 -12  140.62    4.00
   2  -8  12  142.18    4.40
  -3  -8 -12    2.89    0.51
   3  -8  12    2.30    0.50
   3  -9 -12    3.47    0.54
  -3  -9  12    3.15    0.55
  -2  -9  12    1.65    0.41
  -2  -9  12    1.36    0.38
  -1  -9  12  127.05    3.77
  -1  -9  12  121.51    3.80
   0  -9  12    0.35    0.25
   1  -9  12    9.35    0.82
   2  -9  12    0.99    0.36
   3  -9  12   48.14    2.19
  -3  -9 -12   49.18    1.97
  -3 -10  12    3.18    0.57
   3 -10 -12    3.56    0.55
  -2 -10  12   52.06    2.10
  -1 -10  12    7.79    0.72
  -1 -10  12    7.33    0.70
   0 -10  12   27.34    1.42
   0 -10  12   28.47    1.43
   1 -10  12   11.41    0.91
   2 -10  12   88.59    3.16
  -2 -11  12   24.40    1.37
  -1 -11  12   39.10    1.78
  -1 -11  12   40.95    1.82
   0 -11  12   35.32    1.67
   0 -11  12   36.38    1.70
   1 -11  12    9.41    0.85
  -5   0  13   66.00    2.62
  -5   0  13   69.16    2.46
   5   0 -13   63.45    2.38
  -4   0  13    0.40    0.23
   4   0 -13    0.22    0.18
  -4   0  13    0.16    0.16
  -3   0  13  157.48    4.30
   3   0 -13  158.66    4.30
  -3   0  13  159.08    4.62
   2   0 -13    0.04    0.12
  -2   0  13    0.12    0.16
  -2   0  13    0.09    0.13
  -1   0  13   20.46    1.13
   0   0  13    0.29    0.18
   1   0  13  248.98    6.66
   2   0  13    0.11    0.17
  -2   0 -13   -0.03    0.15
  -3   0 -13    8.39    0.70
   3   0  13    8.27    0.78
  -4   0 -13    0.04    0.20
   5  -1 -13    2.08    0.43
  -5  -1  13    1.98    0.50
  -5  -1  13    2.23    0.46
  -5   1  13    2.06    0.50
   5   1 -13    2.03    0.42
  -5   1  13    1.59    0.40
  -4  -1  13    0.39    0.25
   4  -1 -13    0.27    0.18
  -4  -1  13    0.21    0.19
  -4   1  13    0.40    0.25
   4   1 -13    0.00    0.16
  -4   1  13    0.17    0.19
   3  -1 -13    2.21    0.38
  -3  -1  13    2.20    0.38
  -3  -1  13    3.62    0.57
  -3   1  13    2.84    0.43
   3   1 -13    2.11    0.36
  -3   1  13    1.78    0.39
  -2  -1  13  125.67    3.74
  -2  -1  13  118.31    3.34
   2  -1 -13  120.51    3.32
  -2   1  13  121.74    3.34
   2   1 -13  118.66    3.34
  -2   1  13  125.17    3.71
  -1  -1  13   22.30    1.19
  -1   1  13   21.27    1.15
   0  -1  13   66.47    2.38
   0   1  13   63.69    2.32
  -1  -1 -13    0.28    0.19
   1  -1  13    0.43    0.22
   1   1  13    0.04    0.17
  -2  -1 -13   36.16    1.46
   2  -1  13   36.07    1.68
   2   1  13   34.66    1.61
   3  -1  13   23.46    1.38
  -3  -1 -13   25.83    1.24
  -3   1 -13   25.24    1.28
  -4  -1 -13   65.42    2.41
   4  -1  13   64.66    3.49
  -4   1 -13   67.03    2.48
  -5  -2  13   36.46    1.77
  -5  -2  13   33.88    1.59
   5  -2 -13   34.50    1.58
  -5   2  13   34.01    1.60
  -5   2  13   33.23    1.72
   5   2 -13   33.35    1.57
  -4  -2  13   54.88    2.29
   4  -2 -13   59.89    2.12
  -4  -2  13   61.67    2.17
   4   2 -13   59.30    2.14
  -4   2  13   61.99    2.16
  -4   2  13   59.73    2.34
   3  -2 -13   69.26    2.31
  -3  -2  13   74.93    2.40
  -3  -2  13   73.33    2.64
  -3   2  13   75.45    2.38
   3   2 -13   76.27    2.40
  -3   2  13   77.69    2.65
  -2  -2  13    7.73    0.69
   2  -2 -13    8.65    0.56
  -2  -2  13    8.58    0.59
   2   2 -13    7.97    0.58
  -2   2  13    7.07    0.52
  -2   2  13    8.81    0.72
  -1  -2  13   14.37    0.95
  -1   2  13   14.76    0.93
   0  -2  13   29.43    1.45
   0   2  13   30.61    1.42
   1  -2  13  119.81    3.59
  -1  -2 -13   98.79    3.07
   1   2  13  115.28    3.47
   2  -2  13   24.11    1.34
  -2  -2 -13   24.44    1.12
   3  -2  13    8.66    0.83
  -3  -2 -13    8.79    0.70
  -4  -2 -13    0.76    0.30
   4  -2  13    0.85    0.34
  -4  -3  13    0.58    0.28
   4  -3 -13    0.35    0.20
  -4  -3  13    0.58    0.28
   4   3 -13    0.45    0.24
  -4   3  13    0.39    0.23
  -3  -3  13   65.03    2.43
   3  -3 -13   64.67    2.14
  -3  -3  13   63.87    2.18
  -3   3  13   63.34    2.37
   3   3 -13   67.29    2.22
   2  -3 -13   39.21    1.44
  -2  -3  13   38.04    1.70
  -2  -3  13   41.59    1.51
  -2   3  13   40.42    1.69
   2   3 -13   38.62    1.48
  -1  -3  13  254.03    6.75
  -1   3  13  250.71    6.61
   0  -3  13   24.55    1.30
   0   3  13   22.86    1.19
  -2  -3 -13   15.27    0.86
   2  -3  13   17.20    1.11
  -3  -3 -13  102.16    3.18
   3  -3  13  106.24    3.59
   4  -3  13   17.86    1.28
  -4  -3 -13   19.44    1.14
  -4  -4  13   64.65    2.47
   4  -4 -13   63.03    2.23
  -4  -4  13   61.46    2.26
   4   4 -13   63.38    2.29
  -4   4  13   62.82    2.42
  -3  -4  13    4.11    0.55
   3  -4 -13    4.10    0.50
  -3  -4  13    4.06    0.63
  -3   4  13    3.69    0.57
   3   4 -13    3.74    0.52
  -2  -4  13   19.52    0.99
  -2  -4  13   19.75    1.16
   2   4 -13   20.69    1.00
  -2   4  13   20.73    1.12
  -1  -4  13    2.26    0.48
  -1   4  13    2.94    0.48
   0  -4  13   97.38    3.17
   0   4  13   94.35    3.00
   1  -4  13    5.23    0.73
  -2  -4 -13   68.12    2.23
   2  -4  13   67.06    2.55
   3  -4  13    0.93    0.35
  -3  -4 -13    0.59    0.26
   4  -4  13    7.68    1.01
  -4  -4 -13    5.69    0.71
  -4  -5  13    0.09    0.19
  -4  -5  13    0.28    0.23
   4  -5 -13   -0.14    0.17
   4   5 -13    0.01    0.18
  -4   5  13    0.26    0.23
  -3  -5  13   78.50    2.76
  -3  -5  13   73.12    2.52
   3  -5 -13   76.24    2.46
  -3   5  13   77.92    2.69
   3   5 -13   76.33    2.53
  -2  -5  13    3.39    0.57
  -2  -5  13    3.22    0.46
   2   5 -13    3.20    0.46
  -2   5  13    2.39    0.43
  -1  -5  13  132.95    3.93
  -1  -5  13  108.04    4.19
  -1   5  13  134.59    3.77
   0  -5  13    5.20    0.69
   1  -5  13    0.52    0.25
  -2  -5 -13    0.07    0.15
   2  -5  13    0.09    0.18
   3  -5  13   97.67    3.43
  -3  -5 -13   96.92    3.09
  -4  -5 -13    3.52    0.56
   4  -5  13    2.72    0.62
  -4  -6  13   69.98    2.66
  -4  -6  13   70.96    2.56
   4  -6 -13   73.42    2.51
   4   6 -13   71.15    2.56
  -4   6  13   69.91    2.64
  -3  -6  13   40.80    1.84
  -3  -6  13   40.82    1.70
   3  -6 -13   41.85    1.65
  -3   6  13   42.08    1.80
   3   6 -13   42.49    1.74
  -2  -6  13   37.46    1.71
  -2  -6  13   35.77    1.52
  -2   6  13   37.65    1.61
  -1  -6  13    8.03    0.63
  -1  -6  13    8.40    0.76
   0  -6  13   81.93    2.84
   1  -6  13   51.89    2.13
  -2  -6 -13   44.59    1.73
   2  -6  13   48.82    2.08
  -3  -6 -13    4.12    0.56
   3  -6  13    4.77    0.77
   4  -7 -13    0.89    0.32
  -4  -7  13    2.20    0.49
  -4  -7  13    0.78    0.34
   4   7 -13    0.89    0.33
  -4   7  13    1.35    0.41
  -3  -7  13   22.83    1.24
   3  -7 -13   22.96    1.18
  -3  -7  13   25.35    1.39
  -3   7  13   23.71    1.28
   3   7 -13   24.98    1.28
  -2  -7  13   26.15    1.40
  -2  -7  13   26.77    1.30
  -1  -7  13   55.09    2.00
  -1  -7  13   55.11    2.18
   0  -7  13   36.38    1.69
   1  -7  13    0.26    0.22
   2  -7  13    7.65    0.78
  -3  -7 -13   25.48    1.31
   3  -7  13   24.48    1.50
  -3  -8  13   97.74    3.23
   3  -8 -13   95.94    3.07
  -3  -8  13   99.57    3.32
  -3   8  13   96.72    3.32
  -2  -8  13    1.73    0.40
  -2  -8  13    1.85    0.44
  -1  -8  13    9.55    0.81
  -1  -8  13    9.55    0.75
   0  -8  13   14.84    1.02
   1  -8  13  107.35    3.54
   2  -8  13    6.55    0.85
  -3  -8 -13    6.01    0.72
   3  -8  13    5.51    0.81
   3  -9 -13    2.41    0.45
  -3  -9  13    2.43    0.50
  -2  -9  13   88.06    3.05
  -2  -9  13   89.27    2.99
  -1  -9  13    0.35    0.25
  -1  -9  13    0.43    0.24
   0  -9  13   42.05    1.87
   1  -9  13    6.45    0.83
   2  -9  13   27.30    1.55
  -2 -10  13    4.97    0.71
  -2 -10  13    4.91    0.76
  -1 -10  13    5.70    0.76
  -1 -10  13    7.06    0.79
   0 -10  13    4.67    0.69
   1 -10  13   81.94    2.98
  -4   0  14   78.96    2.60
   4   0 -14   73.43    2.52
  -4   0  14   76.53    2.82
  -3   0  14    0.41    0.23
   3   0 -14    0.07    0.16
  -3   0  14    0.20    0.17
  -2   0  14    0.89    0.30
  -1   0  14    0.08    0.17
   0   0  14  179.75    5.13
   1   0  14    0.09    0.17
  -2   0 -14   68.29    2.34
   2   0  14   67.15    2.55
  -3   0 -14   -0.11    0.13
   3   0  14   -0.01    0.21
  -4   0 -14   60.41    2.36
  -4  -1  14    5.09    0.74
  -4  -1  14    5.57    0.67
   4  -1 -14    4.80    0.61
  -4   1  14    4.95    0.63
  -4   1  14    4.75    0.70
   4   1 -14    6.26    0.70
  -3  -1  14   61.41    2.38
   3  -1 -14   62.64    2.08
  -3  -1  14   62.69    2.11
  -3   1  14   60.03    2.35
   3   1 -14   59.32    2.07
  -3   1  14   60.23    2.08
  -2  -1  14   23.70    1.30
  -2  -1  14   22.08    1.40
  -2   1  14   24.06    1.29
  -1  -1  14   64.85    2.40
  -1   1  14   64.18    2.37
   0  -1  14    2.63    0.53
   0   1  14    3.15    0.53
   1  -1  14   40.32    1.80
  -1  -1 -14   40.06    1.54
   1   1  14   39.62    1.76
  -2  -1 -14   16.48    0.95
   2  -1  14   14.72    1.06
   2   1  14   16.62    1.08
  -3  -1 -14   73.24    2.52
   3  -1  14   66.78    2.71
  -3   1 -14   73.18    2.56
  -4  -1 -14    6.86    0.81
  -4   1 -14    6.31    0.79
   4  -2 -14   60.12    2.17
  -4  -2  14   62.33    2.22
  -4  -2  14   59.00    2.41
   4   2 -14   59.33    2.17
  -4   2  14   60.25    2.42
  -4   2  14   60.08    2.19
   3  -2 -14   21.39    1.06
  -3  -2  14   21.54    1.09
  -3  -2  14   21.47    1.27
  -3   2  14   20.91    1.06
  -3   2  14   26.10    1.35
   3   2 -14   20.23    1.07
  -2  -2  14    5.12    0.47
  -2  -2  14    4.63    0.63
   2   2 -14    5.65    0.50
  -2   2  14    4.28    0.62
  -1  -2  14   25.80    1.38
  -1   2  14   27.05    1.36
   0  -2  14  130.52    4.08
   0   2  14  132.80    3.99
   1  -2  14   41.55    1.87
   1   2  14   43.92    1.84
  -2  -2 -14   20.48    1.05
   2  -2  14   17.95    1.19
   3  -2  14    0.56    0.30
  -3  -2 -14    0.70    0.26
   4  -2  14   38.18    1.98
  -4  -2 -14   41.62    1.81
  -4  -3  14    7.78    0.94
   4  -3 -14    8.44    0.70
  -4  -3  14    8.90    0.74
  -4   3  14    7.39    0.67
  -4   3  14    8.94    0.84
   4   3 -14    7.76    0.70
   3  -3 -14    9.19    0.67
  -3  -3  14    9.35    0.70
  -3  -3  14    8.67    0.80
  -3   3  14   11.02    0.85
  -3   3  14    9.97    0.71
   3   3 -14    8.28    0.68
  -2  -3  14   85.84    2.64
  -2  -3  14   85.45    2.98
  -2   3  14   87.05    2.91
   2   3 -14   87.19    2.65
  -1  -3  14   15.26    1.04
  -1   3  14   17.31    1.04
   0  -3  14    5.54    0.73
   0   3  14    3.61    0.55
   1  -3  14    8.94    0.81
   2  -3  14  125.85    3.99
  -2  -3 -14  119.16    3.52
   3  -3  14   33.72    1.79
  -3  -3 -14   34.44    1.53
  -4  -4  14    2.59    0.56
  -4  -4  14    1.95    0.43
   4  -4 -14    3.08    0.49
   4   4 -14    1.97    0.42
  -4   4  14    2.08    0.48
  -3  -4  14   37.56    1.57
   3  -4 -14   36.08    1.49
  -3  -4  14   38.23    1.78
   3   4 -14   37.77    1.56
  -3   4  14   36.38    1.70
  -2  -4  14    0.26    0.24
  -2  -4  14    0.29    0.19
   2   4 -14    0.45    0.22
  -2   4  14    0.26    0.19
  -1  -4  14   43.58    1.91
  -1   4  14   44.58    1.82
   0  -4  14    1.99    0.44
   0   4  14    1.85    0.44
   1  -4  14   67.06    2.55
   2  -4  14    0.28    0.25
  -2  -4 -14    0.10    0.16
   3  -4  14    2.85    0.61
  -3  -4 -14    2.12    0.42
  -4  -5  14    4.66    0.70
  -4  -5  14    4.79    0.66
   4  -5 -14    4.39    0.60
  -4   5  14    4.69    0.70
   4   5 -14    4.98    0.64
  -3  -5  14    0.10    0.19
  -3  -5  14    0.15    0.21
   3  -5 -14   -0.17    0.13
   3   5 -14    0.21    0.18
  -3   5  14   -0.05    0.16
  -2  -5  14  147.90    4.46
  -2  -5  14  147.55    4.13
   2   5 -14  141.02    4.08
  -2   5  14  148.50    4.33
  -1  -5  14    0.79    0.33
  -1   5  14    1.31    0.34
   0  -5  14    4.20    0.65
   1  -5  14    0.02    0.16
  -2  -5 -14  140.40    4.11
   2  -5  14  144.61    4.50
  -3  -5 -14    0.33    0.24
   3  -5  14    0.85    0.36
  -3  -6  14    8.89    0.83
  -3  -6  14    8.30    0.72
   3  -6 -14    7.48    0.64
  -3   6  14    9.10    0.80
   3   6 -14    7.01    0.68
  -2  -6  14    0.10    0.17
  -2  -6  14    0.15    0.22
  -2   6  14    0.33    0.23
  -1  -6  14   35.61    1.71
   0  -6  14   31.65    1.59
   1  -6  14   64.03    2.51
   2  -6  14   14.97    1.12
   3  -6  14    0.11    0.26
  -3  -6 -14    0.28    0.23
  -3  -7  14   25.34    1.43
  -3  -7  14   23.16    1.28
  -3   7  14   23.66    1.34
  -2  -7  14   37.87    1.66
  -2  -7  14   40.37    1.86
  -1  -7  14   42.97    1.92
   0  -7  14   -0.07    0.16
   1  -7  14   11.30    0.93
   2  -7  14   39.55    1.93
  -2  -8  14    5.58    0.78
  -2  -8  14    4.70    0.64
  -1  -8  14    8.69    0.80
   0  -8  14  108.15    3.59
   1  -8  14   11.25    0.94
   2  -8  14   27.90    1.60
  -2  -9  14    2.36    0.50
  -2  -9  14    2.30    0.52
  -1  -9  14   41.56    1.90
   0  -9  14    1.95    0.48
   1  -9  14   16.22    1.16
   0 -10  14   54.95    2.30
  -4   0  15    0.27    0.22
  -4   0  15   -0.03    0.16
   4   0 -15    0.03    0.17
   3   0 -15    4.31    0.55
  -3   0  15    4.32    0.55
  -3   0  15    4.70    0.72
  -2   0  15   -0.07    0.16
  -1   0  15  160.69    4.76
   0   0  15    0.98    0.34
   1   0  15   73.33    2.70
   2   0  15    0.17    0.23
  -3   0 -15   24.70    1.34
   4  -1 -15   29.92    1.42
  -4  -1  15   29.66    1.64
  -4  -1  15   32.74    1.48
   4   1 -15   29.54    1.42
  -4   1  15   30.77    1.64
  -4   1  15   30.70    1.44
   3  -1 -15   10.76    0.74
  -3  -1  15   11.54    0.78
  -3  -1  15   10.92    0.91
  -3   1  15   11.52    0.94
  -3   1  15   11.59    0.77
   3   1 -15    9.37    0.71
  -2  -1  15  103.40    3.42
  -2   1  15  100.49    3.37
  -1  -1  15    3.98    0.64
  -1   1  15    4.80    0.69
   0  -1  15    6.51    0.82
   0   1  15    5.39    0.72
   1  -1  15   10.49    0.89
   1   1  15    9.80    0.84
   2  -1  15   82.19    3.02
  -2  -1 -15   82.51    2.74
   2   1  15   82.97    3.16
  -3  -1 -15   20.18    1.18
   3  -1  15   20.50    1.36
   4  -2 -15   15.80    0.98
  -4  -2  15   13.56    1.08
  -4  -2  15   17.14    1.04
  -4   2  15   14.21    1.09
  -4   2  15   13.84    0.94
   4   2 -15   14.22    0.96
  -3  -2  15   -0.10    0.15
  -3  -2  15    0.07    0.20
   3  -2 -15    0.10    0.18
  -3   2  15    0.06    0.18
   3   2 -15    0.15    0.17
  -3   2  15    0.25    0.23
  -2  -2  15   13.13    0.99
  -2   2  15   12.74    0.94
  -1  -2  15   75.09    2.74
  -1   2  15   72.53    2.64
   0  -2  15   59.91    2.38
   0   2  15   57.61    2.27
   1  -2  15   61.69    2.46
   1   2  15   62.46    2.39
  -2  -2 -15    0.48    0.25
   2  -2  15    0.22    0.24
   3  -2  15   15.15    1.19
  -3  -2 -15   16.33    1.04
   4  -3 -15   22.35    1.20
  -4  -3  15   21.58    1.21
  -4  -3  15   23.38    1.43
  -4   3  15   21.99    1.37
   4   3 -15   22.61    1.24
  -4   3  15   23.51    1.24
  -3  -3  15   78.85    2.93
  -3  -3  15   76.88    2.60
  -3   3  15   80.35    2.89
   3   3 -15   81.13    2.64
  -2  -3  15   24.52    1.39
  -2   3  15   23.56    1.32
  -1  -3  15   12.48    0.97
  -1   3  15   12.32    0.91
   0  -3  15    4.79    0.70
   0   3  15    4.84    0.67
   1  -3  15   63.59    2.52
  -2  -3 -15   13.18    0.86
   2  -3  15   13.05    1.05
  -3  -3 -15   57.85    2.20
   3  -3  15   59.64    2.58
  -3  -4  15    0.84    0.36
  -3  -4  15    0.16    0.18
   3   4 -15    0.29    0.19
  -3   4  15    0.21    0.22
  -2  -4  15   31.04    1.63
  -2   4  15   32.37    1.57
  -1  -4  15    9.35    0.84
  -1   4  15    7.06    0.69
   0  -4  15  143.03    4.43
   1  -4  15    2.13    0.52
   2  -4  15    6.17    0.85
   3  -4  15    5.12    0.84
  -3  -4 -15    5.36    0.68
  -3  -5  15   91.08    2.95
  -3  -5  15   89.73    3.21
  -3   5  15   89.64    3.11
   3   5 -15   87.05    2.93
  -2  -5  15    7.50    0.78
  -2   5  15    7.74    0.75
  -1  -5  15   20.50    1.30
   0  -5  15    0.21    0.21
   1  -5  15   69.64    2.71
   2  -5  15    0.48    0.29
  -3  -6  15    0.40    0.25
  -3  -6  15    0.62    0.33
  -3   6  15    0.09    0.21
   3   6 -15    0.22    0.22
  -2  -6  15   20.92    1.30
  -2   6  15   19.49    1.19
  -1  -6  15   28.96    1.56
   0  -6  15   68.61    2.66
   1  -6  15   41.67    1.97
   2  -6  15    0.16    0.24
  -2  -7  15   43.81    2.05
  -2  -7  15   46.24    2.04
  -1  -7  15    1.54    0.43
   0  -7  15    4.00    0.68
   1  -7  15   28.71    1.60
   2  -7  15   18.92    1.31
  -2  -8  15    5.49    0.80
  -2  -8  15    4.53    0.65
  -1  -8  15   55.91    2.33
   0  -8  15   16.26    1.16
   1  -8  15   62.14    2.55
  -3   0  16    0.00    0.21
  -2   0  16   56.40    2.33
  -1   0  16    0.52    0.29
   0   0  16   93.90    3.30
   1   0  16    0.18    0.22
   2   0  16   22.37    1.39
  -3  -1  16   97.47    3.46
  -3   1  16  101.28    3.47
  -2  -1  16    0.54    0.29
  -2   1  16    1.50    0.40
  -1  -1  16    0.41    0.29
  -1   1  16    0.00    0.18
   0  -1  16    7.80    0.78
   0   1  16    6.69    0.85
   1  -1  16   60.29    2.45
   1   1  16   58.40    2.37
   2  -1  16    3.64    0.68
  -3  -2  16    0.41    0.27
  -3   2  16    0.97    0.36
  -2  -2  16   34.14    1.74
  -2   2  16   34.75    1.70
  -1  -2  16   51.99    2.24
  -1   2  16   53.07    2.19
   0  -2  16   28.20    1.55
   0   2  16   26.78    1.46
   1  -2  16    8.20    0.84
   2  -2  16   13.85    1.10
  -3  -3  16   20.39    1.60
  -3  -3  16   18.75    1.27
  -3   3  16   18.97    1.25
   3   3 -16   18.62    1.27
  -2  -3  16   24.46    1.45
  -2   3  16   23.89    1.38
  -1  -3  16   -0.09    0.18
  -1   3  16    0.53    0.26
   0  -3  16   22.29    1.37
   0   3  16   22.24    1.30
   1  -3  16   32.38    1.71
   2  -3  16   67.62    2.74
  -3  -4  16    1.01    0.39
  -3  -4  16    1.32    0.37
   3   4 -16    2.36    0.46
  -3   4  16    1.34    0.41
  -2  -4  16    4.08    0.68
  -2   4  16    4.92    0.72
  -1  -4  16   96.92    3.46
  -1   4  16  100.88    3.33
   0  -4  16    0.37    0.28
   1  -4  16    0.61    0.31
   2  -4  16    0.91    0.39
  -2  -5  16   11.97    1.01
  -2   5  16   10.07    0.87
  -1  -5  16    0.21    0.22
   0  -5  16   23.64    1.43
   1  -5  16    2.15    0.52
   2  -5  16   82.51    3.18
  -2  -6  16    7.86    0.99
  -1  -6  16   91.54    3.30
   0  -6  16   13.71    1.07
   1  -6  16    1.78    0.46
  -1  -7  16    2.45    0.53
   0  -7  16   13.33    1.07
  -2   0  17    0.13    0.20
  -1   0  17   35.93    1.81
   0   0  17    0.52    0.30
   1   0  17    8.60    0.87
   2   0  17    0.57    0.33
  -2  -1  17    5.34    0.82
  -2   1  17    5.01    0.79
  -1  -1  17    0.27    0.26
  -1   1  17    0.52    0.30
   0  -1  17   88.49    3.26
   0   1  17   93.07    3.30
   1  -1  17   23.55    1.46
   1   1  17   24.27    1.44
   2  -1  17   51.35    2.33
  -2  -2  17   51.21    2.32
  -2   2  17   56.28    2.34
  -1  -2  17   39.60    1.93
  -1   2  17   36.61    1.83
   0  -2  17    2.75    0.59
   0   2  17    3.18    0.63
   1  -2  17    2.85    0.61
  -2  -3  17    1.51    0.46
  -2   3  17    0.96    0.36
  -1  -3  17   10.06    0.95
  -1   3  17   11.54    0.95
   0  -3  17   19.05    1.30
   1  -3  17   78.49    3.03
  -2  -4  17   97.60    3.47
  -2   4  17   91.10    3.28
  -1  -4  17    1.10    0.40
  -1   4  17    0.32    0.27
   0  -4  17   25.39    1.52
   1  -4  17    0.12    0.22
  -1  -5  17   26.40    1.56
   0  -5  17    0.68    0.34
  -1   0  18    0.18    0.25
   0   0  18    4.48    0.71
  -1  -1  18   53.42    2.39
  -1   1  18   55.08    2.38
   0  -1  18    4.38    0.75
   0   1  18    4.63    0.74
   0  -2  18    0.12    0.22
   0   2  18    0.22    0.27
   0   0   0    0.00    0.00
;
_shelx_hkl_checksum              35219
_shelx_res_file
;
    shelx.res created by SHELXL-2014/7
TITL VS6 in P2(1)/n
CELL 0.71073 5.0531 11.4478 13.2945 90.000 93.245 90.000
ZERR 4.00 0.0002 0.0005 0.0005 0.000 0.001 0.000
LATT 1
SYMM -x+1/2, y+1/2, -z+1/2
SFAC C H N O I
UNIT 28 24 4 4 4
TEMP 23.000
ACTA
OMIT 0 52
L.S. 12
FMAP 2
PLAN 5
OMIT 3   7   5
OMIT 1   7   9
HTAB
BOND $H
CONF
SIZE 0.23 0.22 0.21
WGHT    0.007500    0.690800
EXTI    0.016982
FVAR       0.19270
I1    5    0.149222    0.555702    0.180904    11.00000    0.01454    0.01736 =
         0.01910    0.00353    0.00030    0.00237
O1    4    0.307267    0.432181    0.394258    11.00000    0.00817    0.03001 =
         0.01518   -0.00263    0.00193   -0.00072
N1    3    0.750786    0.440199    0.415361    11.00000    0.00935    0.02804 =
         0.01317   -0.00440    0.00206   -0.00028
AFIX  93
H1A   2    0.743764    0.464981    0.476219    11.00000   -1.20000
H1B   2    0.901780    0.429675    0.389987    11.00000   -1.20000
AFIX   0
C5    1    0.630285    0.279298    0.065784    11.00000    0.02856    0.02003 =
         0.01773   -0.00713    0.00696   -0.00380
AFIX  43
H5    2    0.651417    0.247313    0.002437    11.00000   -1.20000
AFIX   0
C6    1    0.784626    0.239975    0.147748    11.00000    0.02104    0.01253 =
         0.02771   -0.00478    0.00855   -0.00100
AFIX  43
H6    2    0.911344    0.182351    0.139560    11.00000   -1.20000
AFIX   0
C7    1    0.750409    0.286516    0.242253    11.00000    0.01376    0.01400 =
         0.02200    0.00127    0.00238   -0.00219
AFIX  43
H7    2    0.855481    0.259840    0.297201    11.00000   -1.20000
AFIX   0
C2    1    0.560986    0.372760    0.256477    11.00000    0.01002    0.01221 =
         0.01543   -0.00033    0.00186   -0.00344
C1    1    0.529660    0.418299    0.360861    11.00000    0.01176    0.01170 =
         0.01417    0.00356    0.00146   -0.00020
C4    1    0.444006    0.366213    0.077465    11.00000    0.02129    0.02262 =
         0.01399   -0.00120   -0.00017   -0.00422
AFIX  43
H4    2    0.341630    0.393137    0.021907    11.00000   -1.20000
AFIX   0
C3    1    0.410109    0.413166    0.172177    11.00000    0.01201    0.01216 =
         0.01733    0.00049    0.00252   -0.00185
HKLF 4 1 1 0 0 0 1 0 0 0 1
REM  VS6 in P2(1)/n
REM R1 =  0.0144 for    1461 Fo > 4sig(Fo)  and  0.0151 for all    1504 data
REM     92 parameters refined using      0 restraints
END
WGHT      0.0075      0.6908
REM Instructions for potential hydrogen bonds
EQIV $1 -x+1, -y+1, -z+1
HTAB N1 O1_$1
EQIV $2 x+1, y, z
HTAB N1 O1_$2
REM Highest difference peak  0.446,  deepest hole -0.347,  1-sigma level  0.072
Q1    1   0.1961  0.5960  0.1295  11.00000  0.05    0.45
Q2    1   0.1495  0.5654  0.2557  11.00000  0.05    0.41
Q3    1   0.1226  0.5930  0.2418  11.00000  0.05    0.40
Q4    1   0.0796  0.5064  0.2383  11.00000  0.05    0.39
Q5    1   0.5437  0.3970  0.3059  11.00000  0.05    0.38
;
_shelx_res_checksum              65401
loop_
_space_group_symop_operation_xyz
'x, y, z'
'-x+1/2, y+1/2, -z+1/2'
'-x, -y, -z'
'x-1/2, -y-1/2, z-1/2'
loop_
_atom_site_type_symbol
_atom_site_label
_atom_site_fract_x
_atom_site_fract_y
_atom_site_fract_z
_atom_site_U_iso_or_equiv
_atom_site_adp_type
_atom_site_calc_flag
_atom_site_occupancy
I I1 0.14922(2) 0.55570(2) 0.18090(2) 0.01703(7) Uani d 1
O O1 0.3073(3) 0.43218(14) 0.39426(11) 0.0177(3) Uani d 1
N N1 0.7508(3) 0.44020(16) 0.41536(14) 0.0168(4) Uani d 1
H H1A 0.7438 0.4650 0.4762 0.020 Uiso calc 1
H H1B 0.9018 0.4297 0.3900 0.020 Uiso calc 1
C C5 0.6303(4) 0.2793(2) 0.06578(17) 0.0219(5) Uani d 1
H H5 0.6514 0.2473 0.0024 0.026 Uiso calc 1
C C6 0.7846(4) 0.23997(19) 0.14775(17) 0.0202(5) Uani d 1
H H6 0.9113 0.1824 0.1396 0.024 Uiso calc 1
C C7 0.7504(4) 0.28652(19) 0.24225(17) 0.0165(4) Uani d 1
H H7 0.8555 0.2598 0.2972 0.020 Uiso calc 1
C C2 0.5610(4) 0.37276(18) 0.25648(15) 0.0125(4) Uani d 1
C C1 0.5297(4) 0.41830(18) 0.36086(15) 0.0125(4) Uani d 1
C C4 0.4440(4) 0.3662(2) 0.07746(16) 0.0193(5) Uani d 1
H H4 0.3416 0.3931 0.0219 0.023 Uiso calc 1
C C3 0.4101(4) 0.41317(18) 0.17218(16) 0.0138(4) Uani d 1
loop_
_atom_site_aniso_label
_atom_site_aniso_U_11
_atom_site_aniso_U_22
_atom_site_aniso_U_33
_atom_site_aniso_U_12
_atom_site_aniso_U_13
_atom_site_aniso_U_23
I1 0.01454(9) 0.01736(10) 0.01910(10) 0.00237(5) 0.00030(5) 0.00353(5)
O1 0.0082(7) 0.0300(9) 0.0152(8) -0.0007(6) 0.0019(5) -0.0026(6)
N1 0.0094(8) 0.0280(11) 0.0132(9) -0.0003(7) 0.0021(6) -0.0044(8)
C5 0.0286(12) 0.0200(11) 0.0177(12) -0.0038(9) 0.0070(9) -0.0071(9)
C6 0.0210(11) 0.0125(11) 0.0277(12) -0.0010(9) 0.0085(9) -0.0048(9)
C7 0.0138(9) 0.0140(10) 0.0220(11) -0.0022(8) 0.0024(8) 0.0013(9)
C2 0.0100(9) 0.0122(10) 0.0154(10) -0.0034(7) 0.0019(7) -0.0003(8)
C1 0.0118(9) 0.0117(9) 0.0142(10) -0.0002(8) 0.0015(7) 0.0036(8)
C4 0.0213(10) 0.0226(12) 0.0140(11) -0.0042(9) -0.0002(8) -0.0012(9)
C3 0.0120(9) 0.0122(10) 0.0173(11) -0.0019(8) 0.0025(8) 0.0005(8)
loop_
_atom_type_symbol
_atom_type_description
_atom_type_scat_dispersion_real
_atom_type_scat_dispersion_imag
_atom_type_scat_source
C C 0.0033 0.0016 'International Tables Vol C Tables 4.2.6.8 and 6.1.1.4'
H H 0.0000 0.0000 'International Tables Vol C Tables 4.2.6.8 and 6.1.1.4'
N N 0.0061 0.0033 'International Tables Vol C Tables 4.2.6.8 and 6.1.1.4'
O O 0.0106 0.0060 'International Tables Vol C Tables 4.2.6.8 and 6.1.1.4'
I I -0.4742 1.8119 'International Tables Vol C Tables 4.2.6.8 and 6.1.1.4'
loop_
_geom_angle_atom_site_label_1
_geom_angle_atom_site_label_2
_geom_angle_atom_site_label_3
_geom_angle
C1 N1 H1A 120.0
C1 N1 H1B 120.0
H1A N1 H1B 120.0
C6 C5 C4 120.2(2)
C6 C5 H5 119.9
C4 C5 H5 119.9
C5 C6 C7 119.8(2)
C5 C6 H6 120.1
C7 C6 H6 120.1
C6 C7 C2 121.1(2)
C6 C7 H7 119.4
C2 C7 H7 119.4
C7 C2 C3 118.20(19)
C7 C2 C1 118.73(18)
C3 C2 C1 123.07(18)
O1 C1 N1 122.29(19)
O1 C1 C2 121.37(18)
N1 C1 C2 116.32(16)
C5 C4 C3 120.0(2)
C5 C4 H4 120.0
C3 C4 H4 120.0
C4 C3 C2 120.61(19)
C4 C3 I1 117.38(16)
C2 C3 I1 121.81(15)
loop_
_geom_bond_atom_site_label_1
_geom_bond_atom_site_label_2
_geom_bond_distance
I1 C3 2.105(2)
O1 C1 1.242(2)
N1 C1 1.321(3)
N1 H1A 0.8600
N1 H1B 0.8600
C5 C6 1.379(3)
C5 C4 1.384(3)
C5 H5 0.9300
C6 C7 1.385(3)
C6 H6 0.9300
C7 C2 1.395(3)
C7 H7 0.9300
C2 C3 1.398(3)
C2 C1 1.499(3)
C4 C3 1.389(3)
C4 H4 0.9300
loop_
_geom_hbond_atom_site_label_D
_geom_hbond_atom_site_label_H
_geom_hbond_atom_site_label_A
_geom_hbond_site_symmetry_A
_geom_hbond_distance_DH
_geom_hbond_distance_HA
_geom_hbond_distance_DA
_geom_hbond_angle_DHA
_geom_hbond_publ_flag
N1 H1A O1 3_666 0.86 2.11 2.951(2) 164 yes
N1 H1B O1 1_655 0.86 2.05 2.843(2) 154 yes
C3 I1 Cg1 2_555 2.105(2) 3.9860(10) 5.877(2) 147.80(10) yes
loop_
_geom_torsion_atom_site_label_1
_geom_torsion_atom_site_label_2
_geom_torsion_atom_site_label_3
_geom_torsion_atom_site_label_4
_geom_torsion
C4 C5 C6 C7 0.9(3)
C5 C6 C7 C2 0.2(3)
C6 C7 C2 C3 -1.5(3)
C6 C7 C2 C1 178.91(18)
C7 C2 C1 O1 -135.1(2)
C3 C2 C1 O1 45.3(3)
C7 C2 C1 N1 43.5(3)
C3 C2 C1 N1 -136.1(2)
C6 C5 C4 C3 -0.7(3)
C5 C4 C3 C2 -0.6(3)
C5 C4 C3 I1 174.29(16)
C7 C2 C3 C4 1.7(3)
C1 C2 C3 C4 -178.75(18)
C7 C2 C3 I1 -172.99(14)
C1 C2 C3 I1 6.6(3)

_cod_database_fobs_code 2242568
