#------------------------------------------------------------------------------
#$Date: 2018-02-14 10:11:04 +0200 (Wed, 14 Feb 2018) $
#$Revision: 206431 $
#$URL: file:///home/coder/svn-repositories/cod/cif/2/24/23/2242381.cif $
#------------------------------------------------------------------------------
#
# This file is available in the Crystallography Open Database (COD),
# http://www.crystallography.net/. The original data for this entry
# were provided by IUCr Journals, http://journals.iucr.org/.
#
# The file may be used within the scientific community so long as
# proper attribution is given to the journal article from which the
# data were obtained.
#
data_2242381
loop_
_publ_author_name
'Lasri, Jamal'
'Chulvi, Katherine'
'Eltayeb, Naser Eltaher'
_publ_section_title
;
 Crystal structures of (<i>E</i>)-1-naphthaldehyde oxime and
 (<i>E</i>)-phenanthrene-9-carbaldehyde oxime
;
_journal_coeditor_code           ZS2397
_journal_issue                   3
_journal_name_full               'Acta Crystallographica Section E'
_journal_page_first              332
_journal_page_last               336
_journal_paper_doi               10.1107/S2056989018002116
_journal_volume                  74
_journal_year                    2018
_chemical_formula_iupac          'C15 H11 N O'
_chemical_formula_moiety         'C15 H11 N O'
_chemical_formula_sum            'C15 H11 N O'
_chemical_formula_weight         221.25
_chemical_name_common            '<i>E</i>-phenanthrene-9-carbaldehyde oxime'
_chemical_name_systematic
;
(<i>E</i>)-Phenanthrene-9-carbaldehyde oxime
;
_space_group_crystal_system      monoclinic
_space_group_IT_number           4
_space_group_name_Hall           'P 2yb'
_space_group_name_H-M_alt        'P 1 21 1'
_symmetry_space_group_name_Hall  'P 2yb'
_symmetry_space_group_name_H-M   'P 1 21 1'
_atom_sites_solution_hydrogens   mixed
_audit_creation_method           SHELXL-2014/7
_cell_angle_alpha                90
_cell_angle_beta                 106.680(7)
_cell_angle_gamma                90
_cell_formula_units_Z            2
_cell_length_a                   8.2397(8)
_cell_length_b                   4.9728(5)
_cell_length_c                   13.9332(14)
_cell_measurement_reflns_used    2141
_cell_measurement_temperature    295(2)
_cell_measurement_theta_max      24.89
_cell_measurement_theta_min      2.58
_cell_volume                     546.88(10)
_computing_cell_refinement
;
SAINT (Bruker, 2016)
;
_computing_data_collection
;
APEX3 (Bruker, 2016)
;
_computing_data_reduction
;
SAINT (Bruker, 2016)
;
_computing_molecular_graphics
;
SHELXL2014 (Sheldrick, 2015b)
;
_computing_structure_refinement
;
SHELXL2014 (Sheldrick, 2015b)
;
_computing_structure_solution
;
SHELXT2014 (Sheldrick, 2015a)
;
_diffrn_ambient_temperature      295(2)
_diffrn_measured_fraction_theta_full 0.999
_diffrn_measured_fraction_theta_max 0.999
_diffrn_measurement_device_type  'Bruker D8 Quest'
_diffrn_measurement_method       '\f and \w scans'
_diffrn_radiation_type           MoK\a
_diffrn_radiation_wavelength     0.71073
_diffrn_reflns_av_R_equivalents  0.0528
_diffrn_reflns_limit_h_max       9
_diffrn_reflns_limit_h_min       -9
_diffrn_reflns_limit_k_max       5
_diffrn_reflns_limit_k_min       -5
_diffrn_reflns_limit_l_max       16
_diffrn_reflns_limit_l_min       -16
_diffrn_reflns_number            7330
_diffrn_reflns_theta_full        25.242
_diffrn_reflns_theta_max         25.344
_diffrn_reflns_theta_min         2.580
_diffrn_standards_interval_count 0
_diffrn_standards_interval_time  0
_diffrn_standards_number         0
_exptl_absorpt_coefficient_mu    0.085
_exptl_absorpt_correction_T_max  0.7452
_exptl_absorpt_correction_T_min  0.6982
_exptl_absorpt_correction_type   multi-scan
_exptl_absorpt_process_details
;
(SADABS; Bruker, 2016)
;
_exptl_crystal_colour            colourless
_exptl_crystal_density_diffrn    1.344
_exptl_crystal_description       block
_exptl_crystal_F_000             232
_exptl_crystal_size_max          0.157
_exptl_crystal_size_mid          0.090
_exptl_crystal_size_min          0.054
_refine_diff_density_max         0.147
_refine_diff_density_min         -0.148
_refine_ls_extinction_coef       0.058(11)
_refine_ls_extinction_expression Fc^*^=kFc[1+0.001xFc^2^\l^3^/sin(2\q)]^-1/4^
_refine_ls_extinction_method
;
SHELXL2016 (Sheldrick, 2015b)
;
_refine_ls_goodness_of_fit_ref   1.041
_refine_ls_hydrogen_treatment    mixed
_refine_ls_matrix_type           full
_refine_ls_number_parameters     159
_refine_ls_number_reflns         1988
_refine_ls_number_restraints     1
_refine_ls_restrained_S_all      1.041
_refine_ls_R_factor_all          0.0634
_refine_ls_R_factor_gt           0.0400
_refine_ls_shift/su_max          0.000
_refine_ls_shift/su_mean         0.000
_refine_ls_structure_factor_coef Fsqd
_refine_ls_weighting_details
'w=1/[\s^2^(Fo^2^)+(0.0478P)^2^] where P=(Fo^2^+2Fc^2^)/3'
_refine_ls_weighting_scheme      calc
_refine_ls_wR_factor_gt          0.0833
_refine_ls_wR_factor_ref         0.0933
_reflns_number_gt                1509
_reflns_number_total             1988
_reflns_threshold_expression     'I > 2\s(I)'
_cod_data_source_file            zs2397sup1.cif
_cod_data_source_block           II
_cod_database_code               2242381
_shelx_space_group_comment
;
The symmetry employed for this shelxl refinement is uniquely defined
by the following loop, which should always be used as a source of
symmetry information in preference to the above space-group names.
They are only intended as comments.
;
_shelx_estimated_absorpt_t_min   0.987
_shelx_estimated_absorpt_t_max   0.995
_shelx_hkl_file
;
  -1   0   0 1223.08   33.60
  -1   0   0 1285.67   33.60
  -1   0   0 1221.28   33.80
  -2   0   0   15.30    1.70
   2   0   0   17.70    1.90
   2   0   0   17.40    2.10
  -2   0   0   15.90    1.80
  -2   0   0   16.60    1.90
   3   0   0  236.78    8.20
  -3   0   0  251.67    9.00
  -3   0   0  247.18    8.40
  -3   0   0  243.18    8.50
   3   0   0  243.28    9.00
   4   0   0  225.38    9.50
  -4   0   0  229.58    8.70
  -4   0   0  234.18    9.20
   4   0   0  225.08    8.50
  -4   0   0  213.08    8.50
   5   0   0   11.90    2.80
   5   0   0    0.70    3.10
  -5   0   0   11.90    2.90
  -5   0   0   10.10    2.90
  -5   0   0    5.30    2.50
  -6   0   0   15.70    3.70
   6   0   0   17.70    3.80
  -6   0   0   12.80    4.10
   6   0   0   15.10    4.10
  -6   0   0   14.40    3.70
  -7   0   0   -0.70    4.70
  -7   0   0   -2.50    3.70
   7   0   0    0.30    3.70
  -7   0   0   -3.50    3.20
   8   0   0   14.70    5.70
  -8   0   0   17.30    6.70
  -8   0   0   27.80    6.00
  -8   0   0   21.00    5.30
   8   0   0   25.00    7.50
  -9   0   0    1.80    7.30
   9   0   0    3.80    6.10
  -9   0   0    3.70    5.60
  -9   0   0    1.70    7.00
   0  -1   0    0.60    1.20
   0  -1   0   -0.30    0.90
   0   1   0   -1.40    1.00
   0   1   0   -1.30    0.70
   1  -1   0  308.57    9.20
  -1  -1   0  313.17    9.40
   1  -1   0  303.27    9.90
  -1   1   0  302.07    9.90
  -1   1   0  333.77    9.90
  -1   1   0  294.27    9.20
   1   1   0  323.77    9.50
  -2  -1   0  203.78    6.70
  -2  -1   0  203.28    7.60
   2  -1   0  201.58    6.80
   2  -1   0  209.68    7.50
  -2   1   0  203.38    7.50
   2   1   0  202.08    6.90
  -2   1   0  200.18    6.80
  -2   1   0  212.48    7.50
   3  -1   0   78.09    4.20
   3  -1   0   70.79    4.40
  -3  -1   0   77.19    4.50
  -3  -1   0   85.99    4.00
   3   1   0   72.09    3.90
  -3   1   0   73.39    4.50
  -3   1   0   75.89    4.00
  -3   1   0   72.59    4.50
   3   1   0   77.29    5.10
   4  -1   0  292.17   10.90
  -4  -1   0  290.07   11.30
  -4  -1   0  289.47   10.10
   4  -1   0  287.37   10.80
  -4  -1   0  304.07   10.40
  -4   1   0  283.97   10.40
  -4   1   0  299.97   11.10
  -4   1   0  291.97   11.00
   4   1   0  292.07   10.10
   4   1   0  285.97   11.90
   5  -1   0   32.00    4.40
   5  -1   0   28.40    4.10
  -5  -1   0   26.50    4.40
  -5  -1   0   23.10    3.50
  -5  -1   0   25.30    3.30
  -5   1   0   27.30    3.70
   5   1   0   25.70    3.40
  -5   1   0   24.60    4.00
   5   1   0   14.40    4.40
  -5   1   0   20.70    3.80
  -6  -1   0   86.19    6.30
  -6  -1   0   73.89    5.90
  -6  -1   0   94.09    8.00
   6  -1   0   71.29    6.60
   6  -1   0   73.69    7.10
   6   1   0   81.29    7.30
  -6   1   0   73.19    6.30
  -6   1   0   69.69    6.30
   6   1   0   76.19    5.80
  -6   1   0   70.59    6.80
   7  -1   0   26.90    6.20
  -7  -1   0   15.10    4.60
  -7  -1   0   25.50    6.10
  -7  -1   0   25.30    4.90
   7  -1   0   18.20    5.90
  -7   1   0   14.50    5.10
  -7   1   0   19.00    5.60
   7   1   0   25.00    4.70
  -7   1   0   14.10    4.70
   8  -1   0   51.99    7.30
   8  -1   0   58.89    9.10
  -8  -1   0   44.80    6.60
  -8  -1   0   34.70    6.90
  -8   1   0   42.50    7.10
  -8   1   0   29.90    6.00
  -8   1   0   45.80    7.70
   8   1   0   34.30    7.20
  -9  -1   0   -5.40    8.20
  -9  -1   0    9.70    6.80
  -9  -1   0    2.50    5.10
   9  -1   0    7.30    8.80
   9  -1   0   -4.30    6.60
  -9   1   0   15.40    7.80
  -9   1   0    0.70    7.70
   9   1   0    7.80    6.00
  -9   1   0    3.40    5.60
   0  -2   0  213.18    8.10
   0  -2   0  199.98    7.50
   0   2   0  215.68    8.00
   1  -2   0   59.89    3.30
   1  -2   0   63.19    4.10
  -1   2   0   74.09    4.50
  -1   2   0   66.79    3.50
  -1   2   0   73.19    4.30
   2  -2   0   89.59    4.10
  -2  -2   0   79.39    5.20
  -2  -2   0   84.69    4.40
   2  -2   0   82.59    5.30
  -2   2   0   87.79    4.10
  -2   2   0   89.99    5.40
   2   2   0   91.59    4.70
  -2   2   0   87.29    5.10
  -3  -2   0   25.10    2.80
   3  -2   0   24.60    2.90
   3  -2   0   23.10    3.70
  -3  -2   0   26.50    3.90
  -3   2   0   24.90    3.50
  -3   2   0   33.60    4.20
  -3   2   0   28.80    2.80
   4  -2   0    5.10    2.30
   4  -2   0    2.30    2.90
  -4  -2   0   -2.80    2.70
  -4  -2   0    0.80    1.90
  -4   2   0   -0.70    2.80
  -4   2   0    5.30    2.10
  -4   2   0   -1.00    2.70
   4   2   0    2.70    2.20
  -5  -2   0   95.39    7.70
   5  -2   0   97.59    6.70
   5  -2   0   93.19    7.10
  -5  -2   0  100.79    5.80
  -5   2   0   94.49    7.50
   5   2   0   94.69    6.00
  -5   2   0   77.19    6.70
  -5   2   0   93.69    6.10
   6  -2   0  380.36   15.20
  -6  -2   0  386.66   14.20
  -6  -2   0  369.16   14.20
   6  -2   0  388.76   17.80
  -6   2   0  394.86   16.30
  -6   2   0  367.46   15.80
  -6   2   0  371.16   14.40
   6   2   0  393.16   14.50
   7  -2   0   -4.90    5.10
  -7  -2   0    3.00    4.40
  -7  -2   0   -2.70    3.60
   7  -2   0   -4.40    4.50
  -7  -2   0   -5.90    5.90
  -7   2   0    2.30    4.30
  -7   2   0   -4.40    5.20
  -7   2   0    0.30    4.30
   7   2   0    7.10    4.20
  -8  -2   0   15.90    5.20
  -8  -2   0    4.30    8.00
   8  -2   0   -8.00    6.50
   8  -2   0   -0.40    6.50
  -8  -2   0   10.80    6.10
  -8   2   0    2.70    7.30
  -8   2   0   -1.20    5.90
  -8   2   0    4.30    5.10
   8   2   0    9.70    4.90
   0  -3   0   -3.10    1.80
   0  -3   0   -4.50    1.50
   0   3   0   -1.50    2.20
  -1  -3   0  118.89    6.60
   1  -3   0  112.19    7.00
  -1  -3   0  122.89    6.70
   1  -3   0  119.69    5.60
  -1   3   0  115.19    6.80
   1   3   0  120.09    6.40
  -1   3   0  125.29    7.10
  -2  -3   0  837.72   26.00
   2  -3   0  839.12   26.30
   2  -3   0  791.22   24.10
  -2  -3   0  814.42   25.50
   2   3   0  819.12   25.20
  -2   3   0  822.12   24.60
  -2   3   0  839.22   26.60
  -2   3   0  818.22   26.10
  -3  -3   0   25.10    4.60
   3  -3   0   23.70    3.10
  -3  -3   0   18.80    3.30
   3  -3   0   24.10    4.70
  -3   3   0   20.80    4.50
  -3   3   0   24.90    3.10
  -3   3   0   15.70    4.70
   3   3   0   25.00    3.70
  -4  -3   0  105.89    6.50
  -4  -3   0  104.89    8.20
   4  -3   0  107.89    6.20
   4  -3   0  101.69    7.20
  -4   3   0  104.39    6.00
  -4   3   0   91.59    7.50
  -4   3   0  107.99    8.50
   5  -3   0    1.80    3.40
   5  -3   0    6.80    4.60
  -5  -3   0    2.10    5.80
  -5  -3   0    0.10    3.30
  -5   3   0   -3.10    3.50
  -5   3   0   10.80    4.40
  -5   3   0    4.50    2.90
  -6  -3   0   73.99    7.30
  -6  -3   0   75.19    8.50
   6  -3   0   84.29    8.10
   6  -3   0   70.49    8.40
  -6   3   0   90.69   10.30
  -6   3   0   76.19    8.20
  -6   3   0   74.19    6.90
  -7  -3   0   59.19    7.00
  -7  -3   0   74.29   10.60
  -7  -3   0   51.49    6.50
   7  -3   0   62.09    7.80
   7  -3   0   62.79    7.90
  -7   3   0   45.10    7.60
  -7   3   0   65.09    7.60
  -7   3   0   68.59   10.10
   8  -3   0   -7.40    7.90
  -8  -3   0   -4.00    5.70
  -8  -3   0    7.20    9.80
   8  -3   0   10.00    7.20
  -8  -3   0    8.30    5.00
  -8   3   0   13.20    7.10
  -8   3   0    0.30    6.00
  -8   3   0   -8.50    8.60
   0  -4   0   28.80    4.40
   0  -4   0   27.40    5.50
   0   4   0   25.50    4.80
  -1  -4   0   40.50    5.30
   1  -4   0   44.90    5.00
  -1  -4   0   49.60    6.10
   1  -4   0   48.00    5.80
  -1   4   0   38.10    5.60
   1   4   0   50.19    6.00
  -2  -4   0   15.90    5.00
   2  -4   0   16.20    5.10
  -2  -4   0    9.20    4.30
   2  -4   0   10.30    3.10
  -2  -4   0   12.70    4.40
  -2   4   0   11.60    4.60
  -2   4   0    5.80    5.00
   2   4   0   10.70    3.80
  -3  -4   0   27.40    5.90
   3  -4   0   24.10    5.90
  -3  -4   0   23.50    6.10
  -3  -4   0   19.60    5.20
  -3  -4   0   26.50    4.60
   3  -4   0   24.60    3.80
  -3   4   0   21.50    5.00
   3   4   0   21.40    4.60
  -3   4   0   23.10    4.00
  -3   4   0   20.30    5.40
   4  -4   0   23.90    4.10
   4  -4   0   34.80    6.50
  -4  -4   0   32.10    5.20
  -4   4   0   25.00    5.80
  -4   4   0   26.60    6.00
  -4   4   0   33.60    4.60
   5  -4   0   18.00    4.80
  -5  -4   0   20.60    4.60
   5  -4   0   24.70    6.90
  -5  -4   0   24.00    7.60
  -5   4   0   26.20    8.00
  -5   4   0   22.90    6.10
  -5   4   0   28.90    4.80
   6  -4   0   76.59    8.90
  -6  -4   0   57.79   12.30
  -6  -4   0   72.99   10.90
   6  -4   0   73.49    9.90
  -6   4   0   95.49    8.20
  -6   4   0   74.29    9.60
  -6   4   0   68.29   11.20
  -7  -4   0   21.80   10.00
   7  -4   0    9.90    7.00
   7  -4   0   19.00    9.20
  -7  -4   0   10.60    6.90
  -7   4   0   24.90    6.70
  -7   4   0    6.40    8.10
  -7   4   0   12.10    6.40
   0  -5   0    4.00    4.50
   0  -5   0    1.20    5.80
   0   5   0   -0.60    4.20
   1  -5   0    7.70    4.00
  -1  -5   0   -2.90    5.20
  -1  -5   0    6.20    5.00
  -1  -5   0    0.70    4.90
   1  -5   0    2.40    6.10
   1   5   0   -0.70    4.40
  -1   5   0    3.90    4.50
  -2  -5   0   -2.20    5.90
   2  -5   0    8.20    6.40
  -2  -5   0    9.80    5.10
   2  -5   0   -4.20    4.10
  -2  -5   0    4.50    5.70
  -2   5   0   10.00    5.10
   2   5   0    9.30    5.00
  -3  -5   0   10.00    7.30
   3  -5   0   25.80    7.50
   3  -5   0   11.10    4.20
  -3  -5   0   19.10    5.90
  -3  -5   0   18.70    7.10
  -3  -5   0   16.40    7.10
  -3   5   0   23.10    7.80
  -3   5   0    8.70    5.90
   3   5   0   12.00    5.20
  -4  -5   0   39.90    9.50
   4  -5   0   35.40    5.30
  -4  -5   0   53.29    7.70
  -4  -5   0   41.90    8.50
  -4  -5   0   56.59    9.40
   4  -5   0   45.30    9.00
  -4   5   0   39.10    7.90
  -4   5   0   46.40    9.00
   5  -5   0    4.90    5.40
  -5  -5   0   -2.40    8.00
  -5  -5   0    2.70    6.40
   5  -5   0   -5.60    8.90
  -5  -5   0   20.40   10.00
  -5  -5   0   10.40    8.10
  -5   5   0   11.30   10.00
  -5   5   0    4.60    5.50
   9   0  -1   -7.40    5.00
  -9   0   1   -0.30    6.10
  -9   0   1    5.70    7.90
  -9   0   1   -1.60    4.50
  -8   0   1    1.90    5.30
  -8   0   1    2.10    5.60
   8   0  -1   -0.50    4.80
  -8   0   1   -1.90    4.00
   7   0  -1    0.80    5.00
  -7   0   1   -0.90    3.90
  -7   0   1    6.20    3.70
  -7   0   1    5.10    4.10
   7   0  -1    3.80    3.60
   6   0  -1    0.10    3.00
  -6   0   1    1.30    2.90
  -6   0   1    3.60    3.00
   6   0  -1   -0.60    3.70
  -6   0   1    1.30    3.30
   5   0  -1   55.89    4.70
   5   0  -1   52.89    5.50
  -5   0   1   51.49    4.60
  -5   0   1   50.29    4.50
  -5   0   1   51.69    5.00
  -4   0   1    3.90    1.90
  -4   0   1    5.50    2.20
   4   0  -1    8.90    2.40
  -4   0   1    4.20    2.10
   4   0  -1    5.60    2.20
  -3   0   1  711.13   20.40
  -3   0   1  682.83   20.30
   3   0  -1  697.73   20.80
  -3   0   1  693.13   20.70
   3   0  -1  676.23   20.30
  -2   0   1   54.49    2.90
   2   0  -1   54.59    2.90
  -2   0   1   53.59    2.90
  -2   0   1   49.20    2.90
   2   0  -1   49.60    3.00
  -1   0   1  884.91   24.20
   1   0   1  636.44   17.90
  -1   0  -1  700.83   18.00
  -1   0  -1  637.44   18.40
   1   0   1  651.03   18.40
  -1   0  -1  640.14   17.90
  -2   0  -1   96.09    4.40
  -2   0  -1   99.69    3.90
  -2   0  -1  102.79    3.90
   2   0   1   91.59    3.80
   2   0   1   99.49    4.60
   3   0   1 2177.08   60.39
  -3   0  -1 2126.69   61.09
  -3   0  -1 2210.38   61.29
  -3   0  -1 2312.67   60.59
   3   0   1 2229.28   61.49
   4   0   1  894.11   27.80
   4   0   1  907.41   26.60
  -4   0  -1  917.01   26.80
  -4   0  -1  921.81   27.70
  -4   0  -1  911.21   26.80
   5   0   1   18.50    3.30
  -5   0  -1   15.20    3.20
  -5   0  -1   16.20    3.00
   5   0   1   14.70    3.40
  -5   0  -1   13.40    3.10
   6   0   1   -2.10    2.90
  -6   0  -1   -0.10    3.00
   6   0   1   -8.40    3.60
  -6   0  -1    4.10    3.20
  -6   0  -1    0.90    3.00
   7   0   1    0.40    5.20
  -7   0  -1   -0.70    3.40
  -7   0  -1    0.90    4.00
  -7   0  -1    7.60    4.70
   7   0   1    5.80    3.90
  -8   0  -1   -3.00    4.20
   8   0   1   -6.90    6.40
   8   0   1   -2.80    4.40
  -8   0  -1    5.50    5.20
  -8   0  -1    6.20    6.60
  -9   0  -1   15.90    5.90
   9   0   1    5.90    7.40
  -9   0  -1   23.20    9.10
  -9   0  -1    9.20    7.70
   9   0   1    6.10    6.20
  -9  -1   1   18.20    7.00
  -9  -1   1    1.60    4.70
  -9  -1   1    7.70    7.90
   9  -1  -1    0.40    6.60
  -9   1   1   23.70    8.40
  -9   1   1    7.90    6.80
   9   1  -1    3.70    6.10
  -9   1   1    5.50    5.60
  -8  -1   1   20.90    5.30
  -8  -1   1   23.50    5.80
   8  -1  -1   19.30    6.80
  -8  -1   1   26.90    7.30
   8  -1  -1   17.90    6.10
   8   1  -1   26.50    5.80
  -8   1   1   37.20    7.30
  -8   1   1   22.90    5.70
  -8   1   1   21.50    6.30
  -7  -1   1   -1.80    3.60
  -7  -1   1    6.30    4.30
  -7  -1   1    5.70    3.50
   7  -1  -1   -3.20    4.50
  -7   1   1   -5.30    3.00
   7   1  -1    1.60    3.70
  -7   1   1   -4.00    4.60
  -7   1   1    0.10    4.00
  -6  -1   1  315.37   13.70
  -6  -1   1  286.67   11.90
  -6  -1   1  314.87   12.10
   6  -1  -1  307.87   12.70
   6  -1  -1  299.27   13.20
  -6   1   1  310.27   12.30
   6   1  -1  299.37   11.90
  -6   1   1  317.87   13.10
  -6   1   1  277.47   12.40
  -5  -1   1   32.40    3.80
  -5  -1   1   37.80    4.80
  -5  -1   1   33.30    4.00
   5  -1  -1   35.60    4.40
   5  -1  -1   29.20    3.90
  -5   1   1   31.00    4.20
   5   1  -1   31.20    3.80
  -5   1   1   37.70    4.00
  -5   1   1   31.40    4.00
   4  -1  -1  256.47    9.90
  -4  -1   1  259.37    9.50
  -4  -1   1  270.17   10.80
   4  -1  -1  268.77   10.20
  -4   1   1  261.57   10.10
  -4   1   1  271.47   10.30
   4   1  -1  261.37    9.60
  -4   1   1  269.67    9.50
  -3  -1   1   12.90    2.00
   3  -1  -1   11.80    1.90
  -3  -1   1   11.60    2.70
   3  -1  -1   12.80    2.20
  -3   1   1   13.30    1.80
  -3   1   1   17.40    2.60
   3   1  -1   13.80    2.10
  -3   1   1    8.80    2.40
   2  -1  -1 1092.29   30.70
  -2  -1   1 1070.69   30.30
   2  -1  -1 1053.09   29.80
   2   1  -1 1077.49   30.40
  -2   1   1 1077.89   30.80
  -2   1   1 1046.50   29.70
  -2   1   1 1161.78   30.70
   1  -1  -1   22.10    1.90
  -1  -1   1   22.50    1.90
   1  -1  -1   29.40    1.30
   1   1  -1   26.40    2.10
  -1   1   1   30.40    2.20
  -1   1   1   23.80    2.00
   0  -1   1 1621.24   44.80
   0  -1   1 1585.14   44.60
   0  -1  -1 1631.64   44.40
   0  -1  -1 1569.44   44.10
   0   1   1 1585.54   44.30
   0   1  -1 1750.22   44.80
   0   1   1 1722.63   44.20
   0   1  -1 1591.44   44.70
  -1  -1  -1 1529.55   42.80
   1  -1   1 1534.85   43.30
  -1  -1  -1 1604.64   43.50
   1  -1   1 1594.64   43.70
   1   1   1 1613.54   42.80
  -1   1  -1 1560.84   43.70
   1   1   1 1554.64   43.60
  -1   1  -1 1569.74   43.30
  -1   1  -1 1671.13   43.70
  -2  -1  -1  448.66   12.70
   2  -1   1  443.66   13.40
  -2  -1  -1  428.16   13.90
   2  -1   1  430.36   13.70
  -2   1  -1  443.56   13.80
  -2   1  -1  429.26   13.30
   2   1   1  426.46   12.80
   2   1   1  433.96   14.10
   3  -1   1   55.59    4.00
  -3  -1  -1   55.09    3.20
   3  -1   1   52.09    3.80
  -3  -1  -1   52.59    4.30
  -3   1  -1   57.69    4.20
   3   1   1   57.49    4.20
  -3   1  -1   50.39    3.70
  -3   1  -1   53.49    4.00
   3   1   1   53.49    3.20
   4  -1   1  122.09    6.50
  -4  -1  -1  122.39    5.50
   4  -1   1  123.89    6.30
  -4  -1  -1  117.49    5.80
  -4  -1  -1  125.19    6.90
  -4   1  -1  117.39    6.40
   4   1   1  126.09    5.40
   4   1   1  118.29    7.30
  -4   1  -1  126.49    6.20
  -4   1  -1  121.59    6.60
  -5  -1  -1    0.70    2.40
  -5  -1  -1    3.70    2.10
   5  -1   1    1.70    2.60
  -5  -1  -1    1.30    2.50
   5  -1   1    1.30    3.00
   5   1   1    0.00    2.20
  -5   1  -1    0.00    2.40
   5   1   1    0.30    2.60
  -5   1  -1    0.70    2.80
  -5   1  -1   -1.30    2.40
  -6  -1  -1    3.40    3.00
  -6  -1  -1    2.50    4.20
   6  -1   1    5.60    4.00
   6  -1   1   -1.00    3.30
  -6  -1  -1    2.00    3.10
   6   1   1    4.30    3.10
  -6   1  -1   -0.40    3.00
  -6   1  -1    2.10    3.40
  -6   1  -1    5.30    3.80
   6   1   1   -4.30    3.40
   7  -1   1   85.59   12.40
  -7  -1  -1   97.79    9.90
  -7  -1  -1   87.09    7.40
  -7  -1  -1   93.09    7.70
   7   1   1   81.49    6.80
  -7   1  -1   78.89    7.60
   7   1   1   91.89   10.00
  -7   1  -1   87.19    8.20
   8  -1   1   25.70    7.80
  -8  -1  -1   20.80    5.50
  -8  -1  -1   10.20    4.80
  -8  -1  -1   10.40    5.80
   8  -1   1   13.60    6.00
  -8   1  -1   13.90    5.30
  -8   1  -1    2.50    6.20
  -8   1  -1    7.20    5.70
   8   1   1   16.90    5.50
  -9  -1  -1    6.00    9.20
   9  -1   1    1.60    6.80
  -9  -1  -1   15.90    7.50
  -9  -1  -1    0.10    5.10
   9  -1   1   13.50    9.40
  -9   1  -1   16.40    8.60
   9   1   1   12.30    6.40
  -9   1  -1    7.20    8.40
  -9   1  -1   17.50    6.90
  -9  -2   1    7.00    5.80
  -9  -2   1    5.90    9.00
   9  -2  -1  -19.30    7.70
   9  -2  -1    4.50    8.30
  -9  -2   1   13.00    7.20
  -9   2   1   -4.90    7.10
  -9   2   1   10.10    5.90
  -9   2   1    9.50    8.70
   9   2  -1   16.60    6.80
  -8  -2   1   36.70    6.70
  -8  -2   1   39.30    9.50
   8  -2  -1   33.10    7.80
  -8  -2   1   37.90    6.10
   8  -2  -1   32.20    7.70
   8   2  -1   29.80    6.60
  -8   2   1   50.39    8.40
  -8   2   1   26.40    6.40
   7  -2  -1   38.00    6.00
   7  -2  -1   41.10    6.50
  -7  -2   1   56.79    6.60
  -7  -2   1   44.40    5.90
  -7  -2   1   35.20    7.70
   7   2  -1   40.00    5.80
  -7   2   1   27.90    6.10
  -7   2   1   43.20    5.90
  -7   2   1   32.70    7.00
   6  -2  -1  280.67   13.00
  -6  -2   1  257.97   11.10
   6  -2  -1  255.57   11.70
  -6  -2   1  251.87   14.30
  -6  -2   1  281.47   11.30
  -6   2   1  253.97   10.90
  -6   2   1  261.77   12.90
   6   2  -1  259.97   11.40
  -6   2   1  224.98   12.00
  -5  -2   1   55.79    6.70
   5  -2  -1   56.09    5.20
   5  -2  -1   54.49    6.20
  -5  -2   1   68.49    5.20
  -5   2   1   62.09    4.50
  -5   2   1   65.49    6.30
   5   2  -1   66.39    5.40
  -5   2   1   55.49    5.80
  -4  -2   1   49.60    5.60
  -4  -2   1   50.69    4.10
   4  -2  -1   43.80    5.00
   4  -2  -1   44.90    3.80
  -4   2   1   52.49    5.30
   4   2  -1   50.29    4.40
  -4   2   1   49.20    3.70
  -4   2   1   46.20    4.90
   3  -2  -1  127.99    5.10
   3  -2  -1  119.79    6.50
  -3  -2   1  118.89    5.70
  -3  -2   1  125.49    7.00
  -3   2   1  114.89    4.90
  -3   2   1  107.99    6.30
  -3   2   1  114.39    6.60
   2  -2  -1  704.63   19.90
   2  -2  -1  717.23   21.70
  -2  -2   1  701.73   21.10
  -2   2   1  723.53   21.60
  -2   2   1  700.53   21.80
   2   2  -1  699.73   21.20
  -2   2   1  675.63   20.00
  -1  -2   1   21.50    3.00
   1  -2  -1   20.00    2.90
   1  -2  -1   15.00    1.80
  -1   2   1   27.80    3.10
  -1   2   1   28.00    3.10
   1   2  -1   22.80    2.90
   0  -2  -1   47.20    3.10
   0  -2   1   45.60    3.90
   0  -2   1   49.20    3.50
   0  -2  -1   51.79    3.60
   0   2   1   49.30    3.40
   0   2  -1   49.40    3.30
   0   2   1   47.30    3.30
   0   2  -1   51.19    3.70
  -1  -2  -1   22.30    2.70
   1  -2   1   18.60    2.40
  -1  -2  -1   20.90    2.50
   1  -2   1   20.10    3.10
  -1   2  -1   25.20    3.00
   1   2   1   22.30    2.60
  -1   2  -1   24.20    2.90
  -1   2  -1   21.00    2.60
   2  -2   1  154.58    7.10
  -2  -2  -1  158.18    6.10
   2  -2   1  162.18    6.50
  -2  -2  -1  158.78    7.20
  -2   2  -1  149.99    6.40
  -2   2  -1  158.58    7.50
  -2   2  -1  165.08    7.50
  -3  -2  -1  151.88    6.10
   3  -2   1  150.28    7.30
   3  -2   1  157.38    6.80
  -3  -2  -1  165.78    7.90
  -3   2  -1  148.49    7.50
  -3   2  -1  157.88    6.60
  -3   2  -1  145.39    7.60
  -4  -2  -1   17.00    2.50
   4  -2   1   13.20    3.10
  -4  -2  -1   14.70    3.80
   4  -2   1   11.20    3.60
  -4   2  -1   12.70    3.80
  -4   2  -1   14.40    3.80
  -4   2  -1   14.20    2.90
   5  -2   1   58.19    5.90
  -5  -2  -1   69.89    5.20
  -5  -2  -1   60.19    5.10
   5  -2   1   68.09    6.50
  -5  -2  -1   66.59    6.10
  -5   2  -1   61.19    6.20
  -5   2  -1   60.29    7.00
  -5   2  -1   63.09    5.70
   5   2   1   52.89    5.10
  -6  -2  -1  131.59    7.80
  -6  -2  -1  132.29    7.60
  -6  -2  -1  128.89    9.00
   6  -2   1  137.49    9.10
   6   2   1  126.49    7.30
  -6   2  -1  128.19    8.90
  -6   2  -1  116.39    9.00
  -6   2  -1  126.89    8.90
  -7  -2  -1   -0.20    3.50
   7  -2   1   -3.60    5.20
  -7  -2  -1   12.80    4.10
   7  -2   1    4.50    5.90
  -7  -2  -1    3.90    6.50
   7   2   1    1.80    3.90
  -7   2  -1   -0.50    4.50
  -7   2  -1   -2.50    5.00
  -7   2  -1    2.90    4.70
  -8  -2  -1    1.90    5.40
  -8  -2  -1    3.70    8.20
  -8  -2  -1    4.30    4.70
   8  -2   1   10.80    7.50
   8  -2   1    2.10    6.30
  -8   2  -1  -15.10    6.40
  -8   2  -1   23.50    7.90
   8   2   1   16.50    6.00
  -8   2  -1   -1.50    4.90
  -8  -3   1   11.70    9.40
   8  -3  -1    8.70    7.90
  -8  -3   1   13.20    6.30
  -8  -3   1   19.30    5.90
  -8   3   1    1.70    6.50
  -8   3   1    8.40    9.60
  -7  -3   1    7.20    4.00
   7  -3  -1    0.90    5.40
  -7  -3   1   19.10    7.90
   7  -3  -1    5.40    6.20
  -7   3   1    4.40    4.80
  -7   3   1   -3.00    7.10
  -7   3   1    5.00    5.10
   6  -3  -1    5.30    5.00
  -6  -3   1    8.10    4.20
   6  -3  -1   11.50    4.50
  -6  -3   1   10.30    6.40
  -6   3   1    3.70    4.10
  -6   3   1   10.20    3.50
  -6   3   1   -0.80    6.10
  -5  -3   1   -1.60    3.00
   5  -3  -1   -3.00    2.70
   5  -3  -1    2.80    4.30
  -5  -3   1    0.50    5.30
  -5   3   1    4.60    2.40
  -5   3   1    1.90    5.60
  -5   3   1    4.20    3.80
   4  -3  -1   54.09    6.50
   4  -3  -1   53.69    4.40
  -4  -3   1   54.69    7.00
  -4  -3   1   57.99    5.40
  -4   3   1   55.39    4.10
  -4   3   1   50.89    5.80
  -4   3   1   62.39    6.50
  -3  -3   1   24.20    3.80
   3  -3  -1   26.60    4.70
   3  -3  -1   23.50    3.00
  -3  -3   1   33.30    4.90
  -3   3   1   31.20    4.60
  -3   3   1   24.00    2.90
  -3   3   1   30.70    4.80
   3   3  -1   28.40    4.10
   2  -3  -1   35.80    3.10
   2  -3  -1   34.30    4.40
  -2  -3   1   29.60    4.60
  -2   3   1   37.20    4.80
   2   3  -1   32.30    4.20
  -2   3   1   36.20    4.60
  -2   3   1   37.10    3.00
   1  -3  -1   58.29    5.30
  -1  -3   1   45.20    4.80
   1  -3  -1   45.50    3.40
  -1  -3   1   43.50    5.00
   1   3  -1   50.89    4.80
  -1   3   1   51.99    4.90
  -1   3   1   53.99    4.80
   0  -3   1   10.00    3.30
   0  -3  -1    9.40    2.30
   0  -3  -1    7.00    2.70
   0  -3   1    7.20    2.60
   0   3  -1   14.30    3.30
   0   3   1   11.10    2.80
   1  -3   1  422.36   15.60
  -1  -3  -1  423.96   14.80
  -1  -3  -1  415.76   14.70
   1  -3   1  424.56   14.10
  -1  -3  -1  415.56   14.50
  -1   3  -1  423.36   14.40
   1   3   1  430.86   14.40
  -1   3  -1  418.46   15.30
  -1   3  -1  427.06   15.60
  -2  -3  -1  126.59    6.90
   2  -3   1  132.69    6.50
  -2  -3  -1  127.29    7.10
   2  -3   1  123.09    7.20
   2   3   1  132.49    6.60
  -2   3  -1  118.19    7.50
  -2   3  -1  132.69    7.60
  -2   3  -1  133.99    6.60
   3  -3   1   14.00    3.60
   3  -3   1   19.80    3.20
  -3  -3  -1   18.00    3.00
  -3  -3  -1   20.50    4.20
  -3   3  -1   15.30    4.10
  -3   3  -1   15.10    4.20
  -3   3  -1   20.30    3.30
  -4  -3  -1  130.29    6.90
   4  -3   1  147.79    9.30
   4  -3   1  130.79    7.30
  -4  -3  -1  133.29    8.90
  -4   3  -1  132.09    7.40
  -4   3  -1  137.99    8.70
  -4   3  -1  131.29    8.30
   5  -3   1  284.47   13.70
  -5  -3  -1  284.67   11.20
   5  -3   1  276.17   12.20
  -5   3  -1  263.97   13.50
  -5   3  -1  279.67   11.70
  -5   3  -1  284.17   14.50
  -6  -3  -1  132.19   11.40
  -6  -3  -1  111.09    8.10
   6  -3   1  127.49    9.60
   6  -3   1  124.29   10.50
  -6   3  -1  132.99   11.80
  -6   3  -1  119.19    8.10
  -6   3  -1  105.49    9.70
  -7  -3  -1   26.60    9.20
   7  -3   1    9.70    7.00
  -7  -3  -1   20.30    5.00
  -7  -3  -1   22.10    5.50
  -7   3  -1   16.40    8.50
  -7   3  -1    8.40    5.50
  -7   3  -1   19.80    7.40
  -8  -3  -1    7.60    5.40
  -8  -3  -1   -6.50    8.80
   8  -3   1    6.20    8.50
   8  -3   1    6.40    8.00
  -8  -3  -1    7.80    6.40
  -8   3  -1    1.00    5.40
  -8   3  -1    7.30    7.20
  -8   3  -1   14.00   10.00
  -7  -4   1    6.50    9.60
   7  -4  -1    0.50    6.50
   7  -4  -1    8.50    6.50
  -7  -4   1    5.60    6.20
  -7   4   1    2.20    6.00
  -7   4   1   12.60    7.80
  -7   4   1   18.30    5.60
   6  -4  -1  192.48   13.70
   6  -4  -1  155.98    9.80
  -6  -4   1  149.19   14.30
  -6  -4   1  140.19   10.60
  -6   4   1  195.18   15.10
  -6   4   1  129.59   11.50
  -6   4   1  160.58    9.00
  -5  -4   1   86.29   10.40
  -5  -4   1   74.19    7.40
   5  -4  -1   69.99    8.90
   5  -4  -1   72.29    6.60
  -5   4   1   85.69    6.00
  -5   4   1   57.49    8.30
  -5   4   1   74.69   10.20
   4  -4  -1    0.60    2.80
  -4  -4   1   -1.10    5.40
  -4  -4   1   -3.30    6.30
   4  -4  -1   -0.80    4.00
  -4  -4   1    0.80    3.70
  -4   4   1    3.40    2.80
  -4   4   1    1.30    4.30
  -4   4   1   -7.50    5.10
   3  -4  -1   12.10    4.30
  -3  -4   1    8.20    5.00
  -3  -4   1   22.80    4.80
   3  -4  -1   12.90    2.90
  -3  -4   1   19.70    5.80
  -3  -4   1   12.70    4.60
   3   4  -1   12.60    3.90
  -3   4   1    4.90    5.70
  -3   4   1   17.20    3.10
  -3   4   1   13.90    4.80
  -2  -4   1    0.80    3.90
   2  -4  -1    4.60    4.50
   2  -4  -1    6.40    2.70
  -2  -4   1    0.30    3.90
  -2   4   1    2.50    4.30
   2   4  -1    8.60    3.70
  -2   4   1    6.00    4.00
   1  -4  -1   43.90    4.50
   1  -4  -1   55.09    6.50
  -1  -4   1   52.19    6.40
  -1  -4   1   62.99    7.30
   1   4  -1   50.99    6.00
  -1   4   1   48.50    5.80
   0  -4   1  120.09    7.70
   0  -4   1  126.49    9.00
   0  -4  -1  132.09    7.20
   0  -4  -1  132.69    8.50
   0   4   1  118.09    7.80
   0   4  -1  120.69    8.10
  -1  -4  -1   30.60    4.70
  -1  -4  -1   31.10    5.20
  -1  -4  -1   31.10    5.10
   1  -4   1   22.50    3.90
   1  -4   1   28.10    5.90
  -1   4  -1   24.70    4.90
   1   4   1   23.20    4.50
  -2  -4  -1   42.60    5.70
   2  -4   1   36.10    4.60
  -2  -4  -1   43.50    6.20
  -2  -4  -1   40.30    6.00
  -2   4  -1   38.40    5.00
  -2   4  -1   32.30    5.60
   2   4   1   44.70    5.30
  -2   4  -1   43.60    7.80
  -3  -4  -1    0.00    3.20
  -3  -4  -1    0.80    3.90
  -3  -4  -1    3.00    4.40
   3  -4   1   -0.40    3.00
   3  -4   1    1.50    4.90
  -3   4  -1   -1.60    3.90
   3   4   1   -5.30    3.10
  -3   4  -1    4.30    4.10
  -3   4  -1    2.80    3.20
  -4  -4  -1   24.10    5.20
   4  -4   1   30.00    4.80
   4  -4   1   24.60    5.70
  -4  -4  -1   25.00    4.60
  -4   4  -1   15.90    6.50
  -4   4  -1   23.80    6.00
  -4   4  -1   30.30    5.00
  -5  -4  -1   29.60    7.30
   5  -4   1   31.40    6.40
  -5  -4  -1   34.00    5.60
   5  -4   1   24.90    5.40
  -5   4  -1   32.90    8.20
  -5   4  -1   26.10    6.30
  -5   4  -1   32.70    5.90
  -6  -4  -1   -2.30    4.70
   6  -4   1   -0.70    6.90
  -6  -4  -1   -2.70    6.90
   6  -4   1    3.80    5.90
  -6   4  -1   -1.70    5.30
  -6   4  -1    1.50    5.70
  -6   4  -1   -4.00    8.20
  -5  -5   1    3.90    8.80
  -5  -5   1    7.90    7.90
  -5  -5   1   12.00    9.10
   5  -5  -1    2.10    4.30
   5  -5  -1   11.00    9.30
  -5  -5   1    9.30    7.00
  -5   5   1   13.30   10.40
  -5   5   1    7.80    6.10
  -4  -5   1   22.50    8.40
  -4  -5   1   21.00    6.20
   4  -5  -1   11.80    4.00
  -4  -5   1    8.10    8.30
  -4  -5   1    5.80    7.10
   4  -5  -1   19.60    8.10
  -4   5   1   21.70    8.70
  -4   5   1   11.00    6.30
  -3  -5   1   10.00    6.50
  -3  -5   1   21.30    7.30
   3  -5  -1    9.40    6.20
  -3  -5   1   22.20    5.70
  -3  -5   1    8.20    6.50
   3  -5  -1   13.00    3.70
   3   5  -1    8.20    5.40
  -3   5   1   14.20    5.90
  -3   5   1   11.50    5.90
  -2  -5   1    5.80    6.40
  -2  -5   1    5.60    5.60
  -2  -5   1   14.30    6.00
   2  -5  -1    0.80    3.80
   2  -5  -1    8.50    6.50
   2   5  -1    8.50    5.10
  -2   5   1    6.10    4.90
  -1  -5   1   74.49    9.00
  -1  -5   1   76.89    9.10
   1  -5  -1   80.39    9.10
   1  -5  -1   88.69    6.80
   1   5  -1   73.09    8.00
  -1   5   1   69.99    8.10
   0  -5  -1  334.97   15.80
   0  -5   1  336.37   16.80
   0  -5  -1  319.27   13.50
   0  -5   1  338.67   14.20
   0  -5  -1  301.47   13.30
   0   5   1  317.47   14.50
   0   5  -1  283.87   14.60
   1  -5   1   13.80    4.60
  -1  -5  -1   13.50    5.20
   1  -5   1   10.10    6.70
  -1  -5  -1   11.70    5.10
  -1  -5  -1   -1.40    5.80
  -1   5  -1    2.20    4.60
   1   5   1   11.40    5.00
  -2  -5  -1    3.20    5.00
   2  -5   1   -9.20    4.50
  -2  -5  -1   14.80    6.30
   2  -5   1    3.20    6.40
  -2  -5  -1   -4.30    5.80
  -2   5  -1    0.40    4.60
   2   5   1    2.80    4.70
  -3  -5  -1   11.80    6.40
  -3  -5  -1    4.00    6.30
  -3  -5  -1   13.50    5.40
  -3  -5  -1   -1.40    5.90
   3  -5   1   -4.60    6.70
   3  -5   1    6.30    4.60
  -3   5  -1    0.70    4.60
   3   5   1    7.20    4.80
  -4  -5  -1   17.90    8.40
  -4  -5  -1    9.40    7.20
  -4  -5  -1   22.80    6.10
   4  -5   1   17.60    5.50
   4  -5   1   18.80    6.90
  -4  -5  -1   29.50    8.40
  -4   5  -1   19.10    7.30
  -4   5  -1   25.60    6.20
  -4   5  -1   14.00    6.60
  -5  -5  -1   -2.10    8.80
  -5  -5  -1   -3.70    7.30
   5  -5   1   -4.70    5.80
   5  -5   1   12.30    8.80
  -5  -5  -1    0.50    6.30
  -5  -5  -1    3.80    9.10
  -5   5  -1   -5.70    5.20
  -5   5  -1   -2.40    6.30
  -5   5  -1   10.90   11.00
  -9   0   2    2.20    7.40
  -9   0   2    4.10    4.60
   9   0  -2    3.40    5.90
  -9   0   2   12.70    6.80
  -8   0   2   32.00    6.60
  -8   0   2   15.70    5.00
   8   0  -2   21.00    5.40
  -8   0   2   20.70    6.40
  -7   0   2   36.70    6.00
  -7   0   2   31.20    5.30
   7   0  -2   24.00    5.00
  -7   0   2   30.70    5.50
  -6   0   2   15.10    3.70
  -6   0   2   13.90    3.80
   6   0  -2   11.20    3.80
  -6   0   2   15.10    4.00
  -5   0   2    2.40    2.50
  -5   0   2    4.20    2.50
  -5   0   2    9.80    2.30
   5   0  -2    6.10    2.80
  -4   0   2  313.17   11.00
  -4   0   2  306.97   11.30
  -4   0   2  317.27   11.00
   4   0  -2  316.57   11.00
  -3   0   2  117.69    5.10
  -3   0   2  119.29    5.10
  -3   0   2  110.79    5.20
   3   0  -2  109.69    4.80
   2   0  -2 1726.63   48.20
  -2   0   2 1704.83   48.20
  -2   0   2 1861.61   48.20
   1   0  -2 1103.79   30.40
  -1   0   2 1141.89   30.70
  -1   0   2 1102.99   30.40
   1   0  -2 1113.09   30.70
   0   0  -2  702.63   18.60
   0   0   2  684.23   19.00
   0   0   2  673.53   18.60
   0   0  -2  667.13   19.00
   1   0   2 3203.08   88.89
  -1   0  -2 3395.16   88.29
   2   0   2   15.20    2.30
   2   0   2   16.60    1.80
  -2   0  -2   15.40    1.80
  -2   0  -2   18.90    2.40
  -2   0  -2   20.10    2.00
   3   0   2    4.00    1.50
   3   0   2    4.60    2.40
  -3   0  -2    2.70    1.70
  -3   0  -2    1.50    1.40
  -3   0  -2    3.50    2.00
   4   0   2  121.19    5.60
  -4   0  -2  123.09    6.10
   4   0   2  127.99    7.30
  -4   0  -2  122.79    5.90
  -4   0  -2  124.49    6.80
  -5   0  -2   73.79    5.10
  -5   0  -2   59.79    5.00
   5   0   2   75.19    5.20
  -5   0  -2   57.99    5.80
   5   0   2   62.49    5.60
   6   0   2    0.80    3.10
  -6   0  -2    0.70    2.90
   6   0   2   -0.70    3.30
  -6   0  -2    1.00    3.20
  -6   0  -2    4.30    4.00
  -7   0  -2   59.79    6.50
   7   0   2   58.49    7.80
  -7   0  -2   70.69    8.40
  -7   0  -2   60.99    7.00
   7   0   2   72.69    6.70
  -8   0  -2   11.80    7.00
  -8   0  -2   16.90    5.20
   8   0   2   16.50    7.40
  -8   0  -2   14.70    5.90
   8   0   2   14.10    5.10
   9   0   2   13.50    6.60
  -9   0  -2    5.50    9.00
  -9   0  -2   34.20    8.50
  -9   0  -2   11.60    5.70
   9   0   2   -5.60    9.90
  -9  -1   2   -2.10    4.70
   9  -1  -2    9.70    6.60
  -9  -1   2   -0.10    8.20
  -9  -1   2  -11.60    6.20
  -9   1   2   10.60    6.90
  -9   1   2    9.30    5.70
  -9   1   2    5.80    5.20
   9   1  -2    1.80    6.00
  -8  -1   2   24.50    6.00
  -8  -1   2   12.60    4.90
  -8  -1   2   16.40    6.70
   8  -1  -2   20.60    6.50
  -8   1   2   11.30    4.90
  -8   1   2   23.00    6.80
   8   1  -2   16.80    5.40
  -7  -1   2   89.29   14.60
  -7  -1   2  104.69    7.60
   7  -1  -2  106.19    8.80
  -7  -1   2  103.99    7.90
   7   1  -2  123.79    8.20
  -7   1   2  105.09    8.20
  -7   1   2  119.59    8.10
   6  -1  -2  182.88    9.80
  -6  -1   2  194.38   10.50
   6  -1  -2  192.88    9.70
  -6  -1   2  190.48    9.10
  -6  -1   2  176.68    8.90
  -6   1   2  178.78    8.60
  -6   1   2  186.38    9.70
  -6   1   2  170.38    9.10
   6   1  -2  184.68    8.90
   5  -1  -2  281.97   11.30
  -5  -1   2  292.97   11.00
  -5  -1   2  294.07   11.10
  -5  -1   2  291.37   12.10
   5  -1  -2  289.57   11.50
  -5   1   2  285.17   11.30
  -5   1   2  292.07   10.80
   5   1  -2  293.27   11.10
  -5   1   2  276.47   11.20
  -4  -1   2  255.17   10.60
   4  -1  -2  261.77    9.60
   4  -1  -2  250.77    9.90
  -4  -1   2  263.27    9.50
  -4   1   2  254.17    9.80
  -4   1   2  262.37    9.20
   4   1  -2  257.37    9.60
  -4   1   2  245.48    9.90
   3  -1  -2   23.20    2.90
   3  -1  -2   24.30    2.50
  -3  -1   2   25.40    2.80
  -3   1   2   24.70    3.00
  -3   1   2   26.40    3.10
  -3   1   2   23.00    2.10
   3   1  -2   26.00    2.50
   2  -1  -2  418.36   13.00
   2  -1  -2  411.86   11.90
  -2  -1   2  409.86   12.90
  -2   1   2  451.65   13.00
  -2   1   2  402.96   11.80
   2   1  -2  415.06   13.00
  -2   1   2  419.76   13.10
  -1  -1   2 2865.11   77.89
   1  -1  -2 2772.62   77.49
  -1  -1   2 2746.93   78.19
   1   1  -2 3040.50   77.89
   1   1  -2 2812.02   78.29
  -1   1   2 2861.61   77.59
  -1   1   2 3013.90   77.39
   0  -1   2 1778.42   49.90
   0  -1  -2 1755.42   49.10
   0  -1  -2 1771.12   49.10
   0  -1  -2 1920.71   49.00
   0  -1   2 1807.02   49.99
   0   1   2 1820.32   49.10
   0   1  -2 1947.81   49.99
   0   1   2 1741.53   49.10
   0   1   2 1861.21   48.90
   0   1  -2 1789.02   50.09
   1  -1   2  366.56   11.80
  -1  -1  -2  373.86   10.60
   1  -1   2  379.56   11.90
  -1  -1  -2  393.26   11.70
  -1   1  -2  382.16   11.90
  -1   1  -2  371.36   11.90
  -1   1  -2  368.76   11.70
   1   1   2  362.36   11.60
  -2  -1  -2  275.77    9.80
   2  -1   2  290.37    9.70
   2  -1   2  278.07    9.70
  -2  -1  -2  277.77    8.30
   2   1   2  274.57    8.40
  -2   1  -2  291.17    9.80
  -2   1  -2  281.47    9.70
  -2   1  -2  282.97    9.70
   2   1   2  271.17    9.90
   3  -1   2  105.59    5.60
  -3  -1  -2  112.69    6.10
   3  -1   2  116.09    5.90
  -3  -1  -2  117.59    4.90
  -3  -1  -2  112.59    4.50
   3   1   2  107.99    6.30
  -3   1  -2  112.49    5.50
  -3   1  -2  108.79    5.80
  -3   1  -2  115.19    5.90
   3   1   2  111.99    4.50
   4  -1   2   95.99    6.00
  -4  -1  -2   97.79    4.70
  -4  -1  -2   92.09    4.90
   4  -1   2   93.19    5.60
  -4  -1  -2  101.39    6.50
  -4   1  -2   88.49    5.50
   4   1   2   96.79    4.70
  -4   1  -2   99.69    5.80
  -4   1  -2   90.09    6.00
   4   1   2   89.79    6.70
   5  -1   2   26.20    4.70
  -5  -1  -2   25.60    4.30
  -5  -1  -2   26.00    3.40
   5  -1   2   24.10    4.00
  -5  -1  -2   25.50    3.70
  -5   1  -2   25.50    4.00
   5   1   2   24.60    4.60
   5   1   2   22.70    3.00
  -5   1  -2   14.90    3.70
  -5   1  -2   27.80    4.30
  -6  -1  -2    2.50    4.50
  -6  -1  -2    0.30    2.90
   6  -1   2    3.20    4.50
  -6  -1  -2    3.00    3.00
   6  -1   2    4.20    3.70
   6   1   2    3.80    2.90
  -6   1  -2    3.90    4.00
  -6   1  -2    4.30    3.60
  -6   1  -2    7.20    3.80
  -7  -1  -2   13.70    4.10
   7  -1   2   21.60    6.00
  -7  -1  -2   12.80    6.30
  -7  -1  -2   20.10    5.00
   7  -1   2    5.20    4.80
  -7   1  -2   20.30    5.50
   7   1   2   12.70    7.10
   7   1   2   15.20    4.10
  -7   1  -2   13.90    4.70
  -7   1  -2   14.60    5.10
   8  -1   2    4.20    7.20
  -8  -1  -2   -2.80    6.90
  -8  -1  -2    6.90    4.50
   8  -1   2   -5.40    5.20
  -8  -1  -2    0.20    5.10
  -8   1  -2    6.40    6.40
  -8   1  -2    2.80    5.00
   8   1   2   -6.80    5.90
   8   1   2   -6.30    4.20
  -8   1  -2    0.20    6.50
  -9  -2   2   12.60    6.00
   9  -2  -2    8.20    8.40
  -9  -2   2   10.70    9.50
  -9  -2   2   29.40    7.60
  -9   2   2   15.30    7.00
  -9   2   2   17.00    7.10
   9   2  -2   10.40    6.50
   8  -2  -2   12.00    6.50
  -8  -2   2    2.20    5.10
  -8  -2   2   11.40    4.90
   8  -2  -2   10.20    5.90
  -8  -2   2   18.30    7.90
  -8   2   2   11.00    5.30
   8   2  -2   13.70    5.60
  -8   2   2    4.30    5.10
  -8   2   2   13.50    7.30
  -7  -2   2    7.10    6.40
  -7  -2   2    3.20    3.90
  -7  -2   2    1.60    4.40
   7  -2  -2    1.40    4.80
   7  -2  -2    2.00    4.70
  -7   2   2   -8.30    4.60
   7   2  -2    1.70    4.10
  -7   2   2   -1.00    4.20
  -7   2   2    1.30    3.50
   6  -2  -2   25.60    5.50
   6  -2  -2   20.80    4.40
  -6  -2   2   24.30    5.90
  -6  -2   2   20.00    4.40
  -6   2   2   23.50    3.80
  -6   2   2   19.60    4.60
  -6   2   2   19.40    4.40
   6   2  -2   18.40    4.30
  -5  -2   2  162.88    9.80
   5  -2  -2  161.88    7.60
   5  -2  -2  163.88    8.40
  -5  -2   2  169.18    8.00
  -5   2   2  157.18    8.70
  -5   2   2  167.08    7.10
   5   2  -2  167.18    8.40
  -5   2   2  168.28    8.70
   4  -2  -2   25.10    3.70
  -4  -2   2   17.30    3.00
   4  -2  -2   17.40    2.50
  -4  -2   2   21.40    3.80
  -4   2   2   19.00    2.40
  -4   2   2   18.10    3.30
  -4   2   2   14.60    3.60
   4   2  -2   16.60    3.30
   3  -2  -2  475.05   16.10
   3  -2  -2  461.65   14.00
  -3  -2   2  483.35   15.50
  -3   2   2  480.55   16.20
  -3   2   2  483.55   14.00
  -3   2   2  471.75   15.90
  -2  -2   2  347.37   11.70
  -2  -2   2  323.97   12.40
   2  -2  -2  332.77   11.80
   2  -2  -2  331.07    9.60
  -2   2   2  342.37    9.80
  -2   2   2  341.07   11.70
   2   2  -2  338.57   11.70
  -2   2   2  343.27   12.10
  -1  -2   2  360.76   12.60
   1  -2  -2  365.06   12.00
   1  -2  -2  363.36   10.40
  -1   2   2  349.96   12.00
   1   2  -2  356.16   12.20
   0  -2  -2    4.90    1.40
   0  -2  -2    6.70    2.00
   0  -2   2    2.20    1.80
   0  -2   2    7.50    2.50
   0   2   2    4.70    1.70
   0   2  -2    5.50    2.00
   0   2  -2    4.80    2.30
   0   2   2    7.50    1.70
   1  -2   2  846.22   26.00
   1  -2   2  861.01   25.30
  -1  -2  -2  847.02   25.10
  -1  -2  -2  857.61   24.80
  -1   2  -2  870.71   26.00
  -1   2  -2  845.92   25.50
  -1   2  -2  864.41   26.10
   1   2   2  893.81   24.60
   2  -2   2  272.67    9.90
   2  -2   2  271.37   10.80
  -2  -2  -2  283.97   10.40
  -2  -2  -2  269.27    9.00
  -2   2  -2  286.67   10.20
  -2   2  -2  286.67   10.90
  -2   2  -2  268.17   10.90
   3  -2   2   53.39    5.10
   3  -2   2   53.99    4.30
  -3  -2  -2   56.09    5.10
  -3  -2  -2   55.09    3.30
  -3   2  -2   60.89    5.30
  -3   2  -2   47.80    4.90
  -3   2  -2   53.19    4.10
   4  -2   2   -3.50    2.50
  -4  -2  -2    1.30    1.70
  -4  -2  -2    0.50    2.30
   4  -2   2    4.40    3.10
  -4   2  -2    0.60    2.50
  -4   2  -2    1.60    2.60
   4   2   2   -1.80    2.80
  -4   2  -2    3.90    3.20
  -5  -2  -2  343.97   11.60
   5  -2   2  323.77   13.30
  -5  -2  -2  311.97   14.10
  -5  -2  -2  318.37   11.90
   5  -2   2  325.77   13.50
  -5   2  -2  316.37   13.20
  -5   2  -2  307.17   13.60
  -5   2  -2  321.77   14.10
   5   2   2  324.47   11.80
  -6  -2  -2   20.10    5.90
  -6  -2  -2   10.60    3.60
   6  -2   2    6.80    4.60
  -6  -2  -2   11.00    3.60
   6   2   2   11.90    3.60
  -6   2  -2   10.00    4.50
  -6   2  -2   13.40    5.10
  -6   2  -2   -2.50    6.60
   7  -2   2   19.80    5.90
   7  -2   2   18.10    6.70
  -7  -2  -2    9.10    4.10
  -7  -2  -2   11.60    6.30
  -7  -2  -2    8.70    4.10
  -7   2  -2    7.40    6.30
  -7   2  -2    4.30    4.90
  -7   2  -2    1.90    5.80
   7   2   2   13.10    4.00
  -8  -2  -2   -1.20    4.30
  -8  -2  -2   12.30    8.70
   8  -2   2    0.80    7.50
   8  -2   2   -8.30    6.30
  -8  -2  -2   13.30    5.10
  -8   2  -2   -1.00    7.00
  -8   2  -2  -18.00    7.10
   8   2   2   -0.90    4.80
  -8   2  -2   -2.40    5.70
   8  -3  -2   14.90    6.90
  -8  -3   2    3.90    4.90
   8  -3  -2    6.60    6.10
  -8  -3   2   -5.90    6.60
  -8  -3   2    1.40    9.10
  -8   3   2  -11.90    5.30
  -8   3   2   -3.10    8.90
  -8   3   2    3.70    6.40
   7  -3  -2    0.00    5.00
  -7  -3   2   -0.80    5.00
  -7  -3   2    6.40    7.30
   7  -3  -2   -0.30    6.30
  -7   3   2   14.90    7.20
  -7   3   2   -2.50    4.00
  -7   3   2   -1.30    4.80
   6  -3  -2    9.60    5.40
   6  -3  -2    8.70    3.90
  -6  -3   2   13.60    4.70
  -6  -3   2    5.50    6.10
  -6   3   2    5.80    4.50
  -6   3   2   14.60    3.20
  -6   3   2   12.10    6.20
  -5  -3   2    8.10    3.60
   5  -3  -2   -4.60    4.50
  -5  -3   2   -4.20    4.60
   5  -3  -2   -0.20    2.60
  -5   3   2    1.50    3.70
  -5   3   2    0.80    1.90
  -4  -3   2   13.50    5.10
   4  -3  -2   17.20    2.50
  -4  -3   2   11.70    3.40
   4  -3  -2   12.20    4.40
  -4   3   2   10.40    3.90
  -4   3   2   13.30    4.50
  -4   3   2   12.30    2.20
   3  -3  -2   13.50    1.90
  -3  -3   2   15.30    3.40
   3  -3  -2    8.60    3.80
  -3  -3   2    9.00    3.80
  -3   3   2    9.20    3.80
   3   3  -2   11.40    3.40
  -3   3   2   13.40    1.90
  -3   3   2   10.10    3.60
   2  -3  -2   35.90    2.40
  -2  -3   2   39.90    5.20
   2  -3  -2   34.20    4.60
   2   3  -2   38.20    4.60
  -2   3   2   34.20    4.60
  -2   3   2   39.10    4.60
   1  -3  -2  102.69    6.20
  -1  -3   2  100.69    6.80
  -1  -3   2  118.69    6.80
   1  -3  -2  104.69    4.60
  -1   3   2  101.49    6.00
  -1   3   2  114.29    6.20
   1   3  -2  111.09    6.50
   0  -3  -2  122.69    6.70
   0  -3   2  122.79    6.80
   0  -3   2  123.09    7.60
   0  -3  -2  121.29    5.90
   0  -3  -2  131.29    5.70
   0   3  -2  136.89    7.30
   0   3   2  125.59    6.30
   0   3  -2  126.69    7.00
   1  -3   2  115.99    6.90
  -1  -3  -2  113.29    5.90
  -1  -3  -2  107.49    6.10
   1  -3   2  111.09    6.30
  -1   3  -2  119.99    6.40
  -1   3  -2  115.29    6.80
   1   3   2  110.79    5.90
  -2  -3  -2  139.89    6.40
  -2  -3  -2  132.59    7.40
  -2  -3  -2  130.19    6.80
   2  -3   2  127.69    7.00
   2  -3   2  128.19    8.10
   2   3   2  139.69    6.40
  -2   3  -2  138.99    7.20
  -2   3  -2  127.09    7.90
  -2   3  -2  127.79    8.30
  -3  -3  -2   30.70    4.80
   3  -3   2   35.60    5.10
   3  -3   2   32.00    4.10
  -3  -3  -2   26.60    3.40
  -3   3  -2   23.80    4.80
  -3   3  -2   35.40    5.60
  -3   3  -2   34.20    4.30
   4  -3   2  112.79    8.00
  -4  -3  -2  121.89    6.20
   4  -3   2  109.59    7.20
  -4  -3  -2  126.99    8.80
  -4   3  -2  122.09    7.40
  -4   3  -2  121.29    9.50
  -4   3  -2  105.49    8.50
   5  -3   2  331.77   14.20
   5  -3   2  371.56   16.00
  -5  -3  -2  370.06   16.10
  -5  -3  -2  366.16   13.00
  -5   3  -2  326.57   15.70
  -5   3  -2  373.76   14.80
  -5   3  -2  369.26   16.70
   6  -3   2    6.60    5.80
   6  -3   2    9.90    5.30
  -6  -3  -2    3.50    3.90
  -6  -3  -2    7.10    6.50
  -6  -3  -2    3.50    3.70
  -6   3  -2   -4.90    4.50
  -6   3  -2   -0.30    4.50
  -6   3  -2    8.70    6.80
  -7  -3  -2   14.60    5.10
  -7  -3  -2   16.40    4.70
   7  -3   2   18.00    7.40
   7  -3   2   34.20    7.60
  -7  -3  -2   14.10    8.30
  -7   3  -2   11.90    6.20
  -7   3  -2   12.80    8.50
  -7   3  -2   23.00    6.70
  -7  -4   2   17.00    7.80
   7  -4  -2   14.60    9.00
   7  -4  -2   22.70    5.90
  -7  -4   2    9.80    6.60
  -7   4   2   18.90    9.70
   6  -4  -2  127.79   12.70
  -6  -4   2  137.59   10.70
  -6  -4   2  160.18   14.20
  -6   4   2  136.89   14.20
  -6   4   2  133.49    7.60
  -6   4   2  129.39   11.10
   5  -4  -2   57.59    5.20
   5  -4  -2   72.09    8.70
  -5  -4   2   49.90    9.40
  -5  -4   2   58.69    8.90
  -5  -4   2   68.49    7.40
  -5   4   2   50.89    7.70
  -5   4   2   70.89    9.60
  -5   4   2   69.19    4.90
   4  -4  -2   54.19    7.30
  -4  -4   2   45.90    7.90
   4  -4  -2   41.70    4.10
  -4  -4   2   50.29    6.40
  -4  -4   2   55.79    7.40
  -4   4   2   50.09    6.90
  -4   4   2   46.70    3.90
  -4   4   2   59.09    8.40
  -3  -4   2   73.49    8.70
  -3  -4   2   74.69    7.60
  -3  -4   2   76.49    7.00
   3  -4  -2   68.49    4.10
  -3   4   2   87.59    7.70
   3   4  -2   67.39    6.50
   2  -4  -2  138.89    6.10
  -2  -4   2  150.28    9.70
  -2  -4   2  143.79    9.50
   2  -4  -2  141.09    9.40
  -2   4   2  150.38    8.90
  -2   4   2  147.19    9.60
   2   4  -2  143.39    8.80
  -1  -4   2   79.89    8.00
   1  -4  -2   69.19    4.70
  -1  -4   2   73.89    7.40
   1  -4  -2   74.69    6.90
  -1   4   2   66.79    6.20
   1   4  -2   60.59    6.30
   0  -4  -2    3.70    3.80
   0  -4  -2    0.90    2.70
   0  -4   2   -2.20    3.30
   0  -4   2   -5.30    3.50
   0  -4  -2    5.70    2.70
   0   4  -2    0.90    3.60
   0   4   2    0.00    3.30
  -1  -4  -2   40.00    5.60
   1  -4   2   43.50    5.20
  -1  -4  -2   32.30    4.90
  -1  -4  -2   35.90    4.60
   1  -4   2   36.60    6.40
  -1   4  -2   39.90    5.70
   1   4   2   40.60    5.20
  -1   4  -2   33.10    5.20
   2  -4   2   -2.80    4.30
  -2  -4  -2   -7.70    3.50
  -2  -4  -2    5.50    3.70
   2  -4   2    1.70    3.40
  -2   4  -2   -3.20    3.60
  -2   4  -2   -0.70    3.50
   2   4   2   -2.40    3.20
   3  -4   2   17.50    6.00
  -3  -4  -2   17.20    5.30
  -3  -4  -2   19.50    4.20
  -3  -4  -2   19.30    4.50
   3  -4   2   20.70    4.60
  -3   4  -2    8.80    4.40
  -3   4  -2   20.20    5.60
  -3   4  -2   26.50    6.30
  -4  -4  -2    4.80    4.40
  -4  -4  -2    4.50    5.20
  -4  -4  -2    2.20    3.60
   4  -4   2    0.20    4.20
   4  -4   2    1.00    4.30
  -4   4  -2    2.70    4.10
  -4   4  -2    1.20    6.40
  -4   4  -2    2.00    4.80
  -5  -4  -2   54.19    6.70
   5  -4   2   63.89    7.40
  -5  -4  -2   45.90    8.40
   5  -4   2   70.29    9.10
  -5   4  -2   34.90    7.10
  -5   4  -2   40.80    8.20
  -5   4  -2   55.39    7.30
  -6  -4  -2   -5.50    7.50
   6  -4   2    5.60    7.70
  -6  -4  -2    5.50    4.80
  -6   4  -2   -2.30    8.40
  -6   4  -2   -0.30    5.20
  -6   4  -2    9.60    6.40
  -5  -5   2   29.50   10.40
  -5  -5   2   14.70    9.10
   5  -5  -2   19.00    3.40
  -5  -5   2   16.10    6.80
   5  -5  -2   20.20    9.10
  -5  -5   2   27.30    8.10
  -5   5   2   23.70   10.10
  -5   5   2   18.50    7.30
  -4  -5   2    1.80    5.80
  -4  -5   2   -3.40    7.10
  -4  -5   2   22.30    8.20
   4  -5  -2    3.90    6.90
   4  -5  -2    4.30    2.70
  -4  -5   2   -1.60    7.40
  -4   5   2    7.60    8.70
  -4   5   2    6.80    5.70
   4   5  -2    4.00    5.10
  -3  -5   2   15.60    7.10
   3  -5  -2   14.40    7.10
  -3  -5   2   19.40    7.60
  -3  -5   2   36.90    6.90
  -3  -5   2   15.20    7.20
   3  -5  -2   18.50    3.10
  -3   5   2   25.80    8.20
  -3   5   2   19.50    6.40
   3   5  -2   16.80    5.60
   2  -5  -2   26.70    3.50
   2  -5  -2   13.30    3.40
   2  -5  -2   27.40    7.00
  -2  -5   2   20.60    8.00
  -2  -5   2   16.50    7.10
  -2   5   2   18.90    5.80
   2   5  -2   24.80    6.00
  -1  -5   2  282.97   13.60
   1  -5  -2  249.18   10.40
   1  -5  -2  264.37   10.80
  -1  -5   2  269.97   14.10
   1  -5  -2  258.47   14.20
  -1   5   2  260.77   13.00
   1   5  -2  256.57   13.40
   0  -5   2    2.00    6.10
   0  -5  -2    8.80    5.80
   0  -5   2   16.10    5.10
   0  -5  -2    9.10    4.10
   0  -5  -2    9.00    4.20
   0   5  -2    3.50    4.80
   0   5   2   13.90    4.90
  -1  -5  -2   23.80    5.40
   1  -5   2   21.20    5.20
  -1  -5  -2   16.90    5.50
   1  -5   2   18.00    7.30
   1   5   2   18.10    5.10
  -1   5  -2    7.60    5.30
   2  -5   2   -6.90    4.90
  -2  -5  -2   10.70    5.70
   2  -5   2   10.70    6.90
  -2  -5  -2    4.30    4.70
  -2  -5  -2   -7.40    5.10
  -2  -5  -2    2.90    5.90
  -2   5  -2   -2.30    4.80
   2   5   2   -5.40    4.20
  -3  -5  -2   69.19    7.50
   3  -5   2   63.89    8.20
  -3  -5  -2   48.40    8.20
   3  -5   2   70.49   10.10
  -3  -5  -2   45.60    8.30
  -3  -5  -2   59.49    8.00
  -3   5  -2   78.09    9.30
  -3   5  -2   45.80    8.10
  -4  -5  -2   -1.10    7.50
  -4  -5  -2    2.40    7.80
   4  -5   2   16.30    8.50
   4  -5   2    5.20    5.90
  -4  -5  -2   28.40    8.70
  -4   5  -2   12.10    6.70
  -4   5  -2    4.50    6.30
  -4   5  -2    7.00    8.20
  -9   0   3   -0.80    4.50
  -9   0   3   -4.10    7.10
  -9   0   3    8.10    6.10
   9   0  -3   -4.20    4.40
  -8   0   3    6.30    4.40
  -8   0   3    8.40    5.60
   8   0  -3    3.80    5.00
  -8   0   3   10.50    4.30
  -7   0   3    7.00    4.50
   7   0  -3    7.20    4.20
  -7   0   3    2.70    3.60
  -7   0   3    9.70    3.50
  -6   0   3   13.30    3.20
  -6   0   3   18.00    4.00
  -6   0   3   13.10    3.70
   6   0  -3   13.40    3.80
  -5   0   3   17.00    3.10
   5   0  -3   13.70    3.20
  -5   0   3   13.20    3.20
  -5   0   3   16.40    3.30
  -4   0   3   26.20    3.40
  -4   0   3   26.60    3.20
   4   0  -3   25.40    3.00
  -4   0   3   25.50    3.40
   3   0  -3  163.88    6.50
  -3   0   3  164.18    6.40
  -3   0   3  168.28    6.50
  -2   0   3  669.93   19.70
   2   0  -3  688.83   19.40
  -2   0   3  657.53   19.40
  -1   0   3 4240.48  138.19
   1   0  -3 4196.48  137.69
   0   0   3    0.50    0.70
   0   0  -3    2.40    0.80
   0   0  -3   -0.30    0.90
  -1   0  -3  213.58    6.60
   1   0   3  199.38    6.40
  -1   0  -3  214.08    7.40
   1   0   3  203.68    7.40
  -1   0  -3  210.48    6.40
  -2   0  -3   87.39    3.80
  -2   0  -3   98.39    4.70
   2   0   3   87.69    3.70
   2   0   3   95.69    4.80
  -2   0  -3  100.19    4.20
  -3   0  -3  983.50   28.00
   3   0   3  981.60   27.80
  -3   0  -3  991.00   29.30
  -3   0  -3  994.40   28.20
   3   0   3  955.20   29.40
  -4   0  -3   28.90    3.40
   4   0   3   29.00    3.30
   4   0   3   31.40    4.40
  -4   0  -3   29.90    3.70
  -4   0  -3   31.20    3.40
   5   0   3    3.60    2.60
  -5   0  -3    5.60    2.80
  -5   0  -3    3.50    2.80
  -5   0  -3    3.00    2.70
   5   0   3    8.30    3.90
  -6   0  -3   16.50    4.00
  -6   0  -3   17.30    5.30
   6   0   3   17.20    4.10
  -6   0  -3   13.10    3.60
  -7   0  -3   12.90    4.60
   7   0   3   20.70    4.80
   7   0   3   15.30    6.90
  -7   0  -3   25.30    5.50
  -7   0  -3   18.60    5.10
  -8   0  -3   -3.60    4.10
   8   0   3    0.70    4.90
   8   0   3    1.10    8.00
  -8   0  -3   11.10    6.70
  -8   0  -3    2.50    7.00
   9  -1  -3   -2.50    4.80
  -9  -1   3   -4.30    6.50
  -9  -1   3    1.60    8.30
  -9  -1   3    7.50    5.40
  -9   1   3    1.50    5.20
  -9   1   3   -7.70    7.70
  -9   1   3    2.70    6.80
   9   1  -3    3.20    5.80
  -8  -1   3    6.20    4.80
  -8  -1   3    2.10    6.10
  -8  -1   3    2.10    4.30
   8  -1  -3   -2.50    5.40
  -8   1   3   10.20    5.30
  -8   1   3    2.50    5.60
   8   1  -3    0.80    4.80
  -8   1   3    2.20    4.30
  -7  -1   3  301.07   13.20
  -7  -1   3  314.67   13.30
   7  -1  -3  273.77   15.40
  -7   1   3  329.67   13.10
   7   1  -3  318.67   13.30
  -7   1   3  295.87   13.50
  -6  -1   3  130.69    7.40
  -6  -1   3  123.09    7.00
  -6  -1   3  128.49    8.70
   6  -1  -3  135.29    8.10
  -6   1   3  125.99    7.60
  -6   1   3  122.29    6.90
  -6   1   3  123.19    7.50
   6   1  -3  127.19    7.00
  -5  -1   3  139.69    7.20
   5  -1  -3  130.39    6.90
  -5  -1   3  139.79    8.00
   5   1  -3  134.99    7.10
  -5   1   3  133.29    7.00
  -5   1   3  126.99    7.10
  -5   1   3  134.99    6.50
   4  -1  -3  180.18    7.80
  -4  -1   3  171.48    7.50
  -4  -1   3  177.98    8.20
  -4   1   3  171.48    7.80
   4   1  -3  178.08    7.60
  -4   1   3  175.88    7.60
  -4   1   3  172.58    6.80
   3  -1  -3  650.73   20.00
  -3  -1   3  640.84   19.80
   3   1  -3  656.03   20.00
  -3   1   3  657.13   18.90
  -3   1   3  693.53   19.90
  -3   1   3  656.23   20.10
  -2  -1   3  552.24   16.50
   2  -1  -3  538.25   16.40
  -2  -1   3  539.35   17.30
  -2   1   3  569.14   16.20
   2   1  -3  511.15   17.40
   2   1  -3  564.64   16.70
  -2   1   3  550.44   16.50
  -2   1   3  549.15   15.30
  -2   1   3  551.24   15.30
   1  -1  -3 9338.07  287.47
  -1  -1   3 9703.23  282.27
  -1   1   3 9999.00  289.97
   1   1  -3 9774.82  281.97
   0  -1   3  561.04   16.40
   0  -1  -3  538.45   14.80
   0  -1  -3  511.25   15.20
   0   1   3  502.95   15.20
   0   1   3  537.05   14.60
   0   1  -3  529.15   16.30
   0   1   3  527.25   14.90
   0   1  -3  542.45   16.00
  -1  -1  -3  456.95   14.20
  -1  -1  -3  510.95   14.30
   1  -1   3  530.15   16.10
   1  -1   3  558.14   16.40
  -1  -1  -3  530.05   15.90
  -1   1  -3  552.24   16.20
  -1   1  -3  551.34   16.20
   1   1   3  511.15   15.90
  -1   1  -3  561.74   16.50
  -2  -1  -3   56.69    2.30
   2  -1   3   49.99    4.10
  -2  -1  -3   56.49    2.70
   2  -1   3   54.69    3.70
  -2  -1  -3   60.59    4.00
   2   1   3   49.80    2.30
  -2   1  -3   57.29    4.00
   2   1   3   53.59    3.70
  -2   1  -3   57.39    4.00
  -2   1  -3   61.89    3.90
   3  -1   3  260.87    9.70
  -3  -1  -3  273.57    8.80
  -3  -1  -3  257.17    8.30
  -3  -1  -3  270.47   10.40
   3  -1   3  253.97   10.20
  -3   1  -3  267.17   10.00
  -3   1  -3  261.97   10.00
   3   1   3  257.97    8.30
  -3   1  -3  266.17   10.20
   3   1   3  264.97   10.70
   4  -1   3   98.29    6.40
   4  -1   3   86.49    5.50
  -4  -1  -3   99.49    5.00
  -4  -1  -3   89.69    4.40
  -4  -1  -3   99.39    6.50
   4   1   3   95.09    4.40
  -4   1  -3   90.19    5.90
  -4   1  -3   85.19    5.50
   4   1   3   85.19    6.80
  -4   1  -3   81.09    5.80
  -5  -1  -3   11.00    4.30
   5  -1   3   13.80    3.60
  -5  -1  -3   13.60    2.70
  -5  -1  -3   10.80    2.90
   5  -1   3   14.30    4.20
   5   1   3   16.70    4.30
  -5   1  -3   15.00    4.00
  -5   1  -3    8.40    3.60
  -5   1  -3   14.10    3.80
   5   1   3   12.40    2.60
   6  -1   3   -3.50    3.90
  -6  -1  -3   -0.90    4.50
  -6  -1  -3    0.00    3.00
  -6  -1  -3   -0.80    2.90
   6  -1   3    4.90    3.70
   6   1   3    1.30    2.90
  -6   1  -3    0.40    3.50
  -6   1  -3    3.00    4.40
   6   1   3   -1.70    4.80
  -6   1  -3    3.00    4.30
  -7  -1  -3   17.00    4.70
  -7  -1  -3   23.90    5.00
  -7  -1  -3   22.40    7.00
   7  -1   3   30.40    7.60
  -7   1  -3   28.90    7.00
   7   1   3   20.40    4.30
  -7   1  -3   17.90    5.40
  -7   1  -3   27.60    6.50
   7   1   3   18.90    7.10
  -8  -1  -3    2.70    7.70
  -8  -1  -3    3.00    5.40
   8  -1   3   16.10    7.70
  -8  -1  -3   -7.40    4.00
   8  -1   3    5.40    6.30
  -8   1  -3   -1.40    6.70
  -8   1  -3   -6.80    6.40
   8   1   3    4.00    4.70
   8   1   3   20.20    9.30
  -8   1  -3   -6.50    4.80
  -9  -2   3   42.40    7.70
   9  -2  -3   36.80    7.80
  -9  -2   3   46.00   11.10
  -9  -2   3   49.30    8.90
  -9   2   3   50.69    9.80
  -9   2   3   48.70    8.20
   9   2  -3   51.59    8.30
  -8  -2   3   76.99    9.80
  -8  -2   3   77.29    8.50
   8  -2  -3  100.39    8.80
  -8  -2   3   80.49    8.30
   8   2  -3   92.39    9.40
  -8   2   3   88.69   10.60
  -8   2   3   85.19    8.30
  -8   2   3   81.19    8.80
  -7  -2   3   17.60    5.40
  -7  -2   3   21.90    4.90
   7  -2  -3   18.40    5.00
  -7  -2   3    9.90    6.40
  -7   2   3   25.00    4.50
  -7   2   3   23.50    6.50
  -7   2   3   11.60    4.60
   6  -2  -3   22.40    5.10
  -6  -2   3   18.20    4.20
   6  -2  -3   16.80    3.90
  -6  -2   3   24.60    6.00
  -6   2   3   20.30    3.40
  -6   2   3   17.40    4.50
  -6   2   3   17.50    5.20
   6   2  -3   20.10    4.80
   5  -2  -3  176.28    9.20
   5  -2  -3  163.88    7.40
  -5  -2   3  160.18    9.20
  -5  -2   3  165.18    8.10
  -5   2   3  162.18    9.20
   5   2  -3  170.68    8.60
  -5   2   3  167.58    6.80
  -5   2   3  159.48    8.60
   4  -2  -3   81.59    5.50
  -4  -2   3   88.99    5.20
  -4   2   3   91.19    6.20
   4   2  -3   79.49    6.00
  -4   2   3   83.49    5.70
  -4   2   3   83.99    3.90
  -3  -2   3  101.69    7.00
   3  -2  -3  100.99    5.50
  -3  -2   3  110.19    5.80
  -3   2   3   99.69    3.60
   3   2  -3  109.29    6.00
  -3   2   3  106.39    6.00
  -3   2   3  105.49    6.00
  -2  -2   3    4.50    2.80
   2  -2  -3    4.10    2.20
  -2  -2   3    8.50    2.10
  -2   2   3    9.50    2.60
   2   2  -3   10.70    2.60
  -2   2   3   10.00    2.50
  -1  -2   3  211.78    8.70
   1  -2  -3  210.68    6.20
   1  -2  -3  201.68    7.80
   1  -2  -3  210.98    6.30
  -1   2   3  219.28    8.10
   1   2  -3  212.08    8.50
   1   2  -3  226.38    9.10
  -1   2   3  213.88    7.70
   0  -2   3    9.40    2.20
   0  -2   3    5.90    2.30
   0  -2  -3    7.60    1.50
   0  -2  -3    2.40    1.60
   0   2   3    9.30    1.80
   0   2  -3    6.00    2.30
   0   2   3   10.20    1.80
   0   2  -3    7.80    2.40
   1  -2   3  732.53   23.00
   1  -2   3  741.73   23.40
  -1  -2  -3  754.62   21.80
  -1  -2  -3  751.02   22.50
  -1   2  -3  787.92   23.60
   1   2   3  780.22   21.60
   1   2   3  753.12   22.70
  -1   2  -3  773.12   23.40
  -2  -2  -3  160.28    7.30
  -2  -2  -3  156.98    5.60
   2  -2   3  154.98    7.50
   2  -2   3  168.78    7.40
  -2   2  -3  152.88    7.30
  -2   2  -3  165.68    7.90
  -2   2  -3  166.88    8.00
   2   2   3  165.98    7.70
  -3  -2  -3  134.59    5.20
   3  -2   3  135.09    7.50
  -3  -2  -3  139.69    7.10
   3  -2   3  139.89    7.10
  -3   2  -3  141.79    7.90
  -3   2  -3  141.59    7.00
   3   2   3  126.19    7.80
  -3   2  -3  122.99    7.50
   4  -2   3   25.80    4.30
  -4  -2  -3   25.70    2.80
   4  -2   3   25.70    4.30
  -4  -2  -3   29.90    4.90
  -4  -2  -3   20.40    3.00
   4   2   3   26.80    5.40
  -4   2  -3   23.10    4.40
  -4   2  -3   22.60    4.70
  -4   2  -3   30.80    4.30
   5  -2   3  248.58   12.00
  -5  -2  -3  258.97   10.30
  -5  -2  -3  265.07    9.80
   5  -2   3  253.97   12.20
  -5  -2  -3  289.67   13.30
  -5   2  -3  252.37   12.30
  -5   2  -3  279.67   12.40
  -5   2  -3  284.67   13.00
   5   2   3  253.37   13.70
  -6  -2  -3   25.10    6.60
  -6  -2  -3   20.50    4.10
   6  -2   3   25.60    5.40
   6  -2   3   29.60    7.00
  -6  -2  -3   18.70    3.80
   6   2   3   22.30    6.50
   6   2   3   28.50    4.00
  -6   2  -3   26.10    6.10
  -6   2  -3   22.10    6.90
  -6   2  -3   25.50    5.60
  -7  -2  -3   -0.70    5.30
  -7  -2  -3    4.20    4.00
   7  -2   3    7.20    6.70
   7  -2   3   -5.80    5.20
  -7  -2  -3    5.20    4.20
  -7   2  -3    2.50    4.80
  -7   2  -3   -9.80    6.00
   7   2   3    0.20    3.90
  -7   2  -3    2.20    6.60
  -8  -2  -3   10.90    9.00
   8  -2   3    7.30    7.40
   8  -2   3    4.50    7.90
  -8  -2  -3    6.20    4.80
  -8  -2  -3   14.50    5.70
  -8   2  -3   14.80    6.50
  -8   2  -3    7.50    8.80
   8   2   3   26.40    5.70
  -8   2  -3   -7.50    8.20
  -8  -3   3   -2.40    4.70
  -8  -3   3  -11.60    6.10
  -8  -3   3   -3.30    8.90
   8  -3  -3    1.10    6.00
  -8   3   3    5.80    6.10
  -8   3   3    3.90    8.30
  -7  -3   3   13.50    7.40
   7  -3  -3   12.30    6.40
  -7  -3   3   14.00    5.30
  -7   3   3   11.00    3.90
  -7   3   3    1.90    5.10
  -7   3   3   -2.90    5.10
  -6  -3   3    1.60    4.20
  -6  -3   3   -2.30    6.20
   6  -3  -3    5.90    3.30
   6  -3  -3    3.50    5.20
  -6   3   3    8.00    2.60
  -6   3   3    1.50    4.00
  -6   3   3    1.30    5.70
   5  -3  -3    7.80    2.60
  -5  -3   3    2.50    3.60
  -5   3   3    7.90    4.10
  -5   3   3    5.60    1.90
   4  -3  -3    7.10    4.00
  -4  -3   3    4.20    3.50
  -4  -3   3    6.90    3.40
   4  -3  -3    7.40    1.70
  -4   3   3    5.50    3.70
  -4   3   3    8.90    4.30
  -4   3   3    5.10    1.50
  -3  -3   3   46.70    5.20
   3  -3  -3   52.39    5.70
  -3  -3   3   45.30    5.90
   3  -3  -3   41.00    1.80
   3   3  -3   49.40    5.00
  -3   3   3   50.19    5.70
  -3   3   3   55.59    5.80
   2  -3  -3   35.70    1.60
  -2  -3   3   32.10    3.90
   2  -3  -3   38.00    4.60
  -2  -3   3   41.70    5.20
   2  -3  -3   31.30    1.50
  -2   3   3   35.00    4.50
  -2   3   3   40.70    4.80
   2   3  -3   33.30    4.60
   1  -3  -3    1.10    1.20
  -1  -3   3   -0.50    2.90
  -1  -3   3    1.10    2.60
   1  -3  -3   -2.40    2.20
   1  -3  -3    1.40    1.20
   1   3  -3   -3.30    2.40
  -1   3   3    1.50    2.50
  -1   3   3   -1.50    2.10
   0  -3   3   24.50    4.50
   0  -3  -3   36.80    3.20
   0  -3  -3   27.60    3.60
   0  -3   3   36.40    4.40
   0   3  -3   29.20    4.20
   0   3  -3   36.30    4.30
   0   3   3   26.50    3.40
   1  -3   3  240.78   10.90
  -1  -3  -3  250.47    9.60
  -1  -3  -3  248.98    9.60
   1  -3   3  244.28   10.30
  -1   3  -3  234.98   10.80
   1   3   3  267.47    9.50
  -1   3  -3  270.77   10.80
   2  -3   3   58.39    6.50
  -2  -3  -3   58.89    4.20
  -2  -3  -3   56.69    4.60
  -2  -3  -3   61.39    5.30
   2  -3   3   65.39    5.70
   2   3   3   62.09    4.40
  -2   3  -3   60.09    5.50
  -2   3  -3   55.59    5.30
  -2   3  -3   54.99    5.50
  -3  -3  -3   53.19    5.90
   3  -3   3   45.70    5.50
   3  -3   3   34.50    4.70
  -3  -3  -3   44.30    3.70
  -3  -3  -3   41.40    4.40
  -3   3  -3   36.20    4.80
  -3   3  -3   45.90    6.30
  -3   3  -3   33.70    5.00
   4  -3   3   55.99    6.40
  -4  -3  -3   55.69    7.00
  -4  -3  -3   60.49    4.60
  -4   3  -3   67.19    8.20
  -4   3  -3   50.99    6.10
  -4   3  -3   51.19    7.20
   5  -3   3  503.65   19.30
  -5  -3  -3  459.55   16.80
  -5  -3  -3  538.25   20.70
  -5  -3  -3  524.35   16.80
   5  -3   3  528.05   20.20
  -5   3  -3  542.95   21.30
  -5   3  -3  476.15   20.10
  -5   3  -3  532.05   19.40
  -6  -3  -3   19.80    4.20
   6  -3   3   19.60    6.20
   6  -3   3   18.80    6.50
  -6  -3  -3   17.80    6.40
  -6  -3  -3   17.80    4.30
  -6   3  -3   22.30    6.40
  -6   3  -3   15.80    5.80
  -6   3  -3   19.30    6.60
   7  -3   3    5.10    7.40
   7  -3   3  -14.10    6.60
  -7  -3  -3    3.60    4.00
  -7  -3  -3    1.90    8.30
  -7  -3  -3    3.90    4.70
  -7   3  -3   -9.60    8.10
  -7   3  -3   -5.00    6.00
  -7   3  -3   12.40    6.90
   7  -4  -3   30.40    9.70
  -7  -4   3   35.70   10.20
  -7  -4   3   20.70    7.40
  -7  -4   3   26.90    9.40
  -7   4   3   11.00    8.00
  -7   4   3   28.30    9.90
  -6  -4   3   18.80    7.40
  -6  -4   3   25.00    9.00
   6  -4  -3   26.40    7.90
  -6  -4   3   10.90    5.70
  -6   4   3   28.30    6.70
  -6   4   3   24.70    3.20
  -6   4   3    4.80    8.30
   5  -4  -3    9.80    4.60
  -5  -4   3   14.40    7.30
  -5  -4   3    3.90    7.20
  -5  -4   3   19.10    5.40
  -5   4   3   10.20    2.10
  -5   4   3   20.10    7.20
  -5   4   3    9.60    5.40
  -4  -4   3   32.10    7.30
   4  -4  -3   14.50    5.90
  -4  -4   3   10.00    5.50
   4   4  -3   27.00    5.50
  -4   4   3   15.00    4.90
  -4   4   3   26.50    6.60
   3  -4  -3  225.68   13.30
  -3  -4   3  237.08   13.00
  -3  -4   3  234.28   11.50
   3   4  -3  226.78   11.30
  -3   4   3  206.18   11.10
  -3   4   3  202.48   11.20
   2  -4  -3   23.30    5.00
   2  -4  -3   18.50    2.30
  -2  -4   3   26.20    5.70
  -2  -4   3   19.50    5.60
   2  -4  -3   21.20    2.40
   2   4  -3   17.40    4.50
  -2   4   3   23.70    5.20
  -2   4   3   20.20    4.90
  -1  -4   3  191.88   10.70
  -1  -4   3  206.48   11.30
   1  -4  -3  182.38    7.10
   1  -4  -3  177.48    9.70
  -1   4   3  172.68    9.30
   1   4  -3  167.68    9.80
  -1   4   3  168.68    9.70
   0  -4  -3   32.70    3.80
   0  -4   3   30.20    6.20
   0  -4  -3   31.10    3.90
   0  -4  -3   33.60    5.30
   0  -4   3   31.10    5.30
   0   4   3   31.70    4.70
   0   4  -3   21.00    4.90
  -1  -4  -3   93.69    7.10
  -1  -4  -3   93.09    6.50
  -1  -4  -3   96.49    7.00
   1  -4   3   93.09    7.10
   1   4   3   82.39    6.40
  -1   4  -3  107.19    7.90
  -1   4  -3   79.09    7.50
   2  -4   3    2.70    5.20
  -2  -4  -3   12.10    4.00
  -2  -4  -3    6.60    3.20
  -2  -4  -3    9.00    4.00
   2  -4   3    2.90    4.50
  -2   4  -3    6.40    4.50
   2   4   3   10.40    3.50
  -2   4  -3    8.30    4.70
   3  -4   3   10.80    4.50
  -3  -4  -3   17.50    5.10
  -3  -4  -3   15.50    4.40
   3  -4   3   16.70    4.90
  -3  -4  -3    8.00    3.30
  -3   4  -3   14.10    6.10
  -3   4  -3    5.70    5.00
  -3   4  -3   13.70    5.40
  -4  -4  -3    7.80    5.40
   4  -4   3    2.90    4.80
  -4  -4  -3    8.10    3.40
   4  -4   3    3.10    5.80
  -4  -4  -3   -1.40    4.30
  -4   4  -3   -8.50    6.10
  -4   4  -3    0.90    4.60
  -4   4  -3    5.40    4.90
   5  -4   3   14.10    6.10
  -5  -4  -3    5.70    5.10
  -5  -4  -3    9.70    7.40
  -5  -4  -3    5.40    3.90
   5  -4   3    3.20    6.70
  -5   4  -3    9.40    6.20
  -5   4  -3    0.30    4.70
  -5   4  -3   15.00    8.70
   6  -4   3    7.90    7.50
  -6  -4  -3   -6.50    7.90
   6  -4   3    8.20    8.10
  -6  -4  -3    5.20    4.90
  -6  -4  -3    3.00    4.30
  -6   4  -3   -7.60    9.40
  -6   4  -3   15.80    7.60
  -5  -5   3   33.90    8.50
  -5  -5   3   21.10    7.70
  -5  -5   3   30.70    9.70
   5  -5  -3   41.20    9.50
  -5  -5   3   27.90   10.60
  -5   5   3   17.30    7.00
  -5   5   3   10.40    7.60
  -4  -5   3    2.10    7.80
  -4  -5   3    9.70    8.10
  -4  -5   3   11.00    7.10
   4  -5  -3  -12.00    6.30
  -4  -5   3  -13.20    5.80
  -4   5   3    2.00    5.30
   4   5  -3   -3.10    5.20
  -4   5   3   -6.00    8.30
  -3  -5   3   11.90    6.30
  -3  -5   3   10.00    7.00
  -3  -5   3   15.50    7.50
   3  -5  -3    5.70    6.30
  -3   5   3    1.10    5.00
  -3   5   3  -11.10    6.80
   3   5  -3   15.20    5.40
   2  -5  -3   40.70    3.50
  -2  -5   3   40.50    8.40
   2  -5  -3   41.90    7.70
  -2  -5   3   56.89    8.20
   2  -5  -3   37.90    3.40
   2   5  -3   53.29    7.80
  -2   5   3   46.00    6.90
  -1  -5   3  155.08   12.70
   1  -5  -3  135.19    6.80
   1  -5  -3  141.49   11.50
  -1  -5   3  138.89   16.10
   1   5  -3  145.49   10.20
  -1   5   3  134.19    9.40
   0  -5  -3    6.00    3.70
   0  -5  -3    3.40    3.90
   0  -5   3    7.40    5.10
   0  -5   3    9.40    5.30
   0   5   3    2.40    4.40
   0   5  -3    9.50    5.10
  -1  -5  -3    8.90    4.50
   1  -5   3    6.30    5.30
  -1  -5  -3    7.90    5.30
   1  -5   3    2.80    5.30
  -1  -5  -3    3.50    5.50
   1   5   3    9.90    4.60
  -1   5  -3    7.90    5.20
  -2  -5  -3    5.20    5.20
  -2  -5  -3   16.60    6.70
  -2  -5  -3   24.40    5.50
   2  -5   3   -5.70    5.60
   2  -5   3    2.60    5.40
  -2  -5  -3    9.80    6.00
   2   5   3   17.80    4.70
  -2   5  -3   11.90    6.40
  -2   5  -3    0.70    5.10
  -3  -5  -3    7.00    5.80
   3  -5   3   12.20    7.90
  -3  -5  -3   12.20    7.20
  -3  -5  -3   14.80    6.20
   3  -5   3   14.30    6.00
  -3  -5  -3    9.30    4.90
  -3   5  -3    3.00    5.80
  -3   5  -3   12.50    6.80
  -4  -5  -3   -2.00    7.10
  -4  -5  -3   -4.70    4.60
   4  -5   3    5.60    8.90
  -4  -5  -3   -2.70    6.40
  -4   5  -3    5.20    9.10
  -4   5  -3   -3.40    6.20
  -9   0   4    4.30    5.20
  -9   0   4    2.70    7.10
   9   0  -4    8.30    6.20
  -9   0   4   -2.70    6.80
  -8   0   4   18.70    5.90
  -8   0   4   13.20    5.10
   8   0  -4   16.80    5.60
  -8   0   4    8.10    5.60
  -7   0   4  518.45   19.00
   7   0  -4  516.95   19.00
  -7   0   4  508.25   19.20
  -7   0   4  521.55   19.30
   6   0  -4    0.10    2.30
  -6   0   4    2.00    3.00
  -6   0   4   -1.80    3.20
  -6   0   4    1.40    2.80
  -5   0   4   17.50    3.00
   5   0  -4    9.60    3.10
  -5   0   4   13.50    3.10
  -5   0   4   13.70    3.20
  -4   0   4   83.99    5.20
   4   0  -4   84.19    4.80
  -4   0   4   87.09    5.30
  -4   0   4   83.69    5.00
  -3   0   4  509.65   15.90
   3   0  -4  513.45   15.80
  -2   0   4    8.40    1.90
  -2   0   4    7.90    1.70
   2   0  -4    8.90    1.50
   1   0  -4   81.29    3.90
  -1   0   4   83.49    3.50
  -1   0   4   82.09    3.90
   1   0  -4   79.39    3.50
   0   0  -4  151.48    4.80
   0   0   4  135.89    5.40
   0   0   4  131.69    4.60
   0   0  -4  137.59    5.60
   1   0   4  694.43   20.60
  -1   0  -4  685.63   20.70
  -1   0  -4  725.63   19.60
   1   0   4  668.03   19.40
  -2   0  -4   99.69    4.10
  -2   0  -4   92.09    4.90
   2   0   4   94.29    3.90
   2   0   4   85.39    4.90
  -2   0  -4  102.39    4.40
   3   0   4   83.39    5.80
  -3   0  -4   82.19    4.30
  -3   0  -4   87.89    4.80
  -3   0  -4   90.69    5.70
   3   0   4   83.89    4.10
  -4   0  -4   33.60    3.40
   4   0   4   34.00    4.40
   4   0   4   32.90    3.40
  -4   0  -4   35.90    4.00
  -4   0  -4   36.40    4.80
  -5   0  -4    9.20    3.00
   5   0   4   10.80    4.70
   5   0   4   12.30    2.90
  -5   0  -4    8.80    3.00
  -5   0  -4    8.40    4.30
   6   0   4  157.78   11.00
  -6   0  -4  141.19    8.30
  -6   0  -4  139.19    8.30
  -6   0  -4  150.58   10.30
   6   0   4  151.88    7.80
   7   0   4   31.00    5.40
  -7   0  -4   41.40    6.20
  -7   0  -4   38.10    7.50
  -7   0  -4   34.40    5.90
   7   0   4   36.60    8.30
   8   0   4   15.10    9.40
  -8   0  -4   -0.30    5.10
  -8   0  -4   22.90    8.90
   9  -1  -4    4.50    6.90
  -9  -1   4   21.70    7.00
  -9  -1   4   -2.10    4.70
  -9  -1   4    9.40    7.90
  -9   1   4    3.40    6.80
  -9   1   4    5.50    8.00
  -9   1   4    3.00    4.80
   9   1  -4    8.80    6.40
  -8  -1   4   18.00    5.00
  -8  -1   4   22.60    7.00
  -8  -1   4   18.30    5.80
   8  -1  -4   15.50    5.90
  -8   1   4   11.70    4.60
  -8   1   4   14.00    5.30
   8   1  -4   15.30    5.60
  -8   1   4   11.60    5.20
   7  -1  -4  208.48   11.30
  -7  -1   4  200.98   10.70
  -7  -1   4  208.28   12.30
  -7  -1   4  219.28   11.00
  -7   1   4  199.68   11.70
  -7   1   4  203.28   10.80
  -7   1   4  219.18   10.20
   7   1  -4  208.28   11.20
  -6  -1   4   18.90    4.00
  -6  -1   4   13.70    4.60
  -6  -1   4   13.80    4.00
   6  -1  -4   24.00    4.60
  -6   1   4   18.90    4.60
   6   1  -4   16.10    4.00
  -6   1   4   16.60    3.70
  -6   1   4   17.70    3.90
   5  -1  -4   39.80    4.20
  -5  -1   4   37.30    4.50
  -5  -1   4   43.00    5.40
  -5   1   4   39.60    4.60
  -5   1   4   35.10    4.60
   5   1  -4   41.00    4.60
  -5   1   4   42.30    3.80
   4  -1  -4  215.68    8.90
  -4  -1   4  197.18    8.20
   4   1  -4  208.38    8.70
  -4   1   4  211.88    8.50
  -4   1   4  207.28    8.70
  -4   1   4  201.58    7.60
  -3  -1   4  753.92   22.80
   3  -1  -4  759.72   22.80
  -3  -1   4  760.82   23.90
  -3   1   4  785.92   23.00
  -3   1   4  747.53   21.70
   3   1  -4  765.82   23.10
  -3   1   4  768.12   22.50
   2  -1  -4  466.15   14.30
  -2  -1   4  446.06   14.50
  -2  -1   4  456.55   15.40
   2   1  -4  466.85   14.80
  -2   1   4  478.55   14.40
  -2   1   4  448.46   13.30
   2   1  -4  480.05   14.80
  -2   1   4  485.85   14.10
  -1  -1   4 2525.25   69.99
  -1  -1   4 2585.04   70.59
   1  -1  -4 2564.24   69.09
  -1   1   4 2717.43   68.79
  -1   1   4 2407.56   69.09
   1   1  -4 2544.85   70.69
   0  -1  -4  235.38    7.80
   0  -1   4  238.38    8.90
   0  -1  -4  224.98    7.00
   0   1  -4  237.78    8.90
   0   1   4  225.68    7.80
   0   1   4  253.97    6.70
   0   1   4  248.08    7.10
   0   1  -4  245.78    8.50
   1  -1   4   38.40    3.70
   1  -1   4   24.30    2.90
  -1  -1  -4   22.40    2.60
  -1   1  -4   21.00    3.00
   1   1   4   26.40    2.70
  -1   1  -4   25.10    2.90
   2  -1   4  171.58    7.30
   2  -1   4  179.08    7.70
  -2  -1  -4  191.68    5.90
  -2  -1  -4  186.78    5.30
  -2  -1  -4  180.58    7.70
   2   1   4  186.38    7.90
  -2   1  -4  177.78    7.50
  -2   1  -4  179.08    8.00
  -2   1  -4  182.38    7.60
  -3  -1  -4  311.97   10.00
   3  -1   4  308.87   11.10
  -3  -1  -4  334.87   12.10
   3  -1   4  302.67   12.00
  -3  -1  -4  302.37    9.40
  -3   1  -4  311.07   11.80
   3   1   4  303.47   12.20
  -3   1  -4  307.47   11.50
   3   1   4  319.97    9.40
  -3   1  -4  308.37   11.30
  -4  -1  -4   36.80    5.00
   4  -1   4   36.90    4.10
   4  -1   4   35.60    4.40
  -4  -1  -4   37.40    3.70
  -4  -1  -4   27.80    2.80
   4   1   4   33.40    5.20
  -4   1  -4   33.40    4.80
   4   1   4   35.50    2.90
  -4   1  -4   35.60    4.50
  -4   1  -4   37.20    4.40
  -5  -1  -4   14.90    3.50
   5  -1   4   21.70    5.30
  -5  -1  -4   20.00    3.00
  -5  -1  -4   20.70    4.40
   5  -1   4   15.30    3.90
   5   1   4   20.00    2.90
  -5   1  -4   20.30    4.40
   5   1   4   26.50    6.00
  -5   1  -4   25.20    4.90
  -5   1  -4   18.30    4.20
   6  -1   4   -4.70    4.60
  -6  -1  -4   -0.30    3.10
  -6  -1  -4   -2.10    5.00
  -6  -1  -4   -3.40    2.80
   6  -1   4    0.50    3.70
  -6   1  -4    5.70    4.70
   6   1   4   -1.60    5.60
  -6   1  -4    1.00    4.20
   6   1   4   -2.30    2.60
  -6   1  -4   -3.50    3.40
  -7  -1  -4   14.20    6.60
  -7  -1  -4   10.30    4.10
   7  -1   4    0.60    6.70
  -7  -1  -4    6.70    4.10
   7   1   4   10.60    5.90
  -7   1  -4    7.40    6.50
   7   1   4    7.80    3.90
  -7   1  -4    1.00    4.30
  -7   1  -4   -1.50    8.60
  -8  -1  -4    5.90    5.70
  -8  -1  -4    7.80    5.00
  -8  -1  -4   14.80    9.20
   8  -1   4   17.60    9.20
   8  -1   4  -17.90    5.90
  -8   1  -4    3.00    7.00
  -8   1  -4   -6.90    4.90
  -8   1  -4  -10.70    8.00
   8   1   4    2.60    9.60
   8   1   4    2.90    4.90
   9  -2  -4    2.50    8.40
  -9  -2   4   14.40    5.50
  -9  -2   4   13.20    7.30
  -9  -2   4   25.20   10.10
   9   2  -4   33.30    7.70
  -9   2   4   16.00    7.90
  -9   2   4   12.40    6.90
  -8  -2   4    9.40    5.70
  -8  -2   4    8.30    7.20
   8  -2  -4    4.00    4.80
  -8  -2   4   10.40    5.00
   8   2  -4    9.90    6.20
  -8   2   4   23.50    7.20
  -8   2   4   10.40    5.40
  -8   2   4   16.30    5.10
  -7  -2   4   -0.90    4.50
  -7  -2   4   -5.10    5.70
   7  -2  -4    5.50    4.10
  -7   2   4   -4.20    3.50
  -7   2   4    3.70    3.20
   7   2  -4    3.70    4.50
  -7   2   4    2.80    5.50
   6  -2  -4    9.10    4.00
  -6  -2   4    8.10    3.70
  -6  -2   4    7.00    4.20
  -6   2   4    6.50    2.60
  -6   2   4    4.50    4.30
   6   2  -4    8.50    4.20
  -6   2   4    4.00    3.50
  -5  -2   4   21.80    3.50
   5  -2  -4   28.80    4.10
  -5  -2   4   28.60    5.60
  -5   2   4   25.40    2.80
   5   2  -4   34.00    4.90
  -5   2   4   21.80    4.20
  -5   2   4   30.80    5.00
  -4  -2   4    7.60    2.90
  -4  -2   4    4.00    3.60
   4  -2  -4    9.80    2.70
   4   2  -4    6.90    3.30
  -4   2   4    5.70    2.80
  -4   2   4    6.10    1.30
  -4   2   4    5.90    3.00
   3  -2  -4   36.20    4.20
  -3  -2   4   31.30    4.80
  -3  -2   4   31.80    3.30
  -3   2   4   34.50    3.90
  -3   2   4   32.90    3.80
   3   2  -4   30.40    3.80
   2  -2  -4   20.20    2.90
  -2  -2   4   18.40    3.10
  -2  -2   4   20.40    4.00
  -2   2   4   19.80    3.00
   2   2  -4   20.20    3.40
  -2   2   4   19.20    2.90
   1  -2  -4  144.39    6.10
   1  -2  -4  145.59    4.50
  -1  -2   4  138.79    7.30
   1   2  -4  141.89    6.90
  -1   2   4  149.09    5.90
   1   2  -4  136.59    7.40
  -1   2   4  142.79    6.20
   0  -2   4  895.31   27.10
   0  -2  -4  856.41   25.20
   0  -2  -4  900.01   25.20
   0  -2   4  878.21   27.00
   0   2  -4  876.01   26.90
   0   2  -4  882.11   27.30
   0   2   4  920.11   25.00
   0   2   4  880.11   25.40
   0   2   4  907.51   25.50
  -1  -2  -4  155.28    6.70
  -1  -2  -4  155.08    5.70
   1  -2   4  157.48    7.50
   1  -2   4  158.98    7.60
  -1   2  -4  156.38    7.70
   1   2   4  172.98    7.20
  -1   2  -4  171.68    7.80
   1   2   4  172.58    5.50
  -2  -2  -4  288.37   10.50
   2  -2   4  272.97   10.80
  -2  -2  -4  257.07    8.40
  -2  -2  -4  265.17    8.20
   2  -2   4  274.37   10.80
   2   2   4  271.47   10.80
  -2   2  -4  269.97   11.00
  -2   2  -4  263.17   10.90
  -2   2  -4  270.47   10.90
   3  -2   4  120.19    7.10
   3  -2   4   95.79    6.80
  -3  -2  -4  119.79    7.20
  -3  -2  -4  125.99    5.00
  -3   2  -4  115.19    7.30
  -3   2  -4  117.49    7.40
  -3   2  -4  116.89    6.90
   3   2   4  113.59    7.40
  -4  -2  -4  175.98    6.50
   4  -2   4  187.98    9.50
  -4  -2  -4  179.68    7.20
  -4  -2  -4  175.08    9.60
   4  -2   4  181.58    9.50
  -4   2  -4  174.98    9.70
  -4   2  -4  179.18   10.00
   4   2   4  171.38   10.30
  -4   2  -4  185.38    9.40
  -5  -2  -4  138.39    7.30
   5  -2   4  159.88    9.90
  -5  -2  -4  114.89   13.20
  -5  -2  -4  156.28    6.60
   5  -2   4  153.38    9.40
  -5   2  -4  162.28    9.60
  -5   2  -4  155.68    9.40
  -5   2  -4  155.98    9.80
  -6  -2  -4   44.50    6.80
   6  -2   4   49.50    7.40
  -6  -2  -4   40.70    5.10
  -6  -2  -4   56.39    5.80
   6  -2   4   44.60    6.70
  -6   2  -4   51.89    7.40
   6   2   4   53.19    8.90
   6   2   4   43.90    5.20
  -6   2  -4   52.99    7.50
  -6   2  -4   32.90    6.30
  -7  -2  -4    8.90    5.70
  -7  -2  -4   19.50    4.40
  -7  -2  -4   12.70    4.50
   7  -2   4   16.60    6.70
   7  -2   4   19.60    7.70
   7   2   4   14.70    4.30
  -7   2  -4   -7.70    7.20
  -7   2  -4    8.50    7.00
  -7   2  -4   13.80    5.70
   7   2   4   21.80    7.00
  -8  -3   4    2.30    6.80
  -8  -3   4   32.40    9.70
   8  -3  -4    3.30    7.30
  -8   3   4    7.20    6.00
  -8   3   4   -6.20    4.80
  -8   3   4   29.90    7.80
   7  -3  -4   19.30    6.70
  -7  -3   4   26.80    6.00
  -7  -3   4   17.80    8.40
  -7   3   4   21.70    6.10
  -7   3   4   19.50    3.70
  -7   3   4   19.30    5.90
   6  -3  -4   24.80    6.20
  -6  -3   4   23.90    5.10
  -6  -3   4   28.60    7.50
  -6   3   4   28.60    6.80
  -6   3   4   23.90    2.90
  -6   3   4   19.70    5.30
  -5  -3   4   38.50    5.50
  -5  -3   4   32.00    6.30
  -5   3   4   36.20    2.70
  -5   3   4   30.50    5.50
  -4  -3   4    6.40    3.50
  -4  -3   4   -6.50    4.20
   4  -3  -4    5.60    3.10
  -4   3   4   -4.00    2.70
  -4   3   4    2.00    3.40
   3  -3  -4   19.90    4.10
  -3  -3   4   18.70    4.10
  -3  -3   4   21.90    5.10
  -3   3   4   19.70    4.00
   3   3  -4   16.10    3.70
  -3   3   4   14.30    3.60
   2  -3  -4   42.10    4.80
  -2  -3   4   48.90    6.00
  -2  -3   4   45.60    5.30
   2   3  -4   44.00    5.00
  -2   3   4   45.20    4.70
  -2   3   4   47.60    4.90
   1  -3  -4   71.09    5.20
   1  -3  -4   73.79    3.20
  -1  -3   4   61.99    6.20
  -1  -3   4   74.29    6.10
   1  -3  -4   72.99    3.30
   1   3  -4   70.49    5.80
  -1   3   4   81.39    5.30
  -1   3   4   73.09    5.30
   1   3  -4   73.09    6.40
   0  -3   4   42.90    5.00
   0  -3  -4   41.60    3.30
   0  -3  -4   33.80    4.00
   0  -3   4   42.30    5.40
   0   3  -4   35.60    4.90
   0   3   4   41.00    3.90
   0   3  -4   46.60    5.10
   1  -3   4  118.19    7.10
  -1  -3  -4  116.39    6.10
  -1  -3  -4  121.49    6.00
   1  -3   4  111.09    8.00
  -1   3  -4  115.89    7.40
  -1   3  -4  104.89    6.80
   1   3   4  110.09    7.40
  -2  -3  -4    9.40    2.10
  -2  -3  -4    8.40    3.00
   2  -3   4   12.60    3.80
   2  -3   4    2.70    3.40
  -2  -3  -4   10.30    2.60
  -2   3  -4    7.70    3.50
  -2   3  -4    6.20    3.70
  -3  -3  -4   32.20    5.00
  -3  -3  -4   24.10    3.00
   3  -3   4   22.50    4.80
  -3  -3  -4   23.20    3.20
   3  -3   4   22.00    5.30
  -3   3  -4   13.40    4.80
  -3   3  -4   24.20    4.80
  -3   3  -4   24.70    4.90
  -4  -3  -4  210.68   11.40
   4  -3   4  208.68   12.00
   4  -3   4  212.98   10.90
  -4  -3  -4  222.48    8.00
  -4   3  -4  213.68   11.30
  -4   3  -4  212.28   11.80
  -4   3  -4  183.88   13.10
  -5  -3  -4   97.19    9.70
  -5  -3  -4  108.29    6.70
  -5  -3  -4   95.69    5.90
   5  -3   4  114.39   10.10
   5  -3   4  118.09   10.80
  -5   3  -4  103.79    9.00
  -5   3  -4  118.49    9.80
  -5   3  -4  122.69   11.30
  -6  -3  -4   16.80    3.60
   6  -3   4   15.00    6.30
  -6  -3  -4   16.70    7.60
   6  -3   4    9.00    6.40
  -6  -3  -4   21.00    4.30
  -6   3  -4   17.00    6.10
  -6   3  -4   20.40    8.00
  -6   3  -4   23.90    6.50
  -7  -3  -4    1.40    4.30
  -7  -3  -4   12.60    9.40
   7  -3   4   12.80    7.10
   7  -3   4   -6.20    7.30
  -7  -3  -4   -1.00    4.30
  -7   3  -4    5.20    8.80
  -7   3  -4   -8.90    5.80
  -7   3  -4   16.50    8.00
   7  -4  -4   13.70    8.80
  -7  -4   4   21.40   10.20
  -7  -4   4   -0.80    6.80
  -7  -4   4    3.00   10.70
  -7   4   4    4.00    6.10
  -7   4   4    1.20    6.70
  -6  -4   4    5.90    8.40
   6  -4  -4    0.60    6.70
  -6  -4   4    4.50    6.00
  -6  -4   4   15.60    8.70
  -6   4   4   15.90    8.60
  -6   4   4    5.90    5.60
  -5  -4   4   26.80    8.70
  -5  -4   4   42.00    8.90
   5  -4  -4   29.30    7.10
  -5  -4   4   34.40    6.50
  -5   4   4   32.20    8.10
  -5   4   4   30.20    6.70
  -4  -4   4   15.30    6.60
  -4  -4   4   18.80    5.20
   4  -4  -4   18.60    5.30
  -4   4   4   14.70    5.40
  -4   4   4   24.10    5.20
   4   4  -4   12.30    4.60
  -3  -4   4   53.89    8.90
   3  -4  -4   43.00    6.60
  -3  -4   4   53.39    5.80
  -3   4   4   46.70    6.70
   3   4  -4   41.20    6.10
  -3   4   4   41.50    6.10
  -2  -4   4  117.69    9.30
   2  -4  -4  115.39    8.20
  -2   4   4  114.89    8.70
  -2   4   4  107.69    7.90
   2   4  -4  100.39    7.90
   1  -4  -4  273.37   12.20
  -1  -4   4  278.77   13.00
   1  -4  -4  281.17    9.10
   1  -4  -4  254.07    9.10
  -1   4   4  283.67   11.90
   1   4  -4  284.27   13.00
  -1   4   4  271.57   12.20
   0  -4  -4   14.30    4.00
   0  -4  -4   15.40    3.40
   0  -4  -4   22.50    3.20
   0  -4   4   18.30    5.10
   0  -4   4   16.80    6.80
   0   4   4   19.50    4.10
   0   4  -4   16.10    5.30
   0   4  -4   21.80    4.40
  -1  -4  -4   23.50    4.00
   1  -4   4   23.60    5.00
  -1  -4  -4   18.40    4.00
   1  -4   4   30.50    6.30
  -1   4  -4   20.30    5.30
   1   4   4   20.70    4.00
  -1   4  -4   19.00    4.80
  -2  -4  -4   12.40    4.00
   2  -4   4   10.40    4.80
  -2  -4  -4   12.40    4.40
  -2  -4  -4    6.30    3.30
   2  -4   4   23.50    5.40
   2   4   4   16.20    3.80
  -2   4  -4    3.60    4.20
  -2   4  -4   12.40    5.00
  -3  -4  -4    5.40    3.00
   3  -4   4    6.70    4.70
  -3  -4  -4   -2.10    4.40
   3  -4   4    5.90    5.60
  -3  -4  -4    1.40    3.80
  -3   4  -4    0.30    5.20
  -3   4  -4   -4.10    4.00
   4  -4   4   13.40    5.30
  -4  -4  -4    8.50    4.30
  -4  -4  -4   15.30    6.60
  -4  -4  -4    6.90    3.30
   4  -4   4    7.00    5.20
  -4   4  -4   11.00    5.70
  -4   4  -4   15.50    6.40
  -4   4  -4   23.60    6.70
  -5  -4  -4    8.80    7.50
   5  -4   4    8.80    6.00
  -5  -4  -4    0.60    3.70
  -5  -4  -4    5.60    4.60
   5  -4   4   11.40    7.40
  -5   4  -4   18.40    8.70
  -5   4  -4    0.50    5.80
  -5   4  -4   15.70    6.90
  -6  -4  -4   -3.70    8.40
  -6  -4  -4    6.40    4.70
  -6  -4  -4   10.10    5.40
  -6  -4  -4    8.10    4.50
   6  -4   4    5.30    7.70
   6  -4   4    4.90    9.10
  -6   4  -4   13.00    6.50
  -6   4  -4   25.30    8.80
  -6   4  -4    1.50    9.10
  -5  -5   4   32.00   10.50
   5  -5  -4   19.40    9.10
  -5  -5   4   44.70    8.40
  -5  -5   4   38.20   10.10
  -5   5   4   19.30    7.30
  -5   5   4   24.20   10.30
  -4  -5   4   15.40    8.00
   4  -5  -4   12.80    7.50
  -4  -5   4    6.30    6.80
  -4  -5   4   12.90    8.00
   4   5  -4   11.60    5.80
  -4   5   4   14.80    6.80
  -4   5   4   22.40    6.70
  -3  -5   4   19.80    8.10
  -3  -5   4   26.70    7.40
   3  -5  -4   35.60    7.70
  -3  -5   4   37.50    8.60
  -3   5   4   29.80    8.00
   3   5  -4   25.00    6.30
  -3   5   4   36.70    7.10
   2  -5  -4   15.50    6.00
  -2  -5   4   25.30    7.20
  -2  -5   4   29.60    7.20
  -2  -5   4   10.40    5.60
  -2   5   4   11.70    5.40
  -2   5   4   31.50    6.90
   2   5  -4    8.80    5.30
   1  -5  -4    5.80    5.40
   1  -5  -4    1.80    2.40
  -1  -5   4    2.20    6.40
  -1  -5   4    9.00    5.80
   1  -5  -4    0.60    2.60
  -1   5   4    4.60    4.60
   1   5  -4    0.80    4.30
   0  -5   4   14.70    7.00
   0  -5  -4   19.10    4.40
   0  -5   4   31.60    8.40
   0  -5  -4   16.20    3.80
   0  -5  -4   11.50    5.60
   0   5   4   20.10    5.30
   0   5  -4   15.30    5.70
  -1  -5  -4    5.80    4.60
  -1  -5  -4   18.10    5.70
   1  -5   4    1.40    7.30
  -1  -5  -4   17.30    5.60
  -1   5  -4   10.20    5.50
   1   5   4    8.30    4.90
  -2  -5  -4    4.60    5.30
  -2  -5  -4   11.30    6.40
   2  -5   4   17.70    8.10
  -2  -5  -4   11.50    5.60
  -2  -5  -4    9.90    5.20
   2   5   4   10.30    4.70
  -2   5  -4   -1.40    5.10
  -3  -5  -4   17.60    6.30
   3  -5   4    7.00    6.70
   3  -5   4   15.30    8.40
  -3  -5  -4   16.70    6.40
  -3  -5  -4   11.80    4.90
  -3   5  -4    7.50    5.70
  -3   5  -4   16.50    7.80
  -4  -5  -4   14.50    5.20
   4  -5   4   11.90    7.60
   4  -5   4    4.80    9.20
  -4  -5  -4    2.70    7.50
  -4  -5  -4    6.20    6.10
  -4   5  -4    8.80    6.20
  -4   5  -4   -0.40    8.70
   9   0  -5   18.90    6.90
  -9   0   5   12.90    5.80
  -9   0   5    6.00    7.70
  -9   0   5   27.40    8.00
  -8   0   5  240.38   20.10
  -8   0   5  292.57   14.30
   8   0  -5  274.17   13.60
  -8   0   5  252.17   13.10
  -7   0   5  173.98   10.10
  -7   0   5  170.18    9.70
  -6   0   5   84.89    6.40
  -6   0   5   77.99    6.50
  -6   0   5   77.99    6.60
   6   0  -5   91.39    6.80
  -5   0   5   32.80    3.80
  -5   0   5   40.30    4.50
  -5   0   5   33.80    4.50
   5   0  -5   37.20    4.40
   4   0  -5   44.50    3.70
  -4   0   5   50.79    4.30
  -4   0   5   54.39    4.00
  -3   0   5   -0.50    1.80
  -3   0   5    3.90    1.50
   3   0  -5    5.10    2.00
   2   0  -5   34.30    3.20
  -2   0   5   33.90    3.00
   2   0  -5   42.70    2.70
  -2   0   5   33.30    2.50
   1   0  -5  139.79    5.40
  -1   0   5  139.79    5.90
   1   0  -5  145.29    6.00
  -1   0   5  147.99    5.30
   0   0   5    9.80    1.30
   0   0  -5   14.10    1.60
   0   0  -5    8.50    2.00
  -1   0  -5    1.70    1.40
   1   0   5    3.20    2.20
  -1   0  -5   12.20    2.50
   1   0   5    3.60    1.30
  -2   0  -5   34.30    2.60
   2   0   5   34.00    2.50
  -2   0  -5   40.70    3.20
   2   0   5   35.30    3.50
   3   0   5   21.60    2.40
  -3   0  -5   18.60    2.80
  -3   0  -5   19.30    2.40
   3   0   5   21.70    3.80
  -3   0  -5   22.80    3.80
   4   0   5    6.90    2.10
  -4   0  -5    9.40    2.90
  -4   0  -5    8.40    2.40
   4   0   5   12.90    4.20
  -4   0  -5    9.90    3.10
   5   0   5   -3.10    2.40
  -5   0  -5    0.40    2.70
  -5   0  -5   -1.00    2.80
  -5   0  -5   -3.60    4.00
   5   0   5    2.80    4.70
  -6   0  -5   26.10    6.50
  -6   0  -5   24.00    4.80
  -6   0  -5   21.70    4.40
   6   0   5   20.00    6.50
   6   0   5   22.90    4.20
   7   0   5    5.60    4.10
  -7   0  -5   -9.30    6.30
   7   0   5   -0.30    7.00
  -7   0  -5    4.60    4.70
  -7   0  -5   -1.90    4.00
  -8   0  -5   -3.70    5.10
   8   0   5   -1.70    9.60
  -8   0  -5   -7.50    7.70
  -8   0  -5   -4.10    7.10
  -9  -1   5   22.20    8.50
   9  -1  -5    1.50    7.30
  -9  -1   5    2.60    5.30
  -9  -1   5   14.00    6.80
  -9   1   5    2.20    6.40
  -9   1   5    1.50    4.90
  -9   1   5   -0.10    7.40
   9   1  -5    7.20    6.40
   8  -1  -5    6.00    4.40
  -8  -1   5   12.70    4.90
  -8  -1   5    9.10    5.90
  -8  -1   5   35.60    7.80
   8   1  -5    8.70    5.60
  -8   1   5    3.60    4.70
  -8   1   5    8.50    6.30
  -8   1   5    6.30    4.50
  -7  -1   5   46.10    7.30
   7  -1  -5   35.10    5.70
  -7  -1   5   21.90    5.10
  -7   1   5   35.00    5.50
   7   1  -5   33.00    6.80
  -7   1   5   29.70    5.40
  -7   1   5   38.40    6.20
  -6  -1   5   61.39    7.20
  -6  -1   5   68.29    5.90
  -6  -1   5   72.09    6.60
   6  -1  -5   84.79    7.00
  -6   1   5   67.59    6.60
  -6   1   5   77.09    6.40
  -6   1   5   64.49    5.40
   6   1  -5   56.39    6.40
  -5  -1   5   89.99    6.10
   5  -1  -5   91.89    6.40
   5   1  -5   85.19    6.30
  -5   1   5   85.19    5.70
  -5   1   5   84.49    6.00
  -5   1   5   84.49    5.00
   4  -1  -5  387.16   13.70
  -4  -1   5  394.26   14.90
  -4  -1   5  408.26   14.00
  -4   1   5  406.96   14.10
   4   1  -5  411.96   14.20
  -4   1   5  414.66   13.10
  -4   1   5  401.86   13.80
  -3  -1   5  259.17   11.00
  -3  -1   5  260.87   10.00
   3  -1  -5  280.17   10.00
   3   1  -5  268.37   10.30
  -3   1   5  270.07    9.90
  -3   1   5  281.37    9.60
  -3   1   5  284.17    9.10
   2  -1  -5   79.79    4.20
   2  -1  -5   83.49    3.70
  -2  -1   5   83.79    4.40
  -2  -1   5   75.49    5.10
   2   1  -5   83.99    5.40
   2   1  -5   86.59    4.70
   2   1  -5   77.39    4.80
  -2   1   5   84.09    4.00
  -2   1   5   88.49    4.20
  -2   1   5   78.59    3.50
   1  -1  -5  245.28    8.20
  -1  -1   5  246.08    8.80
  -1  -1   5  237.38    9.50
   1  -1  -5  264.07    8.10
  -1   1   5  256.27    8.10
  -1   1   5  245.48    7.60
   1   1  -5  247.88    9.60
  -1   1   5  248.68    8.00
   1   1  -5  262.27    9.10
   0  -1  -5 1220.28   35.10
   0  -1  -5 1299.67   36.50
   0  -1   5 1354.96   37.70
   0   1   5 1248.88   35.20
   0   1   5 1274.47   36.40
   0   1  -5 1329.17   37.70
   0   1  -5 1380.26   37.00
   1  -1   5  217.98    8.50
   1  -1   5  228.88    9.30
  -1  -1  -5  230.08    8.40
  -1   1  -5  217.18    9.10
   1   1   5  209.88    8.40
  -1   1  -5  231.48    8.50
   2  -1   5  701.03   22.60
  -2  -1  -5  752.72   20.00
  -2  -1  -5  743.73   22.50
   2  -1   5  734.83   21.90
  -2   1  -5  695.63   22.60
  -2   1  -5  719.13   21.90
  -2   1  -5  708.83   22.00
   2   1   5  676.53   22.30
  -3  -1  -5   17.20    3.60
   3  -1   5   18.90    3.00
  -3  -1  -5   18.40    1.70
  -3  -1  -5   18.70    2.30
   3  -1   5   23.50    4.10
  -3   1  -5   16.90    3.40
  -3   1  -5   16.30    3.90
  -3   1  -5   20.60    3.20
   3   1   5   18.00    3.80
   3   1   5   17.40    1.50
   4  -1   5   73.59    5.40
  -4  -1  -5   71.29    3.80
  -4  -1  -5   71.29    6.60
  -4  -1  -5   74.09    4.50
   4  -1   5   74.19    6.50
  -4   1  -5   62.19    5.90
   4   1   5   69.69    3.60
   4   1   5   71.79    7.00
  -4   1  -5   66.19    5.50
  -4   1  -5   85.09    7.20
  -5  -1  -5   13.10    3.30
  -5  -1  -5   17.10    2.80
  -5  -1  -5    9.70    5.30
   5  -1   5   16.80    5.30
   5  -1   5   23.40    4.30
   5   1   5   11.10    2.40
  -5   1  -5   20.20    5.60
  -5   1  -5   20.50    4.60
  -5   1  -5   16.50    4.10
   6  -1   5   41.10    5.70
   6  -1   5   40.80    7.40
  -6  -1  -5   39.50    4.50
  -6  -1  -5   31.40    4.70
  -6  -1  -5   53.79    8.20
   6   1   5   39.30    7.70
   6   1   5   44.70    4.70
  -6   1  -5   28.60    6.70
  -6   1  -5   38.30    5.70
  -6   1  -5   38.20    6.40
  -7  -1  -5    9.90    4.60
   7  -1   5   -1.40    6.90
  -7  -1  -5   19.10    4.50
  -7  -1  -5   14.10    7.70
   7   1   5    9.20    3.90
   7   1   5   10.20    6.20
  -7   1  -5    4.20    4.50
  -7   1  -5   -3.70    7.10
   8  -1   5    1.50    9.80
  -8  -1  -5    4.30    5.00
  -8  -1  -5   -1.00    9.10
  -8  -1  -5    7.70    5.90
   8  -1   5   -4.00    6.90
   8   1   5   -2.80    9.30
  -8   1  -5   -2.10    5.10
  -8   1  -5   -2.60    7.80
   8   1   5   13.10    5.00
  -8   1  -5  -14.30    7.90
  -9  -2   5   10.60    7.30
   9  -2  -5    5.10    8.40
  -9  -2   5    4.80    5.40
  -9  -2   5    5.50    9.30
   9   2  -5   13.90    7.50
  -9   2   5   12.90    7.30
  -9   2   5   10.30    6.10
  -8  -2   5    4.20    5.70
  -8  -2   5    6.00    4.40
  -8  -2   5    8.40    7.90
   8  -2  -5    7.30    5.10
  -8   2   5   -3.80    4.10
  -8   2   5   -4.70    4.60
  -8   2   5   13.70    6.00
   8   2  -5   12.10    6.20
   7  -2  -5    2.60    5.20
  -7  -2   5    4.20    4.80
  -7  -2   5   11.90    6.40
  -7   2   5    5.50    5.60
   7   2  -5    2.90    4.60
  -7   2   5    1.40    3.90
  -7   2   5    5.70    3.30
  -6  -2   5   63.49    8.80
  -6  -2   5   56.49    6.50
  -6   2   5   62.49    7.30
   6   2  -5   61.89    7.00
  -6   2   5   65.09    4.50
  -6   2   5   45.10    5.90
  -5  -2   5  155.28    8.50
  -5  -2   5  149.29   10.30
   5  -2  -5  174.58    8.60
   5   2  -5  170.48    9.30
  -5   2   5  162.68    8.60
  -5   2   5  163.58    6.20
  -5   2   5  167.68    8.70
  -4  -2   5   35.50    3.90
  -4  -2   5   38.20    5.80
   4  -2  -5   34.70    4.50
  -4   2   5   38.00    4.30
  -4   2   5   31.90    2.40
  -4   2   5   35.70    4.60
   4   2  -5   35.80    4.30
  -4   2   5   33.00    2.00
  -3  -2   5  135.69    7.90
   3  -2  -5  142.99    7.00
  -3  -2   5  141.39    6.90
  -3   2   5  141.49    7.10
   3   2  -5  142.29    7.40
  -3   2   5  150.38    6.80
  -2  -2   5  738.93   23.70
   2  -2  -5  750.22   22.90
  -2  -2   5  765.22   24.60
  -2   2   5  778.72   22.60
   2   2  -5  774.82   25.10
  -2   2   5  782.02   23.20
   2   2  -5  756.92   23.80
  -1  -2   5 1153.38   35.60
   1  -2  -5 1155.48   32.70
   1  -2  -5 1193.68   33.80
  -1   2   5 1220.28   33.50
  -1   2   5 1213.18   34.10
  -1   2   5 1185.48   32.90
   1   2  -5 1192.78   35.30
   1   2  -5 1261.27   36.50
   0  -2  -5  351.36   11.20
   0  -2   5  327.07   12.60
   0  -2   5  349.67   13.20
   0  -2  -5  349.77   10.80
   0   2  -5  354.96   13.20
   0   2   5  359.06   11.40
   0   2   5  358.56   10.40
   0   2  -5  340.77   12.70
   0   2   5  346.37   10.90
  -1  -2  -5   61.19    2.70
   1  -2   5   72.59    5.60
   1  -2   5   63.49    5.40
  -1  -2  -5   64.19    4.40
  -1   2  -5   56.69    5.10
  -1   2  -5   56.09    5.10
   1   2   5   62.89    4.40
  -2  -2  -5   44.50    1.80
  -2  -2  -5   46.30    2.40
  -2  -2  -5   42.20    1.90
   2  -2   5   42.70    5.10
   2  -2   5   46.00    5.30
  -2  -2  -5   49.80    4.60
   2   2   5   38.50    4.60
  -2   2  -5   46.60    5.30
  -2   2  -5   43.80    4.80
   3  -2   5  122.79    7.10
   3  -2   5  119.79    7.40
  -3  -2  -5  112.89    4.90
  -3  -2  -5  126.69    4.00
  -3  -2  -5  113.99    4.10
  -3  -2  -5  133.99    7.60
  -3   2  -5  115.09    7.60
  -3   2  -5  133.49    7.90
  -3   2  -5  114.59    7.50
   3   2   5  127.59    8.00
   4  -2   5  510.95   18.50
  -4  -2  -5  507.75   14.90
  -4  -2  -5  516.55   19.00
  -4  -2  -5  500.15   15.70
   4  -2   5  524.85   19.10
  -4   2  -5  506.85   19.10
  -4   2  -5  515.65   19.00
  -4   2  -5  542.95   19.20
   4   2   5  504.15   19.70
   5  -2   5   16.90    4.80
  -5  -2  -5    9.90    3.00
  -5  -2  -5   15.10    5.50
  -5  -2  -5    8.80    2.20
  -5   2  -5    3.80    4.20
  -5   2  -5    5.20    5.00
   5   2   5    7.90    6.10
  -6  -2  -5    4.20    3.90
  -6  -2  -5    5.00    2.80
  -6  -2  -5    6.10    5.90
   6  -2   5    6.10    6.30
   6  -2   5    3.20    5.00
  -6   2  -5    7.20    5.70
  -6   2  -5    3.10    5.70
  -6   2  -5    1.50    4.90
   6   2   5   11.80    7.10
   7  -2   5    4.30    7.60
  -7  -2  -5   -4.70    6.10
  -7  -2  -5    1.20    3.80
  -7  -2  -5    3.30    4.20
   7  -2   5    2.40    6.00
  -7   2  -5   -9.00    7.80
   7   2   5    5.40    8.30
  -7   2  -5   10.80    7.70
  -7   2  -5    1.10    5.60
  -8  -3   5    0.40    7.20
  -8  -3   5   35.40   10.70
   8  -3  -5    1.60    7.10
  -8   3   5    6.00    6.10
  -8   3   5   -9.20    4.40
  -8   3   5    8.60    8.30
  -7  -3   5    4.20    5.40
  -7  -3   5    2.60    8.00
   7  -3  -5    4.80    4.90
  -7  -3   5    7.40    8.00
  -7   3   5    7.00    5.60
  -7   3   5    2.00    2.80
  -7   3   5    4.30    4.80
   6  -3  -5   73.69    7.50
  -6  -3   5   72.49    9.90
  -6  -3   5   71.69    7.90
  -6  -3   5   87.59   11.00
  -6   3   5   78.39    8.80
  -6   3   5   79.89    7.90
  -6   3   5   71.19    3.80
  -5  -3   5   32.60    6.10
  -5  -3   5   29.30    7.20
  -5   3   5   25.40    5.30
  -4  -3   5   -0.40    4.60
  -4  -3   5   -1.70    2.50
   4  -3  -5    4.30    3.10
  -4   3   5    2.70    3.10
  -4   3   5    1.90    3.00
   3  -3  -5   39.20    4.90
  -3  -3   5   36.00    5.90
  -3  -3   5   37.00    5.10
   3   3  -5   31.40    4.80
  -3   3   5   41.20    5.20
  -3   3   5   35.70    4.60
  -2  -3   5  196.58   10.50
  -2  -3   5  195.08    9.40
   2  -3  -5  195.38    8.90
   2   3  -5  199.68    9.70
  -2   3   5  203.78    8.90
  -2   3   5  190.38    9.00
  -1  -3   5   16.30    4.00
   1  -3  -5    8.60    2.90
   1  -3  -5   11.20    1.40
  -1  -3   5   11.60    3.40
   1  -3  -5   12.10    1.70
   1   3  -5   10.10    3.50
  -1   3   5   12.70    3.10
  -1   3   5    9.60    2.70
   1   3  -5   12.90    4.10
   0  -3  -5   52.19    4.30
   0  -3  -5   52.49    3.60
   0  -3   5   53.89    6.30
   0  -3   5   45.60    5.50
   0   3  -5   52.69    6.10
   0   3  -5   46.00    5.40
   1  -3   5   79.79    6.40
  -1  -3  -5   77.39    5.20
   1  -3   5   86.79    6.70
  -1  -3  -5   81.39    4.70
  -1   3  -5   77.89    6.50
   1   3   5   81.59    4.40
  -1   3  -5   81.69    6.90
  -2  -3  -5   17.20    3.80
  -2  -3  -5   13.00    2.40
   2  -3   5    7.40    4.50
  -2  -3  -5    8.30    1.80
   2  -3   5    7.60    4.70
  -2   3  -5   10.10    4.00
  -2   3  -5    8.30    4.10
   3  -3   5    8.20    4.40
  -3  -3  -5    8.40    2.40
   3  -3   5    2.40    4.30
  -3  -3  -5    5.80    1.70
  -3  -3  -5    6.70    4.10
  -3   3  -5    2.50    4.80
  -3   3  -5    5.80    4.40
  -3   3  -5   -0.30    4.20
  -4  -3  -5   58.69    3.90
   4  -3   5   82.99    8.20
  -4  -3  -5   74.09    7.70
  -4  -3  -5   66.29    4.70
  -4  -3  -5   61.09    4.90
   4  -3   5   74.99    7.30
  -4   3  -5   68.99    7.80
  -4   3  -5   87.39    9.20
  -4   3  -5   61.39    7.70
  -5  -3  -5   15.20    6.60
  -5  -3  -5    9.80    3.40
   5  -3   5   12.80    6.00
  -5  -3  -5   12.90    2.60
   5  -3   5   18.00    6.00
  -5   3  -5   17.20    7.20
  -5   3  -5    9.90    5.70
  -5   3  -5   20.70    5.80
  -6  -3  -5   -9.30    7.40
   6  -3   5   11.50    6.80
  -6  -3  -5    3.00    2.80
   6  -3   5   -3.20    6.80
  -6  -3  -5    0.10    3.60
  -6   3  -5    5.70    5.90
  -6   3  -5   12.00    7.10
  -6   3  -5    1.00    7.90
  -7  -4   5   35.10   11.10
   7  -4  -5   15.40    8.50
  -7  -4   5   36.70   12.00
  -7  -4   5   16.80    7.70
  -7   4   5    6.80    8.70
  -7   4   5   27.60    7.30
  -6  -4   5   -1.20    8.60
  -6  -4   5    1.50    5.30
  -6  -4   5    9.30    8.50
   6  -4  -5   -2.20    6.10
  -6   4   5    4.50    5.50
  -6   4   5    0.00    7.90
   5  -4  -5   17.70    6.50
  -5  -4   5   13.20    5.50
  -5  -4   5   16.80    7.50
  -5   4   5   26.90    6.40
  -5   4   5   22.60    7.60
  -4  -4   5   25.10    5.80
  -4  -4   5   18.50    7.10
   4  -4  -5   20.80    6.10
  -4   4   5   17.10    6.30
   4   4  -5   25.00    5.70
  -4   4   5   26.30    5.80
  -3  -4   5   11.60    5.60
   3  -4  -5    7.20    4.70
  -3  -4   5    2.10    4.30
  -3   4   5    2.70    3.80
  -3   4   5    3.30    4.80
   3   4  -5   -0.90    3.90
  -2  -4   5  500.95   19.00
   2  -4  -5  481.55   17.60
  -2  -4   5  471.05   19.40
  -2  -4   5  475.95   19.30
   2   4  -5  439.76   18.20
  -2   4   5  452.75   17.20
  -2   4   5  472.55   18.00
  -1  -4   5  113.29    9.00
   1  -4  -5   97.99    4.50
   1  -4  -5  100.29    4.20
  -1  -4   5  115.49    9.80
   1  -4  -5   94.89    7.70
  -1   4   5  104.89    7.90
  -1   4   5   86.59    6.90
   1   4  -5   89.19    8.10
   0  -4  -5   46.30    4.20
   0  -4  -5   42.70    4.90
   0  -4   5   42.90    7.20
   0  -4  -5   49.99    5.40
   0  -4   5   42.80    6.70
   0   4  -5   52.39    7.00
   0   4   5   46.60    5.10
   0   4  -5   47.30    7.30
   1  -4   5   23.30    5.30
   1  -4   5   18.10    4.90
  -1  -4  -5   13.20    3.90
  -1  -4  -5   16.50    3.90
  -1   4  -5   15.30    5.50
  -1   4  -5   19.00    5.30
   1   4   5   17.50    3.70
  -2  -4  -5   35.20    5.70
  -2  -4  -5   36.20    4.60
   2  -4   5   39.90    7.50
   2  -4   5   24.80    6.20
  -2  -4  -5   29.50    3.90
  -2   4  -5   23.30    5.80
  -2   4  -5   19.20    6.20
   3  -4   5   36.20    6.30
  -3  -4  -5   21.40    4.20
  -3  -4  -5   18.30    5.50
  -3  -4  -5   22.10    3.40
  -3   4  -5   26.40    6.70
  -3   4  -5   15.50    5.60
  -4  -4  -5   57.09    8.20
  -4  -4  -5   51.19    4.90
   4  -4   5   53.69    7.90
  -4  -4  -5   65.79    6.20
   4  -4   5   71.99    9.40
  -4   4  -5   68.09    8.80
  -4   4  -5   52.89    8.20
  -5  -4  -5    8.40    3.40
  -5  -4  -5   11.30    7.80
  -5  -4  -5    5.90    4.20
  -5  -4  -5   10.30    3.90
   5  -4   5   11.20    7.20
   5  -4   5   19.70    7.90
  -5   4  -5    8.10    6.50
  -5   4  -5   21.40    8.00
  -5   4  -5   16.10    8.80
  -5  -5   5   25.40   11.00
  -5  -5   5    3.30   10.00
  -5  -5   5   21.60    7.70
   5  -5  -5   15.30    8.20
  -5   5   5   -1.80    9.30
  -5   5   5    7.90    6.70
   4  -5  -5   27.60    7.20
  -4  -5   5   25.40    7.10
  -4  -5   5   24.90    9.00
  -4  -5   5   19.40    8.10
  -4   5   5   23.10    6.80
   4   5  -5   19.30    6.40
  -4   5   5   13.40    9.10
  -3  -5   5   27.30    8.40
  -3  -5   5   12.20    5.70
  -3  -5   5   19.30    7.70
   3  -5  -5   29.70    7.50
  -3   5   5   15.10    6.20
  -3   5   5   23.30    7.90
   3   5  -5   14.30    5.50
  -2  -5   5   57.89    8.80
  -2  -5   5   19.90    7.80
  -2  -5   5   32.00    8.00
   2  -5  -5   27.10    7.00
  -2   5   5   32.80    7.50
   2   5  -5   19.60    6.20
  -2   5   5   23.30    6.10
   1  -5  -5   24.50    2.80
   1  -5  -5   31.40    3.30
  -1  -5   5   33.80    7.60
  -1  -5   5   24.40    8.40
   1  -5  -5   24.10    7.40
   1   5  -5   22.30    6.20
  -1   5   5   14.30    5.20
   0  -5  -5   15.10    3.70
   0  -5   5   28.50    7.40
   0  -5  -5   21.10    6.20
   0  -5  -5   19.50    4.40
   0  -5   5   18.60    6.50
   0   5   5   25.90    5.50
   0   5  -5    9.80    5.80
  -1  -5  -5    6.00    4.40
   1  -5   5   20.00    6.30
  -1  -5  -5    4.40    5.30
   1  -5   5    1.30    5.80
  -1  -5  -5    9.10    5.40
  -1   5  -5   20.60    7.70
  -1   5  -5   -5.10    5.00
   1   5   5    6.90    4.80
  -2  -5  -5   19.40    5.10
  -2  -5  -5   11.20    5.80
  -2  -5  -5   26.30    5.70
   2  -5   5   -3.30    5.90
  -2   5  -5   14.80    5.80
  -2   5  -5   21.90    8.60
   3  -5   5   -0.60    7.10
  -3  -5  -5    2.00    5.30
   3  -5   5   10.90    7.30
  -3  -5  -5    0.00    4.20
  -3  -5  -5   -2.70    6.50
  -3   5  -5    7.30    8.80
   9   0  -6   -2.20    4.70
  -9   0   6  -10.60    6.50
  -9   0   6    1.60    7.00
  -9   0   6    5.00    5.30
   8   0  -6   88.69    9.30
  -8   0   6   92.89   10.00
  -8   0   6  103.59    8.70
  -7   0   6  373.26   15.60
  -7   0   6  406.66   16.70
  -7   0   6  405.06   16.30
   7   0  -6  409.96   16.20
   6   0  -6   14.50    4.10
  -6   0   6   16.40    3.90
  -6   0   6   18.10    3.70
  -6   0   6   17.60    4.00
  -5   0   6    1.20    2.40
  -5   0   6    1.00    2.90
   5   0  -6   -3.20    1.80
  -5   0   6   -1.10    2.80
  -4   0   6  261.57   10.80
   4   0  -6  285.57   10.60
  -4   0   6  276.67   10.40
   3   0  -6  312.87   10.70
  -3   0   6  286.47   10.30
  -3   0   6  293.17   10.90
   2   0  -6  351.86   12.30
  -2   0   6  342.97   12.00
   2   0  -6  358.76   11.70
  -2   0   6  366.56   11.60
   1   0  -6   -2.00    1.50
  -1   0   6    1.30    1.30
  -1   0   6   -2.70    1.60
   1   0  -6    0.40    1.50
   0   0  -6  151.38    5.40
   0   0   6  149.88    6.70
   0   0   6  138.19    5.20
   0   0  -6  145.29    6.70
   1   0   6    3.80    1.40
  -1   0  -6    2.20    1.50
   1   0   6    3.20    2.40
  -1   0  -6    1.70    2.20
  -2   0  -6   -0.90    1.70
  -2   0  -6    6.10    2.90
   2   0   6   -1.00    1.20
   2   0   6    0.50    2.60
  -3   0  -6   20.30    4.00
  -3   0  -6   15.50    2.30
   3   0   6   18.10    3.90
   3   0   6   21.70    2.60
  -3   0  -6   21.10    2.90
   4   0   6    5.20    3.90
  -4   0  -6    6.00    2.30
  -4   0  -6    6.60    2.80
  -4   0  -6   10.40    3.50
   4   0   6   10.90    2.30
   5   0   6    5.70    2.70
  -5   0  -6   -7.40    2.80
   5   0   6   -5.80    4.10
  -5   0  -6    0.20    2.90
  -5   0  -6    5.00    4.60
  -6   0  -6   28.10    6.70
  -6   0  -6   20.40    4.60
   6   0   6   22.00    4.20
  -6   0  -6   20.30    4.70
   6   0   6   23.10    7.40
  -7   0  -6    0.60    7.60
  -7   0  -6    0.90    4.50
   7   0   6    9.10    7.90
  -7   0  -6    3.80    5.30
   7   0   6    6.20    4.30
  -9  -1   6   47.80   10.50
  -9  -1   6   46.50    8.40
   9  -1  -6   39.50    8.70
  -9  -1   6   24.80    6.70
  -9   1   6   26.90    7.50
   9   1  -6   39.90    8.30
  -9   1   6   39.20    9.20
  -9   1   6   24.60    6.50
  -8  -1   6   74.39    8.40
  -8  -1   6   65.39    7.70
  -8  -1   6   68.39    9.30
   8  -1  -6   75.79    8.60
  -8   1   6   71.49    7.70
   8   1  -6   57.59    7.20
  -8   1   6   49.40    7.00
  -8   1   6   68.89    8.90
   7  -1  -6   24.30    4.90
  -7  -1   6   21.00    5.10
  -7  -1   6   30.40    7.20
  -7  -1   6   24.40    5.80
  -7   1   6   32.00    6.00
   7   1  -6   21.80    5.50
  -7   1   6   28.00    4.60
  -7   1   6   22.10    5.00
  -6  -1   6   22.90    5.60
   6  -1  -6   37.70    5.50
  -6  -1   6   31.10    5.10
   6   1  -6   29.50    5.30
  -6   1   6   31.50    4.90
  -6   1   6   29.80    4.60
  -6   1   6   34.20    4.40
   5  -1  -6   75.29    6.20
  -5  -1   6   69.49    7.10
  -5  -1   6   63.89    5.80
  -5   1   6   76.89    5.80
  -5   1   6   79.79    4.90
   5   1  -6   67.69    5.80
  -5   1   6   64.89    5.20
  -5   1   6   63.29    5.00
  -4  -1   6  193.68    8.60
  -4  -1   6  209.18   10.00
   4  -1  -6  203.78    8.70
   4   1  -6  194.18    8.90
  -4   1   6  193.28    8.30
  -4   1   6  203.18    8.00
  -4   1   6  188.38    8.30
  -3  -1   6   73.59    4.90
  -3  -1   6   65.49    5.50
   3  -1  -6   69.29    4.60
  -3   1   6   77.79    4.60
   3   1  -6   74.29    5.10
  -3   1   6   67.99    3.90
  -3   1   6   74.39    4.30
  -2  -1   6  625.34   19.70
   2  -1  -6  624.74   19.10
  -2  -1   6  641.14   20.80
   2  -1  -6  628.74   18.90
  -2   1   6  661.33   18.80
   2   1  -6  677.43   20.00
  -2   1   6  632.94   18.70
  -2   1   6  642.44   19.20
   2   1  -6  648.14   21.00
  -1  -1   6   17.00    2.60
   1  -1  -6   17.40    1.90
   1  -1  -6   13.70    2.10
  -1  -1   6   15.60    3.20
  -1   1   6   17.60    1.90
  -1   1   6   21.80    2.10
  -1   1   6   19.90    2.30
   1   1  -6   16.90    2.80
   1   1  -6   10.20    2.90
   0  -1  -6  663.43   19.80
   0  -1   6  665.33   20.90
   0  -1  -6  614.84   18.20
   0   1  -6  674.43   21.20
   0   1   6  650.23   19.70
   0   1  -6  670.23   20.10
   0   1   6  661.03   18.20
   1  -1   6   95.29    5.60
   1  -1   6  102.19    6.00
  -1  -1  -6  117.39    5.80
  -1   1  -6  106.59    5.70
  -1   1  -6  103.09    5.90
   1   1   6  106.39    5.60
  -2  -1  -6  365.26   10.30
   2  -1   6  356.36   12.40
  -2  -1  -6  351.46   13.00
  -2   1  -6  349.77   13.30
   2   1   6  345.07   13.20
  -2   1  -6  353.96   12.60
   3  -1   6    2.60    2.40
   3  -1   6    4.90    3.70
  -3  -1  -6    4.70    3.60
  -3  -1  -6    0.70    1.80
  -3   1  -6    8.80    3.30
   3   1   6    3.70    0.70
   3   1   6    5.10    3.50
  -3   1  -6    3.20    2.80
  -3   1  -6    4.50    2.60
  -4  -1  -6  158.58    9.40
  -4  -1  -6  150.88    5.60
  -4  -1  -6  152.88    6.80
   4  -1   6  151.08    7.80
   4  -1   6  154.18    9.50
   4   1   6  141.19    5.30
  -4   1  -6  145.29    8.80
  -4   1  -6  141.09    8.10
  -4   1  -6  142.39    8.20
   4   1   6  139.19    8.80
  -5  -1  -6   24.10    3.90
  -5  -1  -6   18.90    2.80
   5  -1   6   17.10    5.00
  -5  -1  -6   25.10    6.10
   5  -1   6   24.10    4.40
  -5   1  -6   24.60    5.20
  -5   1  -6   19.80    4.80
  -5   1  -6   17.30    5.10
   5   1   6   18.00    2.50
   5   1   6   15.50    6.00
  -6  -1  -6   36.10    4.40
   6  -1   6   34.20    7.70
  -6  -1  -6   42.10    8.10
  -6  -1  -6   34.40    5.10
   6  -1   6   49.60    6.30
  -6   1  -6   46.70    6.90
   6   1   6   47.90    8.60
  -6   1  -6   42.60    6.40
   6   1   6   43.10    4.70
  -6   1  -6   36.70    8.20
  -7  -1  -6    0.70    4.40
   7  -1   6    4.60    6.00
  -7  -1  -6    0.50    4.60
   7  -1   6    8.60    6.70
  -7  -1  -6    9.20    7.50
  -7   1  -6  -20.80    7.70
  -7   1  -6    3.80    4.90
   7   1   6    5.10    8.60
   7   1   6   11.80    4.00
  -9  -2   6    4.20    6.10
  -9  -2   6    6.50    9.60
  -9  -2   6    5.80    7.30
   9  -2  -6    9.20    8.70
  -9   2   6    7.60    6.50
   9   2  -6   13.00    6.20
  -9   2   6    7.60    5.50
  -8  -2   6   10.80    6.40
  -8  -2   6   16.40    5.20
   8  -2  -6    7.50    5.50
  -8  -2   6   14.60    8.00
   8   2  -6   18.20    6.30
  -8   2   6    6.60    5.40
  -8   2   6   22.60    4.80
  -8   2   6    9.90    5.60
  -7  -2   6   12.80    5.30
  -7  -2   6    7.10    6.50
   7  -2  -6    7.40    5.70
  -7  -2   6    5.90    4.10
  -7   2   6    7.90    3.10
  -7   2   6    2.50    5.40
  -7   2   6    4.90    4.10
   7   2  -6   16.90    5.60
   6  -2  -6   80.69    9.10
  -6  -2   6   75.09    8.50
  -6  -2   6   77.89    9.70
  -6   2   6   88.69    4.80
  -6   2   6   67.39    6.80
   5  -2  -6   23.60    4.70
  -5  -2   6   12.40    3.40
  -5  -2   6   21.50    5.70
  -5   2   6   19.20    2.20
  -5   2   6   17.20    3.90
  -5   2   6   15.50    4.30
   5   2  -6   14.40    4.80
  -5   2   6   19.50    2.80
  -4  -2   6    1.30    3.10
  -4  -2   6   -1.40    3.30
   4  -2  -6   -0.80    2.80
  -4   2   6    2.00    0.80
  -4   2   6   -1.50    1.00
  -4   2   6    0.00    2.40
  -4   2   6    1.70    2.80
  -3  -2   6   37.50    4.50
  -3  -2   6   39.50    5.20
   3  -2  -6   34.30    4.20
  -3   2   6   38.70    4.00
  -3   2   6   43.60    4.20
   3   2  -6   42.70    4.70
  -2  -2   6 1688.63   48.20
   2  -2  -6 1677.23   46.90
  -2  -2   6 1657.73   49.20
   2   2  -6 1717.73   48.40
   2   2  -6 1710.93   49.60
  -2   2   6 1512.15   44.80
  -2   2   6 1688.43   47.20
  -2   2   6 1722.03   46.60
  -1  -2   6  171.08    9.00
   1  -2  -6  186.78    6.90
   1  -2  -6  181.68    6.40
  -1   2   6  187.28    7.00
   1   2  -6  188.78    9.40
   1   2  -6  181.88    8.40
  -1   2   6  179.58    6.50
  -1   2   6  187.38    6.60
   0  -2  -6   41.00    2.60
   0  -2   6   48.00    4.40
   0  -2  -6   40.80    3.30
   0  -2   6   42.90    5.10
   0   2  -6   45.80    5.00
   0   2  -6   50.89    4.70
   0   2   6   47.30    3.70
   0   2   6   48.00    2.10
   0   2   6   47.90    2.80
  -1  -2  -6   34.90    1.50
   1  -2   6   32.10    4.10
  -1  -2  -6   31.40    3.80
  -1  -2  -6   33.40    1.50
   1  -2   6   35.80    4.90
   1   2   6   32.70    4.20
  -1   2  -6   36.60    4.40
  -1   2  -6   40.20    5.00
   2  -2   6  251.17   10.70
   2  -2   6  231.38   10.40
  -2  -2  -6  252.37   10.30
   2   2   6  243.38   10.50
  -2   2  -6  216.48   10.40
  -2   2  -6  241.08   11.00
  -3  -2  -6  208.58    6.80
  -3  -2  -6  205.98   10.20
   3  -2   6  214.08   10.20
   3  -2   6  196.68    9.90
   3   2   6  203.58   10.60
  -3   2  -6  191.88   10.10
  -3   2  -6  215.68   10.50
  -3   2  -6  210.68   10.30
  -4  -2  -6  311.97   11.70
   4  -2   6  334.67   13.70
  -4  -2  -6  301.47   14.10
   4  -2   6  311.37   14.30
  -4   2  -6  308.97   13.90
   4   2   6  330.27   14.90
  -4   2  -6  314.27   14.20
  -4   2  -6  312.17   13.90
  -5  -2  -6    6.40    3.10
  -5  -2  -6    6.60    5.40
  -5  -2  -6   11.20    1.80
   5  -2   6   12.20    5.60
   5  -2   6    6.90    4.80
  -5   2  -6    8.50    5.00
  -5   2  -6    7.50    5.20
   5   2   6   10.90    6.10
  -5   2  -6   12.80    5.40
   6  -2   6   28.90    6.40
  -6  -2  -6    6.90    6.90
  -6  -2  -6   19.10    4.30
  -6  -2  -6   16.50    2.80
   6  -2   6   15.40    7.10
  -6   2  -6   17.10    7.10
  -6   2  -6   10.80    6.30
   6   2   6    6.50    7.60
  -6   2  -6   15.80    5.60
   7  -2   6   12.10    6.80
   7  -2   6   18.70    9.30
  -7  -2  -6   11.00    6.60
  -7  -2  -6    8.30    4.60
  -7  -2  -6   11.30    3.70
  -7   2  -6    2.00    5.70
  -7   2  -6   18.70    8.10
  -7   2  -6   11.30    8.90
   7   2   6   12.80    8.10
   8  -3  -6  -17.10    5.60
  -8  -3   6    1.10    9.10
  -8  -3   6   -3.10    6.40
  -8  -3   6    9.20   11.00
  -8   3   6   -7.50    8.60
  -8   3   6   -8.40    3.70
  -8   3   6    2.50    5.90
  -7  -3   6    1.10    7.80
  -7  -3   6    4.70    5.90
  -7  -3   6    6.30    7.10
   7  -3  -6   -7.20    5.90
  -7   3   6   -5.90    4.40
  -7   3   6   -0.80    2.10
  -7   3   6    1.80    6.40
  -6  -3   6    2.70    3.60
  -6  -3   6    7.00    7.00
   6  -3  -6   -2.00    5.20
  -6   3   6    4.60    1.40
  -6   3   6    1.00    4.70
  -6   3   6   -6.50    5.10
  -5  -3   6   13.30    4.50
  -5  -3   6    7.10    6.50
  -5   3   6    8.20    4.10
  -4  -3   6    9.40    5.20
   4  -3  -6   15.90    4.30
  -4  -3   6    6.70    3.30
  -4   3   6    7.60    3.80
   4   3  -6    6.70    3.50
  -4   3   6    4.40    3.70
   3  -3  -6   17.70    3.90
  -3  -3   6   11.60    3.40
  -3  -3   6   13.90    5.30
   3   3  -6   14.90    3.90
  -3   3   6   14.30    3.80
  -3   3   6    9.30    3.40
   2  -3  -6  128.09    7.10
  -2  -3   6  150.18    8.60
  -2  -3   6  131.99    9.10
  -2   3   6  127.39    7.00
   2   3  -6  131.49    8.00
  -2   3   6  132.39    7.30
   1  -3  -6   37.40    2.60
   1  -3  -6   39.10    4.20
  -1  -3   6   38.00    5.80
  -1  -3   6   38.80    5.60
   1   3  -6   36.80    5.10
   1   3  -6   45.90    6.30
  -1   3   6   36.10    4.10
  -1   3   6   33.20    4.10
   0  -3  -6   58.59    4.00
   0  -3   6   62.39    6.00
   0  -3  -6   60.69    4.20
   0  -3   6   54.49    6.40
   0   3  -6   58.59    5.80
   0   3  -6   56.49    6.80
   0   3   6   57.89    4.00
  -1  -3  -6   66.29    3.90
  -1  -3  -6   63.39    5.00
   1  -3   6   68.09    7.40
   1  -3   6   64.69    6.70
  -1   3  -6   51.79    6.10
  -1   3  -6   73.69    7.00
   2  -3   6   27.70    5.90
   2  -3   6   38.70    5.50
  -2  -3  -6   23.80    2.80
  -2  -3  -6   28.20    4.60
  -2  -3  -6   27.40    2.30
   2   3   6   32.10    5.40
  -2   3  -6   22.20    5.20
  -2   3  -6   26.00    5.30
  -3  -3  -6    1.70    1.90
  -3  -3  -6    3.00    1.20
   3  -3   6    6.60    4.50
  -3  -3  -6    5.40    4.00
  -3  -3  -6    4.40    1.40
   3   3   6    1.80    4.50
  -3   3  -6    7.80    4.40
  -3   3  -6    3.80    4.00
  -4  -3  -6  102.39    3.60
   4  -3   6  105.99    9.60
  -4  -3  -6  112.79    9.20
  -4  -3  -6  106.69    3.80
   4  -3   6  132.99   10.20
  -4   3  -6  101.49    9.00
   4   3   6  112.89   10.60
  -4   3  -6  106.29   10.60
  -4   3  -6  128.39   10.10
   5  -3   6    7.80    6.30
   5  -3   6    1.00    6.10
  -5  -3  -6    0.80    1.60
  -5  -3  -6   10.30    6.00
  -5  -3  -6    5.50    3.20
  -5  -3  -6    2.60    1.20
   5   3   6    0.90    6.70
  -5   3  -6   -2.10    6.40
  -5   3  -6    4.90    5.40
  -5   3  -6    3.60    6.30
   6  -3   6   10.30    7.10
   6  -3   6   -5.20    7.50
  -6  -3  -6    3.30    2.40
  -6  -3  -6   12.50    8.00
  -6  -3  -6    7.70    4.10
  -6   3  -6   13.10    8.50
  -6   3  -6   15.00    8.30
  -6   3  -6    1.90    5.60
   7  -4  -6   21.30    7.70
  -7  -4   6   10.20    8.70
  -7  -4   6    2.70    7.00
  -7  -4   6   18.60   10.60
  -7   4   6    3.00    6.10
  -7   4   6    6.90    9.70
  -6  -4   6   10.30    9.20
  -6  -4   6   -2.70    6.40
  -6  -4   6    3.90    9.00
   6  -4  -6   11.80    7.40
  -6   4   6   -0.40    5.30
  -6   4   6   13.50    6.50
   5  -4  -6   16.30    6.20
  -5  -4   6   13.50    7.30
  -5  -4   6   16.10    5.10
  -5   4   6   10.00    5.60
  -5   4   6    7.30    5.60
  -4  -4   6   28.10    7.70
  -4  -4   6   38.50    6.60
   4  -4  -6   29.70    6.50
  -4   4   6   37.50    7.00
  -4   4   6   28.10    5.90
   4   4  -6   28.10    6.00
  -3  -4   6   51.19    7.90
  -3  -4   6   49.50    7.20
   3  -4  -6   57.29    6.80
  -3   4   6   42.20    5.90
  -3   4   6   53.69    7.00
   3   4  -6   41.60    6.40
  -2  -4   6  164.68   11.60
  -2  -4   6  165.58   11.10
  -2  -4   6  158.38   10.70
   2  -4  -6  171.98    9.80
   2   4  -6  146.59   10.00
  -2   4   6  157.68    9.20
  -2   4   6  155.18    9.60
   1  -4  -6    8.90    1.90
  -1  -4   6   14.20    5.60
   1  -4  -6    8.40    1.70
   1  -4  -6   12.00    4.20
   1   4  -6    2.70    5.60
  -1   4   6   11.00    3.80
   1   4  -6    6.10    4.10
  -1   4   6    7.30    3.70
   0  -4   6   69.69    7.80
   0  -4   6   82.39    8.40
   0  -4  -6   85.69    5.20
   0  -4  -6   88.29    6.70
   0   4   6   79.59    6.00
   0   4  -6   72.69    8.90
   0   4  -6   74.29    7.70
   1  -4   6   23.60    6.70
  -1  -4  -6   26.80    4.30
   1  -4   6   34.00    7.30
  -1  -4  -6   32.80    4.30
   1   4   6   31.20    3.90
  -1   4  -6   38.10    7.30
  -1   4  -6   29.50    5.80
  -2  -4  -6   46.40    5.90
  -2  -4  -6   45.30    4.50
   2  -4   6   39.80    7.20
   2  -4   6   43.00    7.70
  -2  -4  -6   40.50    4.40
  -2   4  -6   26.30    6.30
  -2   4  -6   52.29    9.60
  -3  -4  -6   16.60    5.30
   3  -4   6    7.00    5.80
  -3  -4  -6   16.50    2.60
  -3  -4  -6   13.90    3.20
   3  -4   6   25.10    6.70
  -3   4  -6    6.30    5.10
  -3   4  -6   11.70    7.00
   4  -4   6  117.49   12.50
  -4  -4  -6   99.09    5.10
   4  -4   6  107.19   11.10
  -4  -4  -6   86.79   10.60
  -4  -4  -6   87.39    5.90
  -4  -4  -6  102.09    5.80
  -4   4  -6  115.39   12.20
  -4   4  -6  101.79   10.40
  -5  -4  -6   -0.70    8.30
   5  -4   6    8.00    8.40
  -5  -4  -6    4.00    2.10
  -5  -4  -6   10.50    3.00
  -5  -4  -6    6.90    3.80
   5  -4   6   12.80    7.80
  -5   4  -6   15.90    9.00
  -5  -5   6   10.10    6.10
   5  -5  -6    7.80    9.00
  -5   5   6    5.70    9.50
  -5   5   6    2.80    6.50
  -4  -5   6  120.39   12.60
  -4  -5   6  127.49   15.00
   4  -5  -6  111.69   12.30
  -4  -5   6  138.09   15.10
  -4   5   6  125.39   13.20
  -4   5   6  105.19   10.80
   4   5  -6   87.89   10.70
  -3  -5   6   37.20    8.10
  -3  -5   6   43.30    9.50
  -3  -5   6   54.39    9.60
   3  -5  -6   37.20    7.50
  -3   5   6   39.40    7.10
  -3   5   6   25.20    8.20
   3   5  -6   33.10    7.20
   2  -5  -6   10.70    6.40
  -2  -5   6   14.80    7.20
  -2  -5   6    7.40    7.90
  -2  -5   6   10.30    6.00
   2   5  -6    4.10    5.40
  -2   5   6   -3.60    4.80
  -2   5   6   -0.30    6.20
  -1  -5   6   -3.50    6.50
   1  -5  -6    6.00    6.30
  -1  -5   6    3.40    5.90
   1   5  -6    3.20    4.80
  -1   5   6   10.90    4.90
   0  -5  -6   39.50    5.00
   0  -5   6   42.50    9.40
   0  -5   6   47.30    8.10
   0  -5  -6   37.30    6.50
   0  -5  -6   41.20    5.10
   0   5   6   41.60    6.30
   0   5  -6   24.00    6.60
   1  -5   6    4.50    8.60
  -1  -5  -6    5.60    5.40
  -1  -5  -6   -2.70    4.70
  -1  -5  -6   -3.20    4.40
   1  -5   6    0.30    6.90
  -1   5  -6   -1.80    8.30
   1   5   6   -4.10    4.40
  -1   5  -6   -2.60    4.70
  -2  -5  -6    9.50    5.80
  -2  -5  -6   10.60    5.20
  -2  -5  -6   15.10    4.80
   2  -5   6  -18.50    7.70
   2  -5   6    6.90    9.10
  -2   5  -6   10.60    9.50
  -9   0   7   21.10    6.20
  -9   0   7   22.80    8.20
   9   0  -7   15.70    6.90
  -9   0   7   26.10    7.70
  -8   0   7  424.46   17.70
  -8   0   7  416.46   18.50
   8   0  -7  438.26   18.30
   7   0  -7   35.00    5.20
  -7   0   7   29.60    6.10
  -7   0   7   40.90    6.00
  -7   0   7   27.10    5.80
   6   0  -7   83.59    6.40
  -6   0   7   94.19    7.40
  -6   0   7   92.49    7.10
  -6   0   7   98.79    7.30
  -6   0   7  111.79    8.10
  -5   0   7   10.30    3.30
  -5   0   7   10.80    3.00
   5   0  -7    7.50    3.50
  -5   0   7    9.10    3.60
   4   0  -7 1194.58   35.60
  -4   0   7 1244.18   36.10
  -4   0   7 1193.08   35.60
   3   0  -7  201.18    8.60
  -3   0   7  195.58    8.00
  -3   0   7  186.58    8.30
   3   0  -7  195.48    8.10
  -2   0   7   27.20    3.50
   2   0  -7   30.20    3.70
   2   0  -7   25.40    3.10
  -2   0   7   29.90    2.90
  -1   0   7   18.10    2.10
  -1   0   7   18.70    3.10
   1   0  -7   17.20    2.40
   1   0  -7   15.00    2.90
   0   0  -7  107.49    4.60
   0   0   7  105.09    4.30
   0   0   7  101.89    6.00
   0   0  -7   92.09    5.70
   1   0   7  123.89    6.80
  -1   0  -7  124.19    6.70
   1   0   7  121.99    4.80
   1   0   7  121.69    5.10
  -1   0  -7  127.59    5.20
   2   0   7   -0.20    2.10
  -2   0  -7    3.10    3.00
  -2   0  -7    1.30    2.80
   2   0   7   -0.30    1.40
  -3   0  -7    1.60    2.40
  -3   0  -7    4.30    3.80
   3   0   7    1.90    1.70
   3   0   7    3.80    3.50
  -4   0  -7    7.80    3.40
  -4   0  -7   16.90    4.40
   4   0   7    9.50    2.40
  -4   0  -7   11.40    2.70
   4   0   7    8.10    4.60
  -5   0  -7   22.20    4.40
  -5   0  -7   20.30    3.90
  -5   0  -7   29.20    6.70
   5   0   7   25.60    5.60
   5   0   7   22.20    3.60
   6   0   7   16.50    4.00
   6   0   7   21.50    7.60
  -6   0  -7   18.70    4.90
  -6   0  -7   12.00    6.90
  -6   0  -7   16.60    4.60
  -7   0  -7    5.50    5.70
  -7   0  -7    5.80    6.90
   7   0   7    3.60    4.50
   7   0   7   14.30    9.10
  -7   0  -7    6.00    5.10
  -9  -1   7    3.90    7.20
  -9  -1   7    9.20    6.00
   9  -1  -7    4.80    7.50
  -9  -1   7    4.90    8.10
  -9   1   7   14.20    6.70
  -9   1   7   13.10    5.90
  -9   1   7    5.10    7.90
   9   1  -7    8.00    5.70
  -8  -1   7   34.40    7.30
   8  -1  -7   40.00    7.10
  -8  -1   7   42.50    8.30
  -8  -1   7   36.40    6.30
   8   1  -7   37.50    6.80
  -8   1   7   26.90    6.00
  -8   1   7   34.70    6.30
  -8   1   7   28.00    5.70
   7  -1  -7    2.30    4.90
  -7  -1   7    1.50    4.00
  -7  -1   7   -1.30    6.60
  -7  -1   7   -1.70    3.40
  -7   1   7   -3.10    3.50
  -7   1   7    3.80    5.10
  -7   1   7    7.90    4.20
   7   1  -7    1.50    3.40
  -6  -1   7   13.70    3.70
   6  -1  -7   10.50    4.30
  -6  -1   7   12.80    5.30
  -6   1   7   12.00    4.10
  -6   1   7   13.30    4.10
  -6   1   7    6.20    4.10
   6   1  -7    8.20    4.50
  -6   1   7   20.50    3.70
   5  -1  -7   42.70    5.20
  -5  -1   7   38.30    5.90
  -5  -1   7   37.10    4.30
  -5   1   7   41.80    4.50
   5   1  -7   38.20    4.60
  -5   1   7   36.50    4.10
  -5   1   7   35.30    4.60
  -5   1   7   37.00    4.50
  -4  -1   7   26.70    4.80
   4  -1  -7   29.60    4.00
  -4  -1   7   33.00    4.20
  -4   1   7   30.10    3.50
  -4   1   7   32.10    4.00
   4   1  -7   34.00    3.90
  -4   1   7   29.50    3.90
  -3  -1   7    4.90    2.50
  -3  -1   7    2.20    2.80
   3  -1  -7    5.00    2.30
  -3   1   7    1.70    1.80
  -3   1   7    3.70    1.90
   3   1  -7    1.70    2.50
  -3   1   7    6.90    2.20
   3   1  -7    5.30    2.50
  -2  -1   7  110.79    5.70
   2  -1  -7  107.19    5.00
  -2  -1   7  106.19    6.60
   2  -1  -7   94.59    4.90
   2   1  -7  106.19    5.80
  -2   1   7  113.79    4.80
  -2   1   7  111.59    5.00
   2   1  -7  103.79    6.60
  -2   1   7  105.69    5.00
   1  -1  -7  108.19    5.40
  -1  -1   7  115.59    6.70
  -1  -1   7  106.09    5.50
   1  -1  -7  108.99    4.60
  -1   1   7  117.09    4.20
   1   1  -7  113.19    6.70
  -1   1   7  109.09    5.10
  -1   1   7  107.29    4.50
   1   1  -7  113.19    5.80
   0  -1  -7  228.88    8.80
   0  -1   7  224.18    9.50
   0   1  -7  225.38    8.80
   0   1   7  207.48    6.80
   0   1   7  234.18    6.40
   0   1   7  220.68    8.60
   0   1  -7  214.98    9.80
   1  -1   7   66.09    5.80
  -1  -1  -7   66.19    5.10
   1  -1   7   60.89    4.80
  -1   1  -7   62.79    5.50
   1   1   7   69.99    5.00
  -1   1  -7   66.59    4.60
   2  -1   7   26.00    3.70
  -2  -1  -7   29.80    1.90
  -2  -1  -7   29.40    4.30
   2  -1   7   32.80    4.80
  -2   1  -7   23.00    3.90
  -2   1  -7   26.50    3.80
   2   1   7   26.40    4.30
  -3  -1  -7  288.47   12.00
   3  -1   7  298.07   12.90
   3  -1   7  275.17   10.80
  -3  -1  -7  277.57    9.20
   3   1   7  283.87   12.70
  -3   1  -7  277.47   12.70
  -3   1  -7  273.87   11.40
  -4  -1  -7  177.68    9.90
  -4  -1  -7  183.88    7.60
   4  -1   7  173.18    8.50
   4   1   7  181.98    5.70
  -4   1  -7  187.88   12.90
  -4   1  -7  174.18    9.50
  -4   1  -7  191.18    9.00
   4   1   7  171.18   12.10
   5  -1   7   83.69    9.70
  -5  -1  -7   75.09    5.90
  -5  -1  -7   82.39    9.30
   5  -1   7   91.89    7.00
  -5  -1  -7   75.39    4.40
  -5   1  -7   79.89    9.90
   5   1   7   87.69    9.90
  -5   1  -7   82.99    7.90
   5   1   7   85.99    4.30
  -5   1  -7   98.29    7.90
   6  -1   7   -2.40    4.40
   6  -1   7    3.50    7.00
  -6  -1  -7    0.80    3.80
  -6  -1  -7   -3.30    2.80
  -6  -1  -7    4.40    7.10
  -6   1  -7    6.10    5.40
   6   1   7    2.60    2.50
  -6   1  -7    9.70    4.90
  -6   1  -7   -8.00    6.80
   6   1   7    4.70    7.00
   7  -1   7   -0.10    5.80
  -7  -1  -7    1.00    6.40
  -7  -1  -7   -3.60    3.90
  -7  -1  -7   -2.50    4.30
   7  -1   7   -6.30    9.00
   7   1   7    1.50    3.50
  -7   1  -7   -7.10    7.20
  -7   1  -7   -3.10    5.30
   7   1   7   -1.40    9.30
   9  -2  -7   -1.80    8.70
  -9  -2   7    6.10    5.30
  -9  -2   7   -6.70    8.20
  -9  -2   7   11.90   11.10
  -9  -2   7   20.50   10.30
  -9   2   7    7.00    8.10
  -9   2   7   -3.90    5.80
   9   2  -7   25.50    8.50
  -8  -2   7    5.20    6.40
  -8  -2   7    1.70    7.60
  -8  -2   7    8.40    4.90
  -8  -2   7   17.70    7.30
   8  -2  -7    2.80    6.90
  -8   2   7    0.90    4.10
   8   2  -7   14.70    6.60
  -8   2   7   -0.60    4.40
  -8   2   7    6.70    7.40
  -7  -2   7   20.00    7.40
  -7  -2   7    8.60    7.00
  -7  -2   7    7.00    5.60
   7  -2  -7    9.90    4.70
  -7   2   7   16.30    6.40
  -7   2   7   13.90    4.10
  -7   2   7   16.00    3.40
   7   2  -7   17.50    5.90
  -7   2   7   12.40    4.80
  -6  -2   7    1.20    4.30
  -6  -2   7    1.50    5.50
   6  -2  -7   -8.10    3.90
   6   2  -7   -5.80    4.60
  -6   2   7    0.10    3.40
  -6   2   7    5.00    2.80
  -6   2   7   -0.60    2.00
  -6   2   7    1.40    3.50
  -5  -2   7    0.20    3.60
  -5  -2   7    1.40    3.60
   5  -2  -7    0.50    3.70
  -5   2   7    1.50    1.50
  -5   2   7   -0.60    2.80
   5   2  -7   -3.60    3.10
  -5   2   7   -1.40    2.50
  -5   2   7    0.90    1.90
   4  -2  -7   23.40    4.00
  -4  -2   7   25.40    4.30
  -4  -2   7   24.70    4.70
  -4   2   7   22.60    1.80
  -4   2   7   20.20    3.60
  -4   2   7   24.10    4.10
  -4   2   7   21.30    1.90
  -3  -2   7  182.88    8.90
   3  -2  -7  183.38    8.20
  -3  -2   7  183.28   10.00
   3   2  -7  174.58    8.80
  -3   2   7  193.98    7.90
  -3   2   7  180.38    8.10
  -3   2   7  181.08    5.50
   2  -2  -7  723.33   19.90
   2  -2  -7  687.83   21.00
  -2  -2   7  675.43   23.40
  -2  -2   7  704.73   22.40
  -2   2   7  694.53   19.60
   2   2  -7  696.43   23.90
   2   2  -7  693.33   22.60
  -2   2   7  695.13   22.00
  -2   2   7  691.33   21.30
  -1  -2   7   37.30    5.10
   1  -2  -7   34.50    2.90
  -1  -2   7   38.50    4.60
   1  -2  -7   35.50    3.20
   1   2  -7   34.80    5.20
   1   2  -7   37.60    4.40
  -1   2   7   41.30    3.10
  -1   2   7   36.60    2.90
  -1   2   7   33.30    3.10
   0  -2   7  230.38   10.00
   0  -2   7  198.58    9.50
   0  -2  -7  183.88    6.60
   0  -2  -7  205.68    8.20
   0   2   7  212.88    7.00
   0   2  -7  212.18    9.60
   0   2   7  220.28    8.40
   0   2  -7  209.28   10.30
   1  -2   7  114.09    8.00
  -1  -2  -7  112.89    6.10
   1  -2   7  106.29    7.10
  -1   2  -7   99.79    6.80
  -1   2  -7  107.59    7.60
   1   2   7  103.79    6.50
  -2  -2  -7   91.79    6.50
   2  -2   7   92.59    7.10
   2  -2   7   96.89    7.70
   2   2   7   97.39    7.00
  -2   2  -7   80.49    7.30
  -2   2  -7   82.39    6.60
   3  -2   7   33.60    5.30
  -3  -2  -7   44.70    6.00
   3  -2   7   38.20    5.50
   3   2   7   45.00    6.20
  -3   2  -7   36.80    5.60
  -3   2  -7   43.20    6.40
   4  -2   7    5.80    5.00
   4  -2   7   12.30    4.30
  -4  -2  -7    4.70    2.40
  -4  -2  -7    5.30    4.60
   4   2   7    1.00    5.10
  -4   2  -7   12.30    4.90
  -4   2  -7    7.70    4.60
  -4   2  -7    9.00    4.70
  -5  -2  -7   18.90    3.60
   5  -2   7   28.60    6.70
  -5  -2  -7   27.10    6.00
  -5   2  -7   32.00    7.10
  -5   2  -7   22.10    6.60
   5   2   7   14.90    7.20
  -5   2  -7   17.20    5.20
   6  -2   7   20.10    6.60
  -6  -2  -7    6.90    7.80
  -6  -2  -7    4.90    3.90
   6  -2   7    0.60    7.60
   6   2   7    1.90    7.80
  -6   2  -7    4.40    6.80
  -6   2  -7    6.00    7.60
  -6   2  -7    0.80    4.90
  -8  -3   7    3.40    7.80
  -8  -3   7    2.80   10.20
   8  -3  -7  -10.80    7.50
  -8  -3   7   25.80   11.60
  -8   3   7   22.10    9.90
  -8   3   7   14.20    4.70
  -8   3   7   12.30    6.60
   7  -3  -7    6.90    6.90
  -7  -3   7   24.90    9.10
  -7  -3   7    0.80    5.50
  -7  -3   7  -10.80    7.50
  -7   3   7    8.50    7.20
  -7   3   7    4.20    1.70
  -7   3   7    6.30    5.10
  -7   3   7    3.50    2.40
   6  -3  -7  144.69   10.70
  -6  -3   7  122.99   12.60
  -6  -3   7  121.39   10.00
  -6   3   7  117.79    9.10
  -6   3   7  132.19   11.10
  -5  -3   7    9.40    6.00
   5  -3  -7    7.00    4.90
  -5  -3   7   11.10    4.10
  -5   3   7    4.50    3.90
  -4  -3   7    3.60    5.30
   4  -3  -7    0.80    3.90
  -4  -3   7   -0.80    4.60
  -4   3   7   -2.60    3.20
  -4   3   7    1.20    3.80
   4   3  -7   -1.30    3.40
  -3  -3   7  131.29    8.80
   3  -3  -7  138.89    8.20
  -3  -3   7  135.39   10.00
  -3   3   7  139.69    8.10
   3   3  -7  125.49    8.20
  -3   3   7  124.49    7.50
  -2  -3   7  335.57   14.30
  -2  -3   7  355.76   15.40
   2  -3  -7  339.37   12.80
   2   3  -7  330.07   14.20
  -2   3   7  348.67   13.10
   2   3  -7  355.16   15.50
  -2   3   7  343.87   12.50
   1  -3  -7   30.90    2.70
  -1  -3   7   39.60    5.70
  -1  -3   7   34.70    5.90
   1  -3  -7   34.90    3.80
   1   3  -7   24.20    4.70
   1   3  -7   39.00    6.50
  -1   3   7   32.70    3.80
   0  -3  -7   39.50    3.60
   0  -3   7   37.90    5.70
   0  -3  -7   35.00    3.70
   0  -3   7   31.40    5.10
   0   3   7   34.80    3.20
   0   3  -7   27.90    5.10
   0   3  -7   32.70    6.20
   1  -3   7   26.70    5.50
  -1  -3  -7   24.50    2.60
   1  -3   7   25.50    5.80
  -1  -3  -7   27.30    4.00
  -1   3  -7   17.40    4.70
   1   3   7   25.80    4.50
  -1   3  -7   25.80    5.60
   2  -3   7    0.40    4.90
   2  -3   7    4.80    3.70
  -2  -3  -7    4.30    3.70
   2   3   7    8.90    4.40
  -2   3  -7    1.10    4.20
  -2   3  -7   -3.90    3.70
   3  -3   7   13.60    5.80
   3  -3   7    8.60    5.30
  -3  -3  -7    7.90    4.30
  -3   3  -7   10.60    4.90
   3   3   7   25.80    5.80
  -3   3  -7   17.60    5.80
  -4  -3  -7   27.30    3.00
   4  -3   7   24.60    6.80
   4  -3   7   26.40    6.70
  -4  -3  -7   27.40    6.80
  -4   3  -7   20.60    5.80
   4   3   7   28.50    7.30
  -4   3  -7   27.40    6.90
  -5  -3  -7   10.20    7.00
   5  -3   7   13.20    6.90
   5  -3   7    5.30    6.50
  -5   3  -7   -1.10    7.10
  -5   3  -7    9.50    5.90
   5   3   7   18.40    8.10
   6  -3   7   11.60    7.70
  -6  -3  -7    7.20    4.90
  -6  -3  -7   -0.20    8.70
   6  -3   7  -13.40    8.60
  -6   3  -7   -3.60    8.80
  -6   3  -7    9.20    7.00
   6   3   7   -0.20    9.40
  -6   3  -7   -2.30    8.40
  -7  -4   7    9.50   11.40
  -7  -4   7   -6.40    7.00
   7  -4  -7   -1.70    8.90
  -7  -4   7    0.40   10.80
  -7   4   7   23.40    9.70
  -7   4   7    2.10    6.30
  -6  -4   7   15.20    7.60
  -6  -4   7   17.20    9.80
   6  -4  -7   11.20    7.10
  -6   4   7   19.10    6.40
  -6   4   7   14.90    8.50
   5  -4  -7    9.80    6.20
  -5  -4   7    0.70    4.70
  -5  -4   7    6.00    7.40
  -5   4   7   -2.00    4.80
  -5   4   7   12.10    6.90
  -4  -4   7   15.20    7.20
   4  -4  -7   17.00    5.90
  -4  -4   7   17.50    6.30
  -4   4   7   19.90    5.60
  -4   4   7   21.80    6.40
   4   4  -7   11.10    4.90
  -3  -4   7   10.20    4.20
   3  -4  -7   -2.50    4.30
  -3  -4   7    3.20    6.20
  -3   4   7    2.40    4.20
  -3   4   7    2.50    4.70
   3   4  -7   10.60    4.90
  -2  -4   7    5.60    4.50
  -2  -4   7   10.20    5.80
   2  -4  -7   13.10    4.40
  -2  -4   7    4.00    5.30
   2   4  -7   10.40    4.70
  -2   4   7   11.00    4.80
  -2   4   7   11.40    4.20
  -1  -4   7   56.29    7.70
  -1  -4   7   49.50    8.10
   1  -4  -7   48.60    2.80
   1  -4  -7   50.69    3.30
   1  -4  -7   52.39    6.10
   1   4  -7   41.50    6.50
  -1   4   7   53.69    6.30
  -1   4   7   49.10    5.20
   1   4  -7   50.89    8.40
   0  -4  -7   15.20    3.10
   0  -4  -7   14.30    3.70
   0  -4   7   18.70    5.90
   0  -4   7   10.10    6.00
   0   4   7   19.80    3.70
   0   4  -7   13.40    4.50
   0   4  -7   22.30    6.80
  -1  -4  -7   14.70    4.00
   1  -4   7   10.60    6.00
  -1  -4  -7   17.20    3.40
   1  -4   7   14.50    6.90
  -1   4  -7   15.00    6.70
  -1   4  -7   11.30    5.20
  -2  -4  -7   10.90    2.30
   2  -4   7   -4.30    4.60
  -2  -4  -7   12.60    5.20
  -2  -4  -7    8.10    2.70
   2  -4   7    0.30    6.50
  -2   4  -7   12.30    5.50
  -2   4  -7   17.50    7.30
  -3  -4  -7   62.39    3.20
  -3  -4  -7   63.19    3.60
   3  -4   7   70.19    9.60
  -3  -4  -7   57.59    9.30
   3  -4   7   81.09   10.30
  -3   4  -7   65.49    9.70
  -3   4  -7   54.29    8.20
   4  -4   7   47.70    8.90
  -4  -4  -7   39.20    8.70
   4  -4   7   50.69    9.30
  -4   4  -7   47.10    8.40
  -4   4  -7   58.89   10.20
   4  -5  -7   10.20    7.90
  -4  -5   7    6.80    7.60
  -4  -5   7   16.40    9.70
  -4  -5   7   11.40    9.00
  -4   5   7    5.70    6.30
  -4   5   7    1.70    8.50
  -3  -5   7    8.30    8.80
  -3  -5   7   15.00    7.80
  -3  -5   7    8.00    8.20
   3  -5  -7    6.80    7.10
  -3   5   7    1.10    7.10
  -3   5   7    8.00    5.50
   3   5  -7   -0.40    5.60
  -2  -5   7   13.40    8.00
  -2  -5   7   16.90    7.50
  -2  -5   7    2.80    8.00
   2  -5  -7   14.60    6.20
   2   5  -7    9.00    5.90
  -2   5   7    6.40    7.30
  -2   5   7   19.00    5.70
   1  -5  -7    2.70    5.80
  -1  -5   7    2.50    8.30
  -1  -5   7   11.80    7.40
   1   5  -7   -2.20    5.30
  -1   5   7    0.30    5.00
   0  -5  -7    8.00    3.20
   0  -5   7   10.20    7.00
   0  -5  -7    8.20    5.40
   0  -5  -7   11.30    4.20
   0  -5   7   15.20    9.10
   0   5  -7   -4.90    5.30
   0   5   7   10.50    4.90
   0   5  -7   10.80    8.80
  -1  -5  -7   -2.00    4.60
   1  -5   7   12.90    9.80
  -1  -5  -7    3.90    4.80
   1  -5   7   -6.30    7.20
  -1   5  -7   10.90    9.50
   2  -5   7  -15.60    7.90
   2  -5   7    0.10    9.40
  -2  -5  -7   11.60    4.00
  -2  -5  -7    4.20    4.30
  -2  -5  -7   -1.20    5.80
  -2   5  -7   -3.00    5.50
  -2   5  -7    7.80   10.10
   9   0  -8    3.10    7.20
  -9   0   8    4.60    5.60
  -9   0   8    6.50    7.10
  -9   0   8    6.60    8.10
  -9   0   8   -5.90    7.50
  -8   0   8   13.10    6.00
  -8   0   8    3.90    4.70
   8   0  -8    6.10    5.50
  -8   0   8   13.30    4.90
  -7   0   8   23.90    6.10
  -7   0   8   22.10    4.90
   7   0  -8   21.50    5.40
  -7   0   8   20.80    5.50
  -7   0   8   11.90    5.00
   6   0  -8   41.60    5.80
  -6   0   8   44.00    6.20
  -6   0   8   49.10    6.00
  -6   0   8   48.80    5.90
  -5   0   8  440.96   15.90
  -5   0   8  455.95   16.70
   5   0  -8  461.75   16.40
  -5   0   8  456.35   16.50
  -4   0   8   88.39    6.10
   4   0  -8   91.69    6.20
  -4   0   8   90.29    5.50
   3   0  -8  124.89    6.50
  -3   0   8  124.79    6.80
   3   0  -8  121.19    6.90
  -3   0   8  135.79    6.40
   2   0  -8   -2.30    2.10
   2   0  -8   -0.10    1.60
  -2   0   8    2.30    1.60
  -2   0   8   -0.30    2.30
   1   0  -8  439.96   15.10
  -1   0   8  426.46   14.90
  -1   0   8  422.66   13.50
   0   0  -8   88.39    6.00
   0   0   8   91.99    4.20
   0   0   8   94.39    6.20
   0   0  -8   94.19    4.60
   1   0   8   13.80    1.80
  -1   0  -8   16.10    2.40
   1   0   8   13.70    3.70
  -1   0  -8   13.70    3.60
   1   0   8   11.10    2.10
   2   0   8    5.10    3.40
  -2   0  -8    8.10    4.00
  -2   0  -8   11.80    2.60
   2   0   8    9.40    1.90
   3   0   8   91.69    8.00
  -3   0  -8   86.89    7.20
   3   0   8   93.89    4.70
  -3   0  -8   90.79    5.70
  -4   0  -8   37.70    6.90
   4   0   8   28.40    3.20
   4   0   8   24.80    6.10
  -4   0  -8   29.60    4.30
   5   0   8   49.80    8.00
   5   0   8   35.40    4.10
  -5   0  -8   34.70    7.00
  -5   0  -8   35.40    5.10
  -6   0  -8    5.50    4.40
  -6   0  -8    2.70    4.40
   6   0   8   12.50    7.80
  -6   0  -8   -6.90    7.70
   6   0   8    6.30    3.80
  -7   0  -8    2.70    5.50
   7   0   8    2.80    9.90
  -7   0  -8  -27.00    9.50
   7   0   8    0.80    4.50
   9  -1  -8   34.80    8.90
  -9  -1   8   53.69   10.50
  -9  -1   8   38.60    7.30
  -9  -1   8   27.60    8.40
  -9  -1   8   62.79   11.00
  -9   1   8   34.40    9.40
  -9   1   8   31.90    7.30
  -9   1   8   30.10    8.20
   9   1  -8   40.70    9.00
  -9   1   8   57.49   10.00
   8  -1  -8  109.49   10.80
  -8  -1   8  135.39   12.60
  -8  -1   8  129.99   11.80
  -8  -1   8  108.19    9.20
  -8  -1   8  111.79    9.50
  -8   1   8  110.19   10.40
   8   1  -8  111.89   10.90
  -8   1   8  102.99    9.20
  -8   1   8  126.09    9.00
  -8   1   8  129.29   11.10
  -7  -1   8   17.90    5.70
  -7  -1   8   11.80    4.60
   7  -1  -8    9.10    4.90
  -7  -1   8   13.30    5.90
  -7  -1   8   20.80    6.80
   7   1  -8    9.70    4.40
  -7   1   8   11.70    4.30
  -7   1   8    7.30    4.70
  -7   1   8    9.60    4.30
  -7   1   8   15.80    5.90
   6  -1  -8    8.60    4.60
  -6  -1   8    3.10    4.90
  -6  -1   8   -1.30    4.40
  -6   1   8    2.50    3.60
  -6   1   8    2.50    3.40
  -6   1   8   -2.40    3.90
  -6   1   8    5.90    3.10
   5  -1  -8   12.30    3.90
  -5  -1   8   15.70    4.40
  -5  -1   8   12.50    4.00
  -5   1   8   11.30    3.20
  -5   1   8   10.10    3.70
  -5   1   8    5.70    3.20
   5   1  -8    9.20    3.90
  -4  -1   8    8.60    3.10
   4  -1  -8    8.90    2.70
  -4  -1   8    0.80    3.50
   4   1  -8    3.30    3.20
  -4   1   8    6.00    2.40
  -4   1   8   11.90    2.90
  -4   1   8   10.00    2.90
   3  -1  -8   32.40    3.50
  -3  -1   8   33.00    4.90
  -3  -1   8   36.00    4.20
   3  -1  -8   41.40    4.00
  -3   1   8   38.70    3.80
   3   1  -8   40.60    5.40
   3   1  -8   38.30    4.80
  -3   1   8   38.10    3.60
  -3   1   8   41.30    3.70
  -2  -1   8   95.99    6.70
   2  -1  -8   98.29    5.40
   2  -1  -8  109.79    5.10
  -2  -1   8  109.19    5.80
   2   1  -8  106.59    6.60
  -2   1   8  109.99    5.60
  -2   1   8  107.39    5.20
   2   1  -8  105.39    5.90
  -2   1   8  103.39    5.40
  -1  -1   8  164.28    7.20
   1  -1  -8  162.68    6.20
  -1  -1   8  162.88    8.50
   1  -1  -8  164.78    7.20
  -1   1   8  160.88    5.60
  -1   1   8  162.48    6.00
   1   1  -8  162.68    7.40
   1   1  -8  156.18    8.10
  -1   1   8  163.38    7.10
   0  -1  -8   24.20    3.50
   0  -1   8   28.20    3.30
   0  -1   8   30.90    4.70
   0   1   8   25.30    3.60
   0   1   8   23.80    1.80
   0   1  -8   28.80    4.50
   0   1   8   24.40    1.30
   0   1  -8   23.80    3.30
   1  -1   8  123.19    6.70
   1  -1   8  122.59    7.90
  -1  -1  -8  129.19    7.30
  -1   1  -8  118.99    6.40
  -1   1  -8  123.09    7.80
   1   1   8  113.09    6.90
  -2  -1  -8   36.50    4.80
   2  -1   8   41.70    5.60
   2  -1   8   40.50    4.70
  -2  -1  -8   39.90    2.00
  -2   1  -8   45.60    4.60
  -2   1  -8   40.70    5.00
   2   1   8   35.40    4.80
   3  -1   8  485.65   16.30
  -3  -1  -8  465.85   18.00
  -3  -1  -8  480.55   14.20
   3  -1   8  502.25   18.70
  -3   1  -8  472.35   18.50
   3   1   8  453.45   18.10
  -3   1  -8  447.16   16.60
  -4  -1  -8   49.50    6.90
   4  -1   8   45.00    5.20
  -4  -1  -8   31.50    4.90
   4  -1   8   52.69    6.70
   4   1   8   39.80    7.10
  -4   1  -8   58.19    6.80
  -4   1  -8   42.40    5.60
  -5  -1  -8   40.60    7.90
   5  -1   8   59.79    6.60
  -5  -1  -8   25.00    4.20
   5  -1   8   44.20    8.40
   5   1   8   48.60    8.30
  -5   1  -8   44.10    8.00
  -5   1  -8   28.40    5.70
   5   1   8   41.30    2.60
   6  -1   8    5.40    5.00
   6  -1   8   10.20    8.40
  -6  -1  -8    2.80    4.40
  -6  -1  -8   12.70    8.40
  -6   1  -8    7.60    5.10
   6   1   8    8.80    2.40
  -6   1  -8   15.30    8.30
  -6   1  -8   12.60    5.60
   6   1   8    3.70    6.40
  -9  -2   8   15.40    5.80
   9  -2  -8   -8.50    8.70
  -9  -2   8    4.60    8.50
  -9  -2   8    5.00   11.00
  -9  -2   8   -0.10    9.90
  -9   2   8    8.70    7.10
  -9   2   8   -3.20    9.80
   9   2  -8   11.30    6.90
  -9   2   8    5.10    7.70
  -9   2   8    1.50    5.60
   8  -2  -8  -10.60    6.80
  -8  -2   8    7.80    5.70
  -8  -2   8   -2.00    8.00
  -8  -2   8    7.90    9.00
  -8   2   8   -6.10    7.30
   8   2  -8    7.20    6.80
  -8   2   8   -3.80    4.70
  -8   2   8   -4.50    5.10
  -8   2   8    5.70    3.90
   7  -2  -8   30.10    6.80
  -7  -2   8   33.80    6.00
  -7  -2   8   27.30    8.50
  -7  -2   8   38.50    7.60
  -7   2   8   40.40    4.80
  -7   2   8   26.00    5.60
  -7   2   8   28.60    4.80
   7   2  -8   31.10    5.90
  -7   2   8   34.10    7.10
  -6  -2   8   26.90    6.90
   6  -2  -8   29.30    6.00
  -6  -2   8   33.70    5.20
  -6   2   8   27.00    3.20
   6   2  -8   25.20    5.20
  -6   2   8   23.20    5.60
  -6   2   8   39.00    4.40
  -6   2   8   31.00    5.30
  -5  -2   8   -7.50    3.60
   5  -2  -8    4.70    3.90
  -5  -2   8    1.70    5.20
  -5   2   8    1.60    1.50
  -5   2   8    1.10    3.40
  -5   2   8   -2.20    1.70
   4  -2  -8   34.20    4.70
  -4  -2   8   30.30    6.00
  -4  -2   8   34.00    4.50
  -4   2   8   34.70    2.50
  -4   2   8   33.60    4.40
  -4   2   8   40.10    4.90
  -4   2   8   35.40    2.60
  -3  -2   8    7.60    4.20
   3  -2  -8    4.60    2.80
  -3  -2   8   -0.10    2.00
   3   2  -8    1.60    3.20
  -3   2   8    3.50    2.30
   3   2  -8   -0.10    3.80
  -3   2   8    2.90    1.40
  -3   2   8    3.50    2.50
   2  -2  -8   60.29    3.60
  -2  -2   8   68.29    6.80
  -2  -2   8   71.49    5.70
   2  -2  -8   66.89    4.40
  -2   2   8   65.69    4.50
   2   2  -8   72.49    7.40
   2   2  -8   49.60    5.30
  -2   2   8   60.89    3.60
  -1  -2   8  116.19    8.20
   1  -2  -8  114.09    5.60
   1  -2  -8  123.99    5.20
  -1  -2   8  118.99    7.20
   1   2  -8  111.19    7.00
  -1   2   8  123.19    5.30
   1   2  -8  123.09    7.90
  -1   2   8  117.09    4.60
  -1   2   8  114.49    5.50
   0  -2   8   37.10    5.60
   0  -2  -8   46.40    4.30
   0  -2  -8   34.70    2.30
   0  -2   8   44.10    5.50
   0   2  -8   40.70    5.00
   0   2   8   36.90    4.00
   0   2   8   40.30    2.50
   0   2  -8   39.80    5.90
  -1  -2  -8  194.38    9.10
   1  -2   8  197.58   10.10
   1  -2   8  186.98   10.80
   1   2   8  187.08    9.00
  -1   2  -8  197.58    9.80
  -1   2  -8  187.98   10.60
   2  -2   8   40.30    5.70
   2  -2   8   39.80    5.70
  -2  -2  -8   47.30    5.80
   2   2   8   44.40    5.90
  -2   2  -8   42.90    6.50
  -2   2  -8   34.80    5.30
   3  -2   8   82.29    8.60
  -3  -2  -8   75.29    7.40
   3  -2   8   77.79    7.20
  -3   2  -8   81.89    7.00
  -3   2  -8   87.19    8.70
   3   2   8   91.19    8.40
  -4  -2  -8   -0.90    5.50
   4  -2   8    3.20    4.10
   4  -2   8   -6.60    5.40
  -4  -2  -8    2.60    1.50
  -4   2  -8   -3.10    4.00
   4   2   8   11.20    5.90
  -4   2  -8    7.00    5.50
   5  -2   8   14.40    7.00
   5  -2   8    2.00    5.40
  -5  -2  -8   11.80    6.70
  -5   2  -8   21.90    7.50
   5   2   8    9.00    7.30
  -5   2  -8    1.70    4.80
  -6  -2  -8   -3.70    3.70
  -6  -2  -8    1.80    7.90
   6  -2   8    3.00    6.50
   6  -2   8    3.70    7.70
   6   2   8   20.90    9.00
  -6   2  -8   20.00    8.70
  -6   2  -8    1.30    5.50
  -6   2  -8    8.80    6.70
  -8  -3   8    4.00    7.90
  -8  -3   8   -7.80    9.80
  -8  -3   8    8.60    6.50
   8  -3  -8   15.80    9.70
  -8   3   8   11.80    3.70
  -8   3   8   10.30    6.50
  -8   3   8   17.30    8.60
  -7  -3   8   13.90    6.70
  -7  -3   8    6.80    8.90
   7  -3  -8   12.00    5.60
  -7   3   8   12.00    5.70
  -7   3   8   19.50    7.70
  -6  -3   8   18.70    6.50
  -6  -3   8   27.10    7.40
   6  -3  -8   10.90    6.00
  -6   3   8   13.90    5.30
  -6   3   8    7.00    5.90
   5  -3  -8   21.80    5.50
  -5  -3   8   12.00    5.60
  -5  -3   8   24.50    5.10
  -5   3   8   27.20    5.20
  -5   3   8   26.80    5.90
   4  -3  -8    3.00    4.10
  -4  -3   8    1.70    5.70
  -4  -3   8    4.00    4.40
  -4   3   8   -3.40    3.40
  -4   3   8   -3.50    3.70
   4   3  -8    1.00    3.70
  -3  -3   8  791.42   33.20
   3  -3  -8  979.60   28.60
  -3   3   8  946.91   28.90
   3   3  -8  907.71   30.00
  -3   3   8  918.71   28.00
   2  -3  -8  620.34   19.80
  -2  -3   8  635.54   22.20
  -2  -3   8  643.44   23.40
  -2   3   8  627.94   19.60
   2   3  -8  583.94   21.90
  -2   3   8  632.14   20.40
   2   3  -8  600.44   23.60
   1  -3  -8   19.90    3.10
  -1  -3   8   20.20    4.90
  -1  -3   8   19.60    4.60
   1  -3  -8   18.30    2.50
  -1   3   8   22.00    2.90
   1   3  -8   10.70    5.70
   1   3  -8   22.50    5.10
  -1   3   8   18.10    3.20
   0  -3   8   24.80    5.90
   0  -3   8   33.20    6.00
   0  -3  -8   24.90    2.80
   0  -3  -8   24.20    3.70
   0   3   8   24.40    4.00
   0   3  -8   25.10    5.20
   0   3  -8   30.40    6.40
  -1  -3  -8   54.89    2.30
   1  -3   8   61.29    8.50
  -1  -3  -8   54.09    5.50
  -1  -3  -8   54.59    2.40
   1   3   8   54.99    6.40
  -1   3  -8   47.70    6.30
  -2  -3  -8   11.10    4.40
   2  -3   8   -2.10    4.50
   2  -3   8    3.10    5.40
  -2   3  -8    2.80    4.20
   2   3   8    5.00    4.40
  -2   3  -8   11.00    5.40
   3  -3   8   -7.70    5.10
  -3  -3  -8    0.80    5.30
   3  -3   8   -2.40    5.80
  -3   3  -8   17.20    6.60
  -3   3  -8    2.70    4.30
   4  -3   8    1.40    6.40
   4  -3   8    5.70    6.20
  -4  -3  -8   -0.70    5.80
  -4   3  -8    1.10    4.90
  -4   3  -8   10.40    7.20
   4   3   8    2.70    6.70
   5  -3   8    9.70    7.80
  -5  -3  -8    0.10    7.80
   5  -3   8   11.20    6.90
   5   3   8    4.00    8.10
  -5   3  -8   17.50    8.50
  -5   3  -8    0.40    5.40
  -6  -4   8   22.70    8.50
  -6  -4   8   32.60    8.60
   6  -4  -8   36.40    8.80
  -6   4   8   20.50    6.90
  -6   4   8   52.49   10.10
   5  -4  -8   14.30    6.10
  -5  -4   8   11.30    5.70
  -5  -4   8   11.10    6.80
  -5   4   8   -0.70    6.40
  -5   4   8   13.10    5.60
  -4  -4   8   13.50    7.50
   4  -4  -8    6.80    5.50
  -4  -4   8   12.00    6.20
   4   4  -8    9.70    4.80
  -4   4   8    8.90    5.90
  -4   4   8    2.70    4.90
   3  -4  -8   23.30    5.30
  -3  -4   8   12.60    6.50
  -3  -4   8   11.10    6.80
   3   4  -8   10.00    4.90
  -3   4   8   12.30    4.80
  -3   4   8   15.60    5.60
   2  -4  -8    9.50    4.50
  -2  -4   8    7.70    5.70
  -2  -4   8   14.10    6.20
  -2  -4   8   18.90    6.90
  -2   4   8    9.20    4.80
   2   4  -8   -2.90    4.40
  -2   4   8    3.70    4.10
   1  -4  -8   10.70    2.30
   1  -4  -8   10.00    1.80
   1  -4  -8    4.50    3.70
  -1  -4   8   10.60    6.30
  -1  -4   8    9.60    6.80
   1   4  -8    9.20    4.80
   1   4  -8    2.20    7.00
  -1   4   8   11.30    3.60
  -1   4   8   12.60    4.10
   0  -4   8   32.50    7.20
   0  -4  -8   22.40    4.00
   0  -4  -8   16.10    3.70
   0  -4   8   37.10    7.70
   0   4  -8   28.80    8.00
   0   4   8   17.20    3.50
   0   4  -8   24.80    6.10
  -1  -4  -8   18.00    3.00
  -1  -4  -8   18.70    4.60
   1  -4   8    4.60    6.60
   1  -4   8   19.00    7.40
  -1   4  -8   24.60    7.50
  -1   4  -8   13.40    5.40
  -2  -4  -8    1.10    1.50
   2  -4   8   -3.20    6.70
   2  -4   8    6.40    5.50
  -2  -4  -8    1.40    1.20
  -2  -4  -8    3.70    5.00
  -2   4  -8   -4.00    7.50
  -2   4  -8    6.70    5.30
  -3  -4  -8   49.40    8.00
   3  -4   8   36.80    9.00
   3  -4   8   39.70    8.60
  -3   4  -8   53.39    9.90
  -3   4  -8   28.10    7.10
   4  -4   8   55.99    9.70
   4  -4   8   46.00   10.10
  -4  -4  -8   51.29    8.90
  -4   4  -8   56.69   11.20
  -3  -5   8   24.40    7.90
  -3  -5   8   10.40    9.20
   3  -5  -8   10.00    7.20
  -3  -5   8    7.80   10.10
  -3   5   8    5.50    8.00
  -3   5   8   13.30    6.00
  -2  -5   8    7.70    8.20
  -2  -5   8   -6.00    8.20
   2  -5  -8   -0.10    6.40
  -2  -5   8    9.90    8.70
  -2   5   8    4.30    5.30
  -2   5   8    2.50    5.90
   1  -5  -8   13.10    5.70
  -1  -5   8   25.60    9.50
  -1  -5   8   26.70    8.70
  -1   5   8   18.40    5.70
   0  -5   8   -1.50    9.30
   0  -5  -8    5.80    4.30
   0  -5  -8    9.80    5.10
   0  -5   8    9.10    7.70
   0   5   8    8.50    4.60
   0   5  -8    4.80   10.20
   0   5  -8   -3.10    4.90
  -1  -5  -8    5.10    5.10
  -1  -5  -8    2.70    4.30
   1  -5   8    3.30    9.60
  -1  -5  -8    6.90    4.20
  -1   5  -8   -7.90    4.90
  -1   5  -8   27.10   11.60
  -9   0   9   12.80    6.00
  -9   0   9    0.00    8.20
   9   0  -9    6.00    7.70
  -9   0   9    3.10    8.10
  -9   0   9   14.40    8.60
  -8   0   9    5.30    4.90
  -8   0   9    9.90    6.50
   8   0  -9   -1.50    5.90
  -8   0   9    4.10    6.20
  -8   0   9    2.10    6.50
  -7   0   9   -5.30    4.60
  -7   0   9    0.30    4.10
   7   0  -9    1.30    5.00
  -7   0   9   -7.10    4.90
  -7   0   9   -1.10    5.20
  -6   0   9   81.09   12.10
  -6   0   9  111.89    7.70
  -6   0   9  102.89    8.20
  -5   0   9   26.80    4.30
  -5   0   9   33.60    5.20
   5   0  -9   25.10    4.60
  -5   0   9   34.60    4.70
   4   0  -9   34.70    4.70
  -4   0   9   31.90    4.40
  -4   0   9   29.30    4.50
  -3   0   9  142.39    6.80
   3   0  -9  142.49    7.20
  -3   0   9  140.49    7.60
   3   0  -9  144.59    8.00
  -2   0   9    0.10    2.40
  -2   0   9    2.10    1.90
   2   0  -9    0.60    2.50
   2   0  -9    2.70    2.20
  -1   0   9  549.35   19.00
   1   0  -9  564.54   19.50
  -1   0   9  612.94   17.70
   0   0   9   45.80    3.20
   0   0   9   41.90    5.10
   0   0  -9   50.99    4.60
  -1   0  -9   66.59    6.10
   1   0   9   62.59    3.50
   1   0   9   61.19    6.20
   1   0   9   63.39    4.10
   2   0   9    3.00    1.90
   2   0   9    7.30    4.10
  -2   0  -9    6.60    2.60
  -2   0  -9    3.00    3.60
   2   0   9    5.00    1.70
   3   0   9  290.17    9.70
  -3   0  -9  291.67   10.80
   3   0   9  268.67   15.20
   4   0   9   39.10    4.00
  -4   0  -9   36.00    7.80
   4   0   9   43.00    7.40
  -4   0  -9   37.10    4.80
   5   0   9   34.40    8.30
  -5   0  -9   27.50    5.00
  -5   0  -9   14.70    8.30
   5   0   9   29.30    3.90
  -6   0  -9   -0.60    8.80
   6   0   9   23.80    4.40
  -6   0  -9   20.90    5.30
   6   0   9   22.20    7.70
  -9  -1   9   64.19   11.90
  -9  -1   9   59.79    8.80
  -9  -1   9   58.49   11.10
   9  -1  -9   52.99   10.30
   9   1  -9   74.99   10.60
  -9   1   9   64.79    9.50
  -9   1   9   52.69   10.60
  -9   1   9   61.59    9.00
  -9   1   9   38.80    8.10
  -8  -1   9  134.19   13.00
  -8  -1   9  119.49    9.80
  -8  -1   9  121.59   13.30
   8  -1  -9  119.49   11.20
  -8  -1   9  137.89   12.10
  -8   1   9  142.39   12.40
  -8   1   9  120.99   11.10
  -8   1   9  129.29    9.90
  -8   1   9  121.99    9.80
   8   1  -9  129.09   11.40
  -7  -1   9    2.30    4.10
  -7  -1   9    3.20    5.90
  -7  -1   9    9.30    4.20
  -7   1   9    3.90    3.90
  -7   1   9    3.10    4.20
   7   1  -9    4.50    4.10
  -7   1   9    4.00    4.80
  -7   1   9    5.80    5.10
  -6  -1   9   15.50    5.00
   6  -1  -9   14.90    5.60
  -6  -1   9   13.50    5.20
  -6   1   9   12.40    3.90
  -6   1   9   16.70    4.30
   6   1  -9   17.00    4.20
  -6   1   9   17.70    4.60
  -5  -1   9   77.19    7.10
   5  -1  -9   82.29    7.00
  -5  -1   9   71.09    7.90
  -5   1   9   88.99    6.20
  -5   1   9   88.49    6.20
   5   1  -9   85.89    7.50
  -5   1   9   81.29    7.00
  -4  -1   9   38.70    5.60
   4  -1  -9   40.90    4.80
  -4  -1   9   43.20    5.10
   4   1  -9   42.80    5.40
  -4   1   9   48.20    5.00
  -4   1   9   39.10    4.40
  -4   1   9   36.40    4.40
   3  -1  -9   97.39    5.70
   3  -1  -9   89.19    5.60
  -3  -1   9   94.29    7.20
  -3  -1   9  105.79    6.20
  -3   1   9  102.69    5.70
   3   1  -9   94.99    7.50
  -3   1   9   97.79    5.40
  -3   1   9   90.89    5.40
   3   1  -9   84.29    6.40
   2  -1  -9   49.00    4.00
  -2  -1   9   44.50    3.80
   2  -1  -9   38.80    4.10
  -2  -1   9   44.00    5.60
  -2   1   9   36.40    4.90
  -2   1   9   48.50    4.60
   2   1  -9   44.10    4.50
   2   1  -9   46.20    5.90
  -2   1   9   38.10    3.60
   1  -1  -9   49.60    3.50
   1  -1  -9   49.20    4.50
  -1  -1   9   51.99    4.30
  -1  -1   9   47.20    5.70
  -1   1   9   47.30    4.40
  -1   1   9   58.39    3.20
   1   1  -9   50.09    5.70
   1   1  -9   46.30    4.50
  -1   1   9   53.99    3.40
   0  -1   9   13.80    4.40
   0  -1   9    8.70    2.40
   0  -1  -9    4.40    3.00
   0   1   9   10.10    1.10
   0   1   9    6.40    3.20
   0   1  -9   15.60    3.50
   0   1   9    7.40    1.40
   0   1  -9   10.70    3.70
   1  -1   9    6.60    2.90
  -1  -1  -9   13.30    3.60
   1  -1   9   12.20    4.30
   1   1   9   12.60    3.70
  -1   1  -9    6.90    3.90
  -1   1  -9    6.10    3.00
   2  -1   9   57.09    5.80
   2  -1   9   65.39    7.60
  -2  -1  -9   66.09    7.10
  -2   1  -9   63.89    7.30
  -2   1  -9   55.89    5.60
   2   1   9   66.99    7.00
  -3  -1  -9  168.48   12.70
   3  -1   9  188.18    9.10
  -3  -1  -9  191.08    6.60
   3  -1   9  199.48   11.60
  -3   1  -9  175.78    9.30
  -3   1  -9  187.18   10.60
   4  -1   9   13.20    3.90
  -4  -1  -9    3.60    5.50
   4  -1   9   13.60    5.30
  -4   1  -9   10.30    6.00
   4   1   9   11.00    5.10
  -4   1  -9    9.70    4.10
  -5  -1  -9  -10.50    6.60
   5  -1   9    8.10    4.30
   5  -1   9   -4.40    6.30
  -5  -1  -9   -2.00    3.20
  -5   1  -9    2.70    4.40
  -5   1  -9    1.40    6.80
   5   1   9    6.50    7.00
  -6  -1  -9    3.80    4.40
   6  -1   9    6.00    5.30
   6  -1   9   23.70    9.10
  -6  -1  -9   10.20    9.40
   6   1   9   11.70    9.90
  -6   1  -9    8.90    5.60
  -6   1  -9    8.80    8.80
  -8  -2   9    4.70    9.00
  -8  -2   9  -12.50    7.10
  -8  -2   9   11.40    8.60
   8  -2  -9   -6.10    6.80
  -8   2   9    3.70    5.00
  -8   2   9   11.00    5.40
  -8   2   9    3.60    5.90
  -8   2   9    3.20    4.10
   8   2  -9   13.40    6.30
  -7  -2   9   -0.40    5.50
   7  -2  -9    6.30    4.70
  -7  -2   9    5.50    7.40
  -7   2   9   11.80    3.30
   7   2  -9    5.00    6.20
  -7   2   9   19.50    5.40
  -7   2   9   21.40    4.20
  -7   2   9    8.60    6.20
  -6  -2   9    0.00    4.60
  -6  -2   9   11.70    6.70
   6  -2  -9   -2.10    4.60
  -6   2   9   -0.40    2.20
  -6   2   9    2.50    3.70
  -6   2   9    1.00    2.50
   6   2  -9    3.90    4.30
  -6   2   9   -4.00    4.30
  -5  -2   9   12.10    4.80
   5  -2  -9   19.30    4.10
  -5  -2   9   16.90    5.30
  -5   2   9   18.90    4.30
  -5   2   9   23.60    2.90
  -5   2   9   23.20    3.00
  -5   2   9   19.20    4.60
  -4  -2   9   36.70    5.90
  -4  -2   9   32.30    5.00
   4  -2  -9   28.00    4.80
  -4   2   9   34.70    4.80
  -4   2   9   30.30    4.50
  -4   2   9   35.00    3.30
   3  -2  -9  378.16   13.40
  -3  -2   9  391.86   14.90
  -3  -2   9  403.86   16.40
   3   2  -9  387.46   16.80
  -3   2   9  382.46   13.70
   3   2  -9  349.47   14.60
  -3   2   9  360.66   11.80
  -3   2   9  377.46   13.00
   2  -2  -9   57.79    4.20
  -2  -2   9   67.99    6.10
  -2  -2   9   70.79    6.40
   2  -2  -9   75.09    4.70
  -2   2   9   70.99    4.40
  -2   2   9   57.89    5.90
   2   2  -9   63.29    6.00
  -2   2   9   67.39    4.70
   2   2  -9   71.29    6.90
  -1  -2   9   40.70    6.20
  -1  -2   9   41.30    5.10
   1  -2  -9   37.10    3.80
   1  -2  -9   37.40    3.30
   1   2  -9   38.10    5.00
  -1   2   9   36.40    3.20
  -1   2   9   37.50    2.60
   1   2  -9   36.30    6.40
  -1   2   9   40.40    4.30
   0  -2   9   49.70    6.20
   0  -2   9   51.49    6.00
   0  -2  -9   49.90    2.40
   0  -2  -9   51.39    5.00
   0   2   9   56.19    5.30
   0   2   9   49.30    2.50
   0   2  -9   45.10    5.60
   0   2  -9   55.99    7.10
  -1  -2  -9   99.19    7.20
   1  -2   9   85.39    8.90
   1  -2   9   76.19    7.30
   1   2   9   76.19    6.50
  -1   2  -9   78.39    6.70
  -1   2  -9   95.69    8.50
   2  -2   9   -3.80    4.40
   2  -2   9   -3.30    3.50
  -2  -2  -9   16.30    4.80
  -2   2  -9    4.30    3.90
  -2   2  -9    9.80    5.10
   2   2   9    2.60    4.30
   3  -2   9   20.80    6.50
   3  -2   9   23.40    5.00
   3   2   9   22.30    6.60
  -3   2  -9   19.40    6.10
  -3   2  -9   10.20    4.80
  -4  -2  -9   13.20    6.30
   4  -2   9   12.30    6.70
   4  -2   9   19.60    5.30
  -4   2  -9   24.40    7.50
  -4   2  -9    7.50    4.90
   4   2   9   15.50    6.80
  -5  -2  -9    4.00    7.50
   5  -2   9   26.70    8.30
   5  -2   9   22.00    6.50
  -5   2  -9    9.20    5.20
  -5   2  -9    2.70    8.00
   5   2   9   10.90    7.70
   7  -3  -9   19.10    8.00
  -7  -3   9   15.90    9.40
  -7  -3   9   21.00    7.80
  -7   3   9   18.20    8.00
  -7   3   9    4.40    5.50
  -6  -3   9   10.10    6.30
   6  -3  -9    4.50    6.20
  -6  -3   9   12.40    6.20
  -6   3   9   11.90    6.60
  -6   3   9    3.70    5.20
   5  -3  -9   27.00    6.00
  -5  -3   9   30.00    6.40
  -5  -3   9   31.10    7.30
  -5   3   9   18.50    5.10
  -5   3   9   28.20    5.80
  -4  -3   9   25.70    6.80
  -4  -3   9   31.10    5.50
   4  -3  -9   28.50    5.40
   4   3  -9   24.70    5.60
  -4   3   9   27.30    5.00
  -4   3   9   29.20    5.20
  -3  -3   9   98.29    8.70
  -3  -3   9  104.79    8.80
   3  -3  -9   82.49    7.40
  -3   3   9   91.39    6.80
   3   3  -9  105.69    8.10
  -3   3   9  107.09    7.30
  -2  -3   9  156.58    9.20
   2  -3  -9  150.48    5.40
   2  -3  -9  163.58    8.00
  -2  -3   9  173.78   11.50
   2   3  -9  154.38   11.80
  -2   3   9  163.98    8.20
  -2   3   9  163.48    7.60
   2   3  -9  157.38    9.80
  -1  -3   9   51.89    7.60
   1  -3  -9   44.70    4.00
  -1  -3   9   39.80    7.00
   1  -3  -9   39.10    4.40
  -1   3   9   44.90    3.60
   1   3  -9   41.40    6.80
  -1   3   9   39.20    4.40
  -1   3   9   39.60    4.30
   1   3  -9   42.90    6.20
   0  -3   9    8.30    5.40
   0  -3   9    9.20    5.60
   0  -3  -9    7.10    3.10
   0  -3  -9   11.20    2.00
   0   3  -9    8.20    5.80
   0   3  -9   12.10    4.50
   0   3   9   11.60    3.60
   1  -3   9  178.98   11.60
   1  -3   9  179.78   12.30
  -1  -3  -9  175.28    9.60
  -1   3  -9  188.18   12.40
  -1   3  -9  177.28   10.60
   1   3   9  181.58   10.30
   2  -3   9   42.80    6.90
  -2  -3  -9   48.60    6.60
   2  -3   9   46.80    7.00
   2   3   9   44.20    6.90
  -2   3  -9   46.40    6.70
  -2   3  -9   50.29    8.00
   3  -3   9   16.70    5.70
  -3  -3  -9   15.80    5.90
   3  -3   9   20.90    6.80
  -3   3  -9   14.90    5.60
  -3   3  -9   22.70    7.10
   3   3   9   14.40    6.80
   4  -3   9   14.10    6.70
   4  -3   9   -7.20    7.10
  -4  -3  -9    3.40    6.50
  -4   3  -9   -4.40    5.10
   4   3   9    7.40    7.20
  -4   3  -9   17.90    8.50
  -6  -4   9   11.30   10.40
   6  -4  -9   -1.00    7.40
  -6  -4   9    2.90    7.80
  -6   4   9    6.60    6.10
  -6   4   9   -0.20    9.00
  -5  -4   9   25.60    9.80
  -5  -4   9   23.50    7.80
   5  -4  -9   26.30    7.40
  -5   4   9   36.10    8.30
  -5   4   9   23.50    6.20
   4  -4  -9   13.10    6.00
  -4  -4   9   12.50    6.60
  -4  -4   9   13.90    7.80
  -4   4   9    4.40    6.10
   4   4  -9    5.50    5.10
  -4   4   9    9.60    5.10
  -3  -4   9   37.30    6.50
   3  -4  -9   51.29    6.60
  -3  -4   9   51.99    8.00
  -3   4   9   44.30    7.00
   3   4  -9   36.40    6.50
  -3   4   9   46.70    6.20
  -2  -4   9    3.40    6.80
   2  -4  -9    3.80    4.30
  -2  -4   9    0.00    4.90
  -2  -4   9    8.70    6.80
   2   4  -9    0.00    4.70
  -2   4   9    0.00    4.40
  -2   4   9    8.70    4.20
   2   4  -9    9.20    6.30
   1  -4  -9   23.10    2.90
  -1  -4   9   19.70    7.30
   1  -4  -9   10.60    4.00
  -1  -4   9   22.80    7.00
  -1  -4   9   15.80    6.20
   1   4  -9   21.90    8.50
   1   4  -9   22.30    5.70
   0  -4  -9    5.30    3.00
   0  -4   9    5.90    7.10
   0  -4   9    6.90    5.50
   0  -4  -9   -0.80    3.50
   0   4  -9   -8.00    7.50
   0   4  -9    6.30    4.90
  -1  -4  -9    4.60    1.60
  -1  -4  -9    4.60    4.90
  -1  -4  -9    7.00    2.10
   1  -4   9    7.40    7.10
   1  -4   9  -10.90    7.40
  -1   4  -9    5.40    5.50
  -1   4  -9   10.40    8.40
  -2  -4  -9    3.60    5.60
   2  -4   9   -0.10    7.90
   2  -4   9   -6.10    5.30
  -2   4  -9    0.90    8.50
  -2   4  -9    3.80    5.90
   3  -4   9    4.10    8.70
   3  -4   9   31.30    9.00
  -3  -4  -9   36.50    7.50
  -3   4  -9   19.30    7.00
  -3   4  -9   32.90    9.60
  -2  -5   9   38.00   10.00
  -2  -5   9    7.30    7.00
   2  -5  -9    1.60    6.40
  -2  -5   9  -12.60    9.10
  -2   5   9   11.10    5.90
   2   5  -9    2.80    5.60
  -1  -5   9   43.50   10.50
   1  -5  -9   18.80    6.00
  -1  -5   9   27.60   10.80
  -1  -5   9   35.70    9.20
   1   5  -9   24.80    7.10
  -1   5   9   32.90    5.90
  -9   0  10   19.80    9.00
  -9   0  10   20.60    8.70
   9   0 -10    6.40    8.10
  -9   0  10   21.50    8.60
  -8   0  10   -1.20    4.60
  -8   0  10   -4.10    6.00
   8   0 -10    6.80    6.80
  -8   0  10    4.60    6.80
  -8   0  10   -1.70    6.30
  -7   0  10    2.50    4.00
  -7   0  10    2.00    4.20
  -7   0  10   -1.00    5.30
   7   0 -10    6.20    5.50
  -7   0  10    0.80    5.30
  -6   0  10   31.50    5.80
  -6   0  10   33.20    5.60
   6   0 -10   29.70    5.80
  -6   0  10   24.60    4.90
   5   0 -10   10.80    4.40
  -5   0  10    8.90    3.40
  -5   0  10   13.50    4.20
  -5   0  10    6.20    4.30
   4   0 -10   10.10    3.70
  -4   0  10    6.10    3.30
  -4   0  10   11.70    3.70
  -3   0  10    7.70    2.70
   3   0 -10    3.00    2.80
   3   0 -10   -0.60    3.20
  -3   0  10    8.80    3.30
  -2   0  10    3.00    2.20
  -2   0  10    3.30    3.10
   2   0 -10    3.50    3.20
   2   0 -10    5.80    2.60
  -1   0  10  220.28    8.40
  -1   0  10  222.68   10.70
   1   0 -10  235.98   10.70
   0   0  10    0.40    3.10
   0   0 -10   -6.40    2.80
   0   0  10   -2.10    1.50
   0   0 -10    1.70    2.30
  -1   0 -10   -1.40    2.30
  -1   0 -10    3.30    4.10
   1   0  10    1.50    1.50
   1   0  10   -5.70    3.60
   1   0  10    2.20    2.00
  -2   0 -10  402.56   16.60
   2   0  10  396.56   12.30
  -2   0 -10  378.36   13.10
   2   0  10  386.26   12.50
   2   0  10  384.86   16.20
  -3   0 -10   97.09    9.60
   3   0  10   96.59    9.60
  -3   0 -10   85.19    6.00
   3   0  10   91.59    4.90
   4   0  10   38.70    7.80
   4   0  10   33.60    3.50
  -4   0 -10   23.50    6.30
  -4   0 -10   27.90    4.60
  -5   0 -10   24.60    5.10
   5   0  10   18.10    8.50
   5   0  10   23.30    3.60
  -5   0 -10   17.50    8.50
  -9  -1  10   75.29   12.50
  -9  -1  10   89.09   12.70
  -9  -1  10   49.40   10.20
  -9  -1  10   50.39    8.20
   9  -1 -10   45.50   10.30
  -9   1  10   60.19    9.00
   9   1 -10   81.89   11.00
  -9   1  10   70.79   11.10
  -9   1  10   72.49    9.80
  -8  -1  10    2.00    6.70
  -8  -1  10   11.50    7.40
  -8  -1  10    6.70    7.80
   8  -1 -10    9.90    5.30
  -8  -1  10   11.00    5.60
  -8   1  10    0.50    5.50
  -8   1  10   20.90    6.40
  -8   1  10   12.00    5.40
  -8   1  10    6.00    5.60
   8   1 -10   10.90    7.10
  -7  -1  10   52.89    7.90
  -7  -1  10   45.10    8.50
   7  -1 -10   59.19    7.90
  -7   1  10   48.70    7.70
  -7   1  10   38.00    6.40
   7   1 -10   49.70    7.00
  -7   1  10   55.79    6.60
  -7   1  10   51.59    6.90
   6  -1 -10   23.70    5.40
  -6  -1  10   22.80    5.70
  -6   1  10   18.80    5.30
  -6   1  10   21.30    4.40
  -6   1  10   26.20    4.80
   6   1 -10   24.50    5.00
  -5  -1  10  200.08   10.60
   5  -1 -10  193.98   10.20
  -5  -1  10  189.48   11.40
  -5   1  10  195.28   10.20
  -5   1  10  199.98    9.20
   5   1 -10  197.18   11.00
  -5   1  10  183.18    9.30
  -4  -1  10   41.20    5.80
  -4  -1  10   30.60    4.80
   4  -1 -10   35.20    4.80
  -4   1  10   33.60    4.60
  -4   1  10   38.00    4.40
   4   1 -10   37.40    5.10
  -4   1  10   39.70    4.50
  -3  -1  10   -0.80    3.40
   3  -1 -10    6.20    2.90
  -3  -1  10    0.80    2.90
   3  -1 -10    4.00    3.00
  -3   1  10    6.30    2.80
  -3   1  10    2.60    2.60
   3   1 -10    4.10    3.90
  -3   1  10    1.90    2.40
   2  -1 -10   24.40    3.20
  -2  -1  10   23.90    3.70
   2  -1 -10   19.00    3.80
  -2  -1  10   21.40    5.00
  -2   1  10   18.20    2.90
  -2   1  10   23.10    3.70
   2   1 -10   17.80    3.70
   2   1 -10   28.00    5.30
  -2   1  10   26.30    3.10
   1  -1 -10   85.09    4.80
  -1  -1  10   96.59    5.90
  -1  -1  10   90.19    7.40
   1  -1 -10   96.89    6.60
  -1   1  10   88.49    4.50
   1   1 -10   88.59    7.60
  -1   1  10   90.09    4.20
   1   1 -10   88.59    5.90
  -1   1  10   95.19    6.20
   0  -1  10    6.80    4.40
   0  -1 -10    0.80    3.20
   0  -1  10    5.10    2.70
   0  -1  10    8.00    3.30
   0   1  10    8.20    1.50
   0   1  10    9.90    3.60
   0   1 -10    7.70    4.30
   0   1 -10    4.20    2.90
   0   1  10    7.90    1.10
   1  -1  10   27.10    5.00
  -1  -1 -10   33.80    5.30
   1  -1  10   23.60    4.40
   1  -1  10   26.60    3.80
   1   1  10   27.40    5.00
  -1   1 -10   24.30    5.00
  -1   1 -10   19.00    3.90
   2  -1  10   44.70    6.30
  -2  -1 -10   52.49    6.70
   2  -1  10   49.00    5.90
  -2   1 -10   46.20    5.40
  -2   1 -10   54.19    7.40
   2   1  10   53.69    6.80
   3  -1  10   50.89    5.90
  -3  -1 -10   50.19    7.60
  -3  -1 -10   40.30    2.90
   3  -1  10   47.40    7.60
  -3   1 -10   41.90    5.40
   3   1  10   45.80    7.20
  -3   1 -10   51.59    7.20
   4  -1  10   51.19    7.70
   4  -1  10   45.50    5.80
  -4  -1 -10   45.20    7.90
  -4  -1 -10   52.19    4.40
  -4   1 -10   50.49    8.50
  -4   1 -10   44.10    6.20
   4   1  10   38.90    8.50
  -5  -1 -10  -11.10    8.10
  -5  -1 -10   12.10    3.80
   5  -1  10   17.90    8.00
   5  -1  10    9.80    4.70
   5   1  10   -4.80    5.90
  -5   1 -10    0.10    4.60
  -5   1 -10   15.20    8.50
  -8  -2  10    0.10    9.50
   8  -2 -10   10.40    7.90
  -8  -2  10   23.50   10.40
  -8  -2  10   13.20    8.10
   8   2 -10   16.70    9.10
  -8   2  10   15.00    5.80
  -8   2  10   18.90    8.20
  -8   2  10   20.80    5.50
  -8   2  10   10.90    4.70
  -7  -2  10   38.40    7.80
  -7  -2  10   48.10    8.60
   7  -2 -10   54.89    8.70
  -7   2  10   42.50    6.90
  -7   2  10   54.39    6.20
  -7   2  10   58.69    5.30
  -7   2  10   47.40    8.20
   7   2 -10   45.60    8.50
   6  -2 -10   -1.50    5.00
  -6  -2  10   -3.20    4.90
  -6  -2  10   -2.90    4.80
  -6   2  10    0.60    2.60
  -6   2  10    1.00    2.30
   6   2 -10   -4.10    5.80
  -6   2  10    4.30    5.20
  -6   2  10   -3.90    4.00
  -5  -2  10   -3.70    4.20
   5  -2 -10   -3.20    4.10
  -5  -2  10    2.30    5.50
  -5   2  10    0.00    2.10
  -5   2  10   -4.50    2.10
  -5   2  10   -2.70    3.30
  -5   2  10    3.60    4.00
  -4  -2  10  124.79   10.20
   4  -2 -10  120.79    7.80
  -4   2  10  126.89    7.70
  -4   2  10  104.59    5.40
  -4   2  10  115.79    7.00
  -3  -2  10  307.37   14.50
   3  -2 -10  300.27   11.90
  -3  -2  10  313.27   13.20
  -3   2  10  299.67   11.20
   3   2 -10  318.17   13.50
  -3   2  10  299.77   11.70
   3   2 -10  323.07   15.50
  -3   2  10  300.67   10.50
   2  -2 -10    5.40    2.50
   2  -2 -10    9.10    2.70
  -2  -2  10    6.40    4.80
  -2  -2  10    5.30    3.80
  -2   2  10   11.60    2.80
   2   2 -10   10.00    5.20
   2   2 -10    4.60    3.60
  -2   2  10   13.60    2.70
  -2   2  10    5.40    2.50
   1  -2 -10   23.90    2.70
   1  -2 -10   21.50    3.70
  -1  -2  10   24.30    5.00
  -1  -2  10   26.70    4.60
  -1   2  10   27.40    3.90
  -1   2  10   24.80    2.90
   1   2 -10   26.20    5.90
   1   2 -10   21.40    4.70
   0  -2 -10    5.40    3.30
   0  -2  10    6.70    3.80
   0  -2  10    4.10    4.10
   0   2  10    7.30    3.40
   0   2 -10    5.30    3.70
   1  -2  10   16.90    6.30
  -1  -2 -10   20.40    4.90
   1  -2  10   15.40    4.80
   1   2  10   19.30    4.80
  -1   2 -10   23.20    5.50
  -1   2 -10   20.80    4.60
   2  -2  10   -1.70    5.30
   2  -2  10   -0.80    4.40
  -2  -2 -10    0.70    4.70
  -2   2 -10    3.00    4.20
   2   2  10    6.70    4.80
  -2   2 -10    4.30    5.70
   3  -2  10    3.10    4.80
   3  -2  10    4.20    4.90
  -3  -2 -10    2.50    6.00
   3   2  10   -2.40    5.30
  -3   2 -10    2.60    6.30
  -3   2 -10    1.70    4.00
   4  -2  10   28.00    8.30
  -4  -2 -10    6.70    7.10
   4   2  10   18.30    7.50
  -4   2 -10   18.40    5.70
  -4   2 -10   34.30    8.90
   5  -2  10    8.40    6.30
  -5  -2 -10   13.90    8.90
   5  -2  10   13.80    9.00
  -5   2 -10   25.30    9.60
  -5   2 -10   10.70    5.60
   5   2  10   23.20    9.60
   7  -3 -10   23.40    8.30
  -7  -3  10   21.80   10.20
  -7  -3  10   15.10    8.30
  -7   3  10   24.60    6.90
  -7   3  10   28.50    8.80
  -6  -3  10    4.60    6.10
  -6  -3  10    1.70    6.60
   6  -3 -10    5.90    6.40
  -6   3  10    6.10    5.10
  -6   3  10    0.10    5.90
  -5  -3  10   32.50    7.90
  -5  -3  10   27.40    6.60
   5  -3 -10   22.00    6.30
  -5   3  10   26.00    6.10
  -5   3  10   25.70    5.70
  -4  -3  10   42.00    8.10
   4  -3 -10   43.10    6.10
  -4  -3  10   48.80    7.30
  -4   3  10   36.10    5.90
  -4   3  10   36.00    5.60
   3  -3 -10  211.98   10.50
  -3  -3  10  244.08   12.60
  -3  -3  10  230.28   13.00
   3   3 -10  228.88   12.10
  -3   3  10  212.18    9.90
   3   3 -10  249.97   15.30
  -3   3  10  228.58   10.90
  -2  -3  10   36.70    7.40
   2  -3 -10   33.70    3.30
   2  -3 -10   34.40    4.40
  -2  -3  10   39.20    5.90
  -2   3  10   39.20    4.70
  -2   3  10   33.40    3.50
   2   3 -10   28.90    5.80
   2   3 -10   37.90    8.20
  -1  -3  10   24.30    6.30
   1  -3 -10   30.90    3.40
  -1  -3  10   26.40    5.30
  -1  -3  10   26.80    5.90
   1  -3 -10   26.60    3.60
  -1   3  10   30.60    4.20
   1   3 -10   27.00    5.50
  -1   3  10   27.30    3.50
   1   3 -10   25.80    7.70
   0  -3 -10   10.90    3.40
   0  -3  10    0.50    5.20
   0  -3 -10    6.10    1.50
   0  -3  10    3.20    4.50
   0   3 -10   -5.10    6.10
   0   3  10    2.60    3.90
   0   3 -10    1.20    4.10
   1  -3  10   38.30    8.20
  -1  -3 -10   30.40    6.10
   1  -3  10   44.30    7.20
  -1   3 -10   40.70    8.20
  -1   3 -10   33.60    6.10
   1   3  10   36.90    6.10
   2  -3  10   22.70    7.00
  -2  -3 -10   17.60    6.00
   2  -3  10   10.40    6.80
  -2   3 -10   16.10    7.90
  -2   3 -10   13.20    5.70
   2   3  10   23.70    6.10
   3  -3  10    0.80    6.30
   3  -3  10   -3.50    7.30
  -3  -3 -10   -5.30    6.40
  -3   3 -10   -2.50    4.80
   3   3  10  -15.70    5.90
  -3   3 -10   14.90    8.70
   4  -3  10   34.60    7.90
  -4  -3 -10   21.30    9.00
   4  -3  10   25.10    7.80
  -4   3 -10   41.70   10.20
   4   3  10   30.30    9.20
  -4   3 -10   27.00    6.90
   5  -4 -10    3.70    6.70
  -5  -4  10   10.40    7.80
  -5  -4  10   -9.60    9.30
  -5   4  10   22.30    8.50
  -5   4  10   11.80    6.00
  -4  -4  10   -3.60    6.40
  -4  -4  10   11.10    7.20
   4  -4 -10    7.20    5.80
  -4   4  10    3.80    5.10
  -4   4  10   -2.90    6.60
   4   4 -10    1.30    4.90
   3  -4 -10   32.80    6.20
  -3  -4  10   35.50    8.20
  -3  -4  10   43.20    9.10
   3   4 -10   22.80    6.50
  -3   4  10   30.40    6.50
  -3   4  10   34.40    5.90
  -2  -4  10    5.60    5.50
   2  -4 -10    6.70    4.50
  -2  -4  10   15.20    7.40
  -2  -4  10   11.00    6.70
   2   4 -10    6.10    8.90
  -2   4  10    6.80    4.60
  -2   4  10    1.50    4.00
   2   4 -10   -1.90    5.00
  -1  -4  10  -10.00    5.40
  -1  -4  10   16.50    7.00
   1  -4 -10   -2.20    3.80
  -1  -4  10   16.00    7.30
   1  -4 -10    4.70    2.40
   1   4 -10    2.40    8.40
   1   4 -10   -3.80    4.80
  -1   4  10    8.60    3.80
   0  -4  10   26.20    8.10
   0  -4  10   25.00    8.20
   0  -4 -10   35.00    4.80
   0  -4 -10   17.10    3.10
   0   4 -10   18.00    9.30
   0   4 -10   13.20    5.70
   1  -4  10   -4.20    7.80
  -1  -4 -10  -15.40    5.20
   1  -4  10  -18.00    8.20
  -1   4 -10    0.80    4.90
  -1   4 -10   10.00    9.80
   2  -4  10    8.20    8.90
   2  -4  10   30.90    9.60
  -2   4 -10    5.10    9.30
  -2   4 -10   10.00    6.10
  -9   0  11    2.70    9.20
  -9   0  11   10.00    8.50
   9   0 -11    2.10    8.50
  -9   0  11    8.30    6.00
  -9   0  11    2.60    8.80
  -8   0  11   -2.10    6.90
   8   0 -11   14.00    7.30
  -8   0  11    1.00    4.80
  -8   0  11   -4.60    6.70
  -8   0  11   -7.70    7.20
  -7   0  11    6.40    6.10
  -7   0  11   11.60    5.00
   7   0 -11    2.00    5.40
  -7   0  11    7.20    6.50
   6   0 -11   41.20    6.10
  -6   0  11   46.00    6.80
  -6   0  11   39.10    6.30
  -6   0  11   39.20    5.80
  -5   0  11   32.90    5.40
  -5   0  11   34.70    5.80
   5   0 -11   26.30    5.30
  -4   0  11   -3.40    3.30
  -4   0  11    4.90    3.60
   4   0 -11   -0.30    3.30
   3   0 -11   14.20    4.60
   3   0 -11   10.50    3.60
  -3   0  11   11.90    4.20
  -3   0  11   15.20    3.50
  -2   0  11  218.38    9.20
  -2   0  11  223.78   10.80
   2   0 -11  224.58   11.20
   1   0 -11   41.70    5.60
  -1   0  11   39.40    3.80
  -1   0  11   50.29    6.20
   0   0  11   25.10    4.70
   0   0  11   27.30    3.30
   0   0 -11   17.60    5.00
   1   0  11   -1.50    2.40
   1   0  11   -5.60    4.20
  -1   0 -11    4.20    4.80
  -1   0 -11    2.40    2.80
   1   0  11   -1.80    1.60
  -2   0 -11  580.44   18.30
  -2   0 -11  567.24   22.20
   2   0  11  547.25   17.50
   2   0  11  591.44   17.30
   2   0  11  605.34   22.30
   3   0  11  165.78    6.90
  -3   0 -11  201.88   12.90
   3   0  11  172.38    6.60
   3   0  11  167.08   12.20
  -3   0 -11  171.48    8.40
   4   0  11    4.00    7.10
  -4   0 -11    2.90    7.50
   4   0  11   -0.10    2.40
  -4   0 -11    2.60    4.00
   4   0  11    0.30    1.90
  -5   0 -11   -5.60    9.00
  -5   0 -11   10.70    4.70
   5   0  11  -10.80    8.30
   5   0  11   -1.60    2.90
  -8  -1  11   -1.70    8.60
   8  -1 -11    0.70    7.40
  -8  -1  11   11.40    7.90
  -8  -1  11   -1.90    4.80
  -8  -1  11    4.10    5.80
  -8   1  11   -1.00    5.00
   8   1 -11    9.40    7.60
  -8   1  11   -5.10    7.80
  -8   1  11    7.40    6.40
  -8   1  11    0.10    5.90
  -7  -1  11   14.80    6.90
   7  -1 -11   26.70    6.80
  -7  -1  11   22.80    7.80
  -7   1  11   25.50    6.00
  -7   1  11   36.70    7.40
   7   1 -11   38.40    7.30
  -7   1  11   34.40    6.30
  -7   1  11   39.10    6.10
  -6  -1  11   46.90    7.10
   6  -1 -11   57.59    7.20
  -6  -1  11   52.29    8.00
  -6   1  11   47.10    7.00
   6   1 -11   54.39    7.70
  -6   1  11   54.89    6.60
  -6   1  11   56.09    6.80
   5  -1 -11   49.30    6.20
  -5  -1  11   64.19    8.00
  -5  -1  11   46.60    6.40
  -5   1  11   48.80    6.00
   5   1 -11   54.99    6.60
  -5   1  11   54.49    6.50
  -5   1  11   61.39    6.40
  -4  -1  11   63.69    8.00
   4  -1 -11   86.59    6.70
  -4  -1  11   86.49    6.80
  -4   1  11   86.79    6.30
   4   1 -11   72.39    7.60
  -4   1  11   76.69    6.70
  -4   1  11   71.19    6.10
  -3  -1  11   10.90    3.40
   3  -1 -11    0.50    3.10
   3  -1 -11    9.00    3.70
  -3  -1  11   10.50    4.80
  -3   1  11    5.80    3.00
   3   1 -11    8.00    5.00
  -3   1  11    8.40    3.60
  -3   1  11   -0.30    2.70
  -2  -1  11  103.09    6.50
  -2  -1  11   87.89    8.20
   2  -1 -11   87.29    6.90
   2  -1 -11   97.49    5.80
   2   1 -11   83.59    8.50
  -2   1  11   89.39    5.30
  -2   1  11  100.39    5.60
  -2   1  11   95.99    6.90
  -1  -1  11   29.90    6.00
   1  -1 -11   27.10    4.70
  -1  -1  11   19.20    3.60
  -1   1  11   24.70    4.60
  -1   1  11   24.70    2.70
   1   1 -11   26.20    4.30
  -1   1  11   27.00    2.70
   1   1 -11   19.70    4.50
   0  -1  11   23.80    5.40
   0  -1 -11   28.50    5.20
   0  -1  11   18.50    4.30
   0  -1  11   27.60    4.00
   0   1 -11   21.30    4.20
   0   1 -11   16.60    4.70
   0   1  11   22.70    4.90
   0   1  11   21.10    2.30
   1  -1  11    3.70    4.80
   1  -1  11   12.70    4.20
   1  -1  11    8.00    3.00
  -1  -1 -11   16.10    4.70
   1   1  11   11.80    4.80
  -1   1 -11   11.10    5.40
  -1   1 -11   11.40    3.80
   2  -1  11   58.89    8.20
   2  -1  11   67.39    6.70
  -2  -1 -11   79.19    8.60
   2   1  11   64.79    8.30
  -2   1 -11   68.89    6.50
  -2   1 -11   80.29    9.60
  -3  -1 -11   10.10    6.50
   3  -1  11    9.30    5.20
   3  -1  11   15.10    4.40
   3   1  11   11.90    5.30
  -3   1 -11   11.40    6.50
  -3   1 -11   14.50    4.50
  -4  -1 -11   -1.90    8.00
   4  -1  11    7.60    7.40
   4  -1  11   11.20    4.60
  -4   1 -11   19.40    8.00
  -4   1 -11   10.80    4.70
   4   1  11    2.40    7.00
  -5  -1 -11  -16.30    6.80
   5  -1  11    8.20    5.00
   5  -1  11    7.60    9.10
  -5   1 -11   16.00    9.30
  -5   1 -11   17.10    5.80
   5   1  11  -19.40    8.50
  -8  -2  11    3.90    9.60
   8  -2 -11   -9.70    7.90
  -8  -2  11   -8.70    8.10
  -8   2  11   -2.50    4.50
  -8   2  11    7.20    5.00
  -8   2  11   -3.10    7.80
   8   2 -11    4.10    9.10
  -8   2  11    6.10    6.00
  -7  -2  11    4.60    7.10
  -7  -2  11   32.70    8.90
   7  -2 -11   20.50    7.40
  -7   2  11   26.50    7.80
  -7   2  11    6.80    5.10
   7   2 -11   20.70    8.60
  -7   2  11   18.30    4.20
  -7   2  11   10.90    3.90
   6  -2 -11   10.20    5.70
  -6  -2  11   10.40    6.90
  -6  -2  11    8.90    4.90
  -6   2  11    8.80    5.20
  -6   2  11    8.30    4.70
  -6   2  11    9.80    3.30
  -6   2  11    9.90    2.90
  -5  -2  11   -1.10    6.20
  -5  -2  11    3.40    3.80
   5  -2 -11    3.90    5.30
  -5   2  11    1.20    2.80
  -5   2  11    7.00    4.40
  -5   2  11    0.10    3.80
  -4  -2  11  359.46   14.90
  -4  -2  11  367.86   17.20
   4  -2 -11  372.76   14.30
  -4   2  11  365.66   14.60
  -4   2  11  362.76   12.20
  -4   2  11  361.66   13.50
   3  -2 -11  239.78   10.10
  -3  -2  11  205.98   11.90
  -3  -2  11  224.78   12.20
  -3   2  11  227.18    9.00
  -3   2  11  222.08    9.90
   3   2 -11  219.38   11.40
  -3   2  11  228.98    9.20
   3   2 -11  223.98   12.90
   2  -2 -11    2.50    2.70
   2  -2 -11    1.10    2.80
  -2  -2  11    1.40    3.80
  -2  -2  11   -1.60    4.70
   2   2 -11   -0.60    3.30
  -2   2  11    3.40    2.40
  -2   2  11    1.30    2.20
  -2   2  11    3.00    2.90
   2   2 -11   -9.10    4.80
  -1  -2  11   13.20    4.40
  -1  -2  11   11.50    5.70
   1  -2 -11   20.20    2.60
   1  -2 -11   11.80    3.90
   1   2 -11   25.10    5.80
   1   2 -11   21.20    4.80
  -1   2  11   17.80    2.60
  -1   2  11   18.90    4.10
   0  -2 -11   66.39    6.80
   0  -2  11   67.19    6.90
   0  -2  11   65.89    8.70
   0  -2  11   71.09    7.90
   0   2 -11   65.29    8.90
   0   2 -11   54.19    6.30
   0   2  11   70.29    7.20
  -1  -2 -11   24.50    5.30
   1  -2  11    9.00    6.20
   1  -2  11   12.90    5.20
  -1   2 -11   18.70    4.90
   1   2  11   11.70    4.80
  -1   2 -11   13.60    6.30
  -2  -2 -11    3.10    5.50
   2  -2  11   10.80    5.40
   2  -2  11   14.20    5.50
  -2   2 -11    4.90    4.40
  -2   2 -11   10.70    5.50
   2   2  11    6.70    5.50
  -3  -2 -11  -15.60    6.50
   3  -2  11    6.20    6.40
   3  -2  11    3.00    7.10
  -3   2 -11   -4.10    5.60
   3   2  11   -3.90    6.50
  -3   2 -11    2.20    4.60
  -4  -2 -11   13.10    9.50
   4  -2  11   28.40    8.80
   4  -2  11   30.60    7.10
  -4   2 -11   18.10    6.20
  -4   2 -11   42.40   10.00
   4   2  11   22.00    8.90
  -7  -3  11  -11.80    7.80
   7  -3 -11    3.10    7.30
  -7  -3  11    3.20   10.10
  -7   3  11   -2.20    5.90
  -7   3  11   10.80    8.60
   6  -3 -11    4.40    6.30
  -6  -3  11    5.80    6.90
  -6  -3  11   -1.20    6.70
  -6   3  11    8.00    7.00
  -6   3  11   11.00    5.60
   5  -3 -11    4.40    5.40
  -5  -3  11   16.30    5.70
  -5  -3  11   17.90    7.60
  -5   3  11    9.40    6.10
  -5   3  11   11.70    5.10
  -4  -3  11   72.79    7.90
   4  -3 -11   66.79    7.20
  -4  -3  11   76.19   10.10
  -4   3  11   75.09    7.80
  -4   3  11   77.09    7.40
  -3  -3  11  126.99   11.80
   3  -3 -11  106.29    7.80
  -3  -3  11  112.29    8.70
   3   3 -11  104.69    8.80
  -3   3  11  101.09    7.30
   3   3 -11  124.09   12.60
  -3   3  11  103.09    8.00
   2  -3 -11    3.70    3.40
   2  -3 -11    2.30    2.50
  -2  -3  11    1.50    4.70
  -2  -3  11    5.30    4.30
  -2   3  11    4.80    2.90
   2   3 -11   21.40    8.10
   2   3 -11    3.50    4.40
  -2   3  11    7.50    3.50
  -2   3  11    7.40    2.90
   1  -3 -11   18.10    3.90
   1  -3 -11   15.80    2.90
  -1  -3  11   19.80    7.40
  -1  -3  11   20.70    6.10
  -1  -3  11   19.30    6.80
  -1   3  11   25.00    3.20
   1   3 -11   12.50    7.80
   1   3 -11   15.60    5.30
  -1   3  11   19.20    4.30
   0  -3 -11   80.89    7.30
   0  -3  11   87.19    9.60
   0  -3  11   79.89   10.20
   0  -3  11   84.89   10.40
   0   3 -11   66.99   10.50
   0   3 -11   77.79    8.10
   0   3  11   76.09    7.70
  -1  -3 -11   23.30    5.90
   1  -3  11    8.60    7.50
   1  -3  11   40.70    7.70
  -1   3 -11   28.70    8.40
   1   3  11   24.20    6.30
  -1   3 -11   17.80    5.50
   2  -3  11    7.40    6.80
   2  -3  11    2.50    7.70
  -2  -3 -11    0.50    6.60
  -2   3 -11    4.00    4.90
  -2   3 -11   -1.00    6.40
   2   3  11    4.10    6.00
   3  -3  11   -0.50    6.30
  -3  -3 -11  -12.30    8.00
   3  -3  11    4.40    7.30
   3   3  11    0.00    7.60
  -3   3 -11   14.30    8.70
  -3   3 -11   -3.20    5.60
  -5  -4  11   14.80    6.70
  -5  -4  11    8.50   10.20
   5  -4 -11    0.90    7.10
  -5   4  11    4.20    6.50
  -5   4  11   -1.60    8.10
   4  -4 -11   69.09    8.70
  -4  -4  11   63.59   11.90
  -4  -4  11   91.99   11.10
  -4   4  11   72.59    8.00
  -4   4  11   68.29    9.20
  -3  -4  11   71.79   11.50
   3  -4 -11   65.79    7.40
  -3  -4  11   87.99   10.60
   3   4 -11   53.79    8.20
  -3   4  11   95.79    9.70
  -3   4  11   59.79    6.70
  -2  -4  11    8.80    8.80
  -2  -4  11    7.60    8.20
   2  -4 -11    1.10    4.60
  -2  -4  11    4.90    7.20
   2   4 -11   -5.80    4.80
  -2   4  11    6.70    4.60
   2   4 -11   18.60   10.30
  -1  -4  11    5.00    7.30
   1  -4 -11   11.00    3.10
   1  -4 -11    7.90    3.80
  -1  -4  11   -2.40    8.30
  -1  -4  11   34.90    9.10
   1   4 -11   13.00   10.20
   1   4 -11    8.60    5.60
   0  -4  11    8.50    7.10
   0  -4  11    3.90    8.10
   0  -4 -11    9.50    4.40
   0   4 -11    8.50    9.30
   0   4 -11   -4.00    5.30
  -1  -4 -11   -7.40    5.80
   1  -4  11  -22.70    9.60
   1  -4  11   -9.30    7.60
  -1   4 -11    1.80    6.10
  -8   0  12    1.70    5.20
  -8   0  12    9.70    7.40
  -8   0  12   13.40    8.60
   8   0 -12  -14.40    5.10
  -8   0  12   -7.10    7.70
   7   0 -12    3.00    6.10
  -7   0  12    3.80    6.70
  -7   0  12    1.60    4.90
  -7   0  12   15.40    6.10
   6   0 -12    5.30    5.90
  -6   0  12   -3.90    4.60
  -6   0  12    5.70    5.30
  -6   0  12    2.10    3.90
  -5   0  12    1.70    4.80
   5   0 -12    2.60    4.50
   4   0 -12   31.00    5.40
   4   0 -12   25.70    6.20
  -4   0  12   30.10    4.80
  -4   0  12   27.10    5.50
   3   0 -12    1.20    4.40
   3   0 -12   -3.00    3.30
  -3   0  12   -2.40    3.70
  -3   0  12    0.80    3.20
  -2   0  12   15.80    4.80
  -2   0  12   17.00    3.70
   2   0 -12   20.70    5.20
  -1   0  12   -1.50    3.90
  -1   0  12    0.50    2.30
   1   0 -12    3.40    4.10
   0   0 -12   10.70    5.00
   0   0  12    8.00    3.10
   0   0  12    9.80    2.40
   0   0  12   10.00    4.70
  -1   0 -12   60.39    8.10
  -1   0 -12   53.89    5.40
   1   0  12   45.10    4.00
   1   0  12   54.39    7.70
   1   0  12   53.79    5.00
   2   0  12  315.87   10.70
  -2   0 -12  322.37   15.30
   2   0  12  289.77   15.60
   2   0  12  303.07   10.10
   3   0  12   11.30    2.60
   3   0  12   13.50    2.10
   3   0  12    2.50    6.70
  -3   0 -12   14.60    4.00
  -3   0 -12   10.80    7.10
  -4   0 -12   12.50    4.60
   4   0  12    7.00    8.40
  -4   0 -12   17.90    6.90
   4   0  12    0.80    2.50
   4   0  12    5.90    1.80
   8  -1 -12   20.70    8.70
  -8  -1  12   21.90    6.20
  -8  -1  12   30.00    9.20
  -8  -1  12   13.90    6.70
  -8   1  12   22.20    6.90
   8   1 -12   22.70    8.90
  -8   1  12   24.30    7.10
  -8   1  12   16.10    8.80
  -8   1  12   12.70    6.70
  -7  -1  12    7.30    7.20
   7  -1 -12   15.00    5.10
  -7  -1  12   -2.90    6.60
  -7   1  12    1.30    5.20
   7   1 -12    6.20    6.70
  -7   1  12   -1.00    5.00
  -7   1  12    2.40    6.40
  -7   1  12   -1.40    5.10
   6  -1 -12    3.50    5.70
  -6  -1  12    3.50    6.50
  -6  -1  12   12.30    6.20
  -6   1  12    3.90    4.60
   6   1 -12   17.10    6.30
  -6   1  12   11.80    4.60
  -6   1  12   12.80    4.40
  -5  -1  12   28.30    6.40
  -5  -1  12   32.80    6.10
   5  -1 -12   34.40    7.00
   5   1 -12   31.60    6.70
  -5   1  12   41.30    5.60
  -5   1  12   33.80    6.20
  -5   1  12   42.40    5.50
  -4  -1  12  111.99    8.30
   4  -1 -12  108.89    7.80
  -4   1  12  102.69    7.80
  -4   1  12  108.19    7.20
  -4   1  12  106.59    7.60
   3  -1 -12   43.30    5.20
  -3  -1  12   47.00    8.10
  -3  -1  12   37.70    5.30
   3  -1 -12   48.80    6.00
   3   1 -12   38.60    7.30
  -3   1  12   46.60    4.80
  -3   1  12   48.10    6.00
  -3   1  12   39.80    4.80
  -2  -1  12   27.10    4.40
   2  -1 -12   30.60    5.30
   2  -1 -12   34.80    4.30
   2   1 -12   32.10    7.30
  -2   1  12   36.80    4.20
  -2   1  12   27.70    5.00
  -2   1  12   29.30    3.70
  -1  -1  12   -7.50    4.60
  -1  -1  12    4.30    3.40
   1  -1 -12    1.60    4.00
   1   1 -12    1.80    4.90
  -1   1  12    5.30    4.10
  -1   1  12   -3.30    1.80
  -1   1  12   -1.60    2.00
   1   1 -12    6.00    3.70
   0  -1  12    3.60    4.20
   0  -1  12    6.80    4.60
   0  -1 -12   14.60    4.70
   0  -1  12    8.30    3.30
   0   1 -12   13.90    4.10
   0   1  12    7.50    1.60
   0   1 -12    7.10    5.90
   0   1  12   12.00    4.80
   1  -1  12    2.10    4.10
   1  -1  12    1.00    5.50
   1  -1  12    0.60    3.10
  -1   1 -12   -7.40    5.30
   1   1  12    5.20    5.40
  -1   1 -12    5.90    3.90
   2  -1  12   36.60    4.60
  -2  -1 -12   36.10    7.30
   2  -1  12   36.60    5.30
   2  -1  12   37.10    7.60
  -2   1 -12   31.60    5.00
  -2   1 -12   39.20    8.00
   2   1  12   26.80    7.10
   3  -1  12   50.49    9.60
  -3  -1 -12   37.10    8.00
   3  -1  12   66.19    7.10
  -3   1 -12   54.29   10.00
   3   1  12   46.00    7.60
  -3   1 -12   45.90    6.00
   4  -1  12   17.00    5.10
  -4  -1 -12    1.90    8.80
   4  -1  12   36.80    9.90
  -4   1 -12   11.70    7.10
  -4   1 -12    7.60    5.20
   4   1  12    4.50    8.90
  -7  -2  12   -3.40    7.30
   7  -2 -12   19.30    6.90
  -7  -2  12   18.30    8.90
  -7   2  12   12.60    6.00
  -7   2  12   10.30    3.90
  -7   2  12    5.20    7.00
  -7   2  12   13.30    4.20
  -6  -2  12    0.10    7.40
   6  -2 -12    2.20    5.70
  -6  -2  12   -6.90    6.00
  -6   2  12   -0.40    5.80
  -6   2  12   -3.20    4.30
  -6   2  12    2.50    3.20
  -6   2  12    2.10    3.30
  -5  -2  12   35.10    7.50
   5  -2 -12   16.60    6.20
  -5  -2  12    7.50    5.90
  -5   2  12    7.90    3.60
  -5   2  12   13.90    4.60
  -4  -2  12   68.49    9.30
  -4  -2  12   44.90    6.90
   4  -2 -12   61.79    6.80
  -4   2  12   61.29    5.30
  -4   2  12   56.59    6.20
  -4   2  12   62.79    7.30
  -3  -2  12   65.39    7.90
   3  -2 -12   60.59    5.90
   3  -2 -12   57.69    6.00
  -3  -2  12   55.39    6.90
  -3   2  12   63.39    5.80
  -3   2  12   61.29    5.60
   3   2 -12   63.19    9.60
  -3   2  12   65.39    6.00
   2  -2 -12   12.30    3.90
   2  -2 -12    7.10    3.10
  -2  -2  12   12.30    6.20
  -2   2  12    9.30    2.60
  -2   2  12    8.80    3.90
   2   2 -12    8.80    4.40
   2   2 -12    4.00    6.40
  -2   2  12    3.60    2.60
  -1  -2  12   20.30    5.70
   1  -2 -12   31.20    5.10
  -1  -2  12   26.10    5.30
   1   2 -12   15.20    4.80
  -1   2  12   20.80    4.70
   1   2 -12   25.00    6.50
  -1   2  12   17.90    2.50
   0  -2  12   73.79   10.10
   0  -2  12   75.09    8.60
   0  -2  12   82.79    7.40
   0  -2 -12   92.59    8.00
   0   2 -12   93.29   10.70
   0   2 -12   73.29    7.40
   0   2  12   73.39    8.20
   1  -2  12   13.10    5.80
   1  -2  12   13.30    7.10
   1  -2  12   20.10    5.20
  -1  -2 -12   14.10    5.10
  -1   2 -12    9.50    5.60
  -1   2 -12   11.40    4.60
   1   2  12    6.80    6.50
   2  -2  12   -1.00    6.90
   2  -2  12  -10.70    6.00
  -2  -2 -12   -0.60    5.40
  -2   2 -12    8.60    7.60
   2   2  12    6.40    6.20
  -2   2 -12    5.40    4.50
   3  -2  12   -3.40    6.20
  -3  -2 -12  -12.40    7.40
   3  -2  12    8.50    5.80
  -3   2 -12   -6.00    8.00
  -3   2 -12    1.90    4.70
   3   2  12  -14.30    6.70
   6  -3 -12   26.50    7.90
  -6  -3  12   20.40    9.50
  -6  -3  12   24.50    7.90
  -6   3  12   20.60    6.10
  -6   3  12   23.70    8.20
   5  -3 -12    3.40    5.90
  -5  -3  12   -3.50    6.90
  -5  -3  12   10.70    6.30
  -5   3  12    0.70    6.00
  -5   3  12    3.80    4.90
  -4  -3  12   15.90    8.30
   4  -3 -12    8.40    5.10
  -4  -3  12   21.30    6.80
  -4   3  12   18.30    5.70
  -4   3  12   16.90    4.90
  -3  -3  12   10.40    5.90
   3  -3 -12    8.80    4.60
  -3  -3  12   33.40    8.40
  -3   3  12   16.50    4.50
  -3   3  12    9.30    4.20
   3   3 -12   20.90    9.40
  -3   3  12   17.40    2.70
   3   3 -12   14.70    5.30
  -2  -3  12   10.50    5.80
   2  -3 -12    8.20    3.30
   2  -3 -12   11.10    3.70
  -2  -3  12   15.50    7.30
  -2   3  12   15.40    3.20
   2   3 -12    9.80    8.20
  -2   3  12   14.20    3.70
  -2   3  12   11.80    3.70
   2   3 -12    8.60    5.30
  -1  -3  12    1.00    5.20
   1  -3 -12   10.60    2.70
  -1  -3  12   11.50    6.30
  -1  -3  12   15.70    6.20
   1  -3 -12   13.40    4.40
  -1   3  12    5.70    2.30
   1   3 -12    9.30    8.30
  -1   3  12   13.70    4.70
   1   3 -12    7.20    5.20
   0  -3  12   35.60    7.50
   0  -3  12   35.30    9.60
   0  -3 -12   29.50    5.90
   0  -3  12   29.70    7.80
   0   3 -12   21.30    5.80
   0   3 -12   21.30    9.60
   0   3  12   33.40    6.20
   1  -3  12   -7.30    8.10
  -1  -3 -12   11.20    5.20
   1  -3  12    3.80    6.60
   1   3  12    3.40    6.30
  -1   3 -12    6.20    8.60
  -1   3 -12    2.00    5.10
  -2  -3 -12   -8.90    7.10
   2  -3  12   14.40    7.50
   2  -3  12    5.60    8.80
  -2   3 -12    8.10    5.80
   2   3  12   13.70    7.90
  -2   3 -12    3.40    9.90
   4  -4 -12   52.49    8.50
  -4  -4  12   56.79   10.00
  -4   4  12   56.49    7.90
  -4   4  12   40.40    8.70
  -3  -4  12   59.29   10.00
  -3  -4  12   40.80    9.60
  -3  -4  12   58.69    9.40
   3  -4 -12   45.40    6.90
  -3   4  12   36.80    7.10
  -3   4  12   38.70    6.10
  -2  -4  12   34.30   10.50
  -2  -4  12   27.80    8.90
   2  -4 -12   14.00    5.00
  -2  -4  12   13.40    9.50
   2   4 -12   21.60   11.50
  -2   4  12   20.50    5.30
   1  -4 -12   11.30    3.60
  -1  -4  12    8.90    8.30
  -1  -4  12    5.50    8.90
   1  -4 -12    4.90    3.30
  -1  -4  12   10.70    9.00
   1   4 -12   24.70   11.60
  -8   0  13   35.50    8.90
  -8   0  13   25.80    9.60
  -8   0  13   29.80    7.00
   8   0 -13   28.40    9.60
  -8   0  13   35.30    9.40
  -7   0  13   -3.70    5.90
   7   0 -13   12.10    5.40
  -7   0  13   -6.20    7.00
  -7   0  13    2.30    5.20
  -6   0  13   11.50    5.00
   6   0 -13   20.20    6.20
  -6   0  13   13.20    6.30
  -6   0  13    2.30    9.90
  -5   0  13    5.80    5.00
  -5   0  13   -0.80    4.40
   5   0 -13   -4.00    4.60
   4   0 -13    9.10    5.40
  -4   0  13   15.60    4.80
  -4   0  13   21.90    5.50
   4   0 -13   13.00    4.90
  -3   0  13   -0.30    3.50
   3   0 -13   13.70    5.10
  -3   0  13    2.30    4.70
  -2   0  13   16.70    3.80
   2   0 -13   19.50    5.70
  -2   0  13    7.30    5.60
  -1   0  13   -1.00    2.80
  -1   0  13    2.40    5.60
   0   0  13   11.00    2.90
   0   0  13   12.70    5.60
   0   0 -13   15.10    6.10
   0   0  13    9.60    3.70
   1   0  13    4.30    3.20
  -1   0 -13   14.60    6.80
   1   0  13   11.40    2.50
   1   0  13    8.90    5.70
   2   0  13    2.60    6.10
  -2   0 -13    7.30    4.10
   2   0  13    3.10    2.00
  -2   0 -13   16.40    7.30
   2   0  13    6.40    2.60
   3   0  13   11.90    1.90
   3   0  13   16.60    2.50
  -3   0 -13   13.30    4.20
   3   0  13   29.80    8.50
  -3   0 -13   11.80    8.10
   8  -1 -13   33.20    9.80
  -8  -1  13   17.00    7.50
  -8   1  13   31.60    9.60
   8   1 -13   42.30   10.50
  -8   1  13   19.80    6.70
   7  -1 -13   12.60    7.40
  -7  -1  13   10.90    7.50
  -7  -1  13    0.80    7.40
  -7   1  13    1.70    5.00
  -7   1  13   12.70    6.30
   7   1 -13    6.60    8.10
  -7   1  13   -3.80    6.50
   6  -1 -13   17.70    6.70
  -6  -1  13    8.30    6.60
  -6  -1  13    8.10    6.50
  -6   1  13   14.30    6.50
  -6   1  13   15.70    5.20
   6   1 -13   22.50    7.20
  -6   1  13   20.80    5.30
   5  -1 -13   59.89    7.50
  -5  -1  13   71.79    9.20
  -5  -1  13   72.09    8.90
  -5   1  13   80.19    7.70
  -5   1  13   74.19    7.40
   5   1 -13   77.59    9.60
  -5   1  13   62.39    8.30
   4  -1 -13  208.08   11.70
  -4  -1  13  224.28   12.90
   4  -1 -13  222.98   11.30
  -4  -1  13  220.78   11.40
   4   1 -13  227.28   14.30
  -4   1  13  196.28   10.40
  -4   1  13  209.78   10.90
  -4   1  13  203.08    9.90
  -3  -1  13   28.90    6.60
  -3  -1  13   22.20    5.00
   3  -1 -13   23.90    4.50
   3  -1 -13   29.10    6.10
  -3   1  13   26.90    4.60
  -3   1  13   17.30    4.00
   3   1 -13   26.70    7.50
  -3   1  13   26.00    5.60
  -2  -1  13  119.09    8.00
  -2  -1  13  110.69    8.90
   2  -1 -13  120.59    8.90
  -2   1  13  106.09    6.20
  -2   1  13  122.39    8.80
   2   1 -13   98.59   10.60
  -2   1  13  123.79    6.60
  -1  -1  13    3.70    6.60
   1  -1 -13    2.00    4.40
  -1  -1  13    1.70    3.20
  -1   1  13   -0.70    2.10
  -1   1  13    3.00    4.50
  -1   1  13   -1.30    2.10
   1   1 -13    0.90    5.80
   1   1 -13    1.20    3.70
   0  -1  13   15.40    6.60
   0  -1  13   14.80    5.10
   0  -1  13   20.80    4.40
   0   1  13   17.70    2.60
   0   1  13   16.50    2.00
   0   1 -13   19.60    7.20
   0   1 -13   17.40    4.50
  -1  -1 -13   54.69    8.20
   1  -1  13   38.90    8.20
   1  -1  13   37.20    5.90
   1  -1  13   52.49    6.00
  -1   1 -13   49.80    8.90
   1   1  13   43.90    7.30
  -1   1 -13   43.40    5.90
   2  -1  13   48.70    9.20
   2  -1  13   62.29    7.50
  -2  -1 -13   56.39    8.80
   2  -1  13   61.69    6.60
  -2   1 -13   60.59   10.20
   2   1  13   49.60    8.70
  -3  -1 -13    5.60    7.80
   3  -1  13    9.10    4.10
   3  -1  13   10.80    6.70
   3  -1  13    7.40    4.60
  -3   1 -13   17.10   10.00
   3   1  13   -7.60    7.50
  -3   1 -13   12.00    5.00
  -7  -2  13   25.90   10.10
  -7  -2  13    4.70    7.80
   7  -2 -13   18.60    8.10
  -7   2  13   14.00    8.00
  -7   2  13   14.90    4.30
  -7   2  13   19.30    6.30
  -7   2  13    9.00    4.70
   6  -2 -13   83.29    9.30
  -6  -2  13   72.79   10.00
  -6  -2  13  101.89   13.00
  -6   2  13   83.49    8.70
  -6   2  13   97.89    7.20
  -6   2  13  109.49   11.30
  -5  -2  13    7.10    6.70
  -5  -2  13   -0.70    4.60
   5  -2 -13    7.80    5.90
  -5   2  13   12.50    4.60
  -5   2  13   21.30    6.00
  -5   2  13    8.30    4.00
   4  -2 -13   28.60    6.00
  -4  -2  13   40.00    8.50
  -4  -2  13   40.10    7.00
  -4   2  13   40.00    5.30
  -4   2  13   33.00    4.70
  -4   2  13   44.70    6.20
   4   2 -13   43.70    9.30
   3  -2 -13   55.49    7.00
  -3  -2  13   72.09    8.60
  -3  -2  13   59.59    9.20
   3  -2 -13   57.89    6.00
  -3   2  13   58.69    5.70
  -3   2  13   54.19    6.60
  -3   2  13   64.79    6.60
   3   2 -13   63.09    9.10
   2  -2 -13   31.70    5.60
  -2  -2  13   34.30    5.90
  -2  -2  13   28.90    6.20
   2  -2 -13   37.10    4.40
  -2   2  13   37.90    4.60
  -2   2  13   33.70    3.90
   2   2 -13   21.70    8.40
   2   2 -13   28.00    5.50
  -2   2  13   40.30    5.60
   1  -2 -13   35.50    5.90
  -1  -2  13   26.60    8.00
  -1  -2  13   32.30    6.80
  -1  -2  13   33.00    6.30
  -1   2  13   26.50    3.30
   1   2 -13   29.30    5.80
  -1   2  13   22.10    5.20
   1   2 -13   23.90    8.10
   0  -2 -13   39.30    6.80
   0  -2  13   11.70    7.80
   0  -2  13   19.30    6.30
   0   2 -13   19.90    5.40
   0   2  13   24.50    6.40
   0   2 -13   27.40    8.40
   1  -2  13    3.20    7.10
   1  -2  13   -0.50    5.80
  -1  -2 -13    9.60    6.10
  -1   2 -13   13.10    9.20
  -1   2 -13    1.90    4.60
   1   2  13    1.10    6.20
  -2  -2 -13   16.40    7.60
   2  -2  13   18.30    6.90
   2  -2  13   20.90    8.90
   2  -2  13    8.70    6.20
  -2   2 -13   11.40    9.20
   2   2  13    5.10    7.20
  -2   2 -13    7.70    5.10
   5  -3 -13   -9.90    6.40
  -5  -3  13   26.20    8.20
  -5  -3  13    1.20    5.70
  -5   3  13    7.20    5.40
  -5   3  13    4.20    6.50
   4  -3 -13   -5.40    5.20
  -4  -3  13   12.30    7.20
  -4  -3  13    5.20    8.50
  -4   3  13    0.60    5.70
  -4   3  13    1.20    4.80
  -3  -3  13   18.10    8.40
   3  -3 -13    2.80    4.60
  -3  -3  13    1.30    7.00
  -3   3  13    5.40    3.40
  -3   3  13    9.20    4.70
   3   3 -13   12.20    5.80
   3   3 -13  -11.10    8.60
  -3   3  13   14.90    4.50
   2  -3 -13   -1.10    3.50
   2  -3 -13    4.80    3.80
  -2  -3  13   19.00    8.20
  -2  -3  13    9.20    6.90
  -2  -3  13  -15.10    5.90
  -2   3  13    7.50    4.20
   2   3 -13    9.10    7.80
   2   3 -13    0.40    5.10
  -2   3  13    2.00    3.40
  -1  -3  13   16.70    7.20
  -1  -3  13    2.60    7.40
  -1  -3  13   -6.80    7.90
   1  -3 -13   10.60    4.80
   1   3 -13   14.50    5.80
   1   3 -13    6.60    9.10
  -1   3  13   13.60    5.40
   0  -3  13  -13.20    9.20
   0  -3  13    9.10    7.70
   0  -3  13    9.10    6.80
   0  -3 -13    3.90    5.50
   0   3 -13    0.30    5.20
   0   3 -13   11.70   10.20
   0   3  13    9.20    6.00
   1  -3  13   -1.80    7.40
   1  -3  13   -2.10    7.50
  -1  -3 -13    1.10    6.20
   1  -3  13  -13.20    9.10
  -1   3 -13    0.30    5.10
   1   3  13    6.60    6.70
  -1   3 -13   -1.70    7.40
  -7   0  14    5.10    7.50
   7   0 -14    8.50    8.10
  -7   0  14   -1.90    5.30
  -7   0  14   18.40    8.60
   6   0 -14   -3.40    6.40
  -6   0  14    0.20    5.60
  -6   0  14   16.70    6.20
  -6   0  14   11.70    5.30
  -5   0  14   47.50    6.30
   5   0 -14   46.80    7.70
  -5   0  14   72.49    8.90
  -5   0  14   46.80    7.30
  -4   0  14   19.00    8.70
   4   0 -14   -5.10    6.90
  -4   0  14   11.50    5.60
  -3   0  14   38.50    5.50
  -3   0  14   29.00    6.80
   3   0 -14   25.40    6.60
  -2   0  14    7.10    3.90
  -2   0  14    7.10    6.40
   2   0 -14    5.20    5.90
  -1   0  14   21.60    6.50
   1   0 -14   17.40    6.90
  -1   0  14   18.00    3.70
   0   0  14   -0.60    2.60
   0   0  14    1.30    3.80
   0   0 -14    2.40    6.50
   0   0  14    2.30    6.40
   1   0  14   53.89    5.90
  -1   0 -14   59.29    9.60
   1   0  14   62.79    9.10
  -2   0 -14   26.60    9.20
  -2   0 -14   13.60    4.40
   2   0  14   11.10    8.30
   2   0  14   13.00    2.90
   2   0  14    9.20    2.20
  -7  -1  14   -1.80    6.10
  -7  -1  14    8.20    7.90
   7  -1 -14   -7.60    7.70
  -7   1  14    4.10    6.30
  -7   1  14    1.70    7.90
  -7   1  14    3.50    5.60
   7   1 -14   19.90    8.60
  -6  -1  14   18.70    7.00
  -6  -1  14    9.60    7.60
   6  -1 -14    9.50    6.60
   6   1 -14    8.90    7.20
  -6   1  14   -0.60    6.30
  -6   1  14   12.20    5.30
  -5  -1  14  129.69   11.20
   5  -1 -14  150.28   11.30
  -5  -1  14  156.68   12.10
  -5   1  14  121.89   10.40
  -5   1  14  132.59    9.00
  -5   1  14  127.29    9.70
  -4  -1  14  142.89   11.60
  -4  -1  14  111.39    9.90
   4  -1 -14  134.89   10.50
   4  -1 -14  124.99    9.20
  -4   1  14   95.39    9.80
  -4   1  14  112.39    7.90
   4   1 -14  130.29   12.60
  -4   1  14  126.49    8.70
   3  -1 -14   11.80    4.90
  -3  -1  14   11.20    5.70
  -3  -1  14   -3.30    6.00
   3  -1 -14    6.70    5.90
  -3   1  14   11.40    4.00
  -3   1  14    5.70    5.40
   3   1 -14    4.10    7.10
  -3   1  14    7.40    4.00
  -2  -1  14   25.60    7.80
  -2  -1  14   31.70    5.30
   2  -1 -14   33.00    6.50
  -2   1  14   30.40    6.00
  -2   1  14   22.40    3.80
  -2   1  14   23.50    4.10
   2   1 -14   31.90    8.30
  -1  -1  14    8.90    7.10
  -1  -1  14   17.70    5.10
   1  -1 -14   20.50    7.80
  -1   1  14   24.20    6.00
  -1   1  14   20.20    3.00
   1   1 -14   21.70    7.50
  -1   1  14   16.00    2.80
   0  -1  14   32.40    7.70
   0  -1  14   16.40    5.40
   0  -1 -14   29.80    7.30
   0  -1  14   28.40    5.10
   0   1  14   24.30    2.50
   0   1  14   28.70    3.40
   0   1  14   23.00    6.60
   0   1 -14   21.50    5.30
   0   1 -14   18.10    7.80
   1  -1  14  178.08    9.70
   1  -1  14  188.98   14.30
  -1  -1 -14  198.78   14.00
   1  -1  14  187.28   11.00
  -1   1 -14  186.18   10.50
  -1   1 -14  213.68   15.80
   1   1  14  167.38   13.00
   2  -1  14   57.49    6.90
   2  -1  14   51.69   10.40
   2  -1  14   39.80    6.30
  -2  -1 -14   50.09   10.20
  -2   1 -14   48.10    6.50
  -2   1 -14   57.29   11.10
   2   1  14   41.00    8.80
   6  -2 -14   46.30    8.30
  -6  -2  14   64.19   11.00
  -6  -2  14   45.70    9.00
  -6   2  14   46.20    9.00
  -6   2  14   28.00    5.90
  -6   2  14   45.50    7.30
  -5  -2  14    9.20    7.60
  -5  -2  14   -4.10    6.80
   5  -2 -14    3.80    6.00
  -5   2  14    1.70    4.00
  -5   2  14    2.80    4.50
  -5   2  14   -1.90    6.20
  -4  -2  14   35.30    8.40
   4  -2 -14   26.00    5.90
  -4  -2  14   14.60    6.50
  -4   2  14   16.10    4.90
  -4   2  14   17.00    4.70
  -4   2  14   23.60    4.90
   4   2 -14   27.10   10.00
  -3  -2  14   -5.50    5.50
   3  -2 -14   17.90    4.80
  -3  -2  14   16.90    7.30
   3  -2 -14   10.90    5.10
   3   2 -14   19.60    9.00
  -3   2  14    3.90    4.70
  -3   2  14    8.20    4.40
  -3   2  14    9.20    3.70
  -2  -2  14   31.80    6.50
   2  -2 -14   27.30    6.40
  -2  -2  14   22.30    7.60
  -2   2  14   27.50    5.60
  -2   2  14   24.30    4.00
   2   2 -14   20.90    5.90
   2   2 -14   20.50    9.70
  -1  -2  14   -6.30    7.90
   1  -2 -14   14.70    5.40
  -1  -2  14   13.80    6.70
  -1  -2  14   10.80    5.80
   1   2 -14   -4.40    4.50
  -1   2  14    2.70    1.90
   1   2 -14   -2.60    8.80
  -1   2  14   -4.70    5.10
   0  -2  14   -1.50    5.30
   0  -2  14   -3.70    5.90
   0  -2 -14   11.20    6.50
   0  -2  14   -1.60    6.30
   0   2  14   -1.70    6.10
   0   2 -14   14.20    8.90
   0   2 -14    4.10    4.90
   1  -2  14   26.70    6.30
   1  -2  14   11.40    6.90
   1  -2  14   24.80    9.50
  -1  -2 -14   42.60    8.60
  -1   2 -14   15.70    9.80
   1   2  14   20.30    8.00
  -1   2 -14   18.20    5.80
  -4  -3  14   22.30    9.50
   4  -3 -14    0.40    6.60
  -4  -3  14    7.40    7.30
  -4   3  14    1.90    6.10
  -4   3  14    2.20    2.30
  -4   3  14    9.70    5.20
  -3  -3  14   15.50    9.70
  -3  -3  14   23.80    8.20
   3  -3 -14   -0.40    4.80
  -3   3  14   12.20    5.00
   3   3 -14   10.10    8.00
  -3   3  14    4.60    4.30
   3   3 -14    6.70    5.90
   2  -3 -14    6.20    3.60
  -2  -3  14    1.70    7.20
  -2  -3  14   -1.80    9.20
  -2  -3  14   -3.60    7.50
   2  -3 -14    3.70    5.00
   2   3 -14   14.60    8.50
  -2   3  14   -4.50    5.10
  -2   3  14   11.40    3.80
   2   3 -14    1.50    5.50
  -1  -3  14   13.10    7.50
   1  -3 -14   26.60    6.40
  -1  -3  14    2.80   10.10
  -1  -3  14   14.00    8.70
   1   3 -14    7.60   10.60
  -1   3  14    3.60    6.00
   1   3 -14    4.80    5.90
   6   0 -15   27.50    8.20
  -6   0  15   21.30    6.30
  -6   0  15   34.80    8.20
  -6   0  15   19.50    8.10
  -5   0  15   33.30    7.80
  -5   0  15   42.30    8.20
  -5   0  15   35.90    6.40
   5   0 -15   50.59    8.60
  -4   0  15   13.20    7.00
   4   0 -15    6.90    7.40
  -4   0  15    5.00    5.40
  -3   0  15    7.60    4.90
   3   0 -15    6.20    6.70
  -3   0  15   -4.00    6.70
  -2   0  15    9.00    7.00
   2   0 -15   14.40    7.20
  -2   0  15    8.70    4.60
  -1   0  15    6.00    6.60
   1   0 -15   12.40    7.80
  -1   0  15    3.20    3.80
   0   0  15    0.80    4.30
   0   0  15   -5.40    6.70
   0   0  15   -5.30    3.10
   0   0 -15    5.40    7.70
   1   0  15   11.30    8.50
  -1   0 -15   16.30    8.20
   6  -1 -15   -3.90    6.80
  -6  -1  15   -3.00    7.90
  -6  -1  15    3.00    8.00
  -6   1  15    1.90    5.70
  -6   1  15    9.30    7.90
  -6   1  15   -0.50    5.20
   5  -1 -15   50.99    7.90
  -5  -1  15   71.39    9.50
  -5  -1  15   33.90    7.90
  -5   1  15   38.90    6.30
  -5   1  15   32.30    7.40
  -5   1  15   39.10    7.40
  -4  -1  15   10.80    6.60
   4  -1 -15   20.20    7.40
  -4  -1  15    9.30    6.20
   4  -1 -15   15.50    6.90
   4   1 -15   10.30    7.90
  -4   1  15   15.20    7.00
  -4   1  15   19.10    5.80
  -4   1  15   20.10    5.00
  -3  -1  15   26.90    7.40
  -3  -1  15   33.60    6.50
   3  -1 -15   34.30    8.70
  -3   1  15   37.40    5.10
   3   1 -15   32.00    9.50
  -3   1  15   24.30    5.30
   2  -1 -15   17.40    6.50
  -2  -1  15   -0.40    6.90
  -2  -1  15  -13.30    8.40
  -2   1  15    2.10    5.40
  -2   1  15    8.30    3.70
  -2   1  15    0.30    3.50
   2   1 -15   18.50    8.50
   1  -1 -15   67.09    9.40
  -1  -1  15   38.10    9.10
  -1  -1  15   43.20    5.90
  -1  -1  15   55.89    7.70
   1   1 -15   49.50   10.50
  -1   1  15   59.29    8.50
  -1   1  15   57.99    4.80
   0  -1  15    4.60    6.10
   0  -1  15   -6.40    7.60
   0  -1 -15   18.50    7.90
   0  -1  15   -1.10    4.40
   0   1 -15   12.10    9.10
   0   1 -15    3.20    5.10
   0   1  15    4.60    6.50
   1  -1  15   64.09    7.60
  -1  -1 -15   66.79   11.10
   1  -1  15   56.59   11.10
   1  -1  15   63.09    7.60
  -1   1 -15   65.09   11.50
   1   1  15   56.59    9.50
  -1   1 -15   61.49    7.40
  -5  -2  15   44.80   10.10
   5  -2 -15   14.10    7.40
  -5  -2  15   16.10    7.70
  -5   2  15   20.70    7.30
  -5   2  15   17.40    5.70
  -5   2  15   12.60    5.10
  -4  -2  15   -4.80    6.20
  -4  -2  15   19.50    8.80
   4  -2 -15   12.70    5.80
   4   2 -15   13.50   10.30
  -4   2  15    1.00    5.50
  -4   2  15   -1.20    4.60
  -4   2  15   -6.20    4.90
  -3  -2  15   15.00    7.00
   3  -2 -15   13.90    6.20
  -3  -2  15   16.50    7.60
   3  -2 -15   16.30    5.10
  -3   2  15    9.40    4.40
  -3   2  15   11.40    5.70
  -3   2  15    8.90    4.30
   3   2 -15   14.30    9.60
   2  -2 -15   -4.10    5.90
  -2  -2  15   -4.50    6.10
  -2  -2  15    3.80    6.40
  -2   2  15    4.40    3.20
   2   2 -15  -12.90    9.60
  -2   2  15    4.30    5.80
  -1  -2  15   -0.70    7.40
  -1  -2  15   -0.30    6.20
   1  -2 -15   29.30    7.20
  -1  -2  15   11.20    7.30
   1   2 -15    3.50   10.00
   1   2 -15   -9.60    5.10
  -1   2  15    8.30    6.60
   0  -2  15   -3.30    7.70
   0  -2 -15    8.60    8.10
   0  -2  15    9.20    6.20
   0  -2  15   -1.70    8.30
   0   2  15    9.70    7.00
   0   2 -15   24.30   10.60
   0   2 -15    1.70    5.90
  -5   0  16  325.17   17.10
  -5   0  16  352.26   15.50
  -5   0  16  346.67   18.10
  -4   0  16   46.90    7.60
  -4   0  16   35.90    8.60
   4   0 -16   45.20   10.40
  -3   0  16   -4.80    7.60
  -3   0  16    8.50    6.40
   3   0 -16    2.50    8.20
  -2   0  16    2.70    7.20
  -2   0  16   -4.90    4.60
   2   0 -16    9.80    8.30
   1   0 -16    3.20    8.20
  -1   0  16    9.70    7.60
  -1   0  16   -7.80    4.00
  -1   0  16   -0.70    5.20
   0   0  16    3.90    5.00
   0   0 -16   10.80    9.40
   0   0  16    7.20    8.80
   5  -1 -16    8.20    7.00
  -5  -1  16   16.10    8.40
  -5  -1  16    3.20    7.50
  -5   1  16    7.00    7.40
  -5   1  16    3.20    5.50
  -5   1  16  -14.00    7.40
   4  -1 -16   13.00    6.90
  -4  -1  16  -11.60    6.50
   4  -1 -16   15.10    7.80
  -4  -1  16   18.50    8.60
  -4   1  16   -6.20    6.80
   4   1 -16    4.80    9.60
  -4   1  16    5.60    5.00
  -4   1  16   18.10    6.70
   3  -1 -16   11.50    8.10
  -3  -1  16    2.00    6.40
  -3  -1  16    1.40    8.60
  -3   1  16   10.90    4.70
  -3   1  16   10.90    6.70
  -3   1  16    7.30    5.10
   3   1 -16    4.20    9.80
  -2  -1  16   -5.90    9.50
  -2  -1  16   12.00    6.10
   2  -1 -16   27.00    8.70
  -2   1  16    7.60    6.70
  -2   1  16    8.40    5.10
  -2   1  16   10.40    4.10
   2   1 -16   26.50    8.80
  -1  -1  16   16.60    8.30
   1  -1 -16   43.90    9.60
  -1  -1  16   -0.20    6.30
  -1  -1  16   20.30    9.30
   1   1 -16   29.20    8.00
  -1   1  16   19.70    3.30
  -1   1  16   23.30    4.40
  -1   1  16   28.40    7.80
   0   0   0    0.00    0.00
_computing_structure_solution     'SHELXT 2014/5 (Sheldrick, 2014)'
;
_shelx_hkl_checksum              11161
_shelx_res_file
;
TITL JL115T2_0m_a.res in P2(1)
    shelx.res
    created by SHELXL-2016/6 at 15:54:48 on 10-Jan-2018
CELL  0.71073   8.2397   4.9728  13.9332   90.000  106.680   90.000
ZERR     2.00   0.0008   0.0005   0.0014    0.000    0.007    0.000
LATT  -1
SYMM  - X, 1/2 + Y, - Z
SFAC  C    H    N    O
UNIT  30 22 2 2
ACTA
MERG   2
EQIV $1 -x+1, y+1/2, -z+1
HTAB O1 N1_$1
HTAB O1 N1_$1
FMAP   2
PLAN   20
SIZE     0.054   0.090   0.157
ACTA
BOND   $H
CONF
LIST   4
L.S.  10
TEMP    20.00
WGHT    0.047800
EXTI    0.057540
FVAR       1.21746
O1    4    0.329377    1.040650    0.494183    11.00000    0.04737    0.04260 =
         0.04477    0.01531    0.01454    0.00349
N1    3    0.408442    0.829274    0.557375    11.00000    0.04456    0.03438 =
         0.03433    0.00205    0.01425    0.00399
C11   1    0.308649    0.726355    0.601565    11.00000    0.03752    0.03014 =
         0.03559   -0.00015    0.01265    0.00311
AFIX  43
H11   2    0.197024    0.785637    0.585614    11.00000   -1.20000
AFIX   0
C9    1    0.365951    0.515691    0.677319    11.00000    0.04085    0.02947 =
         0.02835   -0.00145    0.01314    0.00165
C10   1    0.531369    0.502714    0.731610    11.00000    0.04161    0.03338 =
         0.03520    0.00081    0.01161   -0.00371
AFIX  43
H10   2    0.607395    0.622514    0.716727    11.00000   -1.20000
AFIX   0
C10'  1    0.593473    0.313982    0.810230    11.00000    0.04268    0.03072 =
         0.03134   -0.00557    0.01064    0.00260
C1    1    0.765542    0.309611    0.865147    11.00000    0.04531    0.04628 =
         0.04753    0.00201    0.00929    0.00053
AFIX  43
H1    2    0.840812    0.427685    0.848577    11.00000   -1.20000
AFIX   0
C2    1    0.823224    0.133488    0.942646    11.00000    0.04612    0.05266 =
         0.04748   -0.00140    0.00244    0.00776
AFIX  43
H2    2    0.937339    0.131717    0.978623    11.00000   -1.20000
AFIX   0
C3    1    0.711584   -0.042345    0.967554    11.00000    0.06046    0.04353 =
         0.03711    0.00602    0.00895    0.01469
AFIX  43
H3    2    0.751583   -0.162219    1.020293    11.00000   -1.20000
AFIX   0
C4    1    0.543789   -0.042366    0.915886    11.00000    0.05547    0.04119 =
         0.03897    0.00398    0.01685    0.00355
AFIX  43
H4    2    0.470941   -0.162230    0.933886    11.00000   -1.20000
AFIX   0
C4'   1    0.479167    0.136614    0.835608    11.00000    0.04641    0.02654 =
         0.02944   -0.00348    0.01489    0.00328
C5'   1    0.301292    0.144233    0.778443    11.00000    0.04317    0.02973 =
         0.03056   -0.00402    0.01568    0.00211
C5    1    0.181111   -0.033241    0.797518    11.00000    0.05524    0.03636 =
         0.04413    0.00394    0.02474   -0.00019
AFIX  43
H5    2    0.215809   -0.156417    0.849626    11.00000   -1.20000
AFIX   0
C6    1    0.015298   -0.029956    0.741865    11.00000    0.04583    0.04670 =
         0.06483    0.00189    0.02821   -0.00714
AFIX  43
H6    2   -0.061247   -0.149898    0.756119    11.00000   -1.20000
AFIX   0
C7    1   -0.038869    0.152377    0.664070    11.00000    0.04009    0.05110 =
         0.05885    0.00459    0.01477   -0.00305
AFIX  43
H7    2   -0.151904    0.154288    0.626056    11.00000   -1.20000
AFIX   0
C8    1    0.072779    0.329215    0.642924    11.00000    0.04402    0.04017 =
         0.04132    0.00177    0.00963    0.00110
AFIX  43
H8    2    0.034520    0.451063    0.590667    11.00000   -1.20000
AFIX   0
C8'   1    0.245319    0.330572    0.698930    11.00000    0.03862    0.02849 =
         0.03051   -0.00307    0.01387    0.00267
H     2    0.413413    1.109121    0.475153    11.00000    0.06091
HKLF 4  1.0  1.00  0.00  0.00  0.00  1.00  0.00  0.00  0.00  1.00
REM  JL115T2_0m_a.res in P2(1)
REM R1 =  0.0400 for    1509 Fo > 4sig(Fo)  and  0.0634 for all    1988 data
REM    159 parameters refined using      1 restraints
END
WGHT      0.0478      0.0000
REM Highest difference peak  0.147,  deepest hole -0.148,  1-sigma level  0.041
Q1    1   0.2992  0.4931  0.7155  11.00000  0.05    0.15
Q2    1  -0.2432 -0.0928  0.6186  11.00000  0.05    0.14
Q3    1  -0.3049 -0.0171  0.6471  11.00000  0.05    0.13
Q4    1   0.5389  0.9982  0.5999  11.00000  0.05    0.12
Q5    1   0.1477  0.4092  0.6920  11.00000  0.05    0.12
Q6    1   0.2372 -0.0238  0.7610  11.00000  0.05    0.12
Q7    1  -0.2329  0.1340  0.6064  11.00000  0.05    0.12
Q8    1  -0.3828  0.0444  0.5858  11.00000  0.05    0.12
Q9    1   0.2828  0.2884  0.7468  11.00000  0.05    0.12
Q10   1   0.8234  0.5088  0.8815  11.00000  0.05    0.12
Q11   1   0.6717  0.3723  0.8558  11.00000  0.05    0.12
Q12   1   0.8796 -0.1867  1.0417  11.00000  0.05    0.11
Q13   1   0.5238 -0.0033  0.8648  11.00000  0.05    0.11
Q14   1   0.5737  0.4282  0.7964  11.00000  0.05    0.11
Q15   1   0.3805  1.3316  0.4207  11.00000  0.05    0.11
Q16   1   0.0427  0.4739  0.5630  11.00000  0.05    0.11
Q17   1   0.9556 -0.0910  1.0630  11.00000  0.05    0.11
Q18   1   0.5466  0.8153  0.5719  11.00000  0.05    0.11
Q19   1   0.6009  0.6444  0.8612  11.00000  0.05    0.11
Q20   1   0.7469 -0.2616  1.0143  11.00000  0.05    0.11
;
_shelx_res_checksum              9712
loop_
_space_group_symop_operation_xyz
'x, y, z'
'-x, y+1/2, -z'
loop_
_atom_site_type_symbol
_atom_site_label
_atom_site_fract_x
_atom_site_fract_y
_atom_site_fract_z
_atom_site_U_iso_or_equiv
_atom_site_adp_type
_atom_site_calc_flag
_atom_site_occupancy
O O1 0.3294(3) 1.0407(5) 0.49418(15) 0.0446(6) Uani d 1
N N1 0.4084(3) 0.8293(5) 0.55737(16) 0.0371(6) Uani d 1
C C11 0.3086(4) 0.7264(5) 0.6016(2) 0.0340(7) Uani d 1
H H11 0.197024 0.785637 0.585614 0.041 Uiso calc 1
C C9 0.3660(3) 0.5157(6) 0.67732(18) 0.0322(7) Uani d 1
C C10 0.5314(4) 0.5027(7) 0.7316(2) 0.0366(7) Uani d 1
H H10 0.607395 0.622514 0.716727 0.044 Uiso calc 1
C C10' 0.5935(3) 0.3140(6) 0.81023(19) 0.0349(7) Uani d 1
C C1 0.7655(4) 0.3096(7) 0.8651(2) 0.0472(8) Uani d 1
H H1 0.840812 0.427685 0.848577 0.057 Uiso calc 1
C C2 0.8232(4) 0.1335(8) 0.9426(2) 0.0510(9) Uani d 1
H H2 0.937339 0.131717 0.978623 0.061 Uiso calc 1
C C3 0.7116(4) -0.0423(7) 0.9676(2) 0.0481(9) Uani d 1
H H3 0.751583 -0.162219 1.020293 0.058 Uiso calc 1
C C4 0.5438(4) -0.0424(6) 0.9159(2) 0.0445(8) Uani d 1
H H4 0.470941 -0.162230 0.933886 0.053 Uiso calc 1
C C4' 0.4792(4) 0.1366(6) 0.83561(19) 0.0333(7) Uani d 1
C C5' 0.3013(4) 0.1442(6) 0.77844(19) 0.0334(7) Uani d 1
C C5 0.1811(4) -0.0332(6) 0.7975(2) 0.0431(8) Uani d 1
H H5 0.215809 -0.156417 0.849626 0.052 Uiso calc 1
C C6 0.0153(4) -0.0300(7) 0.7419(3) 0.0499(9) Uani d 1
H H6 -0.061247 -0.149898 0.756119 0.060 Uiso calc 1
C C7 -0.0389(4) 0.1524(7) 0.6641(2) 0.0499(9) Uani d 1
H H7 -0.151904 0.154288 0.626056 0.060 Uiso calc 1
C C8 0.0728(4) 0.3292(7) 0.6429(2) 0.0424(8) Uani d 1
H H8 0.034520 0.451063 0.590667 0.051 Uiso calc 1
C C8' 0.2453(3) 0.3306(6) 0.69893(19) 0.0317(7) Uani d 1
H H 0.413(4) 1.109(7) 0.475(2) 0.061(12) Uiso d 1
loop_
_atom_site_aniso_label
_atom_site_aniso_U_11
_atom_site_aniso_U_22
_atom_site_aniso_U_33
_atom_site_aniso_U_12
_atom_site_aniso_U_13
_atom_site_aniso_U_23
O1 0.0474(13) 0.0426(14) 0.0448(12) 0.0035(11) 0.0145(10) 0.0153(11)
N1 0.0446(14) 0.0344(14) 0.0343(13) 0.0040(13) 0.0142(11) 0.0020(12)
C11 0.0375(16) 0.0301(17) 0.0356(15) 0.0031(14) 0.0127(13) -0.0001(13)
C9 0.0408(16) 0.0295(16) 0.0284(14) 0.0016(16) 0.0131(12) -0.0015(14)
C10 0.0416(16) 0.0334(17) 0.0352(14) -0.0037(15) 0.0116(12) 0.0008(15)
C10' 0.0427(16) 0.0307(16) 0.0313(14) 0.0026(15) 0.0106(12) -0.0056(14)
C1 0.0453(18) 0.046(2) 0.0475(18) 0.0005(19) 0.0093(14) 0.0020(17)
C2 0.0461(19) 0.053(2) 0.0475(19) 0.0078(18) 0.0024(15) -0.0014(17)
C3 0.060(2) 0.044(2) 0.0371(17) 0.0147(18) 0.0089(15) 0.0060(15)
C4 0.0555(19) 0.041(2) 0.0390(17) 0.0035(17) 0.0168(14) 0.0040(15)
C4' 0.0464(17) 0.0265(15) 0.0294(14) 0.0033(15) 0.0149(13) -0.0035(13)
C5' 0.0432(16) 0.0297(15) 0.0306(14) 0.0021(15) 0.0157(12) -0.0040(14)
C5 0.0552(19) 0.036(2) 0.0441(18) -0.0002(17) 0.0247(15) 0.0039(15)
C6 0.0458(19) 0.047(2) 0.065(2) -0.0071(18) 0.0282(16) 0.0019(18)
C7 0.0401(18) 0.051(2) 0.059(2) -0.0031(18) 0.0148(15) 0.0046(19)
C8 0.0440(18) 0.0402(18) 0.0413(17) 0.0011(17) 0.0096(14) 0.0018(16)
C8' 0.0386(15) 0.0285(15) 0.0305(14) 0.0027(15) 0.0139(12) -0.0031(14)
loop_
_atom_type_symbol
_atom_type_description
_atom_type_scat_dispersion_real
_atom_type_scat_dispersion_imag
_atom_type_scat_source
C C 0.0033 0.0016 'International Tables Vol C Tables 4.2.6.8 and 6.1.1.4'
H H 0.0000 0.0000 'International Tables Vol C Tables 4.2.6.8 and 6.1.1.4'
N N 0.0061 0.0033 'International Tables Vol C Tables 4.2.6.8 and 6.1.1.4'
O O 0.0106 0.0060 'International Tables Vol C Tables 4.2.6.8 and 6.1.1.4'
loop_
_geom_angle_atom_site_label_1
_geom_angle_atom_site_label_2
_geom_angle_atom_site_label_3
_geom_angle
N1 O1 H 102(2)
C11 N1 O1 110.9(2)
N1 C11 C9 121.2(3)
N1 C11 H11 119.4
C9 C11 H11 119.4
C10 C9 C8' 119.6(2)
C10 C9 C11 120.0(3)
C8' C9 C11 120.4(2)
C9 C10 C10' 122.9(3)
C9 C10 H10 118.6
C10' C10 H10 118.6
C1 C10' C4' 119.8(3)
C1 C10' C10 120.9(3)
C4' C10' C10 119.2(2)
C2 C1 C10' 120.6(3)
C2 C1 H1 119.7
C10' C1 H1 119.7
C1 C2 C3 119.9(3)
C1 C2 H2 120.1
C3 C2 H2 120.1
C4 C3 C2 120.9(3)
C4 C3 H3 119.5
C2 C3 H3 119.5
C3 C4 C4' 120.9(3)
C3 C4 H4 119.5
C4' C4 H4 119.5
C10' C4' C4 117.9(2)
C10' C4' C5' 119.2(2)
C4 C4' C5' 122.9(3)
C5 C5' C8' 118.0(2)
C5 C5' C4' 122.2(3)
C8' C5' C4' 119.8(2)
C6 C5 C5' 122.0(3)
C6 C5 H5 119.0
C5' C5 H5 119.0
C5 C6 C7 119.9(3)
C5 C6 H6 120.1
C7 C6 H6 120.1
C8 C7 C6 120.3(3)
C8 C7 H7 119.8
C6 C7 H7 119.8
C7 C8 C8' 121.2(3)
C7 C8 H8 119.4
C8' C8 H8 119.4
C8 C8' C5' 118.6(3)
C8 C8' C9 122.0(3)
C5' C8' C9 119.3(2)
loop_
_geom_bond_atom_site_label_1
_geom_bond_atom_site_label_2
_geom_bond_distance
O1 N1 1.405(3)
O1 H 0.88(3)
N1 C11 1.268(3)
C11 C9 1.466(4)
C11 H11 0.9300
C9 C10 1.357(3)
C9 C8' 1.448(4)
C10 C10' 1.422(4)
C10 H10 0.9300
C10' C1 1.405(4)
C10' C4' 1.408(4)
C1 C2 1.365(4)
C1 H1 0.9300
C2 C3 1.384(5)
C2 H2 0.9300
C3 C4 1.363(4)
C3 H3 0.9300
C4 C4' 1.409(4)
C4 H4 0.9300
C4' C5' 1.454(4)
C5' C5 1.408(4)
C5' C8' 1.416(4)
C5 C6 1.364(4)
C5 H5 0.9300
C6 C7 1.385(4)
C6 H6 0.9300
C7 C8 1.365(4)
C7 H7 0.9300
C8 C8' 1.412(4)
C8 H8 0.9300
loop_
_geom_hbond_atom_site_label_D
_geom_hbond_atom_site_label_H
_geom_hbond_atom_site_label_A
_geom_hbond_site_symmetry_A
_geom_hbond_distance_DH
_geom_hbond_distance_HA
_geom_hbond_distance_DA
_geom_hbond_angle_DHA
O1 H N1 2_656 0.88(3) 1.99(3) 2.852(3) 169(3)
loop_
_geom_torsion_atom_site_label_1
_geom_torsion_atom_site_label_2
_geom_torsion_atom_site_label_3
_geom_torsion_atom_site_label_4
_geom_torsion
O1 N1 C11 C9 -175.3(2)
N1 C11 C9 C10 27.6(4)
N1 C11 C9 C8' -156.1(2)
C8' C9 C10 C10' -0.2(4)
C11 C9 C10 C10' 176.1(3)
C9 C10 C10' C1 -179.3(3)
C9 C10 C10' C4' -1.9(4)
C4' C10' C1 C2 0.4(5)
C10 C10' C1 C2 177.9(3)
C10' C1 C2 C3 0.0(5)
C1 C2 C3 C4 -0.2(5)
C2 C3 C4 C4' 0.0(5)
C1 C10' C4' C4 -0.5(4)
C10 C10' C4' C4 -178.1(3)
C1 C10' C4' C5' 179.7(3)
C10 C10' C4' C5' 2.2(4)
C3 C4 C4' C10' 0.3(4)
C3 C4 C4' C5' -179.9(3)
C10' C4' C5' C5 177.8(3)
C4 C4' C5' C5 -1.9(4)
C10' C4' C5' C8' -0.5(4)
C4 C4' C5' C8' 179.7(3)
C8' C5' C5 C6 0.2(4)
C4' C5' C5 C6 -178.2(3)
C5' C5 C6 C7 -0.1(5)
C5 C6 C7 C8 -0.1(5)
C6 C7 C8 C8' 0.3(5)
C7 C8 C8' C5' -0.2(4)
C7 C8 C8' C9 179.7(3)
C5 C5' C8' C8 -0.1(4)
C4' C5' C8' C8 178.4(3)
C5 C5' C8' C9 -179.9(2)
C4' C5' C8' C9 -1.5(4)
C10 C9 C8' C8 -178.0(3)
C11 C9 C8' C8 5.7(4)
C10 C9 C8' C5' 1.9(4)
C11 C9 C8' C5' -174.4(2)

_cod_database_fobs_code 2242381
