#------------------------------------------------------------------------------
#$Date: 2019-05-04 05:40:47 +0300 (Sat, 04 May 2019) $
#$Revision: 214938 $
#$URL: file:///home/coder/svn-repositories/cod/cif/2/24/29/2242925.cif $
#------------------------------------------------------------------------------
#
# This file is available in the Crystallography Open Database (COD),
# http://www.crystallography.net/. The original data for this entry
# were provided by IUCr Journals, http://journals.iucr.org/.
#
# The file may be used within the scientific community so long as
# proper attribution is given to the journal article from which the
# data were obtained.
#
data_2242925
loop_
_publ_author_name
'Yaseen, Ayat'
'Hassan, Muhammad Murtaza'
'Lee-Ruff, Edward'
'Audette, Gerald F.'
_publ_section_title
;
 Crystal structures of the synthetic intermediate
 3-[(6-chloro-7<i>H</i>-purin-7-yl)methyl]cyclobutan-1-one, and of two
 oxetanocin derivatives:
 3-[(6-chloro-8,9-dihydro-7<i>H</i>-purin-7-yl)methyl]cyclobutan-1-ol and
 3-[(6-chloro-9<i>H</i>-purin-9-yl)methyl]cyclobutan-1-ol
;
_journal_coeditor_code           ZP2033
_journal_issue                   6
_journal_name_full               'Acta Crystallographica Section E'
_journal_page_first              732
_journal_page_last               737
_journal_paper_doi               10.1107/S2056989019004432
_journal_volume                  75
_journal_year                    2019
_chemical_formula_moiety         'C10 H13 Cl N4 O'
_chemical_formula_sum            'C10 H13 Cl N4 O'
_chemical_formula_weight         240.69
_chemical_name_systematic
;
3-[(6-Chloro-8,9-dihydro-7<i>H</i>-purin-7-yl)methyl]cyclobutan-1-ol
;
_space_group_crystal_system      triclinic
_space_group_IT_number           2
_space_group_name_Hall           '-P 1'
_space_group_name_H-M_alt        'P -1'
_symmetry_space_group_name_Hall  '-P 1'
_symmetry_space_group_name_H-M   'P -1'
_atom_sites_solution_hydrogens   mixed
_atom_sites_solution_primary     direct
_atom_sites_solution_secondary   difmap
_audit_creation_method           SHELXL-2018/3
_cell_angle_alpha                68.957(6)
_cell_angle_beta                 83.799(5)
_cell_angle_gamma                87.189(5)
_cell_formula_units_Z            2
_cell_length_a                   6.1101(4)
_cell_length_b                   8.6075(5)
_cell_length_c                   11.0083(7)
_cell_measurement_reflns_used    8605
_cell_measurement_temperature    110
_cell_measurement_theta_max      65.439
_cell_measurement_theta_min      4.275
_cell_volume                     537.15(6)
_computing_cell_refinement
;
CrysAlisPro (Rigaku OD, 2018)
;
_computing_data_collection
;
CrysAlisPro (Rigaku OD, 2018)
;
_computing_data_reduction
;
CrysAlisPro (Rigaku OD, 2018)
;
_computing_molecular_graphics
;
PLATON (Spek, 2009) and Mercury (Macrae <i>et al.</i>,  2008)
;
_computing_publication_material
;
<i>OLEX2</i> (Dolomanov <i>et al.</i>,  2009), PLATON (Spek,
2009)
and publCIF (Westrip, 2010)
;
_computing_structure_refinement
;
ShelXL (Sheldrick, 2015)
;
_computing_structure_solution
;
ShelXS (Sheldrick, 2008)
;
_diffrn_ambient_temperature      110(2)
_diffrn_detector                 'CCD area detector'
_diffrn_detector_area_resol_mean 7.9
_diffrn_measured_fraction_theta_full 0.959
_diffrn_measured_fraction_theta_max 0.959
_diffrn_measurement_device       'three-circle diffractometer'
_diffrn_measurement_device_type  'Bruker--Nonius Kappa CCD'
_diffrn_measurement_method       '\w scans'
_diffrn_radiation_type           CuK\a
_diffrn_radiation_wavelength     1.54184
_diffrn_reflns_av_R_equivalents  0.0279
_diffrn_reflns_av_unetI/netI     0.0146
_diffrn_reflns_limit_h_max       5
_diffrn_reflns_limit_h_min       -7
_diffrn_reflns_limit_k_max       10
_diffrn_reflns_limit_k_min       -10
_diffrn_reflns_limit_l_max       12
_diffrn_reflns_limit_l_min       -13
_diffrn_reflns_number            9261
_diffrn_reflns_theta_full        65.974
_diffrn_reflns_theta_max         65.974
_diffrn_reflns_theta_min         4.324
_diffrn_source                   'sealed X-ray tube'
_exptl_absorpt_coefficient_mu    3.032
_exptl_absorpt_correction_T_max  1.000
_exptl_absorpt_correction_T_min  0.771
_exptl_absorpt_correction_type   multi-scan
_exptl_absorpt_process_details
;
(CrysAlisPro; Rigaku OD, 2018)
;
_exptl_crystal_colour            colorless
_exptl_crystal_density_diffrn    1.488
_exptl_crystal_description       plate
_exptl_crystal_F_000             252
_exptl_crystal_size_max          0.44
_exptl_crystal_size_mid          0.30
_exptl_crystal_size_min          0.12
_refine_diff_density_max         0.711
_refine_diff_density_min         -0.270
_refine_ls_extinction_method     none
_refine_ls_goodness_of_fit_ref   1.068
_refine_ls_hydrogen_treatment    mixed
_refine_ls_matrix_type           full
_refine_ls_number_parameters     160
_refine_ls_number_reflns         1793
_refine_ls_number_restraints     1
_refine_ls_restrained_S_all      1.068
_refine_ls_R_factor_all          0.0401
_refine_ls_R_factor_gt           0.0371
_refine_ls_shift/su_max          0.000
_refine_ls_shift/su_mean         0.000
_refine_ls_structure_factor_coef Fsqd
_refine_ls_weighting_details
'w=1/[\s^2^(Fo^2^)+(0.0479P)^2^+0.5464P] where P=(Fo^2^+2Fc^2^)/3'
_refine_ls_weighting_scheme      calc
_refine_ls_wR_factor_gt          0.0952
_refine_ls_wR_factor_ref         0.0980
_reflns_number_gt                1681
_reflns_number_total             1793
_reflns_threshold_expression     'I > 2\s(I)'
_cod_data_source_file            zp2033sup1.cif
_cod_data_source_block           II
_cod_database_code               2242925
_shelx_space_group_comment
;
The symmetry employed for this shelxl refinement is uniquely defined
by the following loop, which should always be used as a source of
symmetry information in preference to the above space-group names.
They are only intended as comments.
;
_shelx_hkl_file
;
   0   0  -1 86636.6 235.710  10
   0   0  -1 86421.9 230.170  10
   0   0   2 999.775 40.3696  10
   0   0  -2 1063.60 41.6700  10
   0   0  -2 1051.97 43.6194  10
   0   0   2 1170.99 38.8744  18
   0   0   2 1235.35 41.9006   1
   0   0   2 1151.79 42.1996  10
   0   0  -2 1023.50 41.5820   3
   0   0   3 26173.8 228.070   8
   0   0   3 25561.9 232.049  10
   0   0   3 25308.4 203.840  18
   0   0   3 25175.7 226.620  10
   0   0  -3 25107.7 228.470  10
   0   0  -3 25864.6 240.829   3
   0   0  -3 26449.3 234.094   1
   0   0   3 25909.1 225.640  11
   0   0   3 26325.6 215.147   1
   0   0  -3 26062.7 235.261  10
   0   0   4 30159.7 270.002   1
   0   0  -4 30443.2 309.060  10
   0   0  -4 29363.8 302.051   3
   0   0   4 29832.9 282.288   8
   0   0   4 29247.0 281.168  11
   0   0  -4 29677.8 287.361   1
   0   0   4 29373.8 259.521  18
   0   0   4 29161.5 288.190  10
   0   0  -4 28281.4 285.605  10
   0   0   5 412.047 42.5173  18
   0   0   5 401.941 49.1608  11
   0   0   5 333.108 43.0027   1
   0   0   5 305.911 46.0901   8
   0   0  -5 360.465 47.9626   1
   0   0  -5 354.428 46.7621   3
   0   0   6 14180.8 253.559  11
   0   0   6 14747.2 242.022   1
   0   0  -6 14506.9 254.322   1
   0   0  -6 14104.4 277.652   3
   0   0   6 14589.5 258.439   8
   0   0   7 7195.21 207.883   8
   0   0  -7 6566.45 193.025   1
   0   0   7 6366.99 192.411  11
   0   0   7 6517.31 179.959   1
   0   0  -7 6450.58 218.877  24
   0   0  -7 6314.29 207.757   3
   0   0   8 11038.2 254.132   1
   0   0  -8 11810.3 291.139  26
   0   0  -8 10724.5 272.204   1
   0   0   8 12256.9 290.594   4
   0   0  -8 11621.3 306.855  20
   0   0   8 12075.4 290.357   8
   0   0   8 11928.3 271.153  32
   0   0  -8 12128.3 305.805  24
   0   0  -9 16877.3 365.356  24
   0   0   9 16598.0 344.727   4
   0   0   9 17267.5 313.151  32
   0   0  -9 16298.4 354.092  26
   0   0 -10 36858.7 521.820  24
   0   0 -10 37337.1 553.372  27
   0   0 -10 36225.8 516.354  26
   0   0  10 38346.5 510.793   4
   0   0  10 38770.9 414.771  32
   0   0 -10 36831.8 556.126  33
   0   0  11 412.696 38.6493  32
   0   0  11 617.482 74.4685   4
   0   0 -11 808.453 83.7990  24
   0   0 -11 645.528 88.2598  33
   0   0 -11 507.988 72.6195  26
   0   0 -11 588.324 73.5085  32
   0   0 -12 80.9679 37.4700  32
   0   0 -12 89.0036 48.0483  26
   0   1 -11 2857.34 132.522  24
   0  -1  11 3096.07 133.124   4
   0   1 -11 3035.31 116.383  32
   0   1 -11 3145.21 138.076  26
   0   1 -11 2904.48 141.091  33
   0   1 -10 27.5219 60.2849  24
   0   1 -10 32.3886 70.9841  33
   0   1 -10 27.0979 63.4303  27
   0  -1  10-0.89542 54.4111   4
   0   1 -10 79.7281 60.2341  26
   0  -1  10 50.7609 44.6677  32
   0   1 -10 72.0277 50.2476  32
   0   1  -9 7453.74 234.302  32
   0  -1   9 8210.49 249.678   4
   0   1  -9 8134.73 271.122  27
   0  -1   9 8043.10 220.364  32
   0   1  -9 8056.80 267.570  33
   0   1  -9 7726.30 253.630  24
   0   1  -9 7773.07 247.163  26
   0   1  -8 26191.6 445.487  26
   0  -1   8 27769.6 448.183   4
   0   1  -8 27206.4 464.220  24
   0  -1   8 28918.5 472.962   8
   0  -1   8 29655.6 446.560  32
   0   1  -8 25767.1 475.087  20
   0  -1   7 27258.2 418.813   8
   0  -1   7 26155.5 422.325   4
   0  -1   7 26099.9 407.197  11
   0   1  -7 25843.4 439.161  24
   0   1  -7 25098.7 423.257   3
   0  -1   7 24816.4 371.975   1
   0   1  -7 25816.6 397.267   1
   0   1  -7 25273.3 418.655  26
   0  -1   6 761.838 68.5914   1
   0   1  -6 859.684 77.0538   1
   0  -1   6 794.854 67.1109  18
   0   1  -6 822.484 76.3279   3
   0  -1   6 818.708 73.3299  11
   0  -1   5 13318.5 235.020  11
   0   1  -5 13502.9 250.340   3
   0  -1   5 13358.3 238.514   8
   0  -1   5 13040.3 218.424  18
   0  -1   5 13491.0 227.190   1
   0  -1   4 3296.11 109.007   8
   0   1  -4 3545.64 113.702   1
   0   1  -4 3530.68 114.182   3
   0  -1   4 3390.22 104.468   1
   0  -1   4 3481.80 109.910  11
   0   1  -3 5225.05 119.019  10
   0   1  -3 5242.03 117.597   3
   0  -1   3 5054.73 106.717  18
   0   1  -3 5463.57 119.513   1
   0   1  -3 5016.21 120.683  10
   0  -1   3 5123.02 121.364  10
   0  -1   3 5170.57 111.680   1
   0  -1   3 5110.83 116.828   8
   0  -1   3 4913.99 114.167  10
   0   1  -3 4957.52 115.246   8
   0  -1   3 5039.51 114.308  11
   0  -1   2 59015.9 334.961  10
   0  -1   2 58322.5 325.445  11
   0   1  -2 58479.1 333.961  10
   0   1  -2 59137.4 321.244   1
   0  -1   2 58322.0 310.932   1
   0  -1   2 57604.1 319.417  10
   0  -1   2 58117.2 328.204   8
   0   1  -2 57355.3 318.119  10
   0   1  -2 59001.9 328.324   8
   0  -1   1 16207.4 128.931  18
   0   1  -1 16086.9 139.889  10
   0  -1   1 16208.0 138.449  10
   0   1  -1 16060.3 136.034  10
   0  -1   1 16016.4 136.757  10
   0  -1   0 1096.11 28.4858  18
   0  -1   0 1072.52 30.3019  10
   0  -1   0 1036.58 29.9084  10
   0   1   0 981.254 27.3574  10
   0   1   0 1074.17 29.5289  10
   0   1   1 7963.47 76.9329  17
   0  -1  -1 7996.31 76.2452  10
   0   1   1 8208.43 79.5748  13
   0   1   2 4239.75 70.1890  13
   0  -1  -2 4308.07 71.7199  10
   0   1   2 4409.77 68.7237   1
   0   1   2 4389.09 67.7022  18
   0  -1  -2 4429.51 74.7011   3
   0   1   2 4407.48 71.0028  10
   0   1   3 935.253 42.8057   1
   0  -1  -3 1073.40 50.2356  10
   0   1   3 843.143 43.0271  10
   0   1   3 1050.14 50.6848   8
   0  -1  -3 974.557 48.6462   3
   0  -1  -3 878.344 45.1950   1
   0   1   3 791.109 45.7271  10
   0   1   3 892.890 42.9488  13
   0  -1  -4 41927.9 342.759  10
   0   1   4 42151.7 321.481  13
   0   1   4 43026.6 326.078   8
   0  -1  -4 42990.0 321.380   1
   0   1   4 43412.7 324.713  10
   0   1   4 42464.7 294.427   1
   0  -1  -4 42667.5 343.270   3
   0   1   4 41024.9 319.313  11
   0  -1  -5 5335.80 132.927   1
   0   1   5 5157.79 122.165  18
   0   1   5 5190.43 132.525   8
   0   1   5 5179.37 121.389   1
   0   1   5 4983.99 129.912  11
   0  -1  -5 5219.32 141.930   3
   0   1   5 5113.75 131.983  13
   0   1   6 23630.7 315.137   8
   0   1   6 23391.7 322.661  13
   0  -1  -6 23788.0 310.001   1
   0   1   6 24651.4 316.892  11
   0   1   6 24716.5 291.479   1
   0  -1  -6 24611.6 342.993   3
   0  -1  -7 210.337 44.1087   3
   0   1   7 244.788 45.4890   1
   0   1   7 226.145 50.9391   8
   0   1   8 10592.4 260.592   8
   0   1   8 10661.1 259.763   4
   0  -1  -8 10616.4 271.428  26
   0   1   8 10704.2 234.927   1
   0   1   8 11071.8 247.823  32
   0  -1  -9 64.9491 51.1015  20
   0   1   9 148.616 60.6251  28
   0   1   9 109.402 56.4312   4
   0  -1  -9 95.4359 70.2906  24
   0  -1  -9 139.544 67.9109  26
   0   1   9 67.7999 55.5171   8
   0   1   9 176.696 51.5390  32
   0   1  10 11153.0 277.558   4
   0   1  10 11314.9 223.434  32
   0  -1 -10 11514.8 291.806  24
   0  -1 -10 10819.5 286.275  26
   0   1  11 522.725 42.6077  32
   0  -1 -11 673.437 94.7240  33
   0  -1 -11 581.374 81.0790  26
   0   1  11 590.650 64.8605  34
   0  -1 -11 516.383 78.3144  24
   0   1  11 816.181 82.7149  35
   0   1  11 596.477 76.3440   4
   0   1  12 6.52193 39.0189   4
   0  -1 -12 59.1338 50.3272  24
   0   1  12-28.7362 35.7584  35
   0  -1 -12 19.0122 53.2334  33
   0  -1 -12 24.0132 42.3099  32
   0  -1 -12-10.3608 49.8987  26
   0   2 -10 309.468 68.8358  33
   0   2 -10 330.708 69.6197   4
   0   2 -10 479.362 61.9440  32
   0   2 -10 338.591 69.3059  26
   0   2 -10 287.381 69.4804  27
   0   2 -10 362.751 70.2921  24
   0  -2  10 338.493 49.5384  32
   0  -2  10 272.457 53.1427   4
   0   2  -9 583.181 85.8399  24
   0   2  -9 632.316 88.1038  33
   0   2  -9 781.091 83.3028  32
   0   2  -9 590.966 92.5307  27
   0   2  -9 601.357 83.0966   4
   0   2  -9 687.727 90.1262  26
   0  -2   9 784.076 88.2051   4
   0   2  -8 12949.1 340.504  27
   0   2  -8 12580.2 337.373  33
   0   2  -8 13021.7 318.600  26
   0   2  -8 13133.2 327.878   4
   0  -2   8 13473.8 324.440   4
   0   2  -8 13050.2 329.932  24
   0  -2   8 13506.5 309.995  32
   0  -2   7 1919.34 128.471  25
   0  -2   7 2497.73 146.272   4
   0   2  -7 2255.46 139.926   4
   0   2  -7 1941.81 122.070   1
   0  -2   7 2184.33 131.652  11
   0   2  -7 2020.94 146.281  33
   0  -2   7 2466.10 149.399   4
   0   2  -7 2150.42 141.934  20
   0   2  -7 2154.01 148.800  27
   0  -2   7 2018.73 121.153   1
   0  -2   7 2251.19 135.670   8
   0   2  -7 2127.67 132.798  26
   0   2  -6 2504.95 127.147   1
   0   2  -6 2478.92 129.854   3
   0   2  -6 2530.58 143.995   4
   0  -2   6 2636.95 124.672  18
   0  -2   6 2623.59 127.257   1
   0  -2   6 2422.69 130.799   8
   0  -2   6 2557.35 129.996  11
   0   2  -6 2569.75 143.920  26
   0   2  -5 30021.7 401.435   3
   0  -2   5 30012.5 371.901   1
   0  -2   5 28794.1 377.418  11
   0  -2   5 29526.8 386.031   8
   0   2  -5 29780.1 387.508   1
   0  -2   5 28767.8 360.116  18
   0  -2   4 583.674 55.9382  18
   0   2  -4 562.404 60.9586   8
   0   2  -4 439.675 56.6083   1
   0  -2   4 533.592 51.5421   1
   0  -2   4 529.787 56.2924   8
   0  -2   4 470.003 56.2527  11
   0   2  -4 566.001 52.9489   3
   0  -2   3 3331.75 103.849   1
   0  -2   3 3185.85 110.215  10
   0   2  -3 3360.85 108.235   8
   0   2  -3 3571.05 105.293   3
   0  -2   3 3573.64 112.987   8
   0  -2   3 3482.64 109.911  11
   0   2  -3 3416.13 105.686   1
   0  -2   3 3201.63 100.337  18
   0  -2   2 109036. 541.317  10
   0  -2   2 109883. 538.376   8
   0   2  -2 110103. 529.580   8
   0   2  -2 113731. 494.280   3
   0  -2   2 111591. 512.490   1
   0  -2   2 108326. 493.737  18
   0  -2   2 110173. 516.585  11
   0   2  -2 108530. 534.836  10
   0  -2   2 109926. 557.600  10
   0   2  -2 112388. 507.670   1
   0   2  -1 43513.5 292.390   8
   0  -2   1 42957.3 267.875  18
   0  -2   1 43851.5 284.743   1
   0   2  -1 43040.8 276.601   1
   0   2  -1 43180.3 295.046  10
   0  -2   1 42989.0 300.197  10
   0  -2   1 43438.7 295.139  10
   0  -2   1 42538.2 296.389   8
   0  -2   1 42291.5 287.608  11
   0   2   0 204654. 553.455  10
   0   2   0 197860. 553.305   8
   0  -2   0 200688. 552.068  11
   0  -2   0 213499. 580.838  10
   0  -2   0 207643. 565.004  10
   0   2   0 217418. 551.350   1
   0   2   1 409.498 33.3325  17
   0   2   1 474.864 32.5629   8
   0   2   1 505.252 32.4750  10
   0  -2  -1 428.369 31.2197  10
   0  -2  -1 336.004 28.0693  10
   0  -2  -1 365.334 28.6443  18
   0   2   1 422.772 29.7504   1
   0   2   2 52215.9 259.008   1
   0   2   2 53794.0 279.524  17
   0   2   2 52420.0 280.096   8
   0  -2  -2 52553.1 282.972  10
   0   2   2 53816.3 277.676  10
   0  -2  -3 10028.8 143.953  10
   0   2   3 10325.8 145.446  13
   0  -2  -3 9898.03 139.358   1
   0   2   3 10141.8 139.981   8
   0   2   3 10415.1 128.710   1
   0   2   3 10294.0 142.222  10
   0  -2  -4 14876.3 194.776   1
   0   2   4 14539.1 189.346  11
   0   2   4 14488.1 186.456   8
   0   2   4 15323.0 193.222  10
   0   2   4 14690.2 194.616  13
   0   2   4 14837.9 173.976   1
   0   2   5 96243.5 543.886  11
   0   2   5 96772.9 564.780  13
   0  -2  -5 96158.9 555.758   1
   0  -2  -5 96502.9 569.829   3
   0   2   5 97326.5 496.514   1
   0   2   6 4510.89 134.582  11
   0   2   6 4366.18 134.485   8
   0   2   6 4197.06 136.030  13
   0   2   6 4530.35 123.431   1
   0  -2  -6 4630.15 148.248   3
   0   2   7 6870.79 185.303   8
   0   2   7 6805.08 165.984   1
   0  -2  -7 6974.61 201.312   3
   0   2   8 10965.3 231.918  32
   0  -2  -8 11120.6 274.450  26
   0   2   8 10451.3 222.974   1
   0   2   8 10872.1 176.997   6
   0   2   8 10116.0 248.071   8
   0   2   8 9929.83 246.995   4
   0   2   9 3468.33 162.631   8
   0   2   9 3794.76 170.062  35
   0   2   9 3358.27 152.536   4
   0   2   9 3523.00 133.418  32
   0  -2  -9 3544.40 166.918  26
   0   2  10 417.808 54.9772  32
   0  -2 -10 402.616 74.6362  26
   0   2  10 381.193 65.5645  34
   0   2  10 449.718 65.9938  35
   0   2  10 481.253 73.3196   4
   0   2  11 3994.00 126.344  34
   0  -2 -11 4030.81 170.452  26
   0   2  11 4271.40 171.890  35
   0   2  11 4102.55 163.625   4
   0   2  12 194.896 47.6407   4
   0  -2 -12 185.827 52.9229  26
   0  -2 -12 273.453 60.5966  32
   0   2  12 312.299 49.7890  35
   0   3 -10 415.320 48.4633  34
   0   3 -10 412.954 70.2731  27
   0   3 -10 515.794 66.9508  24
   0  -3  10 363.858 51.5028  34
   0   3 -10 551.219 66.6730  26
   0   3  -9 1436.50 109.489  24
   0  -3   9 1308.42 90.4243  32
   0   3  -9 1241.03 79.7691  32
   0   3  -9 1507.10 117.180  27
   0   3  -9 1172.98 99.7512  33
   0   3  -9 1476.48 106.747  26
   0   3  -9 1259.82 100.267   4
   0  -3   9 1391.65 105.264   4
   0   3  -8 1015.57 112.848  27
   0   3  -8 1197.15 106.379   4
   0  -3   8 1344.07 104.776  32
   0   3  -8 1255.99 110.610  26
   0   3  -8 1223.14 112.040  33
   0   3  -8 1107.60 105.690  24
   0   3  -8 1334.83 97.6125  32
   0   3  -7 7.09748 49.7817  32
   0   3  -7 99.4119 69.5294  24
   0   3  -7 2.05776 55.4807   4
   0   3  -7 99.5603 63.7055  33
   0  -3   7 119.479 56.8541  11
   0   3  -7 120.952 64.5165  26
   0  -3   7 32.3322 50.0685  25
   0   3  -7 123.574 70.0588  27
   0  -3   6 1903.18 120.717  25
   0  -3   6 2143.67 129.657  11
   0   3  -6 2401.11 141.614   4
   0   3  -6 2126.78 146.650  27
   0   3  -6 2492.20 154.115  33
   0  -3   6 2159.85 127.742   1
   0   3  -6 2102.60 130.024  32
   0   3  -6 1987.86 133.229  20
   0   3  -6 2066.43 122.024   1
   0   3  -6 2227.03 144.476  26
   0  -3   5 4251.71 162.258   1
   0  -3   5 5121.77 182.176   8
   0   3  -5 5262.94 191.120   4
   0   3  -5 4837.97 174.644   1
   0  -3   5 4907.93 174.181  11
   0   3  -5 5318.58 213.975  27
   0   3  -5 4971.08 192.783  20
   0  -3   5 4300.11 161.625  18
   0  -3   4 15890.0 274.984  18
   0   3  -4 15581.6 274.024   1
   0   3  -4 15401.5 285.701   8
   0  -3   4 16015.9 278.474   1
   0  -3   4 15557.5 278.241  11
   0  -3   4 16306.6 292.366   8
   0  -3   3 14792.1 247.952  11
   0  -3   3 14941.4 243.499  18
   0  -3   3 14502.4 242.170   1
   0   3  -3 14045.2 246.840   8
   0   3  -3 14925.0 240.254   1
   0  -3   3 15454.4 260.944   8
   0   3  -2 13195.6 218.400   8
   0  -3   2 13014.9 212.502   1
   0   3  -2 13420.0 208.927   1
   0  -3   2 13180.6 210.103  11
   0  -3   2 13128.1 220.403   8
   0  -3   2 13016.5 205.742  18
   0   3  -2 13916.0 193.109   3
   0  -3   1 27475.1 276.855  11
   0   3  -1 27052.7 278.369   8
   0  -3   1 27495.2 288.407  10
   0   3  -1 27019.8 267.799   1
   0  -3   1 26009.7 268.239   1
   0  -3   1 28106.3 290.749   8
   0  -3   1 26888.7 263.362  18
   0   3   0 12.8955 18.5607  20
   0   3   0-5.57832 27.4784   1
   0  -3   0-10.7476 29.2131  10
   0   3   0-16.3647 29.5412   8
   0   3   0 112.133 29.4143  10
   0   3   0-4.32434 26.4941   1
   0  -3   0-0.29217 25.2934  18
   0  -3   0 33.5281 31.9928  11
   0  -3   0 2.87949 25.4011   1
   0  -3   0 27.7466 30.6352   8
   0  -3   0 18.6199 26.8296  10
   0   3   1 49101.8 303.652   1
   0  -3  -1 45452.1 317.845  11
   0  -3  -1 45013.3 330.499   8
   0  -3  -1 46622.0 239.383   2
   0   3   1 46946.8 325.621  10
   0  -3  -1 46070.1 314.385   1
   0  -3  -1 47548.6 304.315  18
   0  -3  -1 46145.0 319.962  10
   0  -3  -1 46379.6 334.859  10
   0   3   1 45765.5 320.213   8
   0   3   1 47384.8 379.627  17
   0  -3  -2 41706.9 315.553  10
   0   3   2 41419.3 326.551  17
   0   3   2 41088.1 272.807   1
   0  -3  -2 41542.8 297.415  11
   0   3   3 49629.3 337.939   8
   0   3   3 50085.1 339.203  17
   0  -3  -3 50225.9 342.706  11
   0  -3  -4 268.357 42.3653  11
   0   3   4 218.928 34.9651   1
   0   3   4 242.304 40.0899   8
   0   3   4 227.154 36.4853  11
   0  -3  -4 157.960 33.5481  10
   0   3   5 2296.19 95.3376  13
   0   3   5 2450.27 87.8234   1
   0   3   6 36511.6 386.543   8
   0   3   6 38683.3 357.181   1
   0   3   7 4900.14 141.999   1
   0   3   7 4827.93 157.457   8
   0   3   8 494.524 85.4595  23
   0   3   8 358.160 61.0456  16
   0   3   8 324.996 51.4668  32
   0   3   8 264.555 66.5704  28
   0   3   8 323.354 63.4790   8
   0   3   8 270.908 50.4905   1
   0   3   8 254.329 53.3807  35
   0   3   8 299.150 58.0341   4
   0   3   8 303.314 43.6380   6
   0  -3  -8 236.539 73.9632  26
   0   3   8 339.484 67.4043  22
   0   3   9 18207.9 353.746   8
   0   3   9 17299.0 329.944   4
   0   3   9 18537.6 274.227  32
   0   3   9 18096.8 307.029  34
   0  -3  -9 18056.4 352.492  26
   0   3   9 18352.9 352.676  35
   0   3  10 3914.59 136.476  34
   0   3  10 3968.68 164.121   4
   0   3  10 4032.42 117.356  32
   0   3  10 4012.53 169.516  35
   0  -3 -10 3925.80 170.214  26
   0   3  11 3469.06 102.772  34
   0  -3 -11 3335.28 154.784  26
   0   3  11 3134.44 143.252  35
   0   3  11 3152.06 142.409   4
   0   3  12 2993.85 128.241   4
   0  -3 -12 3092.71 135.819  26
   0   3  12 2965.48 125.091  35
   0   4  -9 8085.91 125.271  34
   0   4  -9 7854.76 211.060  27
   0   4  -9 8250.42 207.490   4
   0   4  -8 2045.90 127.894  27
   0   4  -8 2084.64 127.148  26
   0   4  -8 2033.34 123.105   4
   0   4  -8 1759.05 82.7863  32
   0  -4   8 2068.63 114.388  32
   0   4  -8 2025.11 128.328  33
   0   4  -7 3454.56 177.300  19
   0   4  -7 4046.77 191.758  27
   0   4  -7 3997.10 175.981  24
   0   4  -7 3793.13 177.650  26
   0  -4   7 4127.90 178.717  32
   0   4  -7 3900.59 147.307  32
   0   4  -7 3712.83 171.997   4
   0   4  -7 3696.19 174.733  33
   0   4  -6 486.433 82.7849  26
   0   4  -6 458.061 72.2460  32
   0  -4   6 416.749 64.4095  25
   0   4  -6 299.342 74.5547  33
   0   4  -6 608.435 88.6817  24
   0   4  -6 245.361 73.7165  27
   0   4  -6 347.389 72.4545   4
   0  -4   6 333.029 76.4726  11
   0   4  -5 12729.7 304.824   4
   0   4  -5 14070.5 333.639  20
   0   4  -5 13111.6 344.132  27
   0   4  -5 12973.0 325.656  33
   0  -4   5 12848.8 307.889  11
   0  -4   5 12840.2 292.840  25
   0   4  -4 2710.69 141.347  20
   0   4  -4 2099.68 123.198  32
   0   4  -4 2699.53 132.712   1
   0  -4   4 2625.21 135.438  11
   0   4  -4 2413.57 134.268   8
   0   4  -4 2523.46 136.762   4
   0  -4   4 2592.76 135.367  25
   0   4  -4 2519.88 159.734  27
   0   4  -3 15376.2 290.801   8
   0   4  -3 14550.9 266.019   1
   0   4  -3 14937.9 295.420  20
   0  -4   3 14886.8 279.041  18
   0  -4   3 15096.9 287.441  11
   0   4  -2 2578.88 108.737  20
   0  -4   2 2560.34 110.372  18
   0  -4   2 2329.47 109.845  11
   0   4  -2 2647.05 109.822   1
   0   4  -2 2271.47 111.754   8
   0  -4   1 66.6242 35.1804  18
   0   4  -1 105.446 38.6993   1
   0   4  -1 103.256 38.6447   8
   0  -4   1 83.1065 38.5234   8
   0  -4   0 513.993 54.8100  11
   0   4   0 463.626 53.2082   8
   0  -4   0 502.088 50.0074  18
   0   4   0 476.117 57.5965  17
   0   4   0 552.720 50.4965   1
   0  -4   0 539.018 55.5598   8
   0  -4   0 598.343 54.7775  10
   0   4   1 23589.7 275.120   8
   0   4   1 22978.0 324.050  17
   0   4   1 24780.9 321.417  31
   0  -4  -1 24848.4 275.215  11
   0   4   1 24512.2 258.327   1
   0  -4  -2 9259.05 169.941  11
   0   4   2 9178.59 169.374   8
   0   4   2 9410.26 194.670  17
   0   4   2 9350.44 156.435   1
   0  -4  -3 9017.09 173.131  18
   0   4   3 9383.85 183.685  17
   0  -4  -3 9629.13 175.815  11
   0   4   3 9743.98 159.733   1
   0   4   3 9404.55 174.361   8
   0   4   4 6991.23 155.784   8
   0   4   4 7408.74 142.197   1
   0  -4  -4 7291.48 159.634  11
   0   4   5 21367.9 284.182   8
   0  -4  -5 21009.5 285.647  11
   0   4   5 21157.7 250.351   1
   0   4   6 14082.4 250.839   8
   0   4   6 13967.9 218.529   1
   0   4   6 14168.5 309.652  16
   0  -4  -6 14132.1 251.165  11
   0   4   7 10786.7 187.580   6
   0   4   7 10373.0 283.251  23
   0   4   7 10600.1 277.425  22
   0   4   7 10302.8 233.267   4
   0   4   7 10616.7 281.876  16
   0   4   7 10681.9 238.084   8
   0  -4  -7 9746.89 233.106  11
   0   4   7 10790.2 207.199   1
   0   4   8 711.210 63.8572   1
   0   4   8 759.438 87.5159  16
   0   4   8 737.288 78.7005   8
   0   4   8 694.527 91.1478  23
   0   4   8 737.237 58.8355   6
   0   4   8 671.687 88.0426  22
   0   4   8 553.585 64.0275   4
   0   4   8 713.012 60.6118  32
   0  -4  -8 693.321 76.6990  11
   0   4   8 775.901 74.5163  34
   0   4   8 658.911 71.8915  35
   0   4   9 2683.72 132.496   4
   0   4   9 2726.04 154.796  16
   0   4   9 2608.70 134.427  35
   0   4   9 2565.42 137.649   8
   0   4   9 2947.38 100.188  32
   0   4   9 2909.20 158.316  22
   0   4   9 2687.72 151.641  28
   0   4   9 2732.01 95.0531   6
   0  -4  -9 2519.33 141.115  11
   0   4   9 2859.77 117.978  34
   0   4   9 2882.57 162.615  23
   0   4  10 3513.06 115.205  34
   0   4  10 3376.22 150.761   4
   0   4  10 3203.25 148.755  35
   0   4  10 3664.13 174.503  23
   0   4  11 7077.34 205.356  35
   0   4  11 6749.25 202.549   4
   0   4  12 2401.66 110.670  35
   0   4  12 2867.33 120.973   4
   0   5  -8 1234.92 93.3592  27
   0   5  -8 1109.57 81.0359   4
   0   5  -7-3.85889 15.2123  32
   0   5  -7 35.9951 46.6465  26
   0   5  -7-29.7307 54.5995  19
   0   5  -7 25.1626 57.7217  27
   0   5  -7 6.19783 43.3601  35
   0   5  -7-1.62531 51.8719   4
   0  -5   7-11.7559 51.7584  32
   0   5  -6 806.639 99.4955  19
   0   5  -6 658.639 82.6234   4
   0   5  -6 701.286 65.0553  32
   0   5  -6 775.735 85.8687  35
   0   5  -6 615.458 88.6071  27
   0   5  -6 575.688 69.5533  34
   0  -5   5 1760.25 117.092  25
   0   5  -5 1807.59 125.842   4
   0   5  -5 1682.21 101.928  32
   0   5  -5 1794.72 141.873  19
   0   5  -5 1783.17 126.881  35
   0   5  -5 1597.63 120.766  26
   0  -5   4 15.6332 47.8014  25
   0   5  -4 68.5615 51.0339   4
   0   5  -4 10.3504 55.3628  31
   0   5  -4 33.1208 51.5066  35
   0   5  -4 59.5620 62.0536  19
   0   5  -4 36.2111 44.3800  32
   0   5  -4 31.0167 62.1749  27
   0   5  -4 29.7030 58.7925   8
   0  -5   4 33.9050 47.6757  11
   0  -5   3 725.697 85.7135  11
   0   5  -3 565.168 90.0074  27
   0   5  -3 608.975 87.4580  31
   0   5  -3 586.177 78.2061   4
   0   5  -3 482.545 72.8092   8
   0   5  -3 679.046 91.3907  19
   0   5  -3 637.560 79.1040  35
   0   5  -3 572.809 71.1921  32
   0  -5   3 656.961 78.2081  25
   0   5  -3 597.325 68.3685   1
   0   5  -2 3451.38 151.463   8
   0   5  -2 3478.30 152.808   4
   0   5  -2 3876.76 172.367  35
   0  -5   2 4097.13 159.731  11
   0   5  -2 4273.57 180.114  35
   0   5  -2 3258.12 167.715  19
   0   5  -2 3829.54 178.389  31
   0   5  -2 3878.14 148.834  32
   0   5  -2 3975.99 143.703   1
   0   5  -2 4172.84 115.953   6
   0  -5   2 4050.80 157.847  18
   0   5  -1 514.450 58.1849   1
   0  -5   1 717.388 68.6341  18
   0   5  -1 804.345 85.9523  19
   0  -5   1 670.432 69.3702  11
   0   5  -1 612.131 71.9603   8
   0   5  -1 678.736 79.9493  31
   0   5   0 468.287 65.7961  17
   0   5   0 389.552 52.0281   1
   0   5   0 265.899 53.7489  31
   0  -5   0 330.878 54.4595  11
   0   5   0 351.691 59.3543   8
   0  -5   0 371.437 51.1193  18
   0   5   1 17089.6 329.141  17
   0   5   1 17685.2 248.905   1
   0  -5  -1 17482.8 274.138  11
   0   5   1 17197.2 275.150   8
   0   5   1 17232.3 313.851  31
   0  -5  -2 4564.85 139.131  11
   0  -5  -2 4062.73 130.668  18
   0   5   2 4590.36 155.796  31
   0   5   2 4398.54 161.089  17
   0   5   2 4536.05 125.093   1
   0   5   2 4479.47 139.081   8
   0   5   3 125.923 46.8955   8
   0  -5  -3 83.8935 37.5475  18
   0   5   3 75.0678 31.6514  17
   0   5   3 54.0572 38.3439  31
   0   5   3 90.1266 31.9016   1
   0  -5  -3 45.9759 35.5373  11
   0  -5  -4 786.186 70.8054  11
   0   5   4 1004.02 62.9794   1
   0   5   4 980.926 74.5259   8
   0  -5  -4 876.379 67.2670  18
   0   5   5 796.364 59.4968   1
   0   5   5 658.752 65.8558   8
   0  -5  -5 667.865 68.9268  11
   0   5   5 735.975 83.6507  16
   0   5   6 5918.29 220.782  23
   0   5   6 5988.06 175.595   8
   0   5   6 6393.79 148.577   6
   0  -5  -6 6182.45 182.669  11
   0   5   6 6167.39 152.048   1
   0   5   6 6059.78 215.035  16
   0   5   6 5552.59 171.969   4
   0   5   6 6115.66 209.722  22
   0   5   7 1952.69 110.193   4
   0  -5  -7 2097.26 117.472  11
   0   5   7 2316.02 121.437   8
   0   5   7 2091.38 93.8434   1
   0   5   7 2074.84 133.731  22
   0   5   7 1992.53 87.6928   6
   0   5   7 2011.53 101.081  34
   0   5   7 2206.29 142.561  23
   0   5   7 1951.78 131.654  16
   0   5   7 2080.18 113.712  35
   0   5   8 3668.61 102.595  32
   0   5   8 3902.84 165.174   8
   0   5   8 3747.33 185.788  23
   0   5   8 3846.93 127.556   1
   0  -5  -8 3543.29 159.628  11
   0   5   8 3687.15 149.259   4
   0   5   8 3926.17 117.536   6
   0   5   8 3684.38 174.818  22
   0   5   8 3877.59 155.296  35
   0   5   8 3690.53 183.191  16
   0   5   8 3776.28 125.775  34
   0   5   9 2134.65 140.441  22
   0   5   9 1797.09 109.641   4
   0   5   9 1885.36 113.149  35
   0  -5  -9 1863.69 127.914  11
   0   5   9 2109.45 84.6871   6
   0   5   9 2093.33 144.435  16
   0   5   9 2079.99 143.645  23
   0   5  10 15460.8 346.106  22
   0   5  10 15703.7 304.303  35
   0   5  10 15186.0 299.931   4
   0   5  10 15790.7 358.348  23
   0   5  11 5044.64 166.956  35
   0   5  11 4733.04 183.215  23
   0  -5 -12 256.048 58.2064  21
   0   5  12 225.341 38.6330  35
   0   5  12 244.641 47.4600   4
   0  -6   7 278.174 50.5473  32
   0   6  -6 645.712 71.6758  35
   0  -6   6 879.334 81.1800  32
   0  -6   6 899.087 85.9563  32
   0   6  -6 623.030 77.4229  19
   0   6  -6 707.715 73.6195   4
   0   6  -5 202.008 58.6725   4
   0  -6   5 126.781 56.6213  14
   0   6  -5 273.215 69.1419  19
   0   6  -5 280.636 59.7913  35
   0   6  -5 215.379 47.5906  34
   0   6  -4 11322.8 279.167   4
   0   6  -4 11674.5 194.450  32
   0   6  -4 11797.1 295.151  35
   0   6  -4 11081.5 318.894  19
   0  -6   4 10863.1 273.421  25
   0  -6   3 3823.93 177.536  11
   0   6  -3 3311.87 158.581   4
   0  -6   3 3833.56 167.412  25
   0   6  -3 3540.43 185.448  31
   0   6  -3 3505.09 126.141  32
   0   6  -3 3852.41 174.937  35
   0   6  -3 3619.45 188.098  19
   0   6  -2 3997.68 177.367  35
   0   6  -2 3363.92 165.102   8
   0  -6   2 3760.37 170.448  11
   0   6  -2 3425.75 153.949   4
   0   6  -2 3321.95 185.929  31
   0   6  -2 3764.36 186.073  19
   0   6  -2 3473.02 127.090  32
   0  -6   2 3758.07 163.164  25
   0   6  -1 3031.43 160.764  19
   0   6  -1 2663.04 136.591   4
   0   6  -1 2905.26 148.525  35
   0   6  -1 2668.71 139.772   8
   0   6  -1 3273.80 123.958  32
   0   6  -1 2978.16 100.651   6
   0   6  -1 2268.97 127.273  34
   0   6  -1 2702.50 157.967  31
   0   6  -1 2609.34 140.487  35
   0   6  -1 2788.51 121.684   1
   0  -6   1 2543.40 135.934  25
   0  -6   1 2742.61 140.707  11
   0   6   0 9414.19 270.138  31
   0   6   0 8788.44 169.540   6
   0   6   0 8314.45 225.372   4
   0   6   0 9047.70 248.718  35
   0  -6   0 8713.42 231.748  11
   0   6   0 8798.62 237.927   8
   0   6   0 8986.87 194.834  32
   0   6   0 9015.23 202.310   1
   0   6   0 9388.24 269.545  19
   0   6   1 27452.8 336.309   1
   0  -6  -1 27101.0 394.478  11
   0   6   1 28136.2 420.355  35
   0   6   1 27793.4 296.543   6
   0  -6  -1 26299.1 383.520  18
   0   6   1 25893.7 383.738   4
   0   6   1 27135.0 395.759   8
   0   6   1 29052.1 334.697  32
   0   6   1 26784.3 431.329  19
   0   6   1 27231.1 440.382  31
   0   6   2 14071.1 310.183  31
   0   6   2 14539.0 239.050   1
   0  -6  -2 14299.5 278.457  18
   0   6   2 14177.2 213.904   6
   0   6   2 13800.5 273.972   4
   0   6   2 14736.0 282.804   8
   0   6   2 14665.3 291.007  35
   0  -6  -2 13615.0 273.232  11
   0   6   3 1894.89 88.0944   1
   0   6   3 2090.86 113.029  35
   0  -6  -3 1846.17 103.652  18
   0  -6  -3 1662.40 103.873  11
   0   6   3 1810.53 82.2501   6
   0   6   3 1704.70 100.018   4
   0   6   3 1867.30 105.957   8
   0   6   3 1999.12 90.0159   1
   0   6   4 7531.23 167.935   1
   0   6   4 6932.64 218.412  22
   0   6   4 7523.88 205.258  35
   0  -6  -4 7503.22 203.341  11
   0   6   4 7134.31 197.911   8
   0   6   4 7696.35 156.938  32
   0   6   4 6927.92 193.217   4
   0   6   4 7197.83 157.648   6
   0  -6  -4 6298.48 191.979  18
   0  -6  -5 9323.84 232.205  11
   0   6   5 9862.29 234.314  35
   0   6   5 8925.41 177.319   6
   0   6   5 8551.91 246.641  22
   0   6   5 9339.99 271.696  23
   0   6   5 9112.10 227.720   8
   0   6   5 9472.41 164.557  32
   0   6   5 8835.94 184.918  34
   0   6   5 9407.37 268.479  12
   0   6   5 9273.41 264.427  16
   0   6   5 9278.67 186.242   1
   0   6   5 8831.51 219.009   4
   0   6   6 16662.1 351.284  22
   0   6   6 16569.5 306.212  35
   0  -6  -6 17112.8 322.091  11
   0   6   6 16661.7 238.779   6
   0   6   6 16389.0 241.442  34
   0   6   6 16219.8 242.567   1
   0   6   6 15455.1 296.378   4
   0   6   6 16416.0 366.447  23
   0   6   6 14992.7 188.372  32
   0   6   6 17180.7 318.482   8
   0   6   6 17082.4 367.743  16
   0   6   7 6177.31 201.401   8
   0   6   7 6190.06 189.912   4
   0   6   7 6197.13 190.194  35
   0   6   7 6087.02 218.007  22
   0   6   7 5899.00 229.554  23
   0   6   7 5989.07 145.127   6
   0   6   7 6069.27 141.077  34
   0   6   7 6404.06 236.611  16
   0  -6  -7 5966.02 203.114  11
   0   6   7 5851.93 145.968   1
   0   6   8 8.66853 35.1977  35
   0   6   8 49.8249 32.2458  34
   0   6   8 29.0721 41.8641   4
   0   6   8 105.149 38.2079   6
   0   6   8 59.2528 58.6160  23
   0  -6  -8-11.6623 49.9628  11
   0   6   8 72.6875 44.7059   8
   0   6   8 159.190 64.2833  22
   0   6   8-25.6259 59.2025  16
   0   6   9 13771.6 331.286  22
   0   6   9 14238.1 352.826  23
   0   6   9 13758.9 195.533   6
   0   6   9 14795.2 290.706  35
   0   6   9 14911.1 295.836   4
   0   6  10 978.201 81.8167   4
   0   6  10 1014.47 95.9475  22
   0   6  10 770.859 97.3935  23
   0   6  10 891.344 76.1557  35
   0   6  11 9440.31 244.956  22
   0   6  11 9745.63 260.286  23
   0   6  11 9886.85 210.327  35
   0   6  12 856.899 53.3633  35
   0   6  12 708.248 64.4217   7
   0   6  12 812.222 58.4372   4
   0   7  -5 1284.19 82.3217  35
   0  -7   5 1420.60 92.5437  32
   0  -7   5 1492.39 98.9558  32
   0   7  -4 490.425 71.8909  19
   0   7  -4 300.905 50.2610  35
   0   7  -4 438.420 67.4073   4
   0  -7   4 344.370 66.4320  14
   0   7  -3 3043.92 81.2397  34
   0   7  -3 3587.68 177.533  19
   0   7  -3 3315.30 151.592   4
   0   7  -3 3544.13 155.768  35
   0  -7   2 14.2595 52.0587  25
   0   7  -2 93.1763 55.5523   4
   0   7  -2 78.1215 47.9185  35
   0   7  -2 20.4396 51.1806  19
   0   7  -2 22.5882 42.1743  34
   0   7  -1 5401.05 191.316   4
   0  -7   1 6000.90 205.136  25
   0   7  -1 6024.71 230.057  19
   0   7  -1 6063.29 234.842  12
   0   7  -1 5618.24 199.193  35
   0   7  -1 5957.38 236.280  31
   0   7  -1 5743.14 151.096  34
   0   7   0 3293.26 169.003  19
   0   7   0 3440.58 155.766  35
   0   7   0 3143.09 158.134   8
   0  -7   0 3385.16 157.839  25
   0   7   0 3258.11 180.350  31
   0   7   0 3162.81 119.611  34
   0   7   0 3588.09 161.141  35
   0  -7   0 3441.04 165.237  11
   0   7   0 3066.66 146.432   4
   0   7   0 3561.77 106.197   6
   0   7   1 518.489 80.2297  31
   0   7   1 335.396 63.1760  35
   0  -7  -1 489.573 77.6426  25
   0   7   1 404.086 63.9071   4
   0  -7  -1 341.104 60.8625  11
   0   7   1 351.152 53.5340  34
   0   7   1 338.403 64.1183   8
   0   7   1 430.506 51.5655   6
   0   7   1 377.929 35.5000  32
   0   7   2 4174.75 166.985  35
   0   7   2 4019.78 160.285   4
   0   7   2 4160.98 128.870  34
   0  -7  -2 3976.13 172.160  25
   0   7   2 3960.20 165.049   8
   0   7   2 3987.62 119.056   6
   0  -7  -2 4145.73 171.952  11
   0   7   2 4189.82 184.304  31
   0   7   3 3002.81 139.172  35
   0   7   3 2771.64 104.226   1
   0  -7  -3 3057.47 149.491  25
   0   7   3 3190.89 157.472  31
   0  -7  -3 3255.08 153.120  11
   0   7   3 2918.69 102.895   6
   0   7   3 3089.35 140.839   4
   0   7   3 2771.03 139.644   8
   0   7   3 3152.12 108.770  34
   0   7   4 8850.34 239.875   8
   0   7   4 8500.05 221.447   4
   0   7   4 8086.42 165.099   1
   0   7   4 8867.17 247.913  22
   0   7   4 8741.32 166.439  34
   0  -7  -4 8671.72 243.808  11
   0   7   4 8415.15 170.546   6
   0  -7  -4 8561.59 246.667  25
   0   7   4 9296.89 236.686  35
   0   7   5 111.647 37.1404   6
   0   7   5 70.0306 33.9531  34
   0   7   5 65.4082 47.5440  22
   0   7   5-12.2050 45.3088   4
   0  -7  -5 3.62529 49.0428  11
   0   7   5 90.5058 58.5723  12
   0   7   5 36.2550 35.9222  35
   0   7   5 33.5649 43.9249   8
   0   7   6 5010.81 190.165   8
   0   7   6 5132.94 135.687   6
   0   7   6 4995.87 172.608  35
   0  -7  -6 4715.18 186.843  11
   0   7   6 5121.08 209.050  16
   0   7   6 5100.97 175.208   4
   0   7   6 5247.82 215.598  23
   0   7   6 5076.70 201.593  22
   0   7   7 104.012 62.5164  22
   0   7   7 101.108 48.1640   4
   0   7   7 97.5490 68.9171  23
   0   7   7 132.033 40.0118   6
   0   7   7 2.24452 55.1808  16
   0   7   7 113.167 43.3714  35
   0   7   8 770.233 96.2572  22
   0   7   8 963.253 60.5181   6
   0   7   8 943.571 82.1232   4
   0   7   8 904.474 79.9517  35
   0   7   8 864.474 102.734  23
   0   7   9 4029.40 145.788  35
   0   7   9 4098.78 180.216  22
   0   7   9 3928.34 188.150  23
   0   7   9 4292.33 155.030   4
   0   7  10 16152.2 273.522   4
   0   7  10 15629.9 261.157  35
   0   7  10 16022.6 306.162   7
   0   7  10 15058.7 322.331  22
   0   7  10 15069.1 334.926  23
   0   7  11 3671.11 115.487   4
   0   7  11 4085.99 157.939  22
   0   7  11 3942.87 160.257  23
   0   7  11 3705.08 136.136   7
   0   7  11 3931.21 110.863  35
   0  -8   3 450.280 68.9654  14
   0   8  -3 312.375 50.7493   4
   0   8  -3 478.353 52.2124  35
   0   8  -2 3327.18 134.563   4
   0   8  -2 3086.23 151.072  19
   0  -8   2 3061.22 146.599  14
   0   8  -2 2943.13 126.385  35
   0   8  -1 8101.18 215.477  35
   0   8  -1 8891.13 257.546  19
   0   8  -1 8480.98 248.521  12
   0   8  -1 8215.86 220.466   4
   0   8   0 1106.93 88.6628  35
   0  -8   0 1292.24 101.176  25
   0   8   0 1016.94 105.027  12
   0   8   0 991.972 86.0366   4
   0   8   1 5069.58 176.137  35
   0   8   1 5308.65 181.222  35
   0   8   1 4953.16 177.130   4
   0   8   1 5256.60 216.299  12
   0  -8  -1 5143.33 188.848  25
   0   8   2 8310.10 226.970  35
   0   8   2 8789.76 284.922  12
   0   8   2 8660.38 275.380  31
   0  -8  -2 8484.13 245.123  25
   0   8   2 9211.38 237.185   4
   0   8   2 8992.52 159.745   6
   0  -8  -3 7601.16 230.958  25
   0   8   3 7993.79 222.039  35
   0   8   3 7372.57 211.409   4
   0   8   3 7437.73 263.079  12
   0   8   3 7989.93 155.519   6
   0   8   4 5639.99 133.010   6
   0   8   4 6101.27 190.912   4
   0   8   4 5786.18 185.735  35
   0  -8  -4 6019.77 210.452  25
   0   8   4 5677.47 229.442  12
   0   8   5 3483.33 160.096  22
   0   8   5 3627.01 107.290   6
   0   8   5 3680.13 148.728   4
   0   8   5 3682.83 179.174  12
   0  -8  -5 3409.98 159.277  25
   0   8   5 3432.54 143.336  35
   0   8   6 3376.64 166.492  12
   0  -8  -6 2974.70 150.963  25
   0   8   6 3148.70 98.7240   6
   0   8   6 3094.65 153.138  22
   0   8   6 3193.46 135.362  35
   0   8   6 3111.47 147.754   7
   0   8   6 2923.32 132.525   4
   0   8   7 166.809 62.3195  23
   0   8   7 289.635 66.6810  22
   0   8   7 112.664 46.4780   7
   0   8   7 181.570 45.3252  35
   0   8   7 194.708 46.3998   4
   0   8   8 454.917 80.2252  23
   0   8   8 390.436 54.4048   4
   0   8   8 428.940 62.4984   7
   0   8   8 472.215 54.8476  35
   0   8   8 470.686 73.3541  22
   0   8   9 425.569 48.7879  35
   0   8   9 565.697 59.7068   4
   0   8   9 479.202 71.4786  22
   0   8   9 554.912 63.9531   7
   0   8   9 412.775 78.8364  23
   0   8  10 1566.64 63.8296  35
   0   8  10 1531.89 87.8559   7
   0   8  10 1751.99 106.763  22
   0   8  10 1618.56 111.830  23
   0   9  -1 938.383 59.3158   4
   0   9  -1 973.431 55.2817  35
   0  -9   1 1109.58 84.4825  14
   0   9   0 2711.22 105.450   4
   0  -9   0 2911.33 132.589  14
   0   9   0 2745.38 102.192  35
   0   9   0 2613.88 125.195   7
   0   9   1 15.9304 50.8180  12
   0   9   1 4.59307 40.3143   4
   0   9   1 35.3782 43.0711   7
   0   9   1-4.41177 33.5337  35
   0   9   2 4016.98 178.614  12
   0  -9  -2 4406.24 161.349  25
   0   9   2 4327.29 165.646   7
   0   9   2 4085.54 137.357  35
   0   9   2 4433.69 147.146   4
   0   9   3 385.907 51.5781  35
   0   9   3 377.742 47.3790  35
   0   9   3 448.121 56.0318   4
   0  -9  -3 382.500 62.7685  25
   0   9   3 424.608 75.9408  12
   0   9   3 359.214 60.2724   7
   0   9   4 148.752 39.7967  35
   0   9   4 237.847 70.6290  12
   0   9   4 172.065 44.7227   4
   0   9   4 138.251 39.6275  35
   0  -9  -4 189.323 56.0379  25
   0   9   4 112.437 45.2256   7
   0   9   5 2566.33 128.202   7
   0   9   5 2753.73 111.930  35
   0   9   5 2644.53 146.470  12
   0  -9  -5 2605.60 133.419  25
   0   9   5 2953.54 119.510   4
   0   9   6 691.979 62.5891   4
   0   9   6 682.326 58.7090  35
   0   9   6 561.565 71.3458  22
   0  -9  -6 586.509 76.9484  25
   0   9   6 513.903 63.2187   7
   0   9   6 549.360 76.6107  12
   0   9   7 415.947 55.9163   7
   0  -9  -7 279.680 59.3486  25
   0   9   7 334.762 41.3256  35
   0   9   7 334.760 46.3113   4
   0   9   7 416.604 67.9826  22
   0   9   8 11332.7 252.808  22
   0   9   8 11880.4 227.358   7
   0  -9  -8 12046.9 255.761  25
   0   9   9 4824.52 159.598  22
   0  -9  -9 4603.98 153.250  25
   0   9   9 4507.23 126.154   7
   0  10   3 805.588 75.6416  12
   0  10   4 291.674 44.9453   7
   0  10   4 422.131 63.4334  12
   0  10   5 26.1448 27.8966   7
   0  10   5 41.9859 45.3429  12
  -1   9   8 780.145 76.1744  22
  -1   9   7 1243.96 54.3159   6
  -1   9   7 1403.15 58.6911   7
  -1   9   6 403.469 41.4585   6
  -1   9   6 386.250 41.9341   7
  -1   9   6 359.923 64.6454  22
  -1   9   6 223.402 57.8630  12
  -1   9   5 376.010 43.4558   7
  -1   9   5 198.716 56.1558  22
  -1   9   5 363.490 67.3251  12
  -1   9   5 382.101 43.1567   6
  -1   9   4 7.53304 32.8572   6
  -1   9   4 64.8755 32.7905   7
  -1   9   4-19.2164 51.9455  12
  -1   9   3 711.487 84.5638  12
  -1   9   3 621.428 56.9436   7
  -1   9   2 1655.81 118.056  12
  -1   9   2 1629.56 85.2165   7
  -1   9   1 1846.96 86.5627   7
  -1   9   1 1733.37 111.392  12
  -1   9   0 2759.66 97.5505   7
  -1   9   0 2668.77 126.322  12
  -1   9  -1 10652.8 163.125   7
  -1   8  10 239.408 59.5658  23
  -1   8  10 232.004 54.1219  22
  -1   8  10 183.815 19.4398   7
  -1   8   9 129.731 31.9231   6
  -1   8   9 148.319 53.0767  22
  -1   8   9 244.731 62.7643  23
  -1   8   9 134.876 30.2139   7
  -1   8   8 4634.59 134.653   7
  -1   8   8 4604.00 183.983  22
  -1   8   8 4884.45 118.716   6
  -1   8   7 17427.0 275.866   7
  -1   8   7 16653.0 347.993  22
  -1   8   7 17286.9 356.846  23
  -1   8   7 16876.1 231.339   6
  -1   8   6 27410.2 358.508   7
  -1   8   6 26103.1 247.781  35
   1  -8  -6 26721.6 431.438  25
  -1   8   6 26506.6 439.528  22
  -1   8   6 27379.5 302.936   6
  -1   8   5 1183.13 73.0286   6
  -1   8   5 1202.11 62.9156  35
  -1   8   5 1254.34 102.790  22
  -1   8   5 1130.37 80.6438   7
  -1   8   5 1083.36 107.649  12
  -1   8   4 220.976 47.4012   6
  -1   8   4 209.493 36.9571  35
  -1   8   4 274.738 48.0961   7
  -1   8   4 201.309 56.3554  22
  -1   8   4 275.999 68.8566  12
  -1   8   4 214.913 37.4066  35
  -1   8   4 138.362 39.0680   4
  -1   8   3 5807.43 146.625  35
  -1   8   3 5807.86 145.676  35
  -1   8   3 5759.69 179.622   7
  -1   8   3 6209.53 150.406   6
  -1   8   3 6185.33 237.180  12
  -1   8   3 6365.14 161.759   4
  -1   8   2 1898.75 89.2973  35
  -1   8   2 2068.98 96.8262   4
  -1   8   2 1842.07 106.994   7
  -1   8   2 1773.37 132.346  12
  -1   8   2 2131.04 92.8132   6
  -1   8   1 412.255 76.4922  12
  -1   8   1 404.133 50.8214  35
  -1   8   1 353.969 48.6535   6
  -1   8   1 438.798 69.6287  19
  -1   8   1 416.778 57.1140   7
  -1   8   1 535.960 59.0231   4
  -1   8   0 1058.32 103.386  12
  -1   8   0 890.372 79.6518   7
  -1   8   0 1118.03 102.689  19
  -1   8   0 1037.22 62.9129   6
  -1   8   0 923.336 71.7153   4
  -1   8   0 881.028 65.5481  35
  -1   8  -1 2312.35 92.9185  35
  -1   8  -1 2185.07 133.997  19
  -1   8  -1 2015.08 111.187   7
  -1   8  -1 2287.29 99.0552   4
  -1   8  -2 2138.40 108.573   7
  -1   8  -2 2228.15 81.2913  35
  -1   8  -2 2320.69 130.785  19
  -1   8  -3 9732.50 199.292   7
  -1   8  -3 2108.94 48.7379  35
  -1   7  11 4174.49 98.4724   7
  -1   7  11 4341.08 160.541  23
  -1   7  10 1280.75 98.4820  22
  -1   7  10 1185.54 71.6281   7
  -1   7  10 1079.60 99.5158  23
  -1   7   9 4291.32 192.829  23
  -1   7   9 4255.36 180.464  22
  -1   7   9 3954.45 92.0585  35
  -1   7   9 4315.72 142.330   7
  -1   7   9 4092.86 115.194   6
  -1   7   8 16951.8 360.572  22
  -1   7   8 16687.6 228.672  35
  -1   7   8 16567.0 237.830   6
  -1   7   8 16379.6 284.486   7
  -1   7   7 10906.0 237.754   7
  -1   7   7 10423.5 288.036  22
  -1   7   7 10865.6 200.268  35
  -1   7   7 10944.1 304.780  23
  -1   7   7 11219.3 202.370   6
   1  -7  -6 300.066 62.7653  11
  -1   7   6 322.692 51.0496   7
  -1   7   6 436.210 79.7436  23
  -1   7   6 293.846 50.7093   6
  -1   7   6 394.860 51.7594   4
  -1   7   6 329.470 66.2428  12
  -1   7   6 384.450 49.2512  35
  -1   7   6 315.429 67.8808  22
  -1   7   5 6289.99 157.161   6
   1  -7  -5 5725.97 197.891  11
  -1   7   5 6202.63 186.042   7
  -1   7   5 6135.96 216.231  22
  -1   7   5 6706.36 174.451   4
  -1   7   5 6019.79 188.886   8
  -1   7   5 6203.61 230.765  12
  -1   7   5 6062.14 160.730  35
  -1   7   4 854.933 98.4595  12
   1  -7  -4 1033.20 89.9244  11
  -1   7   4 771.958 63.2206   6
  -1   7   4 892.116 77.5054   7
  -1   7   4 1012.70 93.4086  22
  -1   7   4 869.189 72.0847   4
  -1   7   4 975.302 70.5531  35
  -1   7   4 844.228 77.3571   8
  -1   7   3 2857.97 133.818   8
  -1   7   3 3135.75 151.914  22
  -1   7   3 2962.86 165.266  12
  -1   7   3 2960.22 122.291   4
  -1   7   3 2899.54 117.515  35
  -1   7   3 2968.75 153.144  31
  -1   7   3 2859.96 130.980   7
  -1   7   3 2915.88 109.529   6
  -1   7   2 1088.39 86.3432   8
  -1   7   2 1037.78 101.467  19
  -1   7   2 1208.59 84.6153   4
  -1   7   2 1024.89 107.078  12
  -1   7   2 1117.54 73.5415   6
  -1   7   2 1036.64 83.0085   7
  -1   7   2 946.178 73.1692  35
  -1   7   2 1146.67 80.1133  35
  -1   7   2 1237.61 108.534  31
   1  -7  -2 952.522 87.7003  11
  -1   7   1 3426.26 152.338   7
  -1   7   1 3611.97 119.296   6
  -1   7   1 3204.71 145.386   8
   1  -7  -1 3226.15 152.209  11
  -1   7   1 3493.16 183.070  12
  -1   7   1 3595.82 182.679  31
  -1   7   1 3527.63 135.068  35
  -1   7   1 3437.11 138.853   4
  -1   7   1 3562.98 135.677  35
  -1   7   1 3599.89 170.193  19
   1  -7   0 1372.45 103.689  11
  -1   7   0 1293.37 75.2503   6
  -1   7   0 1271.64 87.5010  35
  -1   7   0 1307.58 92.5294   4
  -1   7   0 1379.91 118.531  12
  -1   7   0 1492.42 122.488  19
  -1   7   0 1271.75 119.037  31
  -1   7   0 1562.86 109.411   7
  -1   7  -1 15600.6 291.185   4
  -1   7  -1 14957.3 321.493   7
  -1   7  -1 15374.4 230.996   6
  -1   7  -1 14844.6 281.219  35
  -1   7  -1 14878.3 370.388  31
  -1   7  -1 14732.6 352.568  19
  -1   7  -1 15208.3 355.209  12
  -1   7  -2 2885.25 125.928  35
  -1   7  -2 3060.02 149.562   7
  -1   7  -2 2865.83 161.644  19
  -1   7  -2 2660.27 95.0007   6
  -1   7  -2 2993.67 130.700   4
  -1   7  -3 1313.79 114.735  19
  -1   7  -3 1303.33 85.5208  35
  -1   7  -3 1176.64 96.5274   7
  -1   7  -3 1303.14 90.9836   4
  -1   7  -4 292.630 55.7301   7
  -1   7  -4 288.779 65.8076  19
  -1   7  -4 400.953 48.7564  35
  -1   7  -4 403.336 56.6288   4
  -1   7  -5-12.2379 26.2414  35
  -1   7  -5-14.6518 31.8768   4
  -1   7  -5-1.89892 35.2435   7
  -1   6  11 26.4952 48.5981  23
  -1   6  11 18.3164 30.4642   7
  -1   6  10 2244.92 141.126  23
  -1   6  10 2351.62 85.2699   6
  -1   6  10 2240.91 84.4994  35
  -1   6  10 2275.17 107.694   7
  -1   6   9 252.409 46.4773   4
  -1   6   9 282.097 70.8123  23
  -1   6   9 232.899 63.0826  22
  -1   6   9 192.106 38.1181  35
  -1   6   9 186.938 44.5799   7
  -1   6   9 195.797 49.4560   6
  -1   6   8 370.438 51.5283   4
  -1   6   8 525.957 63.9912   6
  -1   6   8 429.259 58.8339   7
  -1   6   8 426.528 87.3321  23
  -1   6   8 453.241 72.8069  22
  -1   6   8 370.555 49.2721  35
  -1   6   7 82.6617 45.0804   8
  -1   6   7 77.3216 35.2510   4
  -1   6   7 38.1248 59.4894  23
   1  -6  -7 80.0942 49.6378  11
  -1   6   7 78.9977 32.4479  35
  -1   6   7 117.691 40.9438   7
  -1   6   7 149.484 61.1395  22
  -1   6   7 45.1829 50.7185   6
  -1   6   6 2943.25 127.043   7
   1  -6  -6 2947.76 137.514  11
  -1   6   6 2976.89 129.312   8
  -1   6   6 2883.04 110.950   6
  -1   6   6 2720.42 109.823  35
  -1   6   6 3233.83 168.982  23
  -1   6   6 2848.95 152.328  22
  -1   6   6 3144.75 122.246   4
  -1   6   5 4204.84 149.173   7
  -1   6   5 3706.50 166.775  22
  -1   6   5 4181.58 133.029  35
   1  -6  -5 4190.88 152.338  11
  -1   6   5 3905.62 181.255  23
  -1   6   5 4091.71 147.228   8
  -1   6   5 3827.02 132.579   4
  -1   6   5 3716.77 171.322  12
  -1   6   4 24809.0 355.237   7
   1  -6  -4 25643.6 360.549  11
  -1   6   4 25902.1 351.805   8
  -1   6   4 24821.6 327.003   4
  -1   6   4 23948.3 405.958  22
  -1   6   4 23300.0 425.148  12
  -1   6   4 24716.5 318.920  35
  -1   6   4 23087.9 361.277  31
   1  -6  -3 11885.3 241.798  11
  -1   6   3 11252.8 267.152  31
  -1   6   3 12170.2 239.601   8
  -1   6   3 11653.7 228.016   4
  -1   6   3 11315.5 222.040  35
  -1   6   3 11225.4 275.618  22
  -1   6   3 11119.6 300.673  12
  -1   6   3 11326.7 242.008   7
   1  -6  -2 12500.0 253.614  11
  -1   6   2 12243.1 244.426   8
  -1   6   2 12213.2 237.913   4
  -1   6   2 12659.6 239.188  35
  -1   6   2 12131.1 290.206  31
  -1   6   2 12984.9 287.793  22
  -1   6   2 11807.2 281.635  19
  -1   6   2 11836.7 309.627  12
  -1   6   2 12085.2 256.154   7
  -1   6   1 14755.7 268.992   4
  -1   6   1 15812.4 284.773   8
  -1   6   1 14967.5 226.917   6
  -1   6   1 15216.0 298.673   7
  -1   6   1 15061.1 338.008  31
  -1   6   1 14902.5 335.182  19
  -1   6   1 15375.8 274.286  35
  -1   6   1 15448.6 356.859  12
   1  -6  -1 15687.6 291.768  11
   1  -6   0 220.724 51.2307  11
  -1   6   0 351.720 56.2959   8
  -1   6   0 484.412 80.0763  12
  -1   6   0 312.095 56.8448   7
  -1   6   0 371.136 50.0266   6
  -1   6   0 381.477 56.3343  35
  -1   6   0 292.883 53.0757   4
  -1   6   0 401.844 57.6715  35
  -1   6   0 413.145 72.5280  19
  -1   6   0 333.955 71.3770  31
  -1   6  -1 10242.1 240.995   4
  -1   6  -1 10557.3 195.627   6
  -1   6  -1 10717.5 308.596  31
  -1   6  -1 11386.5 265.041   8
  -1   6  -1 11796.3 285.145   7
   1  -6   1 11418.3 270.428  11
  -1   6  -1 10784.5 299.990  12
  -1   6  -1 10998.5 307.484  19
  -1   6  -1 11107.6 248.262  35
  -1   6  -2 5822.50 146.091   6
  -1   6  -2 5369.87 195.425   8
  -1   6  -2 5618.53 228.648  31
  -1   6  -2 5843.91 188.848   4
  -1   6  -2 6113.71 193.712  35
   1  -6   2 5862.47 204.328  11
  -1   6  -2 5911.89 236.427  19
  -1   6  -3 7338.49 260.701  31
  -1   6  -3 7943.76 222.585  35
  -1   6  -3 8001.19 164.068   6
  -1   6  -3 7785.72 268.272  19
  -1   6  -3 7675.29 218.610   4
  -1   6  -4 120.728 49.2709  35
  -1   6  -4 83.9987 54.3835  27
  -1   6  -4 218.559 65.2464  19
  -1   6  -4 75.0023 47.8945   4
  -1   6  -5 3051.82 135.376   4
  -1   6  -5 2972.76 155.339  27
  -1   6  -5 2834.08 129.915  35
  -1   6  -5 3083.86 165.631  19
  -1   6  -6 5037.01 151.592  35
  -1   6  -6 4921.91 178.314  27
  -1   6  -6 5044.07 185.740  19
  -1   6  -6 5456.81 162.570   4
  -1   5  12-11.9952 31.4114   7
  -1   5  11 10151.5 176.195  35
  -1   5  11 9920.83 221.190   7
  -1   5  10 9117.72 268.410  23
  -1   5  10 9304.18 167.106   6
  -1   5  10 9281.23 229.071   7
  -1   5  10 9256.27 197.331  35
  -1   5  10 9642.98 209.886   4
  -1   5   9 23994.9 374.058   7
  -1   5   9 22529.8 282.728   6
  -1   5   9 23915.8 426.233  22
  -1   5   9 22387.2 319.745  35
  -1   5   9 23292.9 336.624   4
  -1   5   9 23379.3 446.170  23
  -1   5   8 91.2140 52.9421   6
  -1   5   8-20.1377 47.8571   8
  -1   5   8 11.9283 47.7440  28
  -1   5   8 17.2251 37.9527   7
   1  -5  -8 4.32355 47.5673  11
  -1   5   8 2.11519 56.4946  22
  -1   5   8 42.0403 33.4690  35
  -1   5   8 89.7304 62.5140  23
  -1   5   8 36.8465 41.0271   4
   1  -5  -7 8627.26 220.761  11
  -1   5   7 8507.85 215.872   7
  -1   5   7 8041.88 260.360  23
  -1   5   7 9220.36 207.344   4
  -1   5   7 9063.94 218.856   8
  -1   5   7 9234.23 266.016  22
  -1   5   7 9034.06 190.284   6
  -1   5   7 8504.10 193.593  35
  -1   5   6 1001.68 97.4870  22
  -1   5   6 935.539 66.9112  35
  -1   5   6 1119.34 77.0957   4
  -1   5   6 1112.14 78.0534   7
  -1   5   6 1114.63 107.788  23
  -1   5   6 1096.64 76.4378   8
   1  -5  -6 1151.98 83.8004  11
   1  -5  -5 84.7387 38.7518  11
  -1   5   5 43.2769 36.6742   8
   1  -5  -4 14829.1 244.520  11
  -1   5   4 14392.0 254.693  31
  -1   5   4 14188.6 236.395   8
   1  -5  -3 1051.66 70.7524  11
  -1   5   3 1066.54 67.5048   8
  -1   5   3 986.425 80.8669  17
  -1   5   3 1019.70 76.8867  31
  -1   5   2 1132.75 89.4771  17
  -1   5   2 1127.61 85.4357  31
  -1   5   2 978.195 66.8546   8
   1  -5  -2 1058.19 69.3190  11
  -1   5   1 17604.6 321.845  31
   1  -5  -1 18112.7 268.749  11
  -1   5   1 18075.2 266.395   8
  -1   5   1 17906.0 332.607  19
  -1   5   1 17261.6 161.092   1
  -1   5   1 16793.8 341.618  17
   1  -5   0 15063.0 257.866  11
  -1   5   0 15266.0 180.776   1
  -1   5   0 14794.3 262.266   8
  -1   5   0 14503.3 311.245  31
  -1   5   0 15764.6 322.912  19
  -1   5   0 14223.0 322.228  17
  -1   5  -1 3864.79 175.232  19
  -1   5  -1 4352.57 150.628  35
  -1   5  -1 4519.38 115.089   1
  -1   5  -1 4347.46 150.611   8
   1  -5   1 3959.34 145.318  11
   1  -5   1 3881.23 139.935  18
  -1   5  -1 3923.67 171.018  31
  -1   5  -2 1095.21 86.1910  35
  -1   5  -2 900.624 60.2355   1
  -1   5  -2 902.229 81.7689   4
   1  -5   2 966.450 85.4366  11
  -1   5  -2 948.260 83.9413   8
  -1   5  -2 920.829 96.3106  19
  -1   5  -2 748.200 39.5475  32
  -1   5  -2 1085.02 101.203  31
  -1   5  -2 842.970 84.3992  33
  -1   5  -2 795.516 63.0508   6
  -1   5  -3 1188.85 97.8559   8
  -1   5  -3 1068.33 105.891  31
  -1   5  -3 1003.80 68.7635   6
  -1   5  -3 1222.09 115.479  27
  -1   5  -3 1142.93 88.9813  35
  -1   5  -3 1204.33 110.421  19
  -1   5  -3 1082.16 92.8312   4
  -1   5  -3 1092.56 97.9377  33
  -1   5  -3 916.798 44.3882  32
   1  -5   3 1098.30 93.5078  11
  -1   5  -3 1189.70 71.3718   1
  -1   5  -4 32.9640 61.2882  27
  -1   5  -4 36.8083 53.9491  19
  -1   5  -4-2.34844 39.3937  34
  -1   5  -4 87.7599 57.1368  33
  -1   5  -4-19.6608 39.3437  35
  -1   5  -4-5.82365 48.4263   4
  -1   5  -4 1.37760 10.4084  32
   1  -5   4-2.89685 54.3845  11
  -1   5  -4 10.2847 56.7486  31
  -1   5  -4 24.5090 38.4836   6
  -1   5  -5 102.582 67.8151  27
  -1   5  -5 46.9090 35.0348  34
  -1   5  -5 25.4478 59.0739  33
  -1   5  -5 67.7845 40.7819  35
  -1   5  -5 58.8717 61.3013  19
  -1   5  -5 51.1304 53.4307   4
  -1   5  -6 17380.5 376.573  27
  -1   5  -6 16734.4 326.247  35
  -1   5  -6 17538.6 357.837  33
  -1   5  -6 18104.8 384.698  19
  -1   5  -6 17072.8 327.771   4
  -1   5  -7 5656.75 203.097  27
  -1   5  -7 4894.57 190.519  19
  -1   5  -7 5370.64 187.188  33
  -1   5  -7 5630.13 179.135   4
  -1   5  -7 5049.55 168.038  35
  -1   5  -8 299.240 43.6740  35
  -1   5  -8 347.006 51.5836   4
  -1   5  -8 222.214 57.6339  27
  -1   4  12 1957.67 66.4063  35
  -1   4  12 2228.92 100.533   7
  -1   4  11 8732.98 223.382   7
  -1   4  11 9018.02 199.620   4
  -1   4  11 8372.74 185.759  35
  -1   4  10 59.4064 37.1412   7
  -1   4  10 110.165 61.1927  28
  -1   4  10 70.7868 42.5055   6
  -1   4  10 112.005 38.1856  35
  -1   4  10-38.4477 47.6610  23
  -1   4  10 77.9138 38.0399   4
  -1   4   9 19679.8 321.751   4
  -1   4   9 18740.8 259.843   6
  -1   4   9 19961.1 403.131  23
  -1   4   9 19971.0 355.614   7
  -1   4   9 20295.5 358.054   8
  -1   4   9 18934.0 368.531  28
  -1   4   9 19359.7 314.812  35
   1  -4  -9 18514.7 359.218  11
  -1   4   8 1643.43 98.6861   4
  -1   4   8 1759.04 106.133   8
  -1   4   8 1542.86 115.339  22
  -1   4   8 1785.59 93.8224   6
  -1   4   8 1637.12 105.015   7
  -1   4   8 1518.47 126.346  23
  -1   4   8 1462.30 88.5699  35
  -1   4   7 3726.92 144.122   7
  -1   4   7 3571.50 172.653  23
   1  -4  -7 3519.84 138.982  11
  -1   4   7 3695.12 166.091  22
  -1   4   7 4187.54 146.845   8
  -1   4   7 3461.90 125.282  35
  -1   4   7 3781.44 125.716   6
  -1   4   7 3564.24 131.942   4
  -1   4   6 25748.6 190.040   1
  -1   4   6 26020.9 327.618   8
  -1   4   5 39568.1 367.567   8
   1  -4  -5 39213.0 377.257  11
  -1   4   4 4027.76 119.930  31
   1  -4  -4 4489.71 122.556  11
  -1   4   4 3741.03 59.2554   1
  -1   4   4 4533.97 119.509   8
  -1   4   3 1072.29 75.4947  17
  -1   4   3 1075.02 29.3758   1
  -1   4   2 12348.3 228.309  31
   1  -4  -2 12522.2 185.472  11
  -1   4   2 11855.9 232.833  17
  -1   4   2 12850.5 186.575   8
  -1   4   2 11584.3 103.107   1
  -1   4   1 94058.0 347.761   1
   1  -4  -1 94068.7 510.381  11
  -1   4   1 94725.8 506.025   8
  -1   4   1 93530.6 645.769  31
   1  -4   0 17779.0 236.628  11
  -1   4   0 18333.0 239.031   8
  -1   4   0 18129.6 181.981   1
  -1   4   0 17765.7 309.764  17
   1  -4   0 17649.4 230.911  18
  -1   4  -1 19278.1 267.533   8
   1  -4   1 18644.7 262.226  11
  -1   4  -1 18011.1 316.551  31
  -1   4  -1 19453.8 220.473   1
   1  -4   1 18497.8 254.950  18
  -1   4  -2-14.5455 43.8014  31
   1  -4   2 23.1217 30.9480  18
  -1   4  -2-1.98045 30.2822  20
  -1   4  -2 36.3607 32.3061  17
  -1   4  -2 13.8041 48.3295  19
  -1   4  -2 16.3664 36.4713   8
  -1   4  -2 87.7962 34.0335   1
   1  -4   2-20.3337 40.2672  11
  -1   4  -3 32926.9 484.483  17
  -1   4  -3 35494.5 451.578  20
  -1   4  -3 33840.9 431.614   8
  -1   4  -3 34041.5 518.522  19
   1  -4   3 34457.9 419.567  18
  -1   4  -3 34705.8 483.827  31
   1  -4   3 35302.9 423.022  11
  -1   4  -3 34741.8 477.255  33
  -1   4  -3 36921.7 371.262   1
  -1   4  -4 17551.7 352.484  20
  -1   4  -4 16813.0 236.523   6
  -1   4  -4 17320.7 336.131  35
   1  -4   4 17683.0 330.347  11
  -1   4  -4 17073.5 254.889  32
  -1   4  -4 17339.6 275.361   1
  -1   4  -4 16884.9 370.761  27
  -1   4  -4 17851.5 359.476  31
  -1   4  -4 17373.1 357.856  33
  -1   4  -4 16609.8 314.423   4
  -1   4  -4 17046.2 382.616  19
   1  -4   5 2698.22 144.470  11
  -1   4  -5 2646.72 96.4525   6
  -1   4  -5 2945.67 108.999  32
  -1   4  -5 2840.92 147.908  35
  -1   4  -5 2660.80 162.310  19
  -1   4  -5 2986.65 163.879  33
  -1   4  -5 2495.88 134.170   4
  -1   4  -5 2417.28 154.281  27
  -1   4  -5 2999.36 158.460  20
  -1   4  -6 1914.83 124.653  35
  -1   4  -6 1915.11 82.0568  32
  -1   4  -6 1813.85 136.091  19
  -1   4  -6 2200.51 138.478  24
  -1   4  -6 1540.94 127.378  27
  -1   4  -6 1818.62 120.529   4
  -1   4  -6 1720.92 132.996  33
  -1   4  -7 225.990 69.3762  27
  -1   4  -7 209.074 65.3109  33
  -1   4  -7 100.413 54.5804   4
  -1   4  -7 119.229 55.7041  19
  -1   4  -7 188.341 54.8596  35
  -1   4  -7 185.326 43.1392  34
  -1   4  -8 23.9143 53.4160  33
  -1   4  -8-32.1177 54.5179   4
  -1   4  -8-89.3056 70.4744  27
  -1   4  -8-1.75413 13.9395  34
  -1   4  -8 28.2293 39.1820  35
  -1   4  -8 25.4064 42.4908  24
  -1   4  -9 1125.43 93.1127  27
  -1   4  -9 1248.21 83.4392   4
  -1   4  -9 1204.95 91.2914  33
  -1   4  -9 1401.70 83.8587  35
  -1   3  12 2265.95 106.301   7
  -1   3  12 2205.10 90.7452   4
  -1   3  12 2370.75 86.9166  35
  -1   3  11 2134.12 108.193   4
  -1   3  11 2050.82 101.822  35
  -1   3  10 1038.85 79.8221  35
  -1   3  10 1026.37 83.3372   4
  -1   3  10 1008.55 64.5221   6
  -1   3   9 19658.1 329.490  35
  -1   3   9 20434.6 333.645   4
  -1   3   9 19151.6 354.036   8
  -1   3   9 18554.5 370.096  28
  -1   3   9 20222.0 267.270   6
  -1   3   8 9632.45 222.852  35
  -1   3   8 9359.85 231.405   8
  -1   3   8 9776.21 276.249  23
  -1   3   8 9483.89 150.708  34
  -1   3   8 9190.47 158.393   1
  -1   3   8 8911.71 213.775   4
  -1   3   8 9979.08 195.357   6
  -1   3   7 68.7755 24.9248   1
  -1   3   7 79.7836 34.8942  35
  -1   3   7 113.378 44.6072   4
   1  -3  -7 40.7144 34.5271   3
  -1   3   7 82.1009 53.5614  28
  -1   3   7 78.4711 36.4182   8
  -1   3   6 214.109 30.1919   1
  -1   3   6 197.459 41.4101   8
   1  -3  -6 172.585 36.3864   3
  -1   3   5 933.359 59.4245   8
  -1   3   5 897.292 41.7729   1
  -1   3   5 848.052 65.3344  13
  -1   3   4 6525.63 127.132   8
  -1   3   4 6566.87 88.6473   1
  -1   3   3 5792.59 127.593  31
  -1   3   3 5862.90 67.0858   1
  -1   3   2 8632.72 127.108   8
  -1   3   2 8907.15 165.704  31
  -1   3   2 8668.69 168.997  17
  -1   3   1 2090.68 87.4507  31
   1  -3  -1 2103.33 65.4235  10
  -1   3   1 2162.65 66.9156   8
  -1   3   1 2013.86 39.7774   1
   1  -3  -1 2216.03 67.4040  11
  -1   3   0 4896.46 79.9801   1
  -1   3   0 4880.17 134.107  31
  -1   3   0 4630.43 133.345  17
   1  -3   0 4735.55 105.596  10
   1  -3   0 4688.71 102.600  11
   1  -3   1 735.624 53.1413  11
   1  -3   1 894.961 56.0446  10
  -1   3  -1 716.664 42.7971   1
  -1   3  -1 649.205 63.1482  31
  -1   3  -1 824.147 63.5683  17
   1  -3   1 705.195 47.2917  18
  -1   3  -1 752.292 51.1501   8
  -1   3  -2 3361.72 116.936  20
  -1   3  -2 3627.64 136.566  31
  -1   3  -2 3511.27 111.592   8
  -1   3  -2 3268.77 125.520  17
   1  -3   2 3315.20 103.562  18
  -1   3  -2 3559.22 98.7797   1
  -1   3  -3 1181.32 82.8089  17
   1  -3   3 1153.47 75.4341  11
  -1   3  -3 1254.75 70.6383   1
  -1   3  -3 1043.27 76.0360   8
   1  -3   3 1128.16 73.5762  18
  -1   3  -3 1113.00 83.5035  20
  -1   3  -4 294.310 46.2399   1
  -1   3  -4 275.190 54.4694  20
  -1   3  -4 193.776 58.1482  31
  -1   3  -4 455.363 76.3785  19
   1  -3   4 289.692 57.3901  11
   1  -3   4 400.250 52.7967  18
   1  -3   5 12389.2 274.015  11
  -1   3  -5 11932.0 196.155   6
  -1   3  -5 11819.8 291.668  20
   1  -3   5 11151.9 253.328  18
  -1   3  -5 10978.0 226.525   1
  -1   3  -5 12357.0 292.532  35
  -1   3  -5 11218.4 299.176  33
  -1   3  -6 36.0880 55.2492  26
  -1   3  -6 25.4234 46.7153  20
  -1   3  -6 16.7375 32.5117   6
  -1   3  -6 48.2168 48.1262  32
  -1   3  -6 20.7043 34.4499   1
  -1   3  -6 16.3353 55.8082  33
  -1   3  -6 42.8921 50.1652   4
  -1   3  -6 76.6862 52.3381  35
  -1   3  -6 39.4044 53.7860  19
  -1   3  -6 67.0219 69.2509  24
  -1   3  -6 109.077 74.3161  27
   1  -3   6 62.5453 50.0628  11
   1  -3   7-8.30511 52.0062  11
  -1   3  -7 58.6927 69.8583  24
  -1   3  -7-6.77099 67.5272  33
  -1   3  -7 8.29447 58.8995  26
  -1   3  -7-55.7207 77.3677  27
  -1   3  -7 70.9089 43.3162  32
  -1   3  -7-23.1589 47.7388  35
  -1   3  -7 29.4396 55.5380  34
  -1   3  -7-17.8524 48.0404   4
  -1   3  -8 1515.56 127.239  27
  -1   3  -8 1556.42 112.390   4
  -1   3  -8 1510.97 118.508  24
  -1   3  -8 1515.84 76.6488  32
  -1   3  -8 1607.19 118.182  35
  -1   3  -8 1552.64 124.386  33
  -1   3  -8 1627.71 119.437  26
  -1   3  -9 3296.89 100.543  34
  -1   3  -9 3035.14 158.068  33
  -1   3  -9 3045.15 154.873  27
   1  -3   9 3216.37 150.414  32
  -1   3  -9 2946.71 140.344  35
  -1   3  -9 3191.59 152.675  24
  -1   3  -9 3127.76 143.366   4
  -1   3 -10 870.327 85.8446  27
  -1   3 -10 1068.67 77.7385   4
  -1   3 -10 992.711 80.5535  24
  -1   2  12 660.095 51.8190  35
  -1   2  12 571.861 54.0191   4
   1  -2 -12 601.103 77.6038  33
  -1   2  11 2132.74 111.425   4
  -1   2  11 2007.92 104.602  35
  -1   2  10 17760.1 321.400   4
  -1   2  10 18245.7 365.158  28
  -1   2  10 18051.2 322.277  35
  -1   2   9 6185.95 137.714  34
  -1   2   9 5794.76 186.123   4
  -1   2   9 5929.82 207.541  28
  -1   2   9 5726.03 201.859   8
  -1   2   9 5887.87 144.036   6
  -1   2   9 6130.17 192.805  35
  -1   2   8 138.528 35.9576   1
  -1   2   8 169.719 44.5599  35
  -1   2   8 141.327 44.6326   8
  -1   2   8 270.117 60.7910   6
  -1   2   8 107.868 39.5541  34
  -1   2   8 149.306 57.6431  28
  -1   2   8 204.062 32.2948  32
  -1   2   8 112.503 44.9665   4
  -1   2   7 9233.33 211.010   8
  -1   2   7 9455.93 171.500   1
   1  -2  -7 9480.39 236.940   3
  -1   2   6 25626.4 313.228   8
   1  -2  -6 26156.1 349.658   3
  -1   2   5 6625.73 162.509  13
  -1   2   5 6888.19 145.269   8
   1  -2  -5 6804.90 157.953   3
  -1   2   5 7040.02 118.232   1
  -1   2   4 724.529 37.0365   1
  -1   2   4 658.321 49.3412  13
  -1   2   4 679.134 47.6290   8
   1  -2  -4 543.262 42.6560   3
  -1   2   3 5412.03 66.0829   1
   1  -2  -3 5517.72 101.517  10
  -1   2   3 5384.19 117.093  13
  -1   2   3 5376.50 96.0564   8
   1  -2  -3 5346.45 100.662   3
  -1   2   3 5251.52 86.6702  10
  -1   2   2 59219.2 265.386   8
   1  -2  -2 61094.1 269.828  10
  -1   2   1 6632.58 83.9964   8
  -1   2   1 6816.82 125.909  17
   1  -2   0 64013.1 281.909  10
  -1   2   0 65537.8 251.001  10
  -1   2   0 64864.6 398.587  17
  -1   2   0 63493.9 283.324   8
   1  -2   0 65773.2 286.256  10
  -1   2  -1 12070.3 142.151  10
  -1   2  -1 12437.0 192.599  31
  -1   2  -1 11298.2 179.069  17
  -1   2  -1 12182.8 170.052  20
   1  -2   1 11836.3 146.338  10
  -1   2  -1 12333.3 127.701   1
  -1   2  -1 11593.8 145.774   8
   1  -2   1 11836.7 145.148  11
   1  -2   2 4357.80 103.875  11
  -1   2  -2 4215.62 103.465   8
   1  -2   2 4136.01 104.010  10
  -1   2  -2 4282.48 117.772  20
   1  -2   2 4447.23 99.9701  18
  -1   2  -2 4416.58 92.8046   1
  -1   2  -3 48.2536 37.0554  31
  -1   2  -3 103.460 31.3069  17
  -1   2  -3 192.420 35.2629   1
   1  -2   3 98.2345 30.0570  18
  -1   2  -3 164.944 40.4174  20
  -1   2  -3 131.274 41.3115   8
  -1   2  -3 83.9697 25.9092   3
   1  -2   3 180.131 38.5438  11
   1  -2   3 149.098 36.1416  10
  -1   2  -4 15958.9 287.129  20
  -1   2  -4 15608.8 243.688   3
  -1   2  -4 15644.3 234.525   1
   1  -2   4 16178.7 245.152  18
   1  -2   4 15518.4 248.193  11
   1  -2   5 25180.0 352.375  11
  -1   2  -5 23783.2 320.531   1
  -1   2  -5 24561.1 393.641  20
   1  -2   5 23041.7 326.003  18
  -1   2  -6 235.540 64.1949  32
   1  -2   6 355.119 63.3460  11
   1  -2   6 228.475 51.8581  18
  -1   2  -6 158.932 64.3907  27
  -1   2  -6 341.878 42.7936   6
  -1   2  -6 106.299 64.8447  24
  -1   2  -6 318.617 67.8347   4
  -1   2  -6 383.853 65.9639  20
  -1   2  -6 389.810 56.0733   1
  -1   2  -6 263.566 68.5447  26
  -1   2  -6 278.141 76.5565  33
   1  -2   7 37.1100 48.0486  11
  -1   2  -7 55.0406 74.9934  27
  -1   2  -7 93.4856 60.9170  26
  -1   2  -7-1.06362 61.6916  24
  -1   2  -7-0.93784 51.6259   4
  -1   2  -7-14.5621 74.7011  33
  -1   2  -7-4.53700 42.4155  20
  -1   2  -7 27.8291 43.9597  32
  -1   2  -8 14823.6 351.081  24
  -1   2  -8 14707.1 370.011  27
  -1   2  -8 14845.6 346.307  26
  -1   2  -8 14718.1 361.980  33
  -1   2  -8 14128.7 326.429   4
  -1   2  -8 15286.9 286.022  32
  -1   2  -9 7163.85 233.772  26
  -1   2  -9 6425.32 226.384  24
  -1   2  -9 6412.31 218.852   4
  -1   2  -9 6390.30 232.565  27
  -1   2  -9 6883.08 172.736  32
  -1   2  -9 6784.30 240.772  33
  -1   2 -10 4129.68 166.619  24
   1  -2  10 4051.01 154.194  32
  -1   2 -10 3967.22 172.873  27
  -1   2 -10 4645.34 176.113  26
  -1   2 -10 4606.45 175.516  35
  -1   2 -10 4281.27 166.804   4
  -1   2 -10 4025.91 122.604  34
  -1   2 -10 4463.90 181.610  33
   1  -2  11 380.244 44.1217  32
  -1   1  12 3092.34 107.226   4
  -1   1  11 740.690 68.5636  35
   1  -1 -11 779.663 83.3581  26
  -1   1  11 811.281 74.1774   4
  -1   1  10 126.885 47.5548  28
  -1   1  10 139.164 43.0095  35
  -1   1  10 12.3611 28.4603  34
   1  -1 -10 70.4962 65.7141  24
  -1   1  10 138.974 52.4768   4
  -1   1  10 151.335 34.2002  34
   1  -1 -10 152.462 59.9077  26
  -1   1   9 3030.95 139.168   4
  -1   1   9 3084.44 153.938  28
  -1   1   9 2898.89 111.266  34
   1  -1  -9 3018.83 154.855  26
  -1   1   9 3111.46 145.814  35
  -1   1   9 2902.66 85.5681  32
   1  -1  -9 3045.31 163.531  24
  -1   1   9 2877.52 95.7948   6
  -1   1   8 436.183 63.9349   6
  -1   1   8 454.203 47.6598  32
  -1   1   8 365.931 63.3093   8
  -1   1   8 562.886 76.2019  28
  -1   1   8 430.761 67.6563   4
  -1   1   8 424.329 51.8363   1
   1  -1  -8 503.768 86.8634  24
   1  -1  -8 447.882 76.6078  26
  -1   1   8 502.418 66.0890  34
  -1   1   8 515.792 67.7031  35
  -1   1   7 11783.8 270.990  28
   1  -1  -7 11891.8 275.263   3
  -1   1   7 12204.1 211.079   1
  -1   1   7 12220.6 205.326   6
  -1   1   7 12491.3 255.884   8
  -1   1   7 11567.2 243.327   4
   1  -1  -6 8347.76 209.143   3
  -1   1   6 8904.65 196.148   8
  -1   1   6 8899.06 164.157   1
  -1   1   5 11772.7 195.817   8
  -1   1   5 11310.1 212.485  13
  -1   1   5 11670.5 165.277   1
   1  -1  -4 759.817 53.4053   3
  -1   1   4 842.321 42.2425   1
  -1   1   4 704.219 48.7627   8
  -1   1   4 863.775 52.8944  13
  -1   1   3 70451.6 271.064   1
  -1   1   3 70013.4 324.302  10
   1  -1  -3 70963.0 360.668  10
  -1   1   3 70083.1 392.557  13
  -1   1   3 69796.7 343.496   8
  -1   1   2 24094.9 160.002   8
  -1   1   2 24445.0 192.089  13
   1  -1  -2 23879.8 157.016  10
  -1   1   2 24620.2 136.755  10
   1  -1  -1 32805.6 114.305  10
  -1   1   1 33417.7 188.477  13
   1  -1   0 13696.4 75.1681  10
  -1   1   0 13802.0 146.420  17
   1  -1   1 76647.5 278.546  10
   1  -1   1 75502.1 277.253  10
  -1   1  -1 75537.3 217.465   1
  -1   1  -1 76332.1 346.640  17
  -1   1  -1 76496.6 288.144   8
   1  -1   2 18356.8 180.114  10
  -1   1  -2 18310.8 158.408   1
  -1   1  -2 17871.3 178.596  17
   1  -1   2 17508.6 175.008  10
   1  -1   2 17802.3 163.301  18
  -1   1  -2 17700.9 208.117  20
  -1   1  -3 49392.6 319.539  17
   1  -1   3 51254.6 348.202  11
  -1   1  -3 49381.0 321.386   1
   1  -1   3 50576.6 364.602   8
  -1   1  -3 49843.2 401.851  20
   1  -1   3 48213.5 350.240   1
   1  -1   3 49442.1 324.894  18
   1  -1   3 50208.9 358.573  10
   1  -1   4 38615.9 371.795   8
   1  -1   4 38624.7 335.092  18
  -1   1  -4 38792.1 412.991  20
   1  -1   4 38813.9 360.956   1
   1  -1   4 37809.9 370.446  10
  -1   1  -4 38736.3 327.339   1
  -1   1  -4 39201.0 364.760   3
   1  -1   4 39048.0 353.537  11
   1  -1   5 242.965 50.0794  11
   1  -1   5 227.021 39.8352  18
   1  -1   5 288.990 51.9235   8
  -1   1  -5 221.556 41.0178   3
  -1   1  -5 156.871 46.7954  20
  -1   1  -5 260.867 44.5467   1
   1  -1   6 572.180 61.2678  18
  -1   1  -6 403.753 62.9298  20
   1  -1   6 468.758 63.4933  11
  -1   1  -6 436.025 54.6483   1
  -1   1  -7 384.785 68.5766  32
  -1   1  -7 295.004 78.3506  33
  -1   1  -7 377.616 68.0426   4
  -1   1  -7 289.743 68.7053  24
  -1   1  -7 418.883 69.5027  20
  -1   1  -7 352.959 68.4637  26
   1  -1   7 360.624 63.8205  11
  -1   1  -8 37.0016 68.6784  33
  -1   1  -8 14.9416 65.0269  27
  -1   1  -8 67.7967 57.2980   4
   1  -1   8 27.1377 53.2253  11
  -1   1  -8 38.1922 70.7467  24
  -1   1  -8 5.76981 45.0767  20
  -1   1  -8 116.943 61.9480  26
  -1   1  -8 45.6773 50.2082  32
  -1   1  -9 4147.90 193.610  33
  -1   1  -9 4156.38 185.935  26
  -1   1  -9 3628.43 178.571  24
  -1   1  -9 4056.14 156.499  32
  -1   1  -9 3732.66 172.917   4
  -1   1  -9 3981.52 193.691  27
  -1   1 -10 118.214 64.4857  27
  -1   1 -10 198.716 67.1801  26
  -1   1 -10 204.397 49.8542  32
   1  -1  10 137.936 54.6919  32
  -1   1 -10 289.046 73.3226  33
  -1   1 -10 211.281 64.6210   4
  -1   1 -10 133.790 58.9971  24
  -1   1 -11 295.017 56.8539  24
  -1   1 -11 419.647 65.5785  26
  -1   1 -11 424.347 62.8736   4
  -1   1 -11 362.862 50.0041  34
   1  -1  11 398.671 53.3135  32
  -1   1 -11 287.118 63.5302  33
  -1   0  11 1573.05 95.0750   4
   1   0 -11 1837.58 112.108  26
   1   0 -11 1554.42 113.650  33
   1   0 -11 1568.97 105.530  24
  -1   0  11 1697.69 95.3982  35
   1   0 -11 1405.63 110.788  27
  -1   0  10 3575.61 152.546   4
  -1   0  10 3653.72 155.963  35
   1   0 -10 3662.39 167.652  26
  -1   0  10 3756.95 104.101  34
   1   0 -10 4177.52 180.316  24
  -1   0  10 4208.71 169.410  28
  -1   0   9 161.717 35.2636  32
  -1   0   9 92.9699 42.2428  35
   1   0  -9 113.805 60.8505  26
  -1   0   9 25.2605 44.0643  34
  -1   0   9 124.394 55.9117  28
   1   0  -9 106.039 60.2038  24
  -1   0   9 127.589 59.1759   4
  -1   0   8 11475.4 267.608   4
  -1   0   8 12689.4 257.713  34
  -1   0   8 12417.4 293.288   8
  -1   0   8 12977.2 296.101  28
  -1   0   8 12180.9 223.346  32
   1   0  -8 12589.0 315.029  24
  -1   0   8 12419.2 298.650  25
   1   0  -8 12866.6 303.378  26
  -1   0   8 12997.1 296.917  35
  -1   0   8 12197.8 186.489   6
  -1   0   7 6299.03 166.753   1
  -1   0   7 6250.20 169.918  32
  -1   0   7 6765.38 152.266   6
  -1   0   7 6105.91 205.556  25
  -1   0   7 6366.00 202.315  35
  -1   0   7 6769.74 201.934   8
   1   0  -7 6100.43 204.199  26
   1   0  -7 6320.18 211.834   3
  -1   0   7 6845.21 211.473  28
  -1   0   6 8756.43 180.044   1
   1   0  -6 8537.63 223.081   3
  -1   0   6 8904.26 205.553   8
  -1   0   5 10512.8 173.353   1
  -1   0   5 10993.9 200.330   8
   1   0  -5 10654.4 219.878   3
  -1   0   4 100178. 524.905   8
   1   0  -4 99300.3 577.304   3
  -1   0   3 19665.5 199.163   8
   1   0  -3 19455.0 211.528   1
  -1   0   3 19923.0 175.298   1
   1   0  -3 19479.3 220.895   3
   1   0  -3 19960.9 216.581  10
  -1   0   2 3561.00 70.6118  10
  -1   0   2 3608.01 69.1541  10
  -1   0   2 3556.41 61.4597   1
  -1   0   2 3583.33 73.1078   8
   1   0  -2 3464.36 75.5175  10
   1   0  -2 3506.10 70.4490  10
  -1   0   1 21118.8 116.362  10
   1   0  -1 20705.8 123.454  10
  -1   0   1 20803.3 92.1455   1
  -1   0   1 20780.0 115.931  10
   1   0   0 28208.0 103.410  10
   1   0   0 29456.7 105.685  10
   1   0   1 18740.7 117.513  10
  -1   0  -1 19193.0 97.9867   1
  -1   0  -2 79546.0 323.816  10
  -1   0  -2 81745.3 311.309   1
   1   0   2 82467.2 335.615  10
  -1   0  -2 82366.1 388.507  20
   1   0   2 78495.1 335.993  10
   1   0   2 81612.1 306.292  18
   1   0   3 96584.3 442.932  11
   1   0   3 98524.2 461.571  10
   1   0   3 99321.2 414.007  18
   1   0   3 91211.3 457.279   8
   1   0   3 92835.7 439.549   1
  -1   0  -3 95998.6 509.012  20
  -1   0  -3 99629.8 416.331   1
   1   0   4 2292.32 84.1426   1
  -1   0  -4 2395.48 81.0240   1
   1   0   4 2441.50 92.2505   8
   1   0   4 2249.28 80.0151  18
   1   0   4 2199.10 83.1393  11
  -1   0  -4 2285.61 93.5500  20
   1   0   4 2185.64 84.7440  10
   1   0   5 33279.9 332.932  18
   1   0   5 34009.9 348.239  11
  -1   0  -5 33666.3 388.669  20
  -1   0  -5 33433.7 325.717   1
   1   0   5 33726.9 344.462   1
   1   0   6 4015.62 138.295  11
   1   0   6 4440.31 151.810   8
   1   0   6 3937.61 133.027  18
   1   0   6 4344.47 138.854   1
  -1   0  -6 4186.92 135.895   1
  -1   0  -6 3925.87 152.263  20
   1   0   7 26409.0 387.262  11
   1   0   7 26830.6 401.551   8
  -1   0  -7 25181.5 361.542   1
   1   0   7 26460.3 376.483   1
  -1   0  -7 25620.5 424.618  24
  -1   0  -7 24467.9 408.192  20
   1   0   7 25329.0 369.448  18
   1   0   8 2049.49 121.261   1
   1   0   8 1977.49 122.022  11
  -1   0  -8 1706.55 111.867   1
  -1   0  -8 1917.78 124.862  26
  -1   0  -8 2040.44 136.060  24
   1   0   8 2005.00 132.023   8
  -1   0  -8 2019.36 144.214  33
  -1   0  -8 2394.38 143.266   4
  -1   0  -8 1982.74 130.658  20
  -1   0  -9 6577.40 229.350  26
   1   0   9 5914.35 220.183  11
  -1   0  -9 5974.75 229.121  20
  -1   0  -9 6499.58 228.727   4
  -1   0  -9 6465.37 230.979  24
  -1   0  -9 6946.19 253.117  33
  -1   0 -10 1151.04 104.036  26
  -1   0 -10 1230.92 111.506  24
  -1   0 -10 1273.70 108.101   4
  -1   0 -10 1256.20 114.210  33
  -1   0 -10 1288.60 94.5966  32
  -1   0 -11 1698.02 114.155  24
   1   0  11 1800.66 119.505   4
  -1   0 -11 1599.13 109.349   4
   1   0  11 1668.32 94.5067  32
  -1   0 -11 1677.91 89.6053  32
  -1   0 -11 1724.73 114.211  26
  -1   0 -11 1720.35 119.919  33
  -1   0 -12 6551.14 180.888  26
   1   0  12 734.990 41.3811  32
   1   1 -11 421.569 65.3255  24
  -1  -1  11 259.573 42.6895  35
  -1  -1  11 339.984 51.0789   4
   1   1 -11 346.166 64.8821  33
   1   1 -11 369.649 63.4749  26
   1   1 -11 389.348 69.6456  27
   1   1 -11 291.806 56.5157  32
  -1  -1  10 4321.04 162.609   4
   1   1 -10 4415.05 175.931  26
   1   1 -10 3962.38 173.220  24
   1   1 -10 4215.04 182.838  27
  -1  -1  10 4174.43 162.856  35
   1   1 -10 3973.82 182.946  33
  -1  -1   9 1193.07 101.211  35
   1   1  -9 1056.15 103.922  26
  -1  -1   9 1279.71 74.4765  32
   1   1  -9 1010.16 101.633  24
  -1  -1   9 1253.23 99.8999   4
  -1  -1   9 1218.99 92.2426  34
  -1  -1   8 9679.61 254.463   4
  -1  -1   8 10223.1 275.105  35
  -1  -1   8 9733.38 277.297   8
  -1  -1   8 9624.65 213.867  32
  -1  -1   8 9540.85 266.670  25
   1   1  -8 9117.79 263.092  26
   1   1  -8 9977.85 285.196  24
  -1  -1   7 215.220 47.6125  32
  -1  -1   7 100.264 56.7016  25
   1   1  -7 151.349 60.8893  26
  -1  -1   7 126.184 47.5574   8
  -1  -1   7 124.856 41.4330   1
  -1  -1   7 150.222 62.4209   4
  -1  -1   7 185.317 53.4428  35
  -1  -1   7 270.513 63.7423  28
   1   1  -6 5097.21 181.098   3
  -1  -1   6 5336.92 173.400   8
  -1  -1   6 5078.64 150.662   1
  -1  -1   5 11379.0 203.289   1
  -1  -1   5 10578.1 214.866   8
   1   1  -5 10958.2 236.570   3
  -1  -1   4 18263.1 252.957  11
   1   1  -4 17505.6 264.283  10
   1   1  -4 18572.2 264.041   1
  -1  -1   4 17711.3 245.870   8
  -1  -1   4 18183.1 227.349   1
   1   1  -4 17281.8 261.153   3
   1   1  -3 303.264 40.6514   1
  -1  -1   3 341.145 41.6991  11
   1   1  -3 337.799 39.7136  10
   1   1  -3 353.118 43.6674   8
  -1  -1   3 357.183 39.2242   1
  -1  -1   3 301.175 41.7712   8
   1   1  -2 4495.49 97.8840  10
   1   1  -2 3857.91 95.1209   1
   1   1  -2 3923.63 97.6131   8
  -1  -1   2 4521.56 90.0960   1
  -1  -1   2 4455.05 96.6797  10
   1   1  -2 4389.99 105.336  10
  -1  -1   2 4538.98 98.3883   8
   1   1  -1 29968.9 226.492  10
  -1  -1   1 29825.9 190.460   1
   1   1  -1 29703.4 207.229  10
   1   1   0 101688. 336.263  10
   1   1   0 96297.7 327.292  10
  -1  -1   0 104600. 305.187  18
  -1  -1   0 103484. 311.268   1
  -1  -1   0 94613.1 323.750  10
  -1  -1   0 103866. 364.197   2
   1   1   1 28186.1 181.325  10
  -1  -1  -1 28250.5 175.161  10
  -1  -1  -1 28792.4 191.311   2
  -1  -1  -1 28511.8 163.894   1
   1   1   2 40212.2 243.429  11
   1   1   2 39924.0 237.746   1
  -1  -1  -2 41451.9 227.202   1
   1   1   2 41278.4 184.359  13
  -1  -1  -2 41199.2 243.317  10
   1   1   3 4201.10 93.1592   1
  -1  -1  -3 4199.13 96.8863  10
   1   1   3 3994.57 78.3954  13
   1   1   3 4125.31 94.7496   8
   1   1   3 4251.20 94.7838  10
  -1  -1  -3 4447.99 93.9147   1
  -1  -1  -3 4496.66 95.3230  20
   1   1   3 4018.60 93.9648  11
   1   1   4 860.804 55.2280  11
   1   1   4 870.110 52.9394   1
   1   1   4 969.037 57.7085   8
   1   1   4 854.521 54.6875  10
  -1  -1  -4 990.131 59.6886   1
  -1  -1  -4 897.214 54.6371  20
   1   1   5 70.0912 22.4022  13
   1   1   5 122.704 35.7155   1
   1   1   5 119.542 39.8815  11
   1   1   5 92.0194 32.8262  10
   1   1   5 108.592 39.2013   8
  -1  -1  -5 70.5446 33.0040   1
  -1  -1  -5 21.8408 29.8463  20
   1   1   5 76.6942 31.3515  18
   1   1   6 1735.96 91.7213  11
  -1  -1  -6 1568.21 90.2473   1
   1   1   6 1605.68 86.3869  18
   1   1   6 1550.14 81.5311  13
  -1  -1  -6 1536.41 89.5716  20
   1   1   6 1626.82 91.5580   8
   1   1   6 1656.55 86.7122   1
   1   1   7 28257.3 397.740   8
   1   1   7 28043.0 382.412  11
  -1  -1  -7 28857.2 384.929   1
   1   1   7 27924.0 369.716   1
  -1  -1  -8 17038.8 345.184  26
   1   1   8 17296.2 338.114   8
  -1  -1  -8 17232.9 353.176  24
  -1  -1  -8 15992.4 315.721   1
   1   1   8 17589.0 334.757  11
  -1  -1  -8 17171.1 343.314  20
  -1  -1  -8 16811.9 354.143   4
   1   1   8 16136.2 311.307   1
   1   1   9 26408.4 425.934  32
   1   1   9 24550.0 424.611  11
  -1  -1  -9 25323.3 444.847   4
  -1  -1  -9 25633.1 437.882  24
  -1  -1  -9 25139.1 430.041  26
   1   1   9 25494.4 444.120   4
   1   1   9 25838.6 445.195   8
  -1  -1 -10 484.131 88.3947  33
   1   1  10 531.441 75.4354   4
  -1  -1 -10 724.857 92.6513  26
   1   1  10 586.518 75.3320  32
  -1  -1 -10 698.690 87.1048  24
  -1  -1 -10 624.022 83.5518   4
   1   1  11 1683.24 97.5725  32
   1   1  11 1730.39 118.724   4
  -1  -1 -11 1339.16 107.580  24
  -1  -1 -11 1532.21 115.520  26
  -1  -1 -11 1750.72 123.317   4
  -1  -1 -11 1670.82 104.222  32
  -1  -1 -11 1512.55 121.718  33
   1   1  12 4352.22 160.518   4
  -1  -1 -12 4457.14 123.052  32
  -1  -1 -12 4270.68 149.278  24
   1   2 -10 8636.85 236.148  27
  -1  -2  10 8711.46 217.040  35
   1   2 -10 8033.69 227.044  33
   1   2 -10 9380.28 235.090  26
   1   2 -10 8407.69 224.082  24
  -1  -2  10 9156.66 218.176   4
   1   2 -10 9285.34 219.781  32
  -1  -2   9 18675.1 285.844  34
  -1  -2   9 20008.3 358.750   4
   1   2  -9 18919.4 395.762  33
   1   2  -9 20230.1 383.860  24
  -1  -2   9 20678.2 378.493  35
  -1  -2   9 18782.2 238.651  32
   1   2  -9 20510.1 383.257  26
   1   2  -9 20506.1 408.656  27
  -1  -2   8 3039.74 151.897   4
   1   2  -8 3202.04 166.433  26
  -1  -2   8 3237.04 163.204  25
   1   2  -8 3265.36 173.430  24
  -1  -2   8 3120.19 129.528  32
  -1  -2   7 985.252 83.7479  32
   1   2  -7 737.382 91.7952  26
   1   2  -7 723.059 94.9188  24
  -1  -2   7 782.773 85.5376   4
  -1  -2   7 731.889 92.5578   8
  -1  -2   7 872.482 90.5928   4
  -1  -2   7 720.161 87.2421  25
   1   2  -6 2562.02 141.125  26
  -1  -2   6 2834.63 126.204   1
  -1  -2   6 2810.16 141.767  25
  -1  -2   6 2900.28 140.814   8
   1   2  -6 2587.81 139.674   3
  -1  -2   6 2560.48 130.816  32
  -1  -2   6 2640.70 127.299  32
  -1  -2   6 2634.60 139.673   4
  -1  -2   5 18185.7 310.812  11
  -1  -2   5 17438.9 301.560   8
   1   2  -5 18148.5 316.628   1
   1   2  -5 17217.1 317.399   3
  -1  -2   5 17201.4 280.009   1
  -1  -2   4 117.342 41.1536  11
  -1  -2   4 79.0225 32.4984  18
   1   2  -4 195.863 45.8323   8
  -1  -2   4 142.932 45.7700   8
   1   2  -4 137.732 36.6926   3
  -1  -2   4 111.794 41.0146   1
   1   2  -4 146.842 41.4187   1
   1   2  -3 13752.7 230.763  10
   1   2  -3 14593.4 228.973   1
   1   2  -3 14266.6 230.102   8
  -1  -2   3 14527.4 225.482   8
  -1  -2   3 14397.9 225.597  11
  -1  -2   3 14376.6 210.859   1
   1   2  -3 13708.4 227.437   3
  -1  -2   2 1030.29 60.9180   8
   1   2  -2 927.698 61.4177   8
  -1  -2   2 1022.61 60.6032  11
  -1  -2   2 1009.75 56.4652  18
  -1  -2   2 926.054 55.0058   1
   1   2  -2 983.948 61.2276   1
   1   2  -2 947.979 59.2507  10
   1   2  -1 50545.6 344.491  10
   1   2  -1 51829.4 369.531  10
   1   2  -1 51238.8 352.099   8
  -1  -2   1 50527.1 344.588  11
  -1  -2   1 52667.0 346.899   8
  -1  -2   1 51923.6 323.860   1
  -1  -2   1 51005.1 347.056  10
   1   2   0 610838. 1118.98  11
   1   2   0 505054. 1000.23   1
  -1  -2   0 558972. 1043.83  11
   1   2   0 553864. 1056.54   8
  -1  -2   0 540359. 973.694   2
  -1  -2   0 571789. 1096.93  10
  -1  -2   0 589713. 1084.18  10
   1   2   0 531994. 1017.04  10
  -1  -2   0 571620. 978.927  18
   1   2   0 538258. 1023.21  10
  -1  -2   0 558726. 1057.18   8
  -1  -2   0 560666. 952.721   1
   1   2   1 398263. 856.728  11
  -1  -2  -1 374199. 846.459  10
   1   2   1 372206. 814.853  10
  -1  -2  -1 378569. 836.511  11
  -1  -2  -1 370079. 801.975  10
   1   2   1 370101. 833.749   8
  -1  -2  -1 365027. 790.590   2
   1   2   1 338602. 768.566   1
   1   2   1 376204. 856.466  10
  -1  -2  -1 396985. 795.085   1
   1   2   2 51943.8 327.913  10
  -1  -2  -2 49826.4 313.725  11
  -1  -2  -2 47456.0 308.338  10
   1   2   2 51560.5 312.329   1
  -1  -2  -2 49427.8 306.721  10
  -1  -2  -2 50904.2 291.546   1
   1   2   2 48501.8 311.806   8
   1   2   2 49120.7 312.353  11
   1   2   2 49247.4 307.153  10
  -1  -2  -3 64245.8 392.246  10
  -1  -2  -3 61474.8 377.139  11
  -1  -2  -3 61090.8 388.895  10
   1   2   3 66434.8 419.393  10
   1   2   3 61795.8 375.221  11
   1   2   3 62290.3 325.464  13
  -1  -2  -3 59824.5 347.490   1
   1   2   3 59389.1 382.460  10
   1   2   3 62722.5 380.204   8
   1   2   3 62176.3 362.442   1
   1   2   4 20011.3 235.414  11
  -1  -2  -4 19514.0 225.303   1
  -1  -2  -4 21048.8 255.674  10
   1   2   4 21100.9 242.411   8
   1   2   4 20623.9 212.064  13
   1   2   4 20493.4 228.944   1
   1   2   4 20114.7 244.746  10
   1   2   5 13052.8 197.973  13
   1   2   5 12978.0 200.736   1
   1   2   5 13276.7 215.064   8
   1   2   5 13048.5 209.121  11
  -1  -2  -6 10797.2 210.013   1
   1   2   6 10103.0 198.610  13
   1   2   6 10192.8 199.405   1
   1   2   6 10497.3 208.407  11
   1   2   7 499.784 61.9629   8
  -1  -2  -7 402.100 55.3692   1
   1   2   7 505.526 58.6385   1
   1   2   7 473.108 63.2417  11
   1   2   8 867.120 92.7719   4
   1   2   8 861.599 77.2409   1
  -1  -2  -8 916.750 92.7722  26
   1   2   8 754.940 79.8576  11
   1   2   8 813.060 85.4029   8
  -1  -2  -8 782.790 76.9565   1
  -1  -2  -9 19332.2 377.027  26
   1   2   9 20478.8 360.531  32
   1   2   9 19062.6 378.195   8
  -1  -2  -9 19620.3 388.674  21
   1   2   9 20210.2 384.777   4
   1   2  10 60843.8 588.413  32
   1   2  10 59540.6 663.574   4
  -1  -2 -10 61360.1 668.329  32
   1   2  11 5485.40 198.678   4
   1   2  11 5310.62 161.930  32
  -1  -2 -11 5118.31 194.391  26
  -1  -2 -11 5681.93 193.047  32
   1   2  12 28.1470 27.2771  32
   1   2  12-5.44961 48.9063   4
  -1  -2 -12 13.1887 44.9845  32
  -1  -2 -12-33.3306 57.5452  26
   1   2  12-11.2051 44.6246  34
   1   3  -9 2705.66 136.222  26
   1   3  -9 2558.35 141.785  27
   1   3  -9 2177.70 126.854  33
  -1  -3   9 2451.06 97.3078  34
   1   3  -9 2490.91 131.626  24
   1   3  -9 2567.39 123.629  32
  -1  -3   9 2658.80 128.404   4
  -1  -3   8 32299.8 374.440  32
   1   3  -8 30993.4 502.667  27
  -1  -3   8 31637.1 457.565   4
   1   3  -8 31931.8 480.449  26
   1   3  -8 32089.3 485.001  24
  -1  -3   8 30575.3 463.797  25
   1   3  -8 30851.4 473.728  32
   1   3  -8 30526.4 488.450  33
  -1  -3   7 10940.9 285.460   4
   1   3  -7 10430.0 308.267  27
  -1  -3   7 10579.2 275.283   4
  -1  -3   7 10585.5 278.588  25
   1   3  -7 10367.8 297.611  24
  -1  -3   7 11186.8 257.988  32
   1   3  -7 10470.3 288.518  26
  -1  -3   6 3509.05 162.683  25
  -1  -3   6 4252.88 168.087  32
   1   3  -6 3576.74 168.048  26
  -1  -3   6 3743.46 171.910   4
  -1  -3   6 3454.09 165.274   8
  -1  -3   6 4010.26 159.092  32
  -1  -3   5 6925.91 212.999  25
  -1  -3   5 7004.69 221.962   4
   1   3  -5 6825.92 216.346   3
  -1  -3   5 6794.23 212.577   8
  -1  -3   5 6905.34 199.855   1
  -1  -3   5 7360.26 210.043  32
  -1  -3   4 1313.51 92.4391  11
   1   3  -4 1385.38 96.2884   8
   1   3  -4 1401.65 92.1661   3
  -1  -3   4 1321.30 91.4559   8
   1   3  -4 1175.95 88.0978   1
  -1  -3   4 1168.81 82.1095   1
   1   3  -3 764.112 69.7443   8
   1   3  -3 626.616 65.8512   1
  -1  -3   3 773.268 68.7193   8
  -1  -3   3 723.189 66.1095  11
   1   3  -3 565.414 55.1179   3
  -1  -3   3 762.552 61.6141   1
  -1  -3   3 757.410 62.9091  18
  -1  -3   2 36012.2 369.863  11
   1   3  -2 36123.8 376.529   8
  -1  -3   2 36733.1 372.203   8
  -1  -3   2 35993.9 348.829   1
  -1  -3   2 38003.8 361.290  18
   1   3  -2 37268.0 370.373   1
  -1  -3   1 13375.9 210.325  11
  -1  -3   1 13316.6 197.256   1
   1   3  -1 13785.3 220.467  10
   1   3  -1 12923.2 209.111   8
   1   3  -1 13941.3 209.409   1
  -1  -3   1 13381.7 198.429  18
  -1  -3   1 13508.4 209.267   8
   1   3  -1 13739.6 209.939   1
  -1  -3   0 24217.3 261.614  11
  -1  -3   0 24716.7 276.894  10
   1   3   0 23752.1 267.960  10
  -1  -3   0 23398.3 246.678  18
   1   3   0 24991.2 267.714   8
   1   3   0 24333.6 257.853   1
  -1  -3   0 24475.8 249.469   1
  -1  -3   0 25774.7 270.454   8
   1   3   1 3146.97 95.3007  10
  -1  -3  -1 3173.65 90.0674  18
  -1  -3  -1 3238.58 96.9339  11
   1   3   1 3106.44 99.7770  11
  -1  -3  -1 3031.93 95.1937  10
  -1  -3  -1 3062.62 95.8946   8
  -1  -3  -1 3107.03 90.0507   1
  -1  -3  -1 3058.15 81.7995   2
   1   3   1 3241.79 93.0994   1
   1   3   1 3268.60 98.5660   8
  -1  -3  -2 40931.5 325.993  11
   1   3   2 39645.0 308.092   1
   1   3   2 40089.3 330.953  10
   1   3   2 40544.0 328.394   8
  -1  -3  -2 38078.8 293.950   2
  -1  -3  -2 39198.7 305.346   1
   1   3   2 41337.1 331.564  11
  -1  -3  -3 312.606 42.9628  11
   1   3   3 287.374 37.9584  10
   1   3   3 284.816 37.8209   1
  -1  -3  -3 311.930 41.6273  10
  -1  -3  -3 250.181 37.7477   1
   1   3   3 269.401 28.1148  17
   1   3   3 430.743 46.3960   8
   1   3   3 300.312 42.9202  11
   1   3   4 824.094 57.0873   1
  -1  -3  -4 797.860 59.3975  10
  -1  -3  -4 682.822 52.0213   1
   1   3   4 822.768 59.6781   8
  -1  -3  -4 683.207 57.1908  11
   1   3   4 764.759 60.6120  11
   1   3   5 56394.4 441.211  13
  -1  -3  -5 56977.8 441.711   1
   1   3   5 56303.7 454.797   8
   1   3   5 55864.4 433.256   1
   1   3   5 56342.3 458.238  11
   1   3   6 14413.4 252.008  11
  -1  -3  -6 14387.2 255.639  11
   1   3   6 14667.6 255.785   8
   1   3   6 14289.2 249.025  13
   1   3   6 14231.6 237.630   1
   1   3   7 354.668 68.4546  16
  -1  -3  -7 258.099 53.4202   1
  -1  -3  -7 298.751 54.1709  11
   1   3   7 363.132 54.0269   1
   1   3   7 350.065 56.0458  11
   1   3   7 299.507 56.6264   8
   1   3   8 4239.44 164.287  11
  -1  -3  -8 3996.02 165.138  11
   1   3   8 4057.17 184.981  23
   1   3   8 3371.94 141.259   1
  -1  -3  -8 3741.34 161.700  26
   1   3   8 4128.57 161.641  32
   1   3   8 4165.57 166.465   8
  -1  -3  -8 3758.35 153.186   1
   1   3   8 4356.94 183.694  16
   1   3   8 3892.15 165.551   4
  -1  -3  -9 7690.38 241.276  11
   1   3   9 7785.65 243.376   8
   1   3   9 8193.09 252.271  16
   1   3   9 7704.24 238.116   4
  -1  -3  -9 8219.99 244.299  26
   1   3   9 7744.99 219.066  32
   1   3  10 121.565 45.7518  32
  -1  -3 -10 188.269 61.2108  26
  -1  -3 -10 181.736 70.4083  21
   1   3  10 215.213 66.1914   4
   1   3  11 2748.86 113.526  32
  -1  -3 -11 2480.41 140.323  26
   1   3  11 2656.77 139.208   4
  -1  -3 -11 2617.32 137.905  32
   1   3  12 518.383 64.7421   4
  -1  -3 -12 630.807 77.6990  26
  -1  -3 -13 132.685 37.1320  32
   1   4  -9 662.518 70.0319  26
   1   4  -8 2178.02 111.664  32
  -1  -4   8 1901.86 100.032  34
   1   4  -8 1918.49 123.733  27
   1   4  -8 2031.23 116.927  26
  -1  -4   8 1978.80 117.568  25
  -1  -4   8 1795.82 82.7292  32
   1   4  -8 1773.17 117.076  19
   1   4  -8 2015.31 128.910   4
  -1  -4   8 2057.46 118.069   4
   1   4  -7 4037.01 180.368  26
  -1  -4   7 4161.69 179.169   4
  -1  -4   7 4172.11 175.341   4
  -1  -4   7 4170.79 171.840  25
   1   4  -7 3961.41 184.597  27
   1   4  -7 4272.26 178.197  24
  -1  -4   7 4571.35 160.768  32
   1   4  -7 3957.51 169.190  32
  -1  -4   6 1569.54 113.443  25
  -1  -4   6 1775.65 116.122  32
  -1  -4   6 1504.34 103.977  32
   1   4  -6 1760.08 127.429  26
  -1  -4   6 1717.78 126.283   4
   1   4  -6 1902.06 131.569  24
   1   4  -6 1497.52 121.380  32
   1   4  -5 458.498 78.4254  26
   1   4  -5 486.149 83.4402  27
  -1  -4   5 539.682 73.8110  25
   1   4  -5 537.082 90.4813  24
  -1  -4   5 469.064 76.8495   4
  -1  -4   5 516.533 83.6521   8
  -1  -4   5 353.849 68.0966  32
   1   4  -5 478.036 73.5475  20
  -1  -4   4 3147.56 151.219  11
  -1  -4   4 3389.25 153.173  25
   1   4  -4 3371.86 157.264   8
  -1  -4   4 3318.48 162.811   4
   1   4  -4 2760.08 139.278   1
  -1  -4   4 3193.98 153.489   8
  -1  -4   4 3036.44 141.484   1
  -1  -4   4 3151.21 159.914  14
   1   4  -3 1170.26 93.8530   8
  -1  -4   3 1548.46 102.250  11
  -1  -4   3 1371.67 99.1267   8
  -1  -4   3 1266.74 89.6596   1
  -1  -4   3 1421.94 94.7641  18
   1   4  -3 1254.37 90.5734   1
  -1  -4   2 31569.6 394.666  11
   1   4  -2 31738.7 401.946   8
  -1  -4   2 32190.3 379.164   1
  -1  -4   2 30585.5 390.813   8
   1   4  -2 30229.5 377.150   1
  -1  -4   2 32096.8 387.806  18
  -1  -4   1 18366.5 273.931   1
   1   4  -1 18628.8 279.244   1
   1   4  -1 19008.1 283.880   1
  -1  -4   1 19211.5 291.011   8
  -1  -4   1 18777.9 284.908  11
  -1  -4   1 18773.8 277.367  18
   1   4  -1 18407.0 285.412   8
  -1  -4   0 11623.1 210.932  11
   1   4   0 11100.2 202.310   1
  -1  -4   0 11277.3 200.437  18
   1   4   0 10866.6 208.872   8
  -1  -4   0 11350.3 214.115   8
  -1  -4   0 10897.3 198.184   1
  -1  -4  -1 5654.02 138.771   1
  -1  -4  -1 5898.67 147.423  11
  -1  -4  -1 6052.54 155.805   8
   1   4   1 5639.14 147.016   8
  -1  -4  -1 5837.85 141.907  18
   1   4   1 5841.83 155.900  11
   1   4   1 5951.49 143.489   1
  -1  -4  -2 48933.0 396.631   1
   1   4   2 49807.9 422.535  11
  -1  -4  -2 50697.1 426.286   8
  -1  -4  -2 48482.2 395.170  18
   1   4   2 48617.7 412.321   8
  -1  -4  -2 48866.1 407.180  11
   1   4   2 47675.7 392.276   1
   1   4   3 4970.66 137.333  11
   1   4   3 4436.27 122.619   1
   1   4   3 4903.52 136.121   8
  -1  -4  -3 4688.89 130.283   1
  -1  -4  -3 4936.93 131.647  18
  -1  -4  -3 4714.54 133.306  11
   1   4   4 9597.55 197.196  11
  -1  -4  -4 9256.81 184.685   1
   1   4   4 9862.76 197.972   8
   1   4   4 9402.20 180.607   1
  -1  -4  -5 16597.8 274.584  11
   1   4   5 17191.5 255.213   1
   1   4   5 17017.0 270.504   8
  -1  -4  -5 16934.7 261.192   1
   1   4   5 17488.8 273.757  11
  -1  -4  -6 6988.26 189.652  11
   1   4   6 6947.84 187.411  11
  -1  -4  -6 6351.17 173.120   1
   1   4   6 6768.24 185.859   8
   1   4   6 7108.85 176.557   1
   1   4   7 47.1743 51.5445  22
  -1  -4  -7 64.8893 43.7302  11
   1   4   7 58.6384 54.6969  23
   1   4   7 35.5276 45.1412   8
   1   4   7 50.4366 44.1774  16
   1   4   7 25.9278 40.7445   1
  -1  -4  -7 18.8522 46.9451   1
   1   4   8 12626.4 269.233  32
  -1  -4  -8 12691.7 289.040  11
   1   4   8 11806.9 261.170   1
   1   4   8 12308.1 285.999   8
   1   4   8 12143.7 322.011  23
  -1  -4  -8 11728.3 280.314  26
   1   4   8 11678.6 284.195   4
   1   4   8 11935.2 310.668  16
   1   4   9 11254.9 247.965  32
   1   4   9 10515.5 272.208   4
  -1  -4  -9 10824.0 286.183  11
  -1  -4  -9 11143.0 279.780  26
   1   4   9 11507.2 296.608   8
   1   4   9 11310.4 310.909  23
   1   4   9 10501.6 299.828  22
   1   4   9 11733.9 311.108  16
  -1  -4 -10 3626.92 180.129  21
   1   4  10 3966.03 182.331  23
   1   4  10 3811.93 178.995  22
   1   4  10 3666.19 174.158  16
   1   4  10 3128.59 155.088   4
   1   4  10 3385.47 133.269  32
  -1  -4 -10 3623.09 165.109  26
   1   4  11 2697.13 102.112  32
   1   4  11 2465.48 135.728   4
  -1  -4 -11 2453.54 137.111  26
   1   4  11 2820.02 123.353  34
  -1  -4 -11 2610.95 147.114  21
  -1  -4 -12 354.349 64.1412  32
  -1  -4 -12 468.335 69.8415  26
   1   4  12 369.677 59.3785   4
   1   4  12 241.813 41.4474  34
   1   4  12 363.876 56.8081  35
  -1  -4 -13 1450.74 76.7425  32
  -1  -5   8 5076.58 102.443  34
   1   5  -7 6.86063 40.2651  32
  -1  -5   7 2.26533 46.4827  25
  -1  -5   7-1.01298 39.0546  32
   1   5  -7-61.4430 53.8752  26
   1   5  -7 90.9678 55.6490  27
   1   5  -7-13.4584 56.7224   4
  -1  -5   7 56.8432 49.0211   4
   1   5  -7-13.9074 52.2014  19
  -1  -5   6 752.480 79.6332  32
  -1  -5   6 616.930 75.2701  25
   1   5  -6 795.591 96.4129  27
   1   5  -6 603.451 83.8542  26
  -1  -5   6 740.048 87.1095   4
   1   5  -6 625.788 81.8054   4
  -1  -5   6 595.037 67.5669  32
   1   5  -6 699.282 94.5070  19
   1   5  -6 674.535 75.5531  32
  -1  -5   6 658.235 90.9377   4
   1   5  -5 2282.45 141.204   4
   1   5  -5 2483.40 148.552  26
  -1  -5   5 2363.50 136.243  25
  -1  -5   5 2359.69 144.613   4
  -1  -5   5 2473.75 142.320  14
  -1  -5   5 2448.39 132.275  32
  -1  -5   4 1962.39 134.086  11
   1   5  -4 1681.29 126.022   8
  -1  -5   4 2198.31 132.301  25
   1   5  -4 2100.35 137.190   4
   1   5  -4 2043.15 129.565  32
  -1  -5   3 27136.8 436.976  11
  -1  -5   3 25676.1 417.606  25
  -1  -5   3 24583.0 406.650   1
   1   5  -3 26573.2 438.236   8
   1   5  -3 26937.1 448.715   4
   1   5  -3 25961.9 416.713   1
  -1  -5   3 28093.1 447.827   8
  -1  -5   2 134.779 48.8376   1
  -1  -5   2 256.681 60.9720  25
   1   5  -2 379.584 80.0123  32
   1   5  -2 148.599 60.9769   4
   1   5  -2 227.017 54.5112   8
   1   5  -2 234.248 57.6343   1
  -1  -5   2 146.973 51.8240  18
  -1  -5   2 396.668 66.5576   8
  -1  -5   2 209.243 55.2572  11
  -1  -5   1 3709.57 150.899  11
   1   5  -1 3737.93 156.981   8
  -1  -5   1 3514.27 143.413   1
  -1  -5   1 3395.50 142.312  18
   1   5  -1 3351.04 135.953   1
  -1  -5   1 3732.00 152.830   8
  -1  -5   0 4700.68 160.329  11
  -1  -5   0 5279.71 162.134   1
   1   5   0 4574.73 155.236   1
   1   5   0 4581.06 157.737   8
   1   5   0 4747.07 155.287   1
  -1  -5   0 5147.74 168.241   8
  -1  -5   0 4803.73 156.867  18
  -1  -5  -1 3136.46 129.947   8
  -1  -5  -1 2895.65 122.498  11
  -1  -5  -1 2886.11 118.537   1
   1   5   1 2746.81 117.751   1
   1   5   1 2800.85 122.497   8
  -1  -5  -2 616.899 62.6407  11
   1   5   2 606.263 64.9297  17
   1   5   2 585.835 64.7092   8
  -1  -5  -2 571.849 62.8543   8
   1   5   2 512.518 56.4019   1
  -1  -5  -2 660.989 61.9225  18
  -1  -5  -2 625.937 59.2795   1
  -1  -5  -3 17665.1 285.320  11
   1   5   3 17891.5 271.984   1
  -1  -5  -3 19147.5 293.497   1
   1   5   3 19488.4 314.527  17
  -1  -5  -3 18167.4 284.819  18
  -1  -5  -3 19176.4 303.586   8
   1   5   3 18571.6 294.446   8
   1   5   3 18486.2 299.961  11
   1   5   4 25754.7 358.657  11
  -1  -5  -4 25742.8 348.219   1
  -1  -5  -4 25283.0 348.372  11
  -1  -5  -4 26142.5 357.344   8
   1   5   4 26188.2 357.416   8
   1   5   5 10822.7 219.565   1
  -1  -5  -5 10673.3 237.168  11
   1   5   5 10171.0 233.000   8
  -1  -5  -5 10791.6 233.756  18
  -1  -5  -6 14845.6 291.420  11
   1   5   6 14458.3 262.848   1
   1   5   6 15423.4 327.871  22
   1   5   6 15381.5 295.875   8
   1   5   6 14302.4 329.456  16
   1   5   6 14796.1 343.606  23
  -1  -5  -7 13102.6 288.356  11
   1   5   7 12293.1 255.446   1
   1   5   7 12498.7 319.072  16
   1   5   7 11877.7 315.649  23
   1   5   7 12565.5 307.574  22
   1   5   7 12714.6 286.222   8
   1   5   7 12552.3 284.133   4
   1   5   7 13451.1 269.469  32
   1   5   8 1014.14 102.284  16
  -1  -5  -8 1080.10 95.7585  11
   1   5   8 916.932 92.5492   8
   1   5   8 924.908 89.7968   4
   1   5   8 1054.89 84.9418  32
   1   5   8 961.429 79.9114   1
   1   5   8 940.163 99.8659  23
   1   5   8 1072.23 101.474  22
   1   5   9 1568.38 93.4082  32
  -1  -5  -9 1509.38 118.118  11
  -1  -5  -9 1350.75 109.830  26
   1   5   9 1535.91 132.986  23
   1   5   9 1470.17 120.733  22
   1   5   9 1296.65 106.031   4
   1   5   9 1361.68 116.597  16
   1   5  10 820.041 85.9576   4
   1   5  10 899.939 104.786  16
   1   5  10 1179.85 112.798  23
   1   5  10 936.123 96.3516  35
   1   5  10 1006.35 72.7051  32
   1   5  10 1005.50 99.5423  22
   1   5  11 352.648 71.7138  23
   1   5  11 413.136 66.7636  22
   1   5  11 439.114 66.2374   4
   1   5  11 270.920 61.7598  16
  -1  -5 -11 421.544 80.1363  21
   1   5  11 479.244 69.4588  35
   1   5  11 397.477 54.4839  34
   1   5  12 2678.73 122.415  35
  -1  -5 -12 2763.70 130.066  32
  -1  -5 -12 2396.72 131.571  21
   1   5  12 2773.07 124.573   4
   1   6  -6 155.419 47.0338  34
   1   6  -6 85.5518 27.9874  32
  -1  -6   6 201.290 42.5539  32
  -1  -6   6 202.930 52.0164  25
  -1  -6   6 127.595 53.9425   4
  -1  -6   6 135.329 56.8858   4
   1   6  -6-3.49784 39.0996  26
   1   6  -6 244.662 59.8570   4
   1   6  -6 271.778 61.2375  19
   1   6  -5 1836.61 120.682   4
  -1  -6   5 1843.24 114.606  25
   1   6  -5 1873.81 101.397  32
  -1  -6   5 1920.60 111.021  32
   1   6  -5 1859.62 133.475  19
  -1  -6   5 1882.96 106.637  32
  -1  -6   4 2048.87 123.717  25
   1   6  -4 2010.05 142.603  19
  -1  -6   4 2211.20 125.442  32
   1   6  -4 2270.59 137.336   4
  -1  -6   4 2053.57 136.266  14
   1   6  -4 2181.52 117.429  32
   1   6  -4 2159.59 138.851  26
   1   6  -3 5344.88 205.147   4
  -1  -6   3 5092.96 193.273  25
   1   6  -3 5289.73 186.838  32
   1   6  -3 4927.42 212.196  19
   1   6  -2 125.345 73.9354  31
   1   6  -2 109.670 59.1945   4
   1   6  -2 157.793 63.1375  19
  -1  -6   2 188.841 65.7665  11
  -1  -6   2 195.034 59.3698  25
   1   6  -2 248.223 65.1745   8
   1   6  -2 228.537 58.7434  32
   1   6  -1-130.501 56.6171  32
   1   6  -1 7.80259 49.6532   8
   1   6  -1-5.62470 46.8263  31
  -1  -6   1 47.6464 55.7758  11
   1   6  -1-3.84687 50.9465   4
   1   6  -1-12.4924 48.7607   1
  -1  -6   1-10.8815 48.6641  25
   1   6  -1-1.09396 49.0651  19
   1   6   0 1686.93 120.584  31
  -1  -6   0 1648.52 112.244  25
   1   6   0 1532.56 112.703   8
   1   6   0 1328.31 95.0360   1
  -1  -6   0 1462.22 106.760  11
   1   6   0 1787.52 123.945  19
   1   6   0 1733.14 117.240  32
   1   6   0 1567.67 115.966   4
   1   6   1 15644.7 292.103   1
   1   6   1 15073.8 330.366  31
   1   6   1 14732.9 310.165   4
  -1  -6  -1 14917.5 308.356  25
   1   6   1 15551.1 312.650   8
  -1  -6  -1 15466.8 308.749  11
   1   6   1 15273.9 291.376   1
   1   6   1 14135.1 292.907  32
  -1  -6  -2 92.1425 45.5647  11
   1   6   2 96.8090 49.4566  31
   1   6   2 307.831 65.7187   8
  -1  -6  -2 159.036 48.2658  25
   1   6   2 233.116 50.0012   1
  -1  -6  -2 256.859 57.0695  18
   1   6   2 355.433 66.5292   4
   1   6   2 266.678 42.0156   6
  -1  -6  -3 6378.66 203.333  25
   1   6   3 7063.19 206.672   8
   1   6   3 6775.60 189.459   1
  -1  -6  -3 7216.99 206.183  11
  -1  -6  -3 7141.13 203.050  18
   1   6   3 6435.31 201.397   4
   1   6   3 7273.11 141.189   6
   1   6   4 822.779 57.0017   6
  -1  -6  -4 745.548 82.1052  11
   1   6   4 679.956 66.0718   1
   1   6   4 870.816 85.2154   8
  -1  -6  -4 749.856 72.4515  18
   1   6   4 750.979 78.0835  32
   1   6   4 677.161 79.2699   4
   1   6   5 3742.21 171.990  16
   1   6   5 3434.70 151.598   8
  -1  -6  -5 3547.90 153.867  11
   1   6   5 3510.42 161.073  22
   1   6   5 3372.58 140.261  32
   1   6   5 3180.31 132.142   1
   1   6   5 3395.26 100.830   6
   1   6   6 1733.38 101.740   1
  -1  -6  -6 2042.58 123.227  11
   1   6   6 2225.61 146.206  23
   1   6   6 1795.63 123.195  22
   1   6   6 1800.10 118.430  35
   1   6   6 2192.14 138.898  16
   1   6   6 1959.86 107.757  32
   1   6   6 1972.09 121.591   8
   1   6   6 1748.94 114.926   4
   1   6   7 13209.4 299.573   4
   1   6   7 14600.6 269.207  32
  -1  -6  -7 14168.8 322.732  11
   1   6   7 13837.8 315.270   8
   1   6   7 13165.9 339.036  23
   1   6   7 14111.4 332.018  22
   1   6   7 15103.1 329.714  35
   1   6   7 14133.5 345.050  16
   1   6   8 1842.86 99.4057  32
  -1  -6  -8 1569.63 120.633  11
   1   6   8 1969.98 125.156  35
   1   6   8 1758.94 125.265   8
   1   6   8 1809.56 137.118  23
   1   6   8 1831.76 128.683  22
   1   6   8 1723.63 131.191  16
   1   6   8 1751.92 118.080   4
   1   6   9 10.7800 49.0966   4
   1   6   9 87.6889 49.9039  35
   1   6   9 52.7604 66.0738  23
   1   6   9-23.2415 51.5396  22
   1   6   9 40.4834 35.0167  32
   1   6   9 69.4077 59.9382  16
   1   6  10-16.0543 47.3882  35
   1   6  10-2.20825 56.1246  16
   1   6  10 11.1539 52.7332   4
   1   6  10-34.4283 63.9852  23
   1   6  10-26.1176 26.6343  32
   1   6  10-17.0680 55.7256  22
   1   6  11 10493.9 245.539  35
   1   6  11 10865.0 270.673  22
   1   6  11 11276.4 281.062  23
  -1  -6 -11 10463.1 280.770  21
   1   6  11 11166.2 255.367   4
   1   6  12 647.188 67.2686  23
   1   6  12 729.375 64.3881  35
  -1  -6 -12 802.427 75.6190  32
   1   6  12 812.414 69.4033   4
  -1  -7   5 399.984 49.4734  32
  -1  -7   5 493.686 61.4421  25
   1   7  -5 511.256 61.8733   4
  -1  -7   4 1809.66 101.881  32
  -1  -7   4 1553.42 99.9649  25
   1   7  -4 1843.95 114.664   4
   1   7  -4 1817.49 118.332  19
  -1  -7   4 1717.75 113.703  29
  -1  -7   4 1714.60 109.927  14
   1   7  -3 1701.42 86.9266  32
   1   7  -3 1633.92 118.334   4
  -1  -7   3 1639.06 112.782  32
  -1  -7   3 1716.59 115.415  25
   1   7  -3 1838.53 130.316  19
  -1  -7   3 1835.06 124.668  14
   1   7  -2 30.6042 46.3517  32
  -1  -7   2-16.3754 60.0959  14
  -1  -7   2 13.6169 48.2139  25
   1   7  -2-3.76198 53.7221   4
   1   7  -2-18.7251 55.2194  19
   1   7  -1 452.596 69.4681  32
   1   7  -1 484.105 83.8335  31
  -1  -7   1 424.880 67.3796  25
   1   7  -1 423.187 76.6428   4
   1   7  -1 417.523 75.8271  19
   1   7   0 64.5634 47.8076  32
   1   7   0 109.830 64.1566  31
  -1  -7   0 48.0215 57.2266  11
  -1  -7   0 14.0662 45.1948  25
   1   7   0 139.290 52.4015   4
   1   7   0 22.1324 44.3934  19
   1   7   1 3820.01 188.392  31
   1   7   1 3890.64 172.651   4
   1   7   1 3889.76 148.418  32
  -1  -7  -1 3286.54 163.800  11
  -1  -7  -1 3627.42 166.129  25
   1   7   1 3316.11 166.310   8
   1   7   2 1615.64 121.041  31
  -1  -7  -2 1766.25 119.540  11
   1   7   2 1986.70 131.601  35
  -1  -7  -2 1779.69 118.509  25
   1   7   2 1656.43 116.431   8
   1   7   2 1860.71 121.783   4
   1   7   2 1814.48 105.933  32
  -1  -7  -3 220.988 58.9487  25
   1   7   3 190.263 55.5169   8
  -1  -7  -3 339.964 65.0718  11
   1   7   3 248.175 53.6250  32
   1   7   3 235.895 61.5566   4
   1   7   3 327.400 64.6971  35
   1   7   4 1672.63 98.8645  32
  -1  -7  -4 1585.25 112.375  11
   1   7   4 1841.30 122.478  35
   1   7   4 1626.97 113.978   4
  -1  -7  -4 1747.30 117.206  25
   1   7   4 1463.61 111.381   8
   1   7   5 236.829 59.5855   4
   1   7   5 375.188 73.2961  22
   1   7   5 278.585 62.0700   8
   1   7   5 307.392 56.4966  32
  -1  -7  -5 213.944 54.3392  11
   1   7   5 275.347 61.8514  35
   1   7   6 118.136 57.6443  34
   1   7   6 178.676 72.8485  23
   1   7   6 111.217 51.7858   4
   1   7   6 56.0727 42.9271  32
   1   7   6 122.736 57.2002  16
   1   7   6 29.6686 52.6825  22
   1   7   6 4.05832 60.5541   8
   1   7   6 16.4759 45.5370  35
  -1  -7  -6 71.4575 54.5894  11
   1   7   7 296.180 76.3275  23
   1   7   7 367.277 69.3661   4
   1   7   7 330.918 64.5891  34
   1   7   7 443.964 56.5893  32
   1   7   7 337.709 68.4146  22
   1   7   7 399.599 67.7063  35
   1   7   7 278.340 65.4349  16
   1   7   8 1380.30 107.206   4
   1   7   8 1180.28 111.859  16
   1   7   8 1367.75 116.949  23
   1   7   8 1274.27 112.056  22
   1   7   8 1317.45 101.261  35
   1   7   9 3170.48 167.705  16
   1   7   9 3017.30 166.170  23
   1   7   9 3170.96 160.744  22
   1   7   9 2756.91 138.146  35
   1   7   9 2788.94 142.030   4
   1   7  10 4841.27 194.687  23
   1   7  10 4899.76 189.701  22
  -1  -7 -10 4772.69 194.645  21
   1   7  10 4648.70 166.159  35
   1   7  10 4574.12 193.942  16
   1   7  10 4972.62 176.272   4
   1   7  11 1271.85 84.9222   4
   1   7  11 1495.03 104.979  23
   1   7  11 1190.59 92.3957  22
   1   7  11 1445.44 87.2371  35
  -1  -7 -11 1303.82 105.175  21
   1   8  -3 1136.16 82.1966   4
  -1  -8   3 1393.41 88.3220  25
  -1  -8   3 1362.17 96.7187  29
   1   8  -3 1213.93 84.1754  35
  -1  -8   3 1482.85 95.5914  14
  -1  -8   3 1333.70 82.6578  32
   1   8  -2 2891.36 78.4030  34
  -1  -8   2 2982.94 134.701  25
   1   8  -2 3194.70 141.640   4
   1   8  -2 2921.91 136.850  35
  -1  -8   2 2838.24 142.484  14
  -1  -8   2 3365.61 143.647  32
   1   8  -1 1992.37 123.246  35
   1   8  -1 2144.07 125.530   4
  -1  -8   1 1809.89 116.886  25
  -1  -8   1 2028.22 128.454  14
   1   8  -1 2123.19 133.001  12
  -1  -8   0 1039.74 100.904  14
   1   8   0 1090.14 99.5347   4
   1   8   0 1011.98 91.5080  35
   1   8   0 1146.39 98.9067  35
   1   8   0 757.798 50.0151  32
   1   8   0 957.525 76.6465  34
  -1  -8   0 1113.17 97.4008  25
   1   8   1 3276.38 102.135  32
  -1  -8  -1 3001.35 149.699  25
   1   8   1 3152.30 125.353  34
   1   8   1 3543.27 165.951  35
   1   8   1 3331.57 157.212   4
   1   8   1 3608.35 166.264  35
   1   8   2 14118.9 214.431  32
   1   8   2 13609.2 254.817  34
   1   8   2 13700.0 321.452  35
   1   8   2 14000.4 310.581   4
   1   8   3 697.205 55.6897  32
  -1  -8  -3 582.990 78.4112  25
   1   8   3 679.507 75.5149  34
   1   8   3 560.520 74.8316  35
   1   8   3 670.420 82.2962   4
   1   8   4 890.311 87.9028  35
   1   8   4 1090.60 93.8796   4
  -1  -8  -4 854.835 90.7252  25
   1   8   4 994.381 79.2530  34
   1   8   4 1029.08 61.5158  32
   1   8   5 2052.84 123.856   4
  -1  -8  -5 1793.87 122.381  25
   1   8   5 1984.34 123.458  35
  -1  -8  -6 17035.5 350.412  25
   1   8   6 18206.3 348.304  22
   1   8   6 16601.2 327.105   4
   1   8   6 18253.5 352.089  35
   1   8   6 17401.2 250.177  34
   1   8   6 16223.9 361.827  12
   1   8   7 649.719 80.2468  22
   1   8   7 609.801 75.0924   4
  -1  -8  -7 674.729 84.4070  25
   1   8   7 577.952 89.8813  23
   1   8   7 639.955 75.0172  35
   1   8   7 554.867 49.0380  34
   1   8   8 540.260 67.1428  35
   1   8   8 648.505 75.5666   4
   1   8   8 539.102 80.3690  16
   1   8   8 477.282 77.8678  22
   1   8   8 447.281 77.7962  23
   1   8   9 4467.65 174.873  22
   1   8   9 4378.21 185.302  23
   1   8   9 4847.89 164.718  35
   1   8   9 4753.35 164.203   4
   1   8  10 3888.96 160.207  23
   1   8  10 4184.89 161.336  22
   1   8  10 4130.50 138.423  35
   1   8  10 4248.42 141.654   4
   1   8  11 2295.57 110.842  22
   1   8  11 2430.60 89.8394  35
   1   9  -1 2532.69 108.261   4
  -1  -9   1 2535.36 115.987  14
  -1  -9   1 2651.67 110.687  32
  -1  -9   0 1707.68 109.373  29
  -1  -9   0 1758.10 103.455  25
  -1  -9   0 1626.63 101.449  32
  -1  -9   0 1543.02 98.9134  14
   1   9   0 1485.15 102.025  12
   1   9   0 1728.44 98.6158   4
   1   9   0 1553.49 91.6944  35
  -1  -9  -1 369.072 61.0740  14
  -1  -9  -1 397.884 61.2448  25
   1   9   1 327.634 59.7385   4
   1   9   1 357.370 55.5214  35
   1   9   1 317.113 62.8250  12
   1   9   2 16.2954 51.6829  12
  -1  -9  -2-15.0012 42.7989  25
   1   9   2-15.6487 53.7623   4
   1   9   2 30.9163 42.2619  35
   1   9   2 32.9141 37.6208  35
  -1  -9  -2-37.3582 48.5078  14
   1   9   3 188.529 50.5329   4
   1   9   3 266.981 66.3882  12
   1   9   3 340.875 59.0775  35
  -1  -9  -3 136.119 48.5900  25
  -1  -9  -4 2832.50 144.912  25
   1   9   4 3003.60 138.920  35
   1   9   4 2762.40 151.033  12
   1   9   4 2914.33 136.000   4
   1   9   5 720.567 76.1888   4
  -1  -9  -5 782.734 82.5728  25
   1   9   5 750.720 89.1887  12
   1   9   5 670.765 69.6283  35
  -1  -9  -6 942.507 87.2519  25
   1   9   6 1053.96 82.8440  35
   1   9   6 1015.68 83.9197   4
   1   9   7 96.3145 37.2034  35
  -1  -9  -7 57.5400 49.2283  25
   1   9   7 94.9875 48.5130   4
  -1  -9  -8 150.191 48.8947  25
   1   9   8 154.173 48.0359  22
   1   9   8 235.140 45.6693   4
   1   9   8 242.428 43.1074  35
  -1  -9  -9 2193.67 110.759  25
   1   9   9 1967.22 103.896  22
   1   9   9 2064.70 89.0566  35
  -1 -10  -4 3896.44 138.116  25
   1  10   4 3617.93 109.378  35
   1  10   4 3920.52 146.018  12
  -1 -10  -5 2445.39 115.202  25
   1  10   5 2337.14 88.4348  35
   1  10   5 2297.25 86.7879  35
   1  10   5 2150.95 91.1226   4
  -1 -10  -6-45.4609 45.1799  25
  -2   9   7 3111.13 131.272  22
  -2   9   7 2950.68 82.2215   6
  -2   9   6 4554.49 161.069  22
  -2   9   6 4796.06 165.433  12
  -2   9   6 4659.18 109.085   6
  -2   9   5 4058.46 154.042  22
  -2   9   5 4210.86 164.344  12
  -2   9   5 4222.97 106.951   6
  -2   9   4 304.223 40.3801   6
  -2   9   4 415.437 65.8857  12
  -2   9   3 4395.22 110.198   6
  -2   9   3 4667.77 177.494  12
  -2   9   2 487.584 43.1703   6
  -2   9   2 446.929 70.0892  12
  -2   9   1 54.2147 29.7220   6
  -2   9   1 57.7406 45.6966  12
  -2   8   9 850.290 49.6013   6
  -2   8   9 770.947 79.2538  23
  -2   8   9 993.692 81.9903  22
  -2   8   8 192.051 53.8794  22
  -2   8   8 183.227 37.2102   6
  -2   8   8 109.547 54.4788  23
  -2   8   7 48.7509 35.1380   6
  -2   8   7 25.0899 53.9319  23
  -2   8   7 7.35220 49.1646  22
  -2   8   6 294.486 47.5422   6
  -2   8   6 302.741 65.9341  22
  -2   8   6 269.399 63.6026  12
  -2   8   5 7877.86 241.266  22
  -2   8   5 7762.82 166.639   6
  -2   8   5 7585.07 244.307  12
  -2   8   4 4777.05 191.099  22
  -2   8   4 4541.32 131.232   6
  -2   8   4 4463.00 193.287  12
  -2   8   3 329.933 68.6362  22
  -2   8   3 233.942 45.7351   6
  -2   8   3 246.396 27.6995   7
  -2   8   3 224.762 67.8416  12
  -2   8   2 4055.69 98.9047   7
  -2   8   2 4131.84 124.015   6
  -2   8   1 6027.45 125.277   7
  -2   8   1 6425.26 150.252   6
  -2   8   1 5979.84 218.557  12
  -2   8   0 193.835 42.2050   6
  -2   8   0 320.996 36.9573   7
  -2   8   0 221.841 55.3566  12
  -2   8  -1 826.391 54.6236   6
  -2   8  -1 661.619 43.0297   7
  -2   8  -2 1693.27 50.1475   7
  -2   7  10 411.995 68.8401  23
  -2   7  10 395.032 42.3320   6
  -2   7   9 86.3189 61.4502  23
  -2   7   9 30.6067 47.8373  22
  -2   7   9 70.1448 41.9748   6
  -2   7   8 2228.01 143.613  23
  -2   7   8 2385.38 138.156  22
  -2   7   8 2262.66 97.3685   6
  -2   7   7 234.603 50.3103   6
  -2   7   7 84.7393 63.8933  23
  -2   7   7 176.185 25.0039   7
  -2   7   7 147.705 58.5609  22
  -2   7   6 372.709 66.4680  12
  -2   7   6 364.851 36.4235   7
  -2   7   6 363.087 81.1199  23
  -2   7   6 224.835 65.0588  22
  -2   7   6 333.635 56.1766   6
  -2   7   5 158.917 31.3380   7
  -2   7   5 185.236 58.7930  12
  -2   7   5 282.840 71.6366  23
  -2   7   5 107.624 55.6442  22
  -2   7   4 4283.36 188.097  22
  -2   7   4 4675.44 123.303   7
  -2   7   4 4353.43 184.072  31
  -2   7   4 4470.19 201.324  12
  -2   7   3 6810.54 236.361  31
  -2   7   3 6607.60 230.321  22
  -2   7   3 7035.78 156.977   7
  -2   7   3 6479.04 240.646  12
  -2   7   2 996.561 99.9632  31
  -2   7   2 1091.08 69.0761   7
  -2   7   2 1206.66 114.475  12
  -2   7   1 4297.32 198.104  31
  -2   7   1 4709.94 142.382   7
  -2   7   1 4945.48 139.940   6
  -2   7   1 4600.18 202.291  12
  -2   7   0 3670.54 120.615   6
  -2   7   0 3970.79 186.985  12
  -2   7   0 3889.46 186.293  19
  -2   7   0 3533.95 127.699   7
  -2   7   0 3738.33 188.451  31
  -2   7  -1 10942.2 309.609  19
  -2   7  -1 11151.8 227.101   7
  -2   7  -1 11451.5 203.653   6
  -2   7  -2 5612.15 224.408  19
  -2   7  -2 5602.69 161.176   7
  -2   7  -2 6007.95 147.323   6
  -2   7  -3 7.32826 34.9349   7
  -2   7  -3 37.1016 34.3409   6
  -2   7  -3 11.8677 52.0626  27
  -2   7  -3 82.2162 60.8903  19
  -2   7  -4 1110.17 98.8866  19
  -2   7  -4 959.730 62.1429   7
  -2   6  11 3109.86 132.986  23
  -2   6  10 99.0891 40.2009   6
  -2   6  10 61.0471 55.9085  23
  -2   6  10 37.8691 9.25016   7
  -2   6   9-16.6061 56.9151   6
  -2   6   9 21.8855 22.9401   7
  -2   6   9 27.6088 61.2482  23
  -2   6   9-52.8733 51.4411  22
  -2   6   8 5171.24 127.895   7
  -2   6   8 5077.31 214.303  23
  -2   6   8 5037.49 201.285  22
  -2   6   8 4989.18 145.617   6
  -2   6   7 36431.8 537.480  22
  -2   6   7 36253.0 341.973   7
  -2   6   6 30231.5 312.656   7
  -2   6   6 29974.5 486.782  22
  -2   6   6 31291.5 509.716  23
  -2   6   5 6411.79 144.808   7
  -2   6   5 6257.68 220.020  22
  -2   6   5 6496.71 233.286  23
  -2   6   4 1555.35 107.318  31
  -2   6   4 1339.29 68.9457   7
  -2   6   4 1370.66 107.421  22
  -2   6   4 1288.43 110.043  12
  -2   6   3 15403.3 334.941  22
  -2   6   3 15820.6 234.451   7
  -2   6   3 15686.8 331.457  31
  -2   6   3 15622.8 356.773  12
  -2   6   2 424.886 75.8944  12
  -2   6   2 415.108 67.8187  22
  -2   6   2 502.599 25.5516  35
  -2   6   2 505.467 72.0637  31
  -2   6   2 492.744 47.5907   7
  -2   6   1 4151.13 190.394  12
  -2   6   1 4640.34 142.326   7
  -2   6   1 3967.64 183.646  31
  -2   6   1 4461.70 97.0767  35
  -2   6   0 2651.90 88.4232  35
   2  -6   0 2573.94 128.431  11
  -2   6   0 2256.40 141.949  12
  -2   6   0 2123.47 144.542  19
  -2   6   0 2388.03 109.020   7
  -2   6   0 2045.27 141.410  31
  -2   6  -1-27.8031 56.5461  12
  -2   6  -1 7.61445 38.2976   6
   2  -6   1-4.95347 47.9509  11
  -2   6  -1 23.6051 31.3438   7
  -2   6  -1-22.9893 55.3718  27
  -2   6  -1-29.4807 51.0512  31
  -2   6  -1 58.3690 60.8896  19
  -2   6  -1 25.8438 51.7236  33
  -2   6  -1 33.1979 28.4130  35
  -2   6  -2 9.65567 59.0515  31
  -2   6  -2 47.7716 30.2193  35
  -2   6  -2 111.768 56.5033  27
  -2   6  -2 92.0298 41.0785   6
  -2   6  -2 10.9034 35.7367   4
  -2   6  -2 9.84996 46.3409  33
   2  -6   2 46.1230 51.2606  11
  -2   6  -2 157.315 66.0569  19
  -2   6  -2 141.925 44.1427   7
  -2   6  -3 21980.3 447.572  31
  -2   6  -3 23969.4 420.252  33
  -2   6  -3 23589.8 458.123  19
  -2   6  -3 24289.9 373.400   7
  -2   6  -3 25752.4 327.868   4
  -2   6  -3 23722.5 300.152  35
  -2   6  -3 23686.3 295.641   6
  -2   6  -4 19681.4 374.843  33
  -2   6  -4 19054.0 258.266  35
  -2   6  -4 19864.2 391.668  27
  -2   6  -4 19334.6 405.120  19
  -2   6  -4 19094.1 328.217   7
  -2   6  -4 18002.7 266.418   4
  -2   6  -4 18648.4 242.455   6
  -2   6  -5 1185.35 102.412  27
  -2   6  -5 1369.84 108.039  19
  -2   6  -5 1216.03 85.0044   7
  -2   6  -5 1302.22 61.2523  35
  -2   6  -6 1516.25 103.386  27
  -2   6  -6 1513.17 83.9461   7
  -2   5  11 161.955 33.1483   6
  -2   5  11 111.503 16.2169   7
  -2   5  10-51.6897 56.4293   6
  -2   5  10 18.2646 53.4258  23
  -2   5  10-7.12587 30.0810   7
  -2   5   9 1353.90 114.083  23
  -2   5   9 1237.68 71.7760   7
  -2   5   9 1219.95 84.8734   6
  -2   5   8 19939.2 418.137  23
  -2   5   8 20758.4 398.485  22
  -2   5   8 20417.6 280.620   7
  -2   5   8 21294.8 296.481   6
   2  -5  -7 10104.8 235.967  11
  -2   5   7 10981.6 294.443  22
  -2   5   7 10809.3 201.578   7
  -2   5   7 10036.1 113.769  35
  -2   5   7 10421.2 301.518  23
  -2   5   6 3775.19 68.9841  35
  -2   5   6 3983.40 118.855   7
  -2   5   6 4242.48 191.194  23
  -2   5   6 3908.53 177.728  22
  -2   5   5 14410.2 254.111   5
  -2   5   5 13873.4 329.892  23
  -2   5   5 13969.5 317.103  22
  -2   5   5 14139.2 210.812   7
  -2   5   5 14232.4 315.774  12
  -2   5   4 20544.5 282.446   5
  -2   5   4 19560.6 329.690  31
  -2   5   4 19567.5 378.320  23
  -2   5   4 20280.9 369.649  22
  -2   5   4 19869.5 240.434   7
  -2   5   4 19687.9 375.361  12
  -2   5   3 878.732 78.8959  31
  -2   5   3 619.099 56.6911   5
  -2   5   3 651.026 76.8517  22
  -2   5   3 779.566 50.9490   7
  -2   5   3 808.370 89.6541  12
  -2   5   2 4137.66 162.334  31
  -2   5   2 4461.35 119.107   7
  -2   5   2 3926.81 173.612  12
  -2   5   1 3810.69 162.139  31
  -2   5   1 3879.10 168.042  19
  -2   5   1 3729.83 117.904   7
   2  -5  -1 4047.45 127.824  11
  -2   5   1 4025.11 176.952  12
  -2   5   0 600.715 46.5457  35
  -2   5   0 485.205 72.6806  31
   2  -5   0 595.238 64.4268  11
  -2   5   0 506.121 71.6686  33
  -2   5   0 603.847 84.4016  27
  -2   5   0 529.720 80.6300  12
  -2   5   0 518.414 70.9848  19
  -2   5   0 638.307 55.6296   7
  -2   5  -1 16322.3 332.589  33
  -2   5  -1 16948.0 349.629  27
  -2   5  -1 16075.7 348.421  31
  -2   5  -1 16054.1 352.512  19
  -2   5  -1 17302.1 288.278   7
  -2   5  -1 17267.4 254.003   4
  -2   5  -1 16265.8 242.362  35
  -2   5  -1 16790.8 352.735  12
   2  -5   2 17037.0 307.096  11
  -2   5  -2 15121.7 347.750  31
  -2   5  -2 16429.3 259.515  35
  -2   5  -2 16492.2 342.021  33
  -2   5  -2 16188.0 354.914  27
  -2   5  -2 15528.6 356.283  19
  -2   5  -2 16623.8 302.307   7
  -2   5  -2 16594.5 270.642   4
  -2   5  -3 7550.46 250.419  31
   2  -5   3 7690.91 225.235  11
  -2   5  -3 7721.46 256.062  27
  -2   5  -3 7844.39 174.230   6
  -2   5  -3 7821.41 264.244  19
  -2   5  -3 7836.98 217.890   7
  -2   5  -3 8017.31 200.016   4
  -2   5  -3 7912.71 251.372  33
  -2   5  -3 7820.41 191.664  35
  -2   5  -4 56.4243 38.8632   6
   2  -5   4 102.086 62.0265  11
  -2   5  -4 47.3557 40.6202   7
  -2   5  -4 92.0166 44.1667   4
  -2   5  -4 30.7717 57.6415  19
  -2   5  -4 6.34120 53.8748  33
  -2   5  -4 17.2828 32.3580  35
  -2   5  -4 58.1335 62.6916  27
  -2   5  -5 651.840 57.3594   6
  -2   5  -5 689.259 98.6727  27
  -2   5  -5 583.878 83.0603  33
  -2   5  -5 763.819 93.9085  19
  -2   5  -5 792.930 79.5639   7
  -2   5  -5 771.971 77.3434   4
  -2   5  -5 672.177 67.3687  35
  -2   5  -6 886.606 69.0677  35
  -2   5  -6 759.347 98.0080  27
  -2   5  -6 878.244 93.7203  19
  -2   5  -6 778.104 77.1754   7
  -2   5  -6 831.907 73.2274   4
  -2   5  -6 902.733 98.8453  33
  -2   5  -7 394.407 70.3057  33
  -2   5  -7 326.965 47.1289   4
  -2   5  -7 300.088 51.4632   7
  -2   5  -7 346.027 41.0030  35
  -2   5  -7 384.588 69.4844  27
  -2   4  11 516.033 72.7148  28
  -2   4  11 588.274 48.3450   7
  -2   4  10 765.961 89.0731   9
  -2   4  10 999.544 69.2637   7
  -2   4  10 957.632 74.2974   6
  -2   4   9 6326.52 212.859  28
  -2   4   9 6778.70 175.576   7
  -2   4   9 6273.70 123.916  35
  -2   4   9 6468.32 163.824   6
  -2   4   8 440.381 70.9725   6
   2  -4  -8 329.752 60.1064  11
  -2   4   8 322.259 67.3552  28
  -2   4   8 312.978 36.4312  35
  -2   4   8 289.342 70.6053  23
  -2   4   8 308.782 44.6395   7
   2  -4  -7 8501.66 211.449  11
  -2   4   7 9058.88 276.156  23
  -2   4   7 9261.03 157.289  35
  -2   4   7 8767.33 188.652   7
  -2   4   6 138.829 29.6954   7
   2  -4  -6 75.0486 37.7552  11
  -2   4   6 168.460 26.5031  35
  -2   4   6 257.788 74.4490  23
  -2   4   6 220.208 59.4028  22
  -2   4   6 135.215 45.0964   9
  -2   4   5 5043.74 168.350   9
   2  -4  -5 5023.12 135.082  11
  -2   4   4 41763.5 444.149  31
  -2   4   4 42096.0 448.961   9
  -2   4   3 3704.92 130.522   9
  -2   4   3 4015.30 139.100  31
  -2   4   2 70041.0 581.173  31
  -2   4   1 3593.29 140.514  31
   2  -4  -1 3702.12 101.556  11
  -2   4   1 3457.00 147.337  17
  -2   4   0 967.594 79.9947  31
   2  -4   0 947.836 60.6595  11
  -2   4   0 1054.93 86.9548  17
  -2   4  -1 5046.43 176.626  31
   2  -4   1 5524.70 141.930  11
  -2   4  -1 5127.83 186.484  17
  -2   4  -1 5773.87 195.971  19
  -2   4  -2 26065.2 412.258  33
   2  -4   2 29132.7 353.655  11
  -2   4  -2 25385.3 432.085  17
  -2   4  -2 28953.3 418.296  20
  -2   4  -2 25535.1 430.596  19
  -2   4  -2 25282.6 401.847  31
  -2   4  -3 4313.19 177.372  31
   2  -4   3 4580.55 159.056  11
  -2   4  -3 4432.25 143.344  35
  -2   4  -3 4215.52 187.565  27
  -2   4  -3 4247.92 144.694   4
  -2   4  -3 4460.58 184.434  33
  -2   4  -3 4214.59 187.107  19
  -2   4  -3 4119.69 175.956  20
  -2   4  -3 4760.67 167.626   7
  -2   4  -4 1910.90 131.042  20
  -2   4  -4 1672.02 117.517  31
   2  -4   4 1557.79 108.566  11
  -2   4  -4 1737.94 126.011  33
  -2   4  -4 1616.25 129.195  27
  -2   4  -4 1811.21 130.347  19
  -2   4  -4 1775.66 112.162   7
  -2   4  -4 1703.67 100.980   4
  -2   4  -4 1684.05 99.2318  35
  -2   4  -4 1649.16 84.3156   6
   2  -4   5 956.585 93.9262  11
  -2   4  -5 717.257 62.2764   6
  -2   4  -5 635.250 90.3117  33
  -2   4  -5 720.418 97.4862  27
  -2   4  -5 753.195 93.7077  20
  -2   4  -5 779.445 95.6125  19
  -2   4  -5 593.727 74.2967   7
  -2   4  -5 703.171 73.9656   4
  -2   4  -5 690.333 70.7372  35
  -2   4  -6 26054.7 479.874  27
  -2   4  -6 26671.8 479.049  19
  -2   4  -6 27393.9 452.095   7
  -2   4  -6 27461.6 400.518   4
  -2   4  -6 25765.9 286.539   6
  -2   4  -6 27597.8 400.680  35
  -2   4  -6 27210.7 472.806  33
  -2   4  -7 3771.15 145.766  35
  -2   4  -7 3768.01 149.556   4
  -2   4  -7 3615.58 179.396  33
  -2   4  -7 3584.95 181.098  27
  -2   4  -8 7529.67 179.153  35
  -2   4  -8 7683.81 233.682  27
  -2   4  -8 8015.96 191.100   4
  -2   4  -8 7551.78 231.932  33
  -2   3  11 2039.82 119.627  28
  -2   3  11 1827.16 86.9551   7
  -2   3  10 7642.13 147.737  35
  -2   3  10 7728.95 194.048   7
  -2   3  10 7815.53 164.105   6
  -2   3   9 29146.4 453.684  28
  -2   3   9 29578.1 324.966  35
  -2   3   9 30646.5 347.459   4
  -2   3   9 30278.1 392.939   7
  -2   3   9 29018.2 334.777   6
  -2   3   8 1612.31 113.774  28
  -2   3   8 1484.37 95.6983   8
  -2   3   8 1526.52 77.6161  35
  -2   3   8 1729.81 104.251   6
  -2   3   8 1514.34 120.851  23
  -2   3   8 1725.25 96.4487   7
  -2   3   8 1782.18 89.0573   4
  -2   3   7 1600.66 87.1242   7
  -2   3   7 1724.88 92.8893   8
  -2   3   7 1666.98 122.838  23
  -2   3   7 1545.61 73.6692  35
  -2   3   7 1512.23 79.2434   4
  -2   3   6 23750.1 413.383  23
  -2   3   6 24204.9 297.748   7
  -2   3   6 24949.1 263.044  35
  -2   3   6 24685.9 298.695   8
  -2   3   5 92.7437 34.3082  31
  -2   3   5 134.406 29.8625   8
  -2   3   4 2082.98 95.2748  31
  -2   3   4 1863.81 100.076   9
  -2   3   4 2082.86 68.1810   8
  -2   3   3 978.882 68.2263  31
  -2   3   3 1071.70 72.5450   9
  -2   3   2 4511.91 132.973  31
  -2   3   1 29625.6 341.965  31
  -2   3   0 27141.8 340.822  31
  -2   3   0 27037.1 215.690   8
  -2   3   0 27253.4 359.936  17
   2  -3   0 26493.2 231.634  11
  -2   3  -1 21044.9 312.061  31
  -2   3  -1 21162.9 320.204  17
  -2   3  -1 21714.3 230.489   8
  -2   3  -2 2735.38 125.522  31
  -2   3  -2 2821.73 121.573  20
   2  -3   2 3133.05 104.333  11
  -2   3  -2 2889.76 125.259  17
  -2   3  -3 3146.94 136.215  31
   2  -3   3 3371.12 121.075  11
  -2   3  -3 2828.03 133.599  20
  -2   3  -3 3151.88 150.498  19
   2  -3   3 2993.15 112.135  18
   2  -3   4 1419.95 93.7885  11
  -2   3  -4 1112.07 102.485  33
  -2   3  -4 1310.96 52.2452   1
  -2   3  -4 1437.29 105.982  20
  -2   3  -4 1239.84 106.998  19
  -2   3  -4 1355.36 86.8830   4
  -2   3  -4 1463.17 91.1774  35
   2  -3   5 559.517 71.8654  11
  -2   3  -5 548.722 55.3504   6
  -2   3  -5 557.526 90.5320  27
  -2   3  -5 374.489 78.1489  24
  -2   3  -5 481.687 70.7706  20
  -2   3  -5 541.421 64.3767   4
  -2   3  -5 526.090 61.7350  35
  -2   3  -5 456.025 42.1288  34
  -2   3  -5 431.516 76.8475  33
   2  -3   6 16810.7 343.521  11
  -2   3  -6 15622.4 241.070   6
  -2   3  -6 16851.5 367.524  24
  -2   3  -6 17066.0 327.440  35
  -2   3  -6 17424.8 396.802  20
  -2   3  -6 16309.0 317.529   4
  -2   3  -6 16640.9 194.685  34
  -2   3  -6 15419.0 361.879  33
  -2   3  -6 16668.5 383.096  27
  -2   3  -7 7498.09 246.316  24
  -2   3  -7 7112.74 215.024  35
  -2   3  -7 6420.75 246.961  27
  -2   3  -7 6319.50 135.339   6
  -2   3  -7 7062.37 213.920   4
  -2   3  -7 6568.91 242.139  33
  -2   3  -8 7524.51 255.225  27
  -2   3  -8 8268.65 249.558  24
  -2   3  -8 7502.30 253.152  33
  -2   3  -8 7601.97 215.825   4
  -2   3  -8 7547.22 213.069  35
  -2   3  -9 1447.12 111.219  27
  -2   3  -9 1230.96 98.0735  24
  -2   3  -9 1095.36 78.0105  35
  -2   3  -9 1370.06 90.6921   4
  -2   3  -9 1265.23 104.272  33
  -2   2  11 4211.46 160.278  28
  -2   2  11 4011.98 131.371   7
  -2   2  10 2093.00 129.212  28
  -2   2  10 2026.70 86.7143   6
  -2   2  10 2278.11 114.231   7
  -2   2  10 2311.44 102.063   4
  -2   2  10 2416.10 97.8666  35
  -2   2   9 725.992 82.5373   6
  -2   2   9 766.942 68.7934   4
  -2   2   9 632.355 83.6949  28
  -2   2   9 700.628 60.5800  35
  -2   2   9 762.530 76.6686   7
  -2   2   8 1305.94 82.4129   4
  -2   2   8 1214.56 102.869  28
  -2   2   8 1350.74 96.6629   6
  -2   2   8 1108.24 86.9236   8
  -2   2   8 1301.29 78.5128  35
  -2   2   8 1292.60 89.4123   7
  -2   2   7 5715.00 156.481   4
  -2   2   7 5313.98 187.862  28
  -2   2   7 5718.80 171.125   7
  -2   2   7 5874.98 167.570   8
   2  -2  -7 5621.70 194.942   3
  -2   2   7 5706.27 149.666  35
  -2   2   6 44031.1 406.616   8
   2  -2  -6 44534.1 490.820   3
  -2   2   5 24169.8 262.430   8
   2  -2  -5 23702.9 318.635   3
  -2   2   4 22574.5 216.259   8
  -2   2   4 22789.2 302.538  13
  -2   2   3 9376.74 179.826  31
  -2   2   3 9827.37 114.897   8
   2  -2  -3 9763.26 153.502   3
  -2   2   2 131278. 645.333  31
  -2   2   1 29020.8 298.336  31
   2  -2  -1 25159.1 119.073  10
  -2   2   0 49402.5 393.516  31
   2  -2   0 48561.0 213.926  10
  -2   2  -1 44410.5 388.449  31
   2  -2   1 45501.9 276.039  10
  -2   2  -2 104.548 35.9218  31
  -2   2  -2 62.4291 27.1516  17
   2  -2   2 84.2158 26.4903  11
   2  -2   2 86.5541 25.4985  18
  -2   2  -2 141.109 41.7150  20
  -2   2  -3 14554.0 243.256  31
   2  -2   3 13981.8 212.707  11
  -2   2  -3 12795.8 225.095  17
  -2   2  -3 13152.5 255.073  20
  -2   2  -3 12856.3 125.329   1
  -2   2  -4 66931.7 628.845  20
  -2   2  -4 66603.4 390.749   1
  -2   2  -5 19385.5 370.037  20
   2  -2   5 20185.7 322.134  11
  -2   2  -5 19659.6 245.992   1
   2  -2   5 18461.4 304.984  18
  -2   2  -5 18386.9 308.491   4
  -2   2  -5 19880.0 381.142  33
  -2   2  -6 21.6409 28.6788  32
  -2   2  -6 3.32643 34.9343   6
  -2   2  -6 92.8240 44.0200  35
   2  -2   6 12.5517 46.4565  11
  -2   2  -6 76.2351 65.3655  27
  -2   2  -6 71.7462 45.2426   4
  -2   2  -6 49.0309 59.8557  24
  -2   2  -6 60.1425 34.3829   1
  -2   2  -6 106.159 48.7389  20
  -2   2  -6 23.7743 38.9155  34
  -2   2  -6 41.6434 59.5186  33
  -2   2  -7 116.660 27.2859  32
   2  -2   7 68.1270 55.8463  11
  -2   2  -7 208.642 78.7218  27
  -2   2  -7 89.7977 52.2921   4
  -2   2  -7 118.019 62.0682  24
  -2   2  -7 163.301 40.9399   6
  -2   2  -7 118.942 55.3764  20
  -2   2  -7 344.398 57.9273  34
  -2   2  -7 96.3636 46.6441  35
  -2   2  -7 128.068 64.1871  33
  -2   2  -8 2436.47 160.022  27
  -2   2  -8 2780.41 153.433  26
  -2   2  -8 2669.74 157.890  24
  -2   2  -8 2480.81 95.5813  34
  -2   2  -8 2310.05 130.641   4
  -2   2  -8 2625.85 139.275  35
  -2   2  -8 2546.08 156.383  33
  -2   2  -9 681.279 97.9299  33
  -2   2  -9 657.839 87.9324  27
  -2   2  -9 727.555 79.1479   4
  -2   2  -9 587.760 69.4971  35
  -2   2  -9 579.540 83.1565  24
  -2   2 -10 1709.14 116.938  27
  -2   2 -10 1927.51 115.941  24
  -2   2 -10 1824.66 97.9628  35
  -2   2 -10 1719.81 116.060  33
  -2   1  11 3061.53 133.249  28
  -2   1  11 2999.34 117.242   7
  -2   1  11 2880.67 83.3200  35
   2  -1 -10 174.550 69.5801  24
  -2   1  10 212.225 49.1842   4
  -2   1  10 254.868 42.4576  35
  -2   1  10 258.633 51.4786   7
  -2   1  10 216.982 63.2509  28
  -2   1   9 17130.1 294.847   4
  -2   1   9 17447.4 292.521  35
  -2   1   9 16832.1 342.211  28
  -2   1   9 17808.5 342.642   7
  -2   1   9 17341.1 333.307   7
  -2   1   9 17053.8 241.818   6
  -2   1   8 13791.0 234.033   6
  -2   1   8 13436.6 260.973   4
  -2   1   8 13564.8 307.097  28
  -2   1   8 13414.5 288.527   8
  -2   1   8 13252.9 294.134   7
  -2   1   8 13294.6 258.612  35
  -2   1   8 13630.4 295.139   7
  -2   1   7 7863.52 181.244   6
  -2   1   7 7706.00 203.641   8
  -2   1   7 7355.46 188.338   4
  -2   1   7 7887.80 215.908   7
  -2   1   7 6995.07 179.996  35
  -2   1   7 7270.27 218.677  28
  -2   1   6 700.547 63.0779   8
   2  -1  -6 683.901 69.5761   3
  -2   1   5 6651.53 147.636  30
  -2   1   5 6823.12 153.800   8
   2  -1  -5 6790.93 179.134   3
  -2   1   4 4063.76 102.021   8
   2  -1  -4 3897.15 121.588   3
  -2   1   4 4122.61 122.702  13
  -2   1   3 11730.8 140.640   8
  -2   1   3 12019.3 180.435  13
  -2   1   2 16033.9 215.960  31
   2  -1  -2 16578.7 139.281  10
   2  -1  -1 55.1741 6.86191  10
   2  -1  -1 7.29111 4.90737  10
  -2   1   0 3923.02 101.273  31
   2  -1   0 4492.65 72.6884  13
  -2   1  -1 22253.6 237.896  31
   2  -1   1 22460.0 154.711  10
  -2   1  -2 1381.73 64.4426  31
   2  -1   2 1519.98 57.7822  11
   2  -1   2 1499.40 56.6215  10
  -2   1  -2 1508.20 76.7623  20
   2  -1   3 42976.0 335.119  11
  -2   1  -3 41967.8 234.889   1
  -2   1  -3 42548.8 412.059  20
   2  -1   4 856.887 63.4747  11
  -2   1  -4 849.700 49.9103   1
  -2   1  -4 807.277 71.2313  20
  -2   1  -5 8387.14 165.636   1
   2  -1   5 8261.66 190.187  18
  -2   1  -6 15.0537 31.4556   6
   2  -1   6 66.1211 40.5937  18
   2  -1   6 68.0713 48.0913  11
  -2   1  -6 71.2945 37.9004   1
  -2   1  -6 21.9758 45.9125   4
  -2   1  -6 177.121 66.9305  24
  -2   1  -6 7.37877 42.8151  20
  -2   1  -6 34.3647 35.1190  35
  -2   1  -6 62.0908 64.9895  33
   2  -1   7 6816.24 213.296  11
  -2   1  -7 6332.16 237.433  27
  -2   1  -7 6216.15 220.399  24
  -2   1  -7 6237.12 175.050   1
  -2   1  -7 6499.26 235.018  20
  -2   1  -7 5829.93 198.980   4
  -2   1  -7 6206.77 146.597   6
  -2   1  -7 6742.79 216.581  35
  -2   1  -7 6642.04 239.229  33
  -2   1  -7 6243.31 159.562  32
  -2   1  -8 16484.2 363.602  24
  -2   1  -8 17422.9 391.915  27
  -2   1  -8 16820.7 379.557  33
  -2   1  -8 18032.1 374.300  26
   2  -1   8 15667.6 343.229  11
  -2   1  -8 16209.8 387.954  20
  -2   1  -8 16038.7 335.616   4
  -2   1  -8 16815.2 349.282  35
  -2   1  -8 16802.4 245.398  32
  -2   1  -9 1193.13 113.440  27
  -2   1  -9 1020.57 106.075  33
  -2   1  -9 1202.20 106.296  26
  -2   1  -9 1075.98 107.803  24
  -2   1  -9 1074.17 95.5647   4
  -2   1  -9 1010.58 92.4908  35
  -2   1  -9 1066.49 78.2632  34
  -2   1  -9 826.717 48.6260  32
  -2   1 -10 1633.89 119.956  33
  -2   1 -10 1623.24 63.8517  34
  -2   1 -10 1569.63 112.628  26
  -2   1 -10 1573.39 116.679  24
  -2   1 -10 1666.19 107.187   4
  -2   1 -10 1646.02 109.675  35
   2  -1  11 516.748 63.4950  32
  -2   1 -11 538.892 65.7439  26
  -2   1 -11 365.844 53.2374   4
  -2   1 -11 342.097 59.5999  24
  -2   1 -11 374.656 53.9430  35
  -2   1 -11 406.900 68.3619  33
   2   0 -11 1198.11 88.3684  24
   2   0 -11 1238.61 98.9331  33
  -2   0  11 1248.87 55.1304  35
  -2   0  11 1174.34 74.9162   7
  -2   0  10 3237.25 126.732   4
   2   0 -10 3113.44 145.712  26
   2   0 -10 3370.58 155.124  24
  -2   0  10 3086.07 119.963  35
  -2   0  10 3025.14 136.669   7
  -2   0  10 3204.11 145.389  28
  -2   0   9 1187.46 88.1153   4
  -2   0   9 1152.40 97.2586  28
   2   0  -9 1216.97 113.438  24
   2   0  -9 1286.38 108.910  26
  -2   0   9 1255.80 88.6419  35
  -2   0   8 95.8621 56.9545  28
   2   0  -8 98.2314 62.9498  26
  -2   0   8 126.946 62.0894   6
  -2   0   8 36.6583 41.2228   4
  -2   0   8 69.2871 39.8222  35
  -2   0   7 17222.0 297.942   4
  -2   0   7 17821.8 343.276  28
  -2   0   7 18785.3 335.454   8
  -2   0   7 19012.4 268.389   6
  -2   0   7 18290.1 311.947  35
  -2   0   6 1724.28 92.2561   4
  -2   0   6 1969.77 115.310  28
  -2   0   6 1924.80 100.567  35
  -2   0   6 1638.41 66.1219   1
  -2   0   6 2134.60 107.685   8
   2   0  -6 1860.21 113.201   3
  -2   0   5 29585.3 331.156  30
  -2   0   5 29292.5 242.311   1
  -2   0   5 28879.9 336.279   8
  -2   0   4 1840.46 52.5906   1
  -2   0   4 2057.10 82.9148   8
   2   0  -4 1837.65 91.3472   3
  -2   0   4 2057.12 90.8839  13
  -2   0   3 12884.1 94.2993   1
  -2   0   3 14463.7 181.831   8
  -2   0   2 189.765 34.2017  31
   2   0  -2 147.067 24.1613  10
  -2   0   2 171.088 17.6637  10
  -2   0   2 181.437 28.0669   8
  -2   0   1 29856.5 284.356  31
   2   0  -1 31775.3 185.836  10
   2   0   0 53853.8 214.736  10
   2   0   1 3809.45 66.3795  10
  -2   0  -1 3877.00 88.4407   2
  -2   0  -2 2470.98 39.4950   1
   2   0   2 2572.12 69.3078  11
  -2   0  -2 2535.06 93.7059  20
  -2   0  -3 25011.5 186.914   1
   2   0   3 24261.1 239.810  11
   2   0   4 919.731 62.8916  10
  -2   0  -4 1062.31 53.6440   1
   2   0   4 1033.15 65.7649  11
  -2   0  -4 972.775 69.6370  20
   2   0   4 879.412 58.8101  18
  -2   0  -5 24707.8 343.044  20
   2   0   5 25020.0 307.293  18
   2   0   6 1172.83 85.0067  11
  -2   0  -6 1395.16 82.3277   1
  -2   0  -6 1276.95 93.3393  20
  -2   0  -7 65.0809 47.3133  32
  -2   0  -7 27.4874 33.3615   6
   2   0   7 19.6569 50.2839  11
  -2   0  -7 21.9473 35.6576   1
  -2   0  -7 15.8872 46.0677   4
  -2   0  -7 48.7597 57.3345  24
  -2   0  -7 12.8952 38.4391  35
  -2   0  -7 49.8294 41.4585  20
  -2   0  -7 7.73569 57.7159  26
  -2   0  -7 49.2113 64.7648  33
  -2   0  -8 9574.27 274.050  26
  -2   0  -8 9909.52 290.383  20
  -2   0  -8 9142.50 250.077   4
  -2   0  -8 10553.7 282.148  35
  -2   0  -8 10052.8 277.983  24
  -2   0  -8 9829.70 291.675  33
   2   0   8 9761.83 264.374  11
  -2   0  -8 9482.30 216.458  32
  -2   0  -9 9308.07 272.729  26
  -2   0  -9 9793.48 277.683  35
  -2   0  -9 9189.92 270.137  24
  -2   0  -9 9034.31 252.941   4
  -2   0  -9 9166.81 282.609  33
  -2   0  -9 9762.93 239.710  34
  -2   0  -9 9216.99 204.490  32
  -2   0 -10 10184.9 273.773  26
  -2   0 -10 9249.41 265.108  24
  -2   0 -10 9355.57 264.006  35
  -2   0 -10 8815.31 245.496   4
  -2   0 -10 9472.57 207.587  34
  -2   0 -10 10011.4 282.259  33
  -2   0 -10 9064.38 161.442  32
   2   0  11 796.233 81.3076  32
  -2   0 -11 897.093 87.5623  26
  -2   0 -11 711.523 81.9289  24
  -2   0 -11 817.347 77.5645  35
  -2   0 -11 931.845 91.2716  33
  -2   0 -11 782.686 79.1393   4
  -2   0 -11 884.487 50.7773  34
  -2  -1  10 1390.17 82.7947   4
   2   1 -10 1390.62 110.006  27
   2   1 -10 1397.31 106.072  33
   2   1 -10 1271.46 98.4187  24
  -2  -1  10 1390.81 79.2078  35
  -2  -1   9 1015.55 82.2071   4
  -2  -1   9 987.365 88.1681  28
   2   1  -9 948.268 95.3919  26
   2   1  -9 1024.89 101.548  24
  -2  -1   9 1083.53 83.5709  35
  -2  -1   8 1646.93 105.693   4
  -2  -1   8 1383.38 97.0141  35
   2   1  -8 1794.46 126.840  26
  -2  -1   8 1563.00 110.255  28
  -2  -1   7 1474.28 113.799  25
  -2  -1   7 1226.58 91.2008   4
  -2  -1   7 1426.84 106.449  28
   2   1  -7 1421.58 116.627  26
  -2  -1   7 1423.25 105.462   8
  -2  -1   7 1218.86 92.7101  35
  -2  -1   7 1313.62 74.3127  34
  -2  -1   7 1422.94 88.4031   6
  -2  -1   6 1295.82 86.5868   6
  -2  -1   6 1562.52 98.1709  35
  -2  -1   6 1434.63 106.588  28
  -2  -1   6 1222.70 87.5626   4
  -2  -1   6 1138.62 85.7807   4
  -2  -1   6 1375.92 73.2454   1
   2   1  -6 1343.66 107.671  26
  -2  -1   6 1478.47 98.8872   8
  -2  -1   6 1240.05 102.066  25
  -2  -1   6 1562.34 83.8745  34
  -2  -1   5 25023.2 340.212   8
   2   1  -5 24234.6 377.446   3
  -2  -1   4 4767.57 111.913   1
  -2  -1   4 4818.42 138.358   8
   2   1  -4 4890.33 155.435   3
  -2  -1   3 30270.4 300.367   8
  -2  -1   3 31514.2 249.965   1
  -2  -1   2 14151.7 182.240   8
   2   1  -2 14030.4 190.614  10
  -2  -1   1 1966.65 65.0505   8
  -2  -1   1 2121.91 50.8127   1
   2   1   0 22239.6 199.161  10
  -2  -1   0 22572.4 230.005   2
  -2  -1  -1 6768.75 80.2320   1
  -2  -1  -1 6776.31 125.637   2
   2   1   2 1486.95 57.3580  11
  -2  -1  -2 1686.47 49.2215   1
  -2  -1  -2 1523.93 64.2559   2
   2   1   2 1546.39 59.5073  10
  -2  -1  -2 1582.35 54.9083  10
  -2  -1  -3 127937. 467.640   1
   2   1   3 128078. 544.395  11
   2   1   3 126426. 563.309  10
  -2  -1  -3 127623. 590.601   2
   2   1   4 6182.38 138.340  11
  -2  -1  -4 6052.50 121.465   1
  -2  -1  -5 13372.8 199.749   1
   2   1   5 13547.1 228.065  11
  -2  -1  -5 13978.5 242.804  20
   2   1   6 514.883 62.2783  11
  -2  -1  -6 621.987 58.5890   1
  -2  -1  -6 550.804 63.5263  20
   2   1   7 20898.6 342.603  11
  -2  -1  -7 20486.9 369.668  24
  -2  -1  -7 20415.2 313.462   1
  -2  -1  -7 21576.0 249.495   6
  -2  -1  -7 21194.6 363.656  20
  -2  -1  -7 19775.5 350.089   4
  -2  -1  -8 8352.97 252.029  26
  -2  -1  -8 7791.44 207.950   1
  -2  -1  -8 8260.91 246.748  24
  -2  -1  -8 8488.89 252.624  20
  -2  -1  -8 8516.05 242.181   4
   2   1   8 8766.47 244.444  11
  -2  -1  -8 8272.64 216.065  32
  -2  -1  -9 94.6182 53.6146  32
   2   1   9 118.629 59.8899  11
  -2  -1  -9 249.418 71.3744  26
  -2  -1  -9 113.143 59.1257   4
  -2  -1  -9 70.2493 55.2702  24
  -2  -1 -10 694.966 86.1844  26
  -2  -1 -10 499.545 70.8679   4
  -2  -1 -10 652.147 88.6613  24
  -2  -1 -10 616.549 67.4200  32
  -2  -1 -11 34.2548 31.6141  32
   2   1  11 28.7521 57.6219  32
  -2  -1 -11 130.356 57.3892  26
  -2  -1 -11 8.54686 48.9711   4
  -2  -1 -11-72.9773 66.1336  24
  -2  -1 -11 40.0798 51.2426  34
  -2  -1 -11 50.8988 45.8418  35
  -2  -1 -12 24.2427 34.2685  35
  -2  -1 -12 55.0376 44.1619  24
  -2  -1 -12-30.5787 48.3131   4
   2   1  12-20.1799 37.7544  32
  -2  -1 -12 39.0783 50.6100  26
  -2  -2  10 319.776 44.8500   4
   2   2 -10 448.608 71.7787  27
   2   2 -10 366.077 62.9904  26
   2   2 -10 322.489 61.0596  24
  -2  -2   9 1365.20 91.1391   4
   2   2  -9 1447.61 114.028  27
   2   2  -9 1372.31 106.580  26
   2   2  -9 1454.90 111.371  24
  -2  -2   9 1127.40 83.8070  35
  -2  -2   8 6137.80 215.261  25
  -2  -2   8 5626.58 193.004  28
  -2  -2   8 6253.57 199.901  35
   2   2  -8 5801.75 214.897  24
   2   2  -8 5800.88 210.351  26
  -2  -2   8 6058.51 191.805   4
  -2  -2   8 5756.83 109.214  34
  -2  -2   7 1228.05 79.6446  34
  -2  -2   7 1345.35 101.781   4
  -2  -2   7 1231.21 99.1902  28
   2   2  -7 1397.31 115.517  26
  -2  -2   7 1284.23 97.2514  35
  -2  -2   7 1204.22 56.8508  32
  -2  -2   6 72.0678 40.5440  35
  -2  -2   6 8.10906 33.7557  32
  -2  -2   6-3.88267 52.7283   6
  -2  -2   6 14.3308 52.7416  28
  -2  -2   6 37.9122 48.0082   4
   2   2  -6 80.6849 58.1244  26
  -2  -2   6 60.4829 49.7520  25
  -2  -2   6 14.8393 39.0254   4
  -2  -2   6 27.4756 50.2653   8
  -2  -2   6 82.1274 34.8589   1
  -2  -2   6 10.0691 48.3673  34
  -2  -2   5 20486.2 263.565   6
  -2  -2   5 19520.4 324.682  30
  -2  -2   5 20569.5 356.118  28
  -2  -2   5 19339.9 333.120   4
  -2  -2   5 20738.4 352.554  35
  -2  -2   5 20636.9 340.572   8
  -2  -2   5 20661.8 288.417   1
  -2  -2   5 20212.9 360.405  25
  -2  -2   5 21468.5 289.400  32
   2   2  -5 20185.4 367.773   3
  -2  -2   4 21463.0 306.192  30
  -2  -2   4 21298.2 316.623   8
   2   2  -4 21224.6 347.179   3
  -2  -2   3 9138.73 191.069   8
  -2  -2   3 9727.86 173.460   1
   2   2  -2 12665.2 216.391  10
  -2  -2   2 13248.0 208.460   8
   2   2  -1 3316.18 102.852  10
  -2  -2   1 3156.33 100.743   8
  -2  -2   1 3368.01 88.4374   1
   2   2   0 2132.96 79.0434  11
  -2  -2   0 2149.63 80.1828   2
   2   2   0 2263.77 79.2352  10
  -2  -2   0 2318.62 70.3020   1
  -2  -2   0 2384.02 81.2703   8
   2   2   1 12683.7 174.876  11
  -2  -2  -1 12872.4 152.417   1
   2   2   1 13198.8 181.396  10
  -2  -2  -1 12668.6 171.245   8
  -2  -2  -1 12231.4 186.156   2
  -2  -2  -2 33688.4 254.801   1
  -2  -2  -2 33631.2 306.281   2
   2   2   2 33095.5 285.091  11
   2   2   3 32361.1 309.734  10
  -2  -2  -3 32512.5 269.701   1
   2   2   3 32827.1 312.082   8
  -2  -2  -3 32778.2 315.547   2
   2   2   3 32839.6 299.531  11
  -2  -2  -4 759.683 59.3566  11
   2   2   4 807.875 61.3233  10
  -2  -2  -4 865.732 56.8728   1
   2   2   4 912.174 63.2528   8
   2   2   4 850.163 63.3114  11
   2   2   5 18591.4 266.077  11
  -2  -2  -5 18146.2 271.144  11
  -2  -2  -5 18751.0 249.211   1
   2   2   5 18926.7 279.217   8
   2   2   6 7776.00 192.393  11
  -2  -2  -6 7470.04 175.344   1
  -2  -2  -7 29962.9 380.320   1
   2   2   7 29782.4 408.253  11
  -2  -2  -7 30793.0 478.669  21
  -2  -2  -8 3021.51 153.215  26
  -2  -2  -8 2790.18 144.876  24
  -2  -2  -8 2571.09 127.843   1
   2   2   8 2892.65 143.741  11
  -2  -2  -8 2999.15 150.021   4
  -2  -2  -8 2970.92 141.558  32
  -2  -2  -9 11429.0 287.874  24
   2   2   9 11024.1 291.701  11
  -2  -2  -9 11229.2 311.502  21
  -2  -2  -9 11097.2 289.348  26
  -2  -2  -9 10861.3 282.222   4
  -2  -2  -9 10844.8 255.275  32
  -2  -2 -10 40.4162 43.9426  32
  -2  -2 -10 79.6005 56.8797   4
  -2  -2 -10-3.02597 56.9203  26
  -2  -2 -10 15.9055 57.6849  24
  -2  -2 -10 13.3410 55.6575  21
   2   2  11 196.490 55.7903  32
  -2  -2 -11 229.593 61.4002   4
  -2  -2 -11 269.164 48.4831  32
  -2  -2 -11 194.393 61.1367  26
   2   2  12 2906.67 113.243  32
  -2  -2 -12 3222.54 141.780  26
  -2  -2 -12 2774.98 129.357   4
  -2  -2 -12 2850.55 102.560  34
  -2  -3   9 1282.45 80.2358   4
   2   3  -9 1316.86 99.0364  27
   2   3  -9 1285.14 90.7144  26
   2   3  -9 1329.09 92.0523  24
  -2  -3   9 1284.40 79.6763  35
   2   3  -9 1513.15 98.8194  32
  -2  -3   8 1894.15 110.692   4
   2   3  -8 2021.86 136.063  27
   2   3  -8 1910.28 124.858  26
  -2  -3   8 1964.75 121.285  25
   2   3  -8 1888.25 124.323  24
  -2  -3   8 1912.84 110.338  35
  -2  -3   7 925.997 49.7198  32
   2   3  -7 1407.13 115.627  26
  -2  -3   7 1227.96 96.7199   4
  -2  -3   7 1252.07 99.2264  35
  -2  -3   7 1360.53 110.193  25
  -2  -3   7 1043.97 90.1900   4
   2   3  -7 1315.10 116.081  24
  -2  -3   7 1242.90 79.7101  34
  -2  -3   6 171.545 47.6175  32
  -2  -3   6 188.963 53.7329   4
   2   3  -6 194.700 70.5334  26
  -2  -3   6 195.537 58.9824  25
  -2  -3   6 205.264 53.8302  34
  -2  -3   6 191.693 47.2117  35
  -2  -3   5 24804.4 415.031  25
  -2  -3   5 23606.3 392.708   4
  -2  -3   5 23588.9 399.090   8
  -2  -3   5 23998.6 261.315   6
  -2  -3   5 24257.1 349.796   1
  -2  -3   5 24247.5 394.966  28
  -2  -3   5 25133.0 420.559  35
  -2  -3   5 26107.7 344.889  32
  -2  -3   5 24478.1 420.840  14
  -2  -3   5 24956.6 327.119  32
  -2  -3   4 500.341 61.0294   6
  -2  -3   4 573.992 72.3069  35
  -2  -3   4 318.626 58.0446  28
  -2  -3   4 473.527 67.2061  25
  -2  -3   4 450.671 64.9341   4
  -2  -3   4 311.878 58.9285   8
  -2  -3   4 460.477 56.2688   1
   2   3  -4 561.763 68.0336   3
  -2  -3   4 625.627 85.2998  14
  -2  -3   4 343.162 72.5005  29
  -2  -3   4 480.792 60.6136  32
  -2  -3   3 820.913 71.8741   8
  -2  -3   3 916.955 70.0337   1
  -2  -3   2 65.3379 36.8170   1
  -2  -3   2 15.6176 39.2226   8
  -2  -3   1-2.92875 31.2604   1
  -2  -3   1-13.1394 39.6996   8
  -2  -3   0 49.0457 32.4047   1
   2   3   0 44.7752 40.8846  11
  -2  -3   0 90.8641 33.4242  11
   2   3   0 44.2048 33.1735  10
   2   3   0 50.7974 36.2394   8
  -2  -3   0 27.5367 36.4212   8
  -2  -3   0 4.37475 24.0709   2
   2   3   1 6513.08 152.701  11
  -2  -3  -1 6114.01 142.481  11
   2   3   1 6364.21 150.860  10
   2   3   1 6612.18 152.032   8
  -2  -3  -1 6985.08 149.745   2
  -2  -3  -1 6111.14 148.540   8
  -2  -3  -1 5967.95 128.624   1
   2   3   2 30060.1 316.092  11
  -2  -3  -2 28389.2 301.874  11
   2   3   2 29136.0 309.991   1
   2   3   2 29545.4 321.988  10
   2   3   2 30457.8 321.048   8
  -2  -3  -2 29420.1 304.179   8
  -2  -3  -2 29895.3 313.951   2
  -2  -3  -2 29290.2 285.586   1
   2   3   3 4380.00 124.413  11
  -2  -3  -3 3931.38 120.710  11
  -2  -3  -3 4126.33 111.312   1
   2   3   3 4277.34 130.550  10
   2   3   3 4140.40 124.027   1
  -2  -3  -3 4063.56 122.602   2
   2   3   3 3896.87 123.933   8
   2   3   4 4212.53 128.710  11
  -2  -3  -4 4018.18 126.968  11
   2   3   4 3631.19 127.729  10
   2   3   4 3936.63 126.112   1
  -2  -3  -4 3714.40 111.623   1
   2   3   4 4042.55 130.178   8
  -2  -3  -4 3950.36 128.954   2
  -2  -3  -5 16496.8 269.901  11
   2   3   5 17023.5 268.732   1
   2   3   5 17209.4 278.691   8
  -2  -3  -5 17111.6 250.275   1
   2   3   6 120.720 45.0650  11
  -2  -3  -6 189.257 42.9498  11
   2   3   6 171.042 45.0191   1
   2   3   6 154.362 48.2322   8
  -2  -3  -6 113.350 42.9285   1
   2   3   7 1881.08 111.487  11
   2   3   7 1775.37 107.843   1
  -2  -3  -7 1721.05 100.778   1
   2   3   7 1771.42 114.820   8
   2   3   8 36927.8 492.900  11
  -2  -3  -8 34989.3 492.960  26
  -2  -3  -8 31959.8 435.919   1
   2   3   8 33640.3 471.169   1
  -2  -3  -8 35210.5 496.691   4
   2   3   9 9872.02 279.330  11
  -2  -3  -9 10199.1 278.463  26
  -2  -3  -9 10142.8 298.866  21
   2   3   9 10883.3 300.927  23
  -2  -3  -9 9853.56 280.197   4
   2   3   9 10453.7 290.720  16
  -2  -3  -9 9640.81 253.279  32
  -2  -3 -10 300.008 68.8424   4
  -2  -3 -10 280.853 72.2358  26
   2   3  10 229.976 70.3098  22
  -2  -3 -10 198.699 72.7247  21
   2   3  10 377.839 74.6306  32
  -2  -3 -10 327.181 65.9129  32
   2   3  11 1405.75 97.2947  32
   2   3  11 1283.16 111.139   4
  -2  -3 -11 1424.40 113.891  26
  -2  -3 -11 1415.43 111.643   4
  -2  -3 -11 1431.60 92.0331  32
   2   3  12 8461.42 180.225  32
   2   3  12 7523.11 216.863   4
  -2  -3 -12 8307.90 193.594  34
  -2  -3 -12 8383.46 222.021  26
  -2  -3 -12 8382.00 225.146   4
  -2  -3 -12 7159.25 146.423  32
   2   4  -8 1251.57 95.0559  27
  -2  -4   8 1387.20 95.0161  25
  -2  -4   8 1413.70 88.4389  35
  -2  -4   8 1484.01 89.3065   4
   2   4  -8 1652.78 101.577  26
   2   4  -8 1773.74 102.902  32
   2   4  -7 26.3458 59.3549  27
   2   4  -7-13.3600 53.8621  26
  -2  -4   7 38.3865 57.0278  25
   2   4  -7 6.12158 51.5215  24
  -2  -4   7-23.3834 47.4752   4
  -2  -4   7-28.7457 44.0022  35
  -2  -4   7-28.4297 41.6044  34
  -2  -4   6 1826.79 103.119  34
   2   4  -6 2145.06 135.573  26
  -2  -4   6 1783.56 118.805   4
   2   4  -6 2101.99 138.291  24
  -2  -4   6 2283.50 98.0475  32
  -2  -4   6 2336.96 135.765  35
  -2  -4   6 1991.28 127.141  25
  -2  -4   5 4098.08 177.723  25
  -2  -4   5 3818.95 169.312   4
  -2  -4   5 3883.89 179.272  14
  -2  -4   5 3974.04 143.575  32
  -2  -4   5 4053.04 139.899  32
  -2  -4   5 4318.77 184.578  35
  -2  -4   4 270.611 53.1180  32
  -2  -4   4 273.394 69.6365  14
  -2  -4   4 134.763 71.8573  29
  -2  -4   4 207.852 55.5628   4
  -2  -4   4 125.630 57.1456   8
  -2  -4   4 238.308 61.5381  25
  -2  -4   3 4608.60 182.762  25
  -2  -4   3 4383.70 174.566   4
  -2  -4   3 4746.66 180.184   8
  -2  -4   3 4501.68 157.728   1
  -2  -4   3 4834.24 163.043  32
  -2  -4   3 4963.19 200.889  14
  -2  -4   2 194.178 54.5214   8
  -2  -4   2 207.396 48.2731   1
  -2  -4   2 277.960 68.4377  14
   2   4  -1 9367.10 225.455   8
  -2  -4   1 9240.90 216.967   8
  -2  -4   1 9453.67 203.655   1
   2   4   0 87866.6 632.671   1
  -2  -4   0 92952.7 644.263  11
   2   4   0 90666.9 651.399   8
  -2  -4   0 89302.8 634.622   8
  -2  -4   0 91298.5 594.903   1
   2   4   1 167066. 843.734   1
  -2  -4  -1 166625. 844.478  11
   2   4   1 167062. 859.963   8
  -2  -4  -1 168462. 852.031   8
   2   4   1 172126. 868.762  11
  -2  -4  -1 172200. 805.677  18
  -2  -4  -1 164103. 791.865   2
  -2  -4  -1 168108. 783.082   1
  -2  -4  -2 24288.1 293.531   1
   2   4   2 25306.8 326.659  11
   2   4   2 23936.2 312.765   1
  -2  -4  -2 24697.2 319.072  11
   2   4   2 24873.0 329.212   8
  -2  -4  -2 24327.4 318.280   8
  -2  -4  -2 25676.2 309.515  18
  -2  -4  -2 23819.8 303.653   2
   2   4   3 3358.79 124.566  11
  -2  -4  -3 2883.88 115.019   2
  -2  -4  -3 3055.00 110.276   1
  -2  -4  -3 3140.49 118.433  11
   2   4   3 3244.00 118.376   1
   2   4   3 3175.30 122.495   8
  -2  -4  -3 2880.19 114.142   8
  -2  -4  -3 2942.38 110.279  18
   2   4   4 7018.78 179.843  11
  -2  -4  -4 6481.01 173.010  11
  -2  -4  -4 6776.19 165.583   1
   2   4   4 6483.69 167.946   1
   2   4   4 6765.31 181.113   8
  -2  -4  -4 6475.72 171.739   2
   2   4   5 27476.9 368.059  11
  -2  -4  -5 27908.2 373.775  11
   2   4   5 28658.3 368.307   1
  -2  -4  -5 27582.6 373.739   2
  -2  -4  -6 4994.84 171.826  11
   2   4   6 4848.49 169.035  11
   2   4   6 4727.78 165.006   1
  -2  -4  -6 4521.21 153.707   1
   2   4   6 4825.53 169.485   8
   2   4   7-19.7890 47.3097  11
  -2  -4  -7 40.4799 57.1571   4
  -2  -4  -7 71.1226 54.0935  26
   2   4   7 9.76734 50.9689   8
  -2  -4  -7 10.6663 43.9978   1
  -2  -4  -7 11.0051 69.4364  21
   2   4   7 36.5685 43.5589   1
  -2  -4  -7 0.88190 50.7253  11
  -2  -4  -8-7.52958 60.4430  32
   2   4   8 72.2905 60.5792  11
  -2  -4  -8-0.95594 54.6582  26
   2   4   8 2.01901 58.4317   8
  -2  -4  -8 50.1349 66.5145  21
   2   4   8 36.1905 48.0785   1
  -2  -4  -8 6.91884 53.4308   4
  -2  -4  -8 96.6880 48.1992   1
   2   4   8 107.856 63.8634  22
   2   4   9 23573.2 408.661  32
   2   4   9 23646.6 447.269  23
   2   4   9 22940.0 437.969  22
  -2  -4  -9 22594.0 458.889  21
  -2  -4  -9 22858.3 420.577   4
   2   4   9 23834.0 446.844  16
  -2  -4  -9 23037.8 411.520  26
   2   4  10 27985.4 423.365  32
   2   4  10 27782.5 465.803   4
  -2  -4 -10 26174.5 437.553  26
   2   4  10 26219.8 460.323  22
   2   4  10 27420.5 474.823  23
  -2  -4 -10 26916.6 479.253  21
  -2  -4 -10 27100.7 458.551   4
   2   4  10 27570.4 467.175  16
  -2  -4 -10 28089.9 433.219  32
   2   4  11 20163.1 381.632   4
  -2  -4 -11 17851.0 353.390  26
   2   4  11 18512.7 359.058  22
   2   4  11 18914.6 312.814  32
  -2  -4 -11 18762.5 364.963   4
  -2  -4 -11 18659.2 374.834  21
  -2  -4 -11 19633.0 330.217  32
  -2  -4 -12 1306.37 74.9288  32
   2   4  12 1393.78 75.0697  32
  -2  -4 -12 1614.79 103.360  26
   2   4  12 1493.91 102.148   4
  -2  -4 -12 1696.49 107.367   4
  -2  -4 -12 1527.35 105.937  21
  -2  -5   7 16179.4 277.596   4
   2   5  -7 17184.2 298.347  26
  -2  -5   7 15851.2 290.293  25
  -2  -5   7 15706.3 279.350  35
   2   5  -7 17279.9 279.500  32
  -2  -5   6 4536.19 168.200   4
   2   5  -6 4427.62 175.954  26
  -2  -5   6 4342.25 170.827  25
  -2  -5   6 4658.82 173.641   4
  -2  -5   6 4456.83 129.924  34
  -2  -5   6 4749.22 179.300  35
   2   5  -6 4525.38 179.860  32
  -2  -5   5 26.4686 37.6326  32
  -2  -5   5 38.7267 40.5049  32
  -2  -5   5 4.59986 50.4296   4
   2   5  -5-10.5843 54.0317  26
  -2  -5   5-16.6663 56.8026  25
  -2  -5   5-67.9299 65.3475  14
  -2  -5   5-52.3154 61.1174  34
  -2  -5   4 1806.82 131.680  29
  -2  -5   4 1986.64 131.198  14
  -2  -5   4 2133.75 131.413  25
  -2  -5   4 2024.08 128.465   4
  -2  -5   4 2153.98 111.886  32
  -2  -5   3 231.800 59.9477  25
  -2  -5   3 278.185 67.5517   4
  -2  -5   3 271.318 62.9137   8
  -2  -5   3 182.220 53.5861  32
  -2  -5   3 279.069 69.0228  14
  -2  -5   2 6280.89 210.305  25
  -2  -5   2 5955.63 209.121   4
  -2  -5   2 6129.51 210.000   8
  -2  -5   2 6360.50 196.893   1
  -2  -5   2 5603.47 217.745  14
  -2  -5   2 6258.75 196.406  32
   2   5  -1 3975.90 162.711   1
  -2  -5   1 4491.04 162.059   1
  -2  -5   1 4416.66 175.910  25
   2   5  -1 4671.10 182.165   8
  -2  -5   1 4315.76 180.201   4
  -2  -5   1 4183.20 171.076   8
  -2  -5   1 4940.62 200.039  14
  -2  -5   1 4871.25 177.028  32
  -2  -5   0 546.573 71.1392  11
   2   5   0 750.648 83.7567   8
   2   5   0 702.424 73.7663   1
  -2  -5   0 476.069 71.9590   4
  -2  -5   0 798.750 76.7704   8
  -2  -5   0 507.671 66.2500   1
  -2  -5   0 557.465 81.1905  14
   2   5   0 567.817 69.9617   1
   2   5   1 7251.99 203.680   1
  -2  -5  -1 7665.21 207.962  11
   2   5   1 7841.12 212.701   8
  -2  -5  -1 7163.51 191.709   1
  -2  -5  -1 7385.76 209.179   8
  -2  -5  -2 29352.9 394.392  11
  -2  -5  -2 29551.1 369.921   1
   2   5   2 28812.6 400.316   8
   2   5   2 30518.7 397.248   1
  -2  -5  -2 30869.1 409.404   8
   2   5   2 28943.8 404.095  11
   2   5   3 438.760 66.2376  11
  -2  -5  -3 441.293 56.2486   1
   2   5   3 350.994 58.6164   1
  -2  -5  -3 507.240 64.2962  11
   2   5   3 437.472 62.7270   8
  -2  -5  -3 505.635 65.4836   8
  -2  -5  -3 392.597 52.7585  18
  -2  -5  -3 344.291 52.6582   2
   2   5   4 2265.79 123.952  11
   2   5   4 2207.83 112.188   1
  -2  -5  -4 2484.12 123.284  11
  -2  -5  -4 2156.97 110.680   1
   2   5   4 2370.30 123.752   8
  -2  -5  -4 2631.86 124.868   8
  -2  -5  -4 2344.49 116.423   2
   2   5   5 1023.70 87.1405  11
  -2  -5  -5 1179.97 93.0511  11
  -2  -5  -5 1080.34 82.8056   1
  -2  -5  -5 1093.24 82.7402   2
   2   5   5 1054.83 85.9324   1
   2   5   5 1259.35 96.9638   8
   2   5   6 21958.6 369.974  11
   2   5   6 21156.3 354.725   1
  -2  -5  -6 20852.1 351.440   1
  -2  -5  -6 22013.4 373.071  11
  -2  -5  -6 21068.5 360.837   2
   2   5   6 22143.4 377.502   8
   2   5   6 21503.6 396.776  22
  -2  -5  -6 22293.2 395.216   4
   2   5   7 1725.29 127.727   4
   2   5   7 1779.59 117.681  11
  -2  -5  -7 2194.56 129.373  11
   2   5   7 1695.55 111.856   1
  -2  -5  -7 1790.83 110.981   1
  -2  -5  -7 1812.67 124.819  26
   2   5   7 2101.20 135.875   8
   2   5   7 1968.32 130.059  22
  -2  -5  -7 1671.28 121.400   4
  -2  -5  -7 1828.55 120.597   2
   2   5   8 8063.61 255.011   4
   2   5   8 7879.99 239.616  32
  -2  -5  -8 7208.60 240.096  11
   2   5   8 7295.80 253.394  16
  -2  -5  -8 7628.83 239.197  26
   2   5   8 7227.50 238.426   8
   2   5   8 7492.06 249.281  22
  -2  -5  -8 8047.74 254.588   4
  -2  -5  -8 7207.72 257.912  21
  -2  -5  -8 6461.29 223.857  32
   2   5   9 5704.89 218.097   4
  -2  -5  -9 5565.67 209.340  26
   2   5   9 6177.39 204.047  32
   2   5   9 5674.52 227.399  23
   2   5   9 6054.57 223.973  22
  -2  -5  -9 6120.53 224.068   4
  -2  -5  -9 5710.20 230.162  21
   2   5   9 5809.52 225.825  16
  -2  -5 -10 311.991 60.5395  32
   2   5  10 214.835 53.0055  32
  -2  -5 -10 488.082 77.5848   4
   2   5  10 313.105 68.5385   4
   2   5  10 305.240 66.4346  23
   2   5  10 254.858 65.1676  22
  -2  -5 -10 272.748 79.7329  21
   2   5  10 349.135 71.7479  16
  -2  -5 -10 331.833 74.5502  26
   2   5  11 672.754 82.4971   4
   2   5  11 652.151 65.9104  32
   2   5  11 645.950 78.1971  16
  -2  -5 -11 601.993 80.5588  26
   2   5  11 691.216 83.0120  23
   2   5  11 601.054 80.0749  22
  -2  -5 -11 605.894 81.9233   4
  -2  -5 -11 544.144 85.7245  21
  -2  -5 -11 740.541 75.6804  32
   2   5  12-3.51244 24.1518  32
  -2  -5 -12 39.7424 38.9156  32
   2   5  12 18.6639 40.2466  34
  -2  -5 -12-18.0786 54.9281   4
  -2  -5 -12 25.8728 46.7580  26
   2   5  12-12.8119 45.1829   4
   2   5  12-7.81588 41.6466  22
  -2  -5 -12-10.3288 60.9413  21
  -2  -6   6 719.165 68.6970   4
   2   6  -6 762.304 71.3565  26
  -2  -6   6 630.788 67.2438  25
  -2  -6   6 727.852 71.0401   4
   2   6  -5-10.9246 48.1489  32
  -2  -6   5 27.3893 29.8607  32
  -2  -6   5-1.98708 47.6505  34
  -2  -6   5 24.8411 45.9784   4
   2   6  -5 4.83424 50.0711  26
  -2  -6   5-70.5474 56.6615  25
   2   6  -5-4.79808 54.2994  19
  -2  -6   5 25.8616 47.0299  14
   2   6  -4 1820.23 120.761  32
  -2  -6   4 1542.91 120.660  29
   2   6  -4 1591.89 118.301  26
  -2  -6   4 1736.82 117.281  25
  -2  -6   4 1637.38 115.424   4
  -2  -6   4 1826.63 97.4615  32
  -2  -6   4 1597.98 117.464  14
  -2  -6   4 1627.60 90.9691  32
  -2  -6   3 3334.64 161.949  25
  -2  -6   3 3317.80 175.434  29
  -2  -6   3 3120.51 161.405   4
  -2  -6   3 3341.22 168.808  14
   2   6  -3 3439.38 163.156  32
  -2  -6   3 3370.41 139.934  32
  -2  -6   2 2464.37 141.770  25
  -2  -6   2 2806.88 155.622   4
  -2  -6   2 2787.79 162.251  14
  -2  -6   2 2558.62 132.554  32
  -2  -6   1 6906.97 224.837  25
  -2  -6   1 7465.10 245.371   4
  -2  -6   1 7460.44 245.509   8
  -2  -6   1 7590.84 259.900  14
  -2  -6   1 7345.05 222.091  32
  -2  -6   0 34.5794 58.8676  32
  -2  -6   0 33.2419 55.7347   4
  -2  -6   0 50.9051 42.1723  25
   2   6   0 83.3891 55.4041   8
  -2  -6   0 6.94784 55.4604   8
  -2  -6   0 29.7942 48.1094   1
   2   6   0 90.0072 47.0031   1
  -2  -6   0 10.7107 59.5335  14
  -2  -6  -1 4830.85 188.343  11
   2   6   1 4138.66 170.143   1
  -2  -6  -1 4364.94 178.840  25
   2   6   1 4452.66 184.701   8
  -2  -6  -1 4625.93 192.248   4
  -2  -6  -1 4346.93 176.926   8
  -2  -6  -1 4580.41 175.916   1
  -2  -6  -1 3903.39 168.783  32
   2   6   1 3742.52 163.313   1
   2   6   2 5517.85 191.625   1
  -2  -6  -2 5341.85 192.338  11
  -2  -6  -2 5075.53 188.014  25
   2   6   2 5692.36 199.250   8
  -2  -6  -2 5886.45 215.379   4
  -2  -6  -2 5510.38 199.716   8
  -2  -6  -2 5253.57 182.649   1
   2   6   3 6076.81 206.679  11
  -2  -6  -3 5736.60 197.082  11
   2   6   3 5781.67 194.618   1
  -2  -6  -3 5489.90 197.112  25
   2   6   3 6163.59 207.113   8
   2   6   3 5507.79 207.567   4
  -2  -6  -3 5603.00 205.893   4
  -2  -6  -3 5861.28 202.099   8
  -2  -6  -3 5255.15 183.895   1
  -2  -6  -4 13058.9 283.867   1
   2   6   4 13023.1 287.502   1
  -2  -6  -4 13939.3 306.310  11
  -2  -6  -4 12565.4 295.338  25
   2   6   4 13429.5 302.591   8
  -2  -6  -4 13420.7 318.501   4
  -2  -6  -4 13710.8 311.998   8
   2   6   4 12959.9 302.474  11
   2   6   4 13720.7 317.039   4
   2   6   5 42.2152 50.3328  11
  -2  -6  -5 33.9074 49.5450  11
   2   6   5 48.3579 53.4845   4
   2   6   5 24.7282 49.7290   1
   2   6   5 40.6704 54.4819   8
  -2  -6  -5 0.87041 44.8687   1
  -2  -6  -5 7.71386 59.0347   8
  -2  -6  -5 64.3088 40.2577   2
  -2  -6  -6 5051.77 188.762   1
   2   6   6 5273.39 192.243   1
  -2  -6  -6 5587.51 205.388  11
   2   6   6 5680.27 210.843   8
   2   6   6 5307.55 201.948  22
  -2  -6  -6 5935.67 214.565   8
  -2  -6  -6 5251.36 193.623   2
   2   6   6 5696.65 220.671  16
   2   6   6 5983.68 212.802  32
   2   6   6 5638.54 212.901   4
   2   6   7 116.969 57.0068  32
  -2  -6  -7 9.49849 52.0884  11
   2   6   7 135.959 58.3035   4
   2   6   7 162.145 69.3004  23
   2   6   7 105.061 54.8950  22
   2   6   7 210.700 62.3848   8
  -2  -6  -7 147.275 77.4617  21
   2   6   7 176.424 64.9036  16
  -2  -6  -8 4117.85 186.904  11
   2   6   8 4945.51 182.000  32
   2   6   8 4481.13 208.699  23
   2   6   8 4639.71 198.138  22
  -2  -6  -8 4287.24 204.145  21
   2   6   8 4722.87 208.121  16
   2   6   8 5062.25 202.511   4
   2   6   9 1213.24 94.3871  32
   2   6   9 1352.18 121.132  23
  -2  -6  -9 1490.88 120.319  32
   2   6   9 1361.02 112.848  22
  -2  -6  -9 1231.91 118.761  21
   2   6   9 1538.33 124.698  16
   2   6   9 1321.93 112.876   4
   2   6  10 660.106 67.2292  32
  -2  -6 -10 473.849 82.1953  26
   2   6  10 702.396 90.4386  23
   2   6  10 571.345 75.2064  22
  -2  -6 -10 665.985 99.2081  21
   2   6  10 408.084 72.7090  16
  -2  -6 -10 726.388 82.2788  32
   2   6  10 691.725 85.3929   4
   2   6  11-0.37916 30.3634  32
   2   6  11-20.0265 51.0253   4
   2   6  11-19.7636 51.6468  23
   2   6  11 17.1419 45.5809  22
  -2  -6 -11-48.6534 64.6267  21
   2   6  11-25.0051 47.8323  16
  -2  -6 -11 34.3665 45.6518  32
   2   6  12 1145.40 83.0582   4
   2   6  12 1034.10 80.7900  22
  -2  -6 -12 1008.22 84.2536  21
  -2  -7   4 1785.85 104.464  14
  -2  -7   4 1843.93 105.384  25
  -2  -7   4 1838.68 110.203   4
   2   7  -4 1614.30 106.360   4
  -2  -7   4 1523.64 101.244  29
  -2  -7   4 1864.73 87.3618  34
   2   7  -3 6687.90 189.591  32
  -2  -7   3 6638.76 221.684  29
  -2  -7   3 6051.47 198.602  25
  -2  -7   3 6776.07 214.379   4
   2   7  -3 6572.32 219.363  19
   2   7  -3 6348.26 216.206   4
  -2  -7   3 6537.65 211.227  14
  -2  -7   3 6708.49 167.193  32
   2   7  -2 2076.47 122.857  32
  -2  -7   2 1954.51 126.363  25
  -2  -7   2 2003.32 131.219   4
   2   7  -2 2138.86 134.451  19
  -2  -7   2 2532.52 151.778  29
  -2  -7   2 1985.98 135.474  14
  -2  -7   2 2135.18 111.721  32
   2   7  -2 2091.28 137.108   4
  -2  -7   1 2519.91 130.251  32
  -2  -7   1 2137.19 131.490  25
  -2  -7   1 2050.16 137.279   4
   2   7  -1 2221.26 144.732   4
   2   7  -1 2409.91 134.168  32
  -2  -7   1 2345.51 147.491  14
   2   7   0 195.226 77.5142  31
  -2  -7   0 377.757 75.2472   4
  -2  -7   0 452.925 73.0007  25
   2   7   0 293.740 65.3324  32
   2   7   0 455.388 81.8774   4
  -2  -7   0 340.526 74.7436  14
  -2  -7   0 383.718 69.0968  32
   2   7   1 1554.26 117.806  32
  -2  -7  -1 1502.81 108.903  25
  -2  -7  -1 1943.04 134.109   4
   2   7   1 1658.80 129.140   4
  -2  -7  -1 1696.22 127.427  14
  -2  -7  -1 1500.63 114.635  32
   2   7   2 3222.53 156.867  32
  -2  -7  -2 2788.95 155.846  11
  -2  -7  -2 3018.56 155.391  25
   2   7   2 2600.72 152.512   8
   2   7   2 2904.31 153.763   4
  -2  -7  -2 3315.40 167.485  14
   2   7   3 3090.54 153.622  32
  -2  -7  -3 3095.05 162.543  11
  -2  -7  -3 2960.62 151.198  25
   2   7   3 2933.58 157.930   8
   2   7   3 3528.44 170.840   4
   2   7   4 7166.57 226.654  32
  -2  -7  -4 6900.60 238.767  11
   2   7   4 6698.34 235.328   8
   2   7   4 7269.70 241.848   4
   2   7   5 115.123 52.4144  32
  -2  -7  -5 58.4513 56.3145  11
  -2  -7  -5 32.2292 52.7593  25
   2   7   5 192.302 61.5105   4
   2   7   5 107.903 62.3609   8
   2   7   6 8220.82 232.748  32
  -2  -7  -6 7335.11 247.095  11
  -2  -7  -6 7504.86 241.349  25
   2   7   6 7624.64 258.069  23
   2   7   6 8035.99 241.081  22
   2   7   6 8103.12 257.236  16
   2   7   6 7972.94 252.183   4
   2   7   7 14846.6 292.663  32
   2   7   7 14857.0 330.152  22
   2   7   7 13831.1 340.359  16
   2   7   7 14506.7 332.232   4
   2   7   8 1338.72 94.4215  32
   2   7   8 1276.01 120.026  23
  -2  -7  -8 1549.02 114.953  32
   2   7   8 1464.88 114.537  22
   2   7   8 1308.77 114.577  16
   2   7   8 1417.76 113.598   4
   2   7   9 138.543 42.4204  32
   2   7   9 117.279 58.1935  34
   2   7   9 108.107 54.1419   4
   2   7   9 244.992 68.1264  23
   2   7   9 149.749 57.6312  22
  -2  -7  -9 80.0241 62.2143  32
  -2  -7  -9 50.2904 68.1680  21
   2   7   9 39.8580 57.7893  16
   2   7  10 139.246 33.8122  32
   2   7  10 300.317 65.6131   4
  -2  -7 -10 355.588 61.3564  32
   2   7  10 313.426 69.6878  23
   2   7  10 354.506 70.7435  22
  -2  -7 -10 173.490 62.6765  21
   2   7  10 278.454 61.7662  16
   2   7  10 183.392 44.9433  34
  -2  -7 -11 279.689 48.9966  32
   2   7  11 145.029 28.1784  34
   2   7  11 262.670 55.9937   4
   2   7  11 257.908 54.9488  23
   2   7  11 288.876 52.8008  22
  -2  -7 -11 208.090 58.0175  21
   2   7  11 167.548 47.7996  16
   2   7  11 181.779 46.5198  35
  -2  -8   2 146.797 38.6417  32
  -2  -8   2 75.8562 52.5140  29
  -2  -8   2 98.4319 50.6829   4
  -2  -8   2 142.452 51.3310  14
  -2  -8   2 18.9581 47.8683  25
   2   8  -2 15.0605 50.9670   4
   2   8  -2 22.2631 27.0535  32
   2   8  -2 106.460 44.3794  34
   2   8  -1 22.5095 39.9924  32
  -2  -8   1-21.8256 44.8663  32
  -2  -8   1-33.8563 53.7390  29
  -2  -8   1 29.2487 49.8161   4
  -2  -8   1-7.20507 51.1680  25
   2   8  -1-32.4664 61.4036   4
  -2  -8   1 12.9302 52.4177  14
   2   8  -1 28.5433 53.4758  34
   2   8   0 623.722 66.0467  32
  -2  -8   0 403.370 73.8075  29
  -2  -8   0 350.609 64.0680  25
  -2  -8   0 455.491 60.9982  32
   2   8   0 565.712 80.0276   4
  -2  -8   0 518.700 79.6678  14
   2   8   1 4243.17 151.877  32
  -2  -8  -1 3897.43 168.053  25
   2   8   1 4053.02 178.522   4
  -2  -8  -1 3877.84 180.216  14
  -2  -8  -1 4207.16 163.563  32
   2   8   2 4085.42 152.859  32
  -2  -8  -2 4295.25 193.413  29
  -2  -8  -2 3943.42 171.930  25
   2   8   2 4137.10 184.376   4
  -2  -8  -2 4553.38 177.753  32
   2   8   3 602.890 69.4615  32
  -2  -8  -3 652.594 84.5618  25
  -2  -8  -3 692.711 87.0894  32
  -2  -8  -4 183.787 69.3333  32
   2   8   4 215.599 53.0586  32
  -2  -8  -4 158.225 54.7378  25
   2   8   4 84.7775 51.5795   4
   2   8   5 129.368 49.6541  32
  -2  -8  -5 170.835 57.6334  25
   2   8   5 78.0182 55.4880   4
  -2  -8  -6 3316.00 158.879  25
   2   8   6 3245.23 130.719  32
   2   8   6 3294.31 163.831   4
   2   8   7 1139.40 75.3681  32
   2   8   7 1058.48 100.012   4
  -2  -8  -7 1096.94 99.5541  25
   2   8   7 1021.43 88.1601  34
  -2  -8  -7 1149.63 101.356  32
   2   8   8 1550.41 116.244  16
  -2  -8  -8 1846.88 117.927  25
   2   8   8 1420.81 114.169  23
   2   8   8 1633.85 110.375  22
   2   8   8 1646.42 116.309  35
   2   8   8 1613.98 94.5698  34
   2   8   8 1743.89 114.780   4
  -2  -8  -8 1652.98 113.726  32
   2   8   9 2125.03 84.1199  34
   2   8   9 2093.96 118.621  35
  -2  -8  -9 2256.73 122.841  25
   2   8   9 1975.89 123.241  23
   2   8   9 2096.37 119.924  22
   2   8   9 2118.86 123.958  16
  -2  -8  -9 1906.86 109.708  32
   2   8   9 2104.05 119.095   4
  -2  -8 -10 712.663 71.8066  25
   2   8  10 705.903 81.8670  23
   2   8  10 924.076 81.8164  22
   2   8  10 762.144 69.8783  35
   2   8  10 805.367 72.9704   4
  -2  -8 -10 748.133 68.3027  32
  -2  -9   0 463.995 63.9779  25
   2   9   0 300.873 59.3411   4
  -2  -9   0 328.154 45.1499  32
  -2  -9  -1 654.628 71.0642  25
  -2  -9  -1 691.862 76.2313  29
   2   9   1 899.811 80.3894   4
   2   9   1 779.913 79.5610  35
  -2  -9  -1 804.438 74.9329  14
   2   9   1 643.434 49.4604  34
  -2  -9  -1 801.687 64.7585  32
  -2  -9  -2 2074.18 118.644  25
   2   9   2 2457.23 130.601  35
   2   9   2 2328.72 121.999   4
   2   9   2 2132.97 123.381  35
   2   9   2 2178.11 88.9986  34
  -2  -9  -2 2452.39 114.160  32
  -2  -9  -3 96.4184 48.6211  32
   2   9   3-2.90917 12.4684  32
  -2  -9  -3 17.3906 40.5036  25
   2   9   3 34.5859 48.2262   4
   2   9   3 89.8728 53.1051  35
   2   9   3-31.7727 50.1470  34
  -2  -9  -4 788.006 79.7517  25
   2   9   4 798.078 80.9197  35
   2   9   4 730.891 82.3467   4
   2   9   4 687.692 61.5989  34
  -2  -9  -4 871.721 80.1777  32
   2   9   5 82.9663 54.9062  12
  -2  -9  -5-12.7617 53.9999  32
  -2  -9  -5 59.8161 44.7690  25
   2   9   5 75.7630 48.9886   4
   2   9   5 80.8454 50.8815  35
   2   9   5 17.5349 44.4279  34
  -2  -9  -6 348.143 65.4351  32
  -2  -9  -6 313.328 55.8965  25
   2   9   6 245.785 53.5786   4
   2   9   6 428.786 63.8678  35
   2   9   6 360.886 44.5572  34
  -2  -9  -7 1484.14 98.3385  25
   2   9   7 1502.28 100.021   4
   2   9   7 1718.37 104.732  35
  -2  -9  -7 1713.58 103.826  32
  -2  -9  -8 80.3169 45.8217  32
  -2  -9  -8 100.069 45.2331  25
   2   9   8 173.460 49.7493   4
   2   9   8 80.4013 36.9642  35
  -2  -9  -9 951.216 77.3373  25
   2   9   9 929.765 73.9101   4
  -2  -9  -9 795.167 71.3361  32
  -3   8   7 1491.24 80.3147   5
  -3   8   7 1324.04 96.0721  22
  -3   8   7 1488.03 69.3306   6
  -3   8   6 62.7820 36.0563   6
  -3   8   6 52.8910 34.7486   5
  -3   8   6 43.8302 44.5083  22
  -3   8   6 30.8889 44.3355  12
  -3   8   5 316.156 50.1276   5
  -3   8   5 300.970 60.0150  12
  -3   8   4 720.559 64.6640   5
  -3   8   4 806.775 88.8006  12
  -3   8   3 9877.02 270.568  12
  -3   8   3 11209.0 229.092   5
  -3   8   2 2908.63 123.405   5
  -3   8   2 2806.46 147.287  12
  -3   8   2 2804.05 99.4157   6
  -3   8   1 681.830 54.5955   6
  -3   8   1 462.343 69.0149  12
  -3   8   0 3215.92 102.963   6
  -3   8   0 3030.19 138.555  12
  -3   8  -1 9366.18 154.665   6
  -3   7   9 4176.65 160.061  23
  -3   7   9 4126.50 105.417   6
  -3   7   8 174.692 44.2730   6
  -3   7   8 124.830 43.0187   5
  -3   7   8 108.431 55.0677  23
  -3   7   8 134.640 53.7885  22
  -3   7   7 4260.29 141.008   5
  -3   7   7 4054.59 178.158  23
  -3   7   6 11753.4 230.705   5
  -3   7   6 11482.5 295.717  23
  -3   7   6 11198.9 292.499  22
  -3   7   6 11901.4 291.313  12
  -3   7   5 9662.70 208.829   5
  -3   7   5 8965.18 260.909  23
  -3   7   5 8911.24 264.145  12
  -3   7   4 292.022 50.3360   5
  -3   7   4 188.240 68.8883  22
  -3   7   4 301.931 76.1317  12
  -3   7   3 559.304 60.9187   5
  -3   7   3 587.088 86.2365  22
  -3   7   3 663.180 90.7744  12
  -3   7   2 296.930 72.2701  12
  -3   7   2 321.589 54.5540   5
  -3   7   1 82.8848 54.3749  12
  -3   7   1 160.386 46.7054   5
  -3   7   0 48.9372 31.8587   6
  -3   7   0-35.7376 47.3198  33
  -3   7  -1 36.4244 52.4379  27
  -3   7  -1 9.84210 48.2341  33
  -3   7  -2-36.1608 50.2171  27
  -3   7  -2 0.83410 45.4200  33
  -3   7  -3 58.4823 47.9062  27
  -3   7  -3-0.73549 39.5197  33
  -3   6  10 4764.97 164.845  23
  -3   6  10 4517.40 107.282   6
  -3   6   9 929.739 94.3063  23
  -3   6   9 694.708 61.8418   6
  -3   6   8 12.3883 34.2366   6
  -3   6   8-12.9512 44.5160   5
  -3   6   8-18.7800 63.1449  23
  -3   6   8 5.44881 49.3288  22
  -3   6   7 753.368 69.9268   5
  -3   6   7 820.873 101.940  23
  -3   6   6 1584.07 91.0941   5
  -3   6   6 1642.41 127.576  23
  -3   6   6 1634.55 118.289  12
  -3   6   5 6142.26 228.618  23
  -3   6   5 6186.20 170.141  36
  -3   6   5 5650.70 220.374  22
  -3   6   5 5501.10 153.985   5
  -3   6   5 6120.56 225.379  12
  -3   6   4 24127.1 436.595  31
  -3   6   4 25256.0 440.370  23
  -3   6   4 24091.9 313.979   5
  -3   6   4 25474.1 334.235  36
  -3   6   4 24910.1 455.137  12
  -3   6   3 80.1368 56.9173  12
  -3   6   3 18.8177 55.6834  31
  -3   6   3 103.228 37.0136   5
  -3   6   3 21.3874 54.9254  33
  -3   6   3 149.719 66.8371  22
  -3   6   3 125.289 41.8042  36
  -3   6   2 1540.11 120.029  31
  -3   6   2 1553.04 118.294  33
  -3   6   2 1634.41 87.8700   5
  -3   6   2 1569.49 124.460  12
  -3   6   1 19920.9 413.517  31
  -3   6   1 22348.8 408.158  27
  -3   6   1 22190.4 319.946   5
  -3   6   1 21454.7 398.094  33
  -3   6   1 20695.3 420.424  12
  -3   6   0 3676.40 183.646  31
  -3   6   0 4268.97 183.991  33
  -3   6   0 4155.36 185.316  27
  -3   6   0 4327.51 154.279   5
  -3   6   0 4430.56 197.220  12
  -3   6  -1 55.9780 55.4923  31
  -3   6  -1 95.3615 55.7520  27
  -3   6  -1-5.11882 45.0244  33
  -3   6  -1 77.3916 55.1726  12
  -3   6  -2 157.757 46.9816   6
  -3   6  -2 225.491 66.7766  27
  -3   6  -2 164.460 21.8606   7
  -3   6  -2 149.620 67.1458  33
  -3   6  -3 79.1761 39.6898   6
  -3   6  -3-35.5542 68.5738  27
  -3   6  -3 26.2517 19.4519   7
  -3   6  -3 8.91023 55.0236  33
  -3   6  -4 268.697 45.9648   6
  -3   6  -4 217.558 64.7124  27
  -3   6  -4 288.286 68.4662  33
  -3   6  -5 2219.56 72.8825   6
  -3   6  -5 2530.76 132.993  27
  -3   5  10 63.1110 41.8118   6
  -3   5  10 26.6896 44.0075  23
  -3   5   9 21.5654 51.9390   6
  -3   5   9-23.5486 56.8699  23
  -3   5   8 87.1991 57.4113   9
  -3   5   8-26.2246 67.0108  23
  -3   5   7 210.792 58.7385   9
  -3   5   7 258.753 49.7228   5
  -3   5   7 328.095 77.9558  23
  -3   5   6 1244.36 81.8934  36
  -3   5   6 1063.87 95.0087   9
  -3   5   6 1203.29 78.5089   5
  -3   5   6 1178.13 117.532  23
  -3   5   6 1284.64 107.088  12
  -3   5   5 54.2543 42.2572  31
  -3   5   5 86.2007 38.0676  36
  -3   5   5 30.4931 28.6541   5
  -3   5   5 26.8014 54.3869  33
  -3   5   5 137.392 68.8267  23
  -3   5   5 41.9842 53.0743  22
  -3   5   5 139.955 61.8498  12
  -3   5   4 3214.12 164.441  12
  -3   5   4 3234.46 105.659   5
  -3   5   4 3062.95 163.474  23
  -3   5   4 3399.70 159.338  31
  -3   5   4 3450.79 115.127  36
  -3   5   3 5457.30 199.156  27
  -3   5   3 5720.17 133.357   5
  -3   5   3 6063.36 219.109  23
  -3   5   3 5612.92 206.319  33
  -3   5   3 5573.43 212.665  12
  -3   5   2 84.5704 48.6765  12
  -3   5   2 106.795 53.1919  31
  -3   5   2 119.157 54.8140  33
  -3   5   2 79.3502 38.3657  36
  -3   5   2 44.8387 58.3206  27
  -3   5   2 72.3542 30.8287   5
  -3   5   2 43.3820 47.5808  22
  -3   5   2 170.068 69.1747  21
  -3   5   1 12753.0 313.897  31
  -3   5   1 13438.5 308.474  27
  -3   5   1 12911.9 215.494   5
  -3   5   1 13591.0 308.895  33
  -3   5   1 14104.1 231.204  36
  -3   5   1 12885.8 317.552  12
  -3   5   0 4256.89 188.307  31
  -3   5   0 4683.93 192.395  27
  -3   5   0 4382.68 136.915   5
  -3   5   0 4702.23 148.802  36
  -3   5   0 4966.21 195.128  33
  -3   5   0 4703.25 196.566  12
  -3   5  -1 7460.32 249.206  31
  -3   5  -1 7264.68 240.142  27
  -3   5  -1 7768.99 195.887   5
  -3   5  -1 6792.16 117.718   7
  -3   5  -1 7170.60 238.546  33
  -3   5  -1 7396.06 239.608  12
  -3   5  -2 14252.9 342.155  31
  -3   5  -2 14988.8 349.130  27
  -3   5  -2 13781.4 349.095  19
  -3   5  -2 13716.8 204.289   7
  -3   5  -2 14696.8 341.476  33
  -3   5  -3 36.3169 29.5257   7
  -3   5  -3 95.7875 59.7180  31
  -3   5  -3-12.2437 62.3428  27
  -3   5  -3 131.680 60.9577  19
  -3   5  -3 48.3399 65.3825  33
  -3   5  -4 500.269 83.9057  27
  -3   5  -4 573.892 88.4735  19
  -3   5  -4 529.322 53.8404   7
  -3   5  -4 553.058 59.3870   6
  -3   5  -4 645.444 89.7656  33
  -3   5  -5 601.216 90.7776  27
  -3   5  -5 647.703 58.9900   7
  -3   5  -5 880.345 66.9104   6
  -3   5  -5 803.410 91.4137  33
  -3   5  -6 4304.95 103.937   6
  -3   5  -6 4527.63 183.541  27
  -3   5  -6 4618.80 124.328   7
  -3   5  -6 4835.47 186.746  33
  -3   5  -7 1877.49 114.068  27
  -3   5  -7 1676.77 51.2581   7
  -3   4  10 171.962 48.9360  28
  -3   4  10 306.891 56.2259   6
  -3   4   9 48.7449 64.9795   6
  -3   4   9 62.8421 49.2056  28
  -3   4   9 79.9288 54.7529   9
  -3   4   9 61.5195 57.1200  23
  -3   4   8 4530.20 196.967   9
  -3   4   8 5080.86 205.723  23
  -3   4   7 16934.7 279.737   5
  -3   4   7 16258.0 360.641   9
  -3   4   7 16103.7 371.792  23
  -3   4   6 75550.5 573.623  36
  -3   4   6 77100.8 542.461   5
  -3   4   6 74994.7 746.582   9
  -3   4   6 74460.5 780.585  23
  -3   4   5 10367.9 262.352  31
  -3   4   5 9450.60 172.876   5
  -3   4   5 10043.7 189.946  36
  -3   4   5 9903.60 261.191   9
  -3   4   5 9618.90 278.351  23
  -3   4   5 10303.8 269.375  12
  -3   4   4 15.5555 41.8590  31
  -3   4   4-40.2815 62.2075  14
  -3   4   4-27.6477 53.0771  27
  -3   4   4 74.6234 41.9345   9
  -3   4   4 57.4914 25.5847   5
  -3   4   4 108.758 28.6669   5
  -3   4   4-13.3010 55.4867  23
  -3   4   4 55.9055 52.9611  22
  -3   4   4 88.5489 66.3530  21
  -3   4   4 5.80732 27.0071  36
  -3   4   4 126.925 58.1291  33
  -3   4   4 44.3984 48.2774  12
  -3   4   3 5393.85 186.141  31
  -3   4   3 5830.51 199.957  27
  -3   4   3 5610.03 183.321   9
  -3   4   3 5353.45 108.558   5
  -3   4   3 5727.33 203.592  23
  -3   4   3 5783.62 212.761  21
  -3   4   3 5180.94 190.681  33
  -3   4   3 5530.93 200.884  12
  -3   4   2 13319.5 292.747  31
  -3   4   2 13572.0 311.295  12
  -3   4   2 13913.3 297.360  27
  -3   4   2 14110.0 282.062   9
  -3   4   2 13658.2 165.534   5
  -3   4   2 13614.7 293.695  33
  -3   4   2 14105.0 173.947  36
  -3   4   1 764.767 78.1327  31
  -3   4   1 932.405 54.4267  36
  -3   4   1 866.502 91.4503  14
  -3   4   1 825.936 89.1338  27
  -3   4   1 727.087 73.3458   9
  -3   4   1 810.925 47.2746   5
  -3   4   1 1062.64 93.9826  33
  -3   4   1 873.904 90.0503  12
  -3   4   0 712.686 78.5052  31
  -3   4   0 852.501 57.9510  36
  -3   4   0 793.655 95.3640  29
  -3   4   0 680.404 94.7776  27
  -3   4   0 719.202 74.3009   9
  -3   4   0 811.825 53.8166   5
  -3   4   0 878.035 86.9648  33
  -3   4   0 927.890 94.6831  12
  -3   4  -1 3140.11 149.805  31
  -3   4  -1 2859.92 149.746  33
  -3   4  -1 2936.01 153.753  27
  -3   4  -1 3056.30 109.214   5
  -3   4  -1 3014.63 76.3885   7
  -3   4  -1 3401.61 119.936  36
  -3   4  -1 3209.49 155.928  12
  -3   4  -2 1204.35 98.0349  31
  -3   4  -2 1233.99 105.655  27
  -3   4  -2 1444.12 88.8592   5
  -3   4  -2 1291.51 65.4929   7
  -3   4  -2 1408.64 114.654  33
  -3   4  -3 29531.0 464.339  31
  -3   4  -3 29233.4 344.245   7
  -3   4  -3 29338.7 479.988  33
  -3   4  -4 29430.8 257.635  35
   3  -4   4 30310.2 430.204  11
  -3   4  -4 31142.6 507.392  19
  -3   4  -4 30105.1 379.798   7
  -3   4  -4 28968.1 493.839  27
  -3   4  -4 31045.6 506.148  33
  -3   4  -5 7420.56 259.210  27
  -3   4  -5 7478.20 199.571   7
  -3   4  -5 7445.45 141.232  35
  -3   4  -5 7492.04 173.704   6
  -3   4  -5 7484.06 252.547  33
  -3   4  -6 210.388 44.7873   7
  -3   4  -6 221.939 69.9400  27
  -3   4  -6 336.717 47.7092   6
  -3   4  -6 279.320 32.3786  35
  -3   4  -6 227.427 68.8508  33
  -3   4  -7 410.327 70.2258  27
  -3   4  -7 475.942 78.0679  33
  -3   4  -8 1867.30 114.200  27
  -3   4  -8 1730.96 78.1662   7
  -3   4  -8 1729.78 112.746  33
  -3   3  11 51.9865 42.7108  28
  -3   3  10 28.0261 46.4815   6
  -3   3  10-33.6158 52.3954  28
  -3   3   9 3352.60 123.976   6
  -3   3   9 3138.53 153.811  28
  -3   3   9 2965.83 161.329   9
  -3   3   9 2957.85 79.7785   7
  -3   3   8 10650.2 273.805  28
  -3   3   8 9821.56 289.385   9
  -3   3   8 10303.8 281.164  23
  -3   3   8 10030.6 158.878   7
  -3   3   7 4552.71 180.736  28
  -3   3   7 4925.91 202.658   9
  -3   3   7 4702.54 200.982  23
  -3   3   7 4371.03 103.177   7
  -3   3   6 12369.5 223.789   5
  -3   3   6 12693.7 285.999  28
  -3   3   6 11889.3 297.391   9
  -3   3   6 12822.7 317.696  23
  -3   3   6 11678.2 144.039   7
  -3   3   5 10920.9 185.179   5
  -3   3   5 10793.8 273.468   9
  -3   3   5 10863.2 286.439  23
  -3   3   5 10746.7 191.871  36
  -3   3   4 30959.6 265.817   5
  -3   3   4 31982.7 440.970   9
  -3   3   4 31973.3 470.408  23
  -3   3   4 31946.6 274.722  36
  -3   3   4 31378.2 421.005  31
  -3   3   4 30528.7 438.861  33
  -3   3   3 211.831 44.2522  31
  -3   3   3 243.335 51.9565   9
  -3   3   2 31061.4 403.105   9
  -3   3   2 32053.9 410.335  31
  -3   3   1 358.925 53.9208  31
  -3   3   1 335.670 52.0305   9
  -3   3   0 1084.00 82.1661  31
  -3   3   0 1221.24 87.6464   9
  -3   3  -1 16535.6 300.223  31
  -3   3  -1 16160.5 305.872   9
  -3   3  -2 45821.1 509.460  31
  -3   3  -2 45448.8 537.243  29
  -3   3  -2 46181.5 407.213   5
  -3   3  -2 47137.9 562.873  19
  -3   3  -2 45822.0 547.212  33
  -3   3  -3 5109.54 178.486  31
   3  -3   3 5449.25 156.624  11
  -3   3  -3 4731.27 198.254  27
  -3   3  -3 4610.66 190.418  19
  -3   3  -3 4889.95 140.195   7
  -3   3  -3 5171.41 102.444  35
  -3   3  -3 4745.81 191.847  33
   3  -3   4 2129.00 112.618  11
  -3   3  -4 1996.33 139.224  27
  -3   3  -4 2174.49 139.510  20
  -3   3  -4 1988.57 101.173   7
  -3   3  -4 2110.98 86.2938  35
  -3   3  -4 2452.31 139.775  24
  -3   3  -4 1957.30 132.789  33
   3  -3   5 919.960 84.0954  11
  -3   3  -5 847.088 104.779  27
  -3   3  -5 819.760 99.1869  24
  -3   3  -5 794.601 67.5350   6
  -3   3  -5 884.966 104.989  20
  -3   3  -5 742.369 66.1151   4
  -3   3  -5 617.510 66.2941   7
  -3   3  -5 866.622 63.4718  35
  -3   3  -5 759.014 100.641  33
  -3   3  -6 3789.88 189.014  27
  -3   3  -6 4016.17 181.004  24
  -3   3  -6 4030.32 132.595  35
  -3   3  -6 4281.75 145.025   4
  -3   3  -6 4044.07 158.712   7
  -3   3  -6 4419.23 135.991   6
  -3   3  -6 4085.18 194.429  33
  -3   3  -7 3090.38 172.377  33
  -3   3  -7 2965.31 164.226  27
  -3   3  -7 2784.35 152.362  24
  -3   3  -7 3365.21 125.737   4
  -3   3  -7 3269.87 145.020   7
  -3   3  -7 3008.69 112.157  35
  -3   3  -7 3053.66 106.050   6
  -3   3  -8 1779.38 125.731  27
  -3   3  -8 2012.22 123.529  24
  -3   3  -8 1897.61 106.664   7
  -3   3  -8 1854.36 78.5604  35
  -3   3  -8 1763.44 127.337  33
  -3   3  -9 1286.15 98.1655  27
  -3   3  -9 1267.29 92.1743  24
  -3   3  -9 1335.39 78.0299   7
  -3   3  -9 1291.94 97.6212  33
  -3   2  10 1850.52 112.784  28
  -3   2  10 1762.30 60.9198   7
  -3   2  10 1677.54 79.5174   6
  -3   2   9 7170.58 170.447   6
  -3   2   9 6819.65 218.753  28
  -3   2   9 6725.08 235.820   9
  -3   2   9 6878.63 152.092   7
  -3   2   8 466.240 77.0275   6
  -3   2   8 445.138 74.4320  28
  -3   2   8 443.601 76.6350   9
  -3   2   8 433.769 46.9544   7
  -3   2   7 24.3638 46.1606  28
  -3   2   7 35.0404 52.1402   9
  -3   2   7 58.2204 30.0176   7
  -3   2   6 18511.1 290.171   5
  -3   2   6 19017.3 350.311  28
  -3   2   6 18126.5 370.431   9
  -3   2   6 18805.0 366.874  23
  -3   2   6 18124.7 229.295   7
  -3   2   5 862.941 77.9549  31
  -3   2   5 1159.78 92.5614  28
  -3   2   5 875.888 85.6267   9
  -3   2   5 1142.30 102.180  23
  -3   2   5 968.433 70.4757  36
  -3   2   5 1067.91 49.7741   7
  -3   2   4 20518.3 343.042  31
  -3   2   4 21188.2 354.597   9
  -3   2   4 21443.4 360.873  33
  -3   2   3 8554.72 207.602  31
  -3   2   3 8526.92 213.285   9
  -3   2   2 32238.7 392.349   9
  -3   2   2 32052.5 388.446  31
  -3   2   1 14911.1 259.234  31
  -3   2   1 15362.7 265.071   9
  -3   2   0 6699.30 177.991  31
  -3   2   0 6860.31 180.166   9
  -3   2  -1 16733.2 272.024  31
  -3   2  -1 16384.6 284.601   9
  -3   2  -2 18151.8 289.079  31
  -3   2  -2 18018.5 316.443   9
  -3   2  -3 3399.19 153.607  20
   3  -2   4 4848.51 151.391  11
  -3   2  -4 4640.01 182.778  24
  -3   2  -4 4314.83 186.926  27
  -3   2  -4 4875.20 197.599  20
  -3   2  -4 4557.09 146.355   7
  -3   2  -4 4660.96 127.732  35
  -3   2  -4 4334.21 183.965  33
   3  -2   5 258.232 51.8934  11
  -3   2  -5 361.875 82.4017  27
  -3   2  -5 465.868 76.8741  20
  -3   2  -5 321.580 52.1257   4
  -3   2  -5 276.932 52.7686   7
  -3   2  -5 443.406 49.5905  35
  -3   2  -5 412.163 79.2284  24
  -3   2  -5 357.882 82.4860  33
   3  -2   6 23079.9 386.045  11
  -3   2  -6 21653.4 426.134  27
  -3   2  -6 21910.3 413.813  24
  -3   2  -6 23764.2 482.437  20
  -3   2  -6 21472.8 331.115   4
  -3   2  -6 21744.5 379.941   7
  -3   2  -6 21152.8 317.598  35
  -3   2  -6 22659.8 299.591   6
  -3   2  -6 21409.5 423.047  33
  -3   2  -7 10327.4 298.275  27
  -3   2  -7 10098.7 286.524  24
  -3   2  -7 10707.8 240.749   4
  -3   2  -7 11146.4 279.406   7
  -3   2  -7 10525.9 233.575  35
  -3   2  -7 9817.65 197.617   6
  -3   2  -7 10605.4 303.995  33
  -3   2  -8 19909.0 396.978  27
  -3   2  -8 19383.4 387.571  24
  -3   2  -8 19254.8 313.810   4
  -3   2  -8 19233.5 358.463   7
  -3   2  -8 19616.8 309.116  35
  -3   2  -8 19444.0 398.835  33
  -3   2  -9 202.060 60.4854  27
  -3   2  -9 288.272 51.8371   4
  -3   2  -9 343.366 54.2673   7
  -3   2  -9 385.352 46.7814  35
  -3   2  -9 299.776 75.1477  33
  -3   2 -10 356.988 61.5249  24
  -3   2 -10 159.917 23.2417  35
  -3   1  10 7878.99 213.706  28
  -3   1  10 7487.90 144.282   7
  -3   1   9 10068.6 190.374   6
  -3   1   9 10778.5 268.485  28
  -3   1   9 10072.3 283.420   9
  -3   1   9 10296.2 205.220   7
  -3   1   8 3466.03 132.473   6
  -3   1   8 3670.35 166.242  28
  -3   1   8 3346.01 126.258   7
  -3   1   8 3293.59 172.517   9
  -3   1   8 3314.13 86.0466  35
  -3   1   7 2014.99 123.407  28
  -3   1   7 2024.41 99.0847   7
  -3   1   7 2133.75 76.7652  35
  -3   1   7 2107.53 100.320   7
  -3   1   6 29575.9 341.766   7
  -3   1   6 28776.4 259.356  35
  -3   1   5 85.5785 30.6204  30
  -3   1   5 179.043 31.3728   7
  -3   1   5 86.9898 48.5348  28
  -3   1   5 184.283 52.1098   9
  -3   1   5 98.0469 40.9299   5
   3  -1  -5 51.6885 31.0504   3
  -3   1   5 128.528 19.1601  35
  -3   1   4 4925.17 112.165  30
  -3   1   4 4466.39 163.860   9
   3  -1  -4 4856.93 157.853   3
  -3   1   3 4940.32 158.521  31
  -3   1   3 5306.68 165.566   9
  -3   1   2 16392.0 269.875  31
  -3   1   2 17324.5 281.694   9
  -3   1   1 253.399 43.7531  31
  -3   1   1 172.722 37.2699   9
  -3   1   0 44301.2 410.680  31
  -3   1   0 41879.6 420.030   9
  -3   1  -1 35273.7 392.083   9
  -3   1  -2 319.396 42.9944  31
  -3   1  -2 451.948 56.8509   9
  -3   1  -4 7449.33 222.912  20
   3  -1   4 7656.74 174.572  11
   3  -1   5 753.286 71.7911  11
  -3   1  -5 560.700 79.3029  24
  -3   1  -5 722.888 84.5814  21
  -3   1  -5 635.787 81.7068  20
  -3   1  -5 730.437 65.6557   4
  -3   1  -5 658.522 67.8395   7
  -3   1  -5 677.569 61.9186  35
  -3   1  -5 696.384 93.1760  33
   3  -1   6 1713.90 108.645  11
  -3   1  -6 1709.83 133.274  27
  -3   1  -6 1836.21 92.0974   6
  -3   1  -6 1918.16 131.471  24
  -3   1  -6 1756.88 123.173  21
  -3   1  -6 2045.63 138.499  20
  -3   1  -6 1764.14 102.673   4
  -3   1  -6 1824.90 113.573   7
  -3   1  -6 1774.35 99.8369  35
  -3   1  -6 2114.07 138.413  33
   3  -1   7 17809.3 350.492  11
  -3   1  -7 18118.7 385.397  27
  -3   1  -7 16952.2 364.813  24
  -3   1  -7 18623.1 425.500  20
  -3   1  -7 17416.9 315.468   4
  -3   1  -7 18023.0 360.390   7
  -3   1  -7 16869.2 255.688   6
  -3   1  -7 16866.1 308.232  35
  -3   1  -7 17254.1 377.566  33
  -3   1  -8 3223.78 168.484  24
  -3   1  -8 3392.75 141.271  35
  -3   1  -8 3228.61 140.892   4
  -3   1  -8 3439.31 108.422   6
  -3   1  -8 3365.56 181.424  33
  -3   1  -9 111.344 45.4427   4
  -3   1  -9 134.648 69.3177  24
  -3   1  -9 235.534 50.6942  35
  -3   1  -9 229.992 66.1849  33
  -3   1 -10 3228.16 118.060  35
  -3   1 -10 3358.99 151.354  24
  -3   1 -10 3533.75 130.234   4
  -3   1 -10 3136.54 151.402  33
   3   0 -10 951.179 84.3720  24
  -3   0  10 872.441 54.4191   7
  -3   0   9 149.014 48.3358   6
  -3   0   9 57.6807 52.7286  28
   3   0  -9 150.999 61.4895  24
  -3   0   9 87.3160 33.7080   7
  -3   0   9 136.835 21.9692  35
  -3   0   8 210.284 72.7979   6
  -3   0   8 133.455 58.7688  28
  -3   0   8 129.246 58.5720   9
  -3   0   8 178.584 41.3214   7
  -3   0   8 83.9181 34.5902   4
  -3   0   8 138.984 41.0686   7
  -3   0   8 130.808 33.8857  35
  -3   0   7-56.3357 69.4257   6
  -3   0   7 47.6097 50.4898  28
  -3   0   7-55.9254 55.1324   9
  -3   0   7 33.8852 36.7552   4
  -3   0   7 35.4701 28.7621  35
  -3   0   7 2.87867 38.0047   7
  -3   0   6 2319.02 98.3890   4
  -3   0   6 2116.44 127.422  28
  -3   0   6 2296.88 113.457   8
  -3   0   6 2333.73 111.191   7
  -3   0   6 2180.67 92.2741  35
  -3   0   5 13961.5 238.507  30
  -3   0   5 14675.5 306.333  28
  -3   0   5 16393.1 262.013   8
  -3   0   5 15440.8 256.909   7
   3   0  -5 13952.3 303.460   3
  -3   0   5 14944.3 217.891  35
  -3   0   5 15092.1 224.881   4
  -3   0   4 16740.9 227.772  30
  -3   0   4 17414.5 319.538   9
  -3   0   4 17091.4 235.227   8
  -3   0   3 12490.9 254.298   9
  -3   0   3 12624.5 176.696   8
  -3   0   2 27171.7 353.535  31
  -3   0   2 27955.8 354.154   9
  -3   0   2 27363.3 221.078   8
  -3   0   1 45906.3 440.728  31
  -3   0   0 62986.9 495.315   9
  -3   0  -1 6779.56 168.934   9
  -3   0  -1 7347.71 155.505   2
  -3   0  -2 3560.54 130.651   9
  -3   0  -2 3308.86 107.265   2
   3   0   3 3.16709 29.5845  11
   3   0   3-13.3422 27.0800  18
  -3   0  -3 52.9529 26.9049   2
   3   0   4 78685.1 545.018  11
  -3   0  -4 78265.5 663.016  20
   3   0   5 33430.7 396.939  11
  -3   0  -5 35783.1 481.504  20
   3   0   6 1483.79 101.502  11
  -3   0  -6 1265.44 55.0279   1
  -3   0  -6 1330.65 57.4458  34
  -3   0  -6 1559.32 84.9334   6
  -3   0  -6 1380.15 112.390  24
  -3   0  -6 1535.17 119.573  21
  -3   0  -6 1428.59 95.3383   4
  -3   0  -6 1637.42 116.732  20
  -3   0  -6 1587.18 106.610   7
  -3   0  -6 1368.41 89.3997  35
   3   0   7 1821.12 117.386  11
  -3   0  -7 1703.92 104.315  35
  -3   0  -7 1771.03 123.019  26
  -3   0  -7 1691.22 124.203  24
  -3   0  -7 1747.29 129.539  21
  -3   0  -7 1901.67 108.074   4
  -3   0  -7 1920.34 135.725  20
  -3   0  -7 1781.49 87.3274   6
  -3   0  -7 1666.23 67.0193  34
   3   0   8 18047.6 363.230  11
  -3   0  -8 18993.4 380.294  26
  -3   0  -8 18206.5 379.182  24
  -3   0  -8 18501.2 249.783   6
  -3   0  -8 18295.0 334.858   4
  -3   0  -8 17582.3 180.737  34
  -3   0  -8 18190.5 341.630  35
  -3   0  -9 148.002 65.9278  26
  -3   0  -9 129.078 52.5607   4
  -3   0  -9 169.905 65.8679  24
  -3   0  -9 188.605 45.1143  35
  -3   0 -10 2632.52 137.973  26
  -3   0 -10 2514.32 141.951  24
  -3   0 -10 2773.92 129.483   4
  -3   0 -10 2747.89 125.812  35
  -3   0 -11 710.591 75.8692  24
  -3   0 -11 607.104 58.3660   4
  -3   0 -11 657.712 57.4052  35
  -3  -1   9 1294.89 93.2925  28
  -3  -1   9 1363.43 55.9076  35
   3   1  -9 1273.73 99.8956  24
  -3  -1   9 1552.45 89.5937   7
  -3  -1   8 9350.73 169.451   6
  -3  -1   8 10631.5 212.265   4
  -3  -1   8 10255.2 264.259  28
  -3  -1   8 10033.8 240.891   7
  -3  -1   8 9691.17 194.006  35
  -3  -1   7 19424.7 271.185   6
  -3  -1   7 20519.2 308.970   4
   3   1  -7 20700.9 386.204  26
  -3  -1   7 21012.7 356.475   7
  -3  -1   7 19936.9 299.547  35
  -3  -1   6 1247.36 92.4687   6
  -3  -1   6 1367.36 86.4933   4
  -3  -1   6 1113.33 97.9133  28
  -3  -1   6 1345.65 82.5503  35
   3   1  -6 1409.18 115.942  26
  -3  -1   6 1163.99 90.7995   8
  -3  -1   6 1382.02 95.0012   7
  -3  -1   5 1028.55 80.2315   6
  -3  -1   5 957.875 77.6824  30
  -3  -1   5 911.350 71.7690   4
  -3  -1   5 1064.56 96.3028  28
  -3  -1   5 1096.95 95.4582   9
  -3  -1   5 950.981 93.2149  25
  -3  -1   5 1025.06 77.2071   4
  -3  -1   5 1127.48 84.5117   8
  -3  -1   5 966.119 78.1247   7
  -3  -1   5 1002.94 68.2870  35
  -3  -1   4 14906.5 238.603  30
  -3  -1   4 15642.0 241.243  35
  -3  -1   4 14468.1 301.337  28
  -3  -1   4 16038.3 305.944   9
  -3  -1   4 15598.1 257.872   8
  -3  -1   4 16707.5 278.233   7
  -3  -1   3 522.207 46.2466  30
  -3  -1   3 636.987 63.5657   9
  -3  -1   3 645.734 56.4254   8
  -3  -1   2 3520.09 128.058   9
  -3  -1   2 3503.27 104.009   8
  -3  -1   1 6020.18 155.261   9
  -3  -1   1 6351.48 124.795   8
  -3  -1   0 64.1844 37.1636  31
   3   1   0 142.332 32.8545  11
  -3  -1   0 128.966 26.7035   8
  -3  -1   0 96.5361 33.2967   2
  -3  -1  -2 75.8352 32.5025  31
   3   1   2 81.8121 30.6317  11
  -3  -1  -2 27.2413 28.2961   2
   3   1   3 1061.48 63.9452  11
  -3  -1  -3 1336.04 77.3947   2
   3   1   4 17596.0 252.813  11
  -3  -1  -4 17263.6 162.438   1
   3   1   5 5091.43 153.519  11
  -3  -1  -5 5057.15 109.388   1
  -3  -1  -5 4896.87 166.715  20
  -3  -1  -5 4976.90 157.799   2
   3   1   6 1197.68 89.0229  11
  -3  -1  -6 1139.78 62.7075   1
  -3  -1  -6 1069.89 96.6257  24
  -3  -1  -6 1212.94 85.9057  35
  -3  -1  -6 1134.91 107.439  21
  -3  -1  -6 952.105 79.9993   4
  -3  -1  -6 1061.27 93.4513  20
  -3  -1  -6 1195.36 74.7598   6
   3   1   7 2804.66 142.525  11
  -3  -1  -7 2911.75 127.213  30
  -3  -1  -7 3166.83 145.220  35
  -3  -1  -7 2974.96 107.143   1
  -3  -1  -7 2930.62 153.535  26
  -3  -1  -7 2974.78 151.414  24
  -3  -1  -7 2642.19 130.224   4
  -3  -1  -7 3034.45 155.476  20
  -3  -1  -7 2846.08 104.792   6
  -3  -1  -7 3009.02 111.160  34
  -3  -1  -7 2953.80 85.7791  32
   3   1   8 2984.16 152.467  11
  -3  -1  -8 3106.07 163.427  26
  -3  -1  -8 2627.77 149.049  24
  -3  -1  -8 2536.67 156.327  21
  -3  -1  -8 2796.19 137.282   4
  -3  -1  -8 2783.05 99.3384   6
  -3  -1  -8 2897.55 142.468  35
  -3  -1  -8 2769.03 107.687  34
  -3  -1  -9 6412.15 144.250  34
  -3  -1  -9 6588.29 230.846  26
  -3  -1  -9 5981.68 216.981  24
  -3  -1  -9 6675.91 230.829  21
  -3  -1  -9 6083.41 203.154   4
  -3  -1  -9 6310.25 205.476  35
  -3  -1 -10 5900.61 211.604  26
  -3  -1 -10 5958.32 206.813  24
  -3  -1 -10 5687.71 188.942   4
  -3  -1 -10 5981.90 193.636  35
  -3  -1 -11 79.0767 51.4382  26
  -3  -1 -11 141.469 45.8290   4
  -3  -1 -11 62.1982 51.2657  24
  -3  -1 -11 107.903 42.0197  35
   3   2  -9 253.024 63.1724  27
   3   2  -9 287.499 56.5554  26
   3   2  -9 239.466 58.5388  24
  -3  -2   9 195.030 20.9446  35
  -3  -2   9 307.909 43.9312   7
  -3  -2   9 173.657 39.9986   7
  -3  -2   8 410.464 52.4836   4
  -3  -2   8 383.074 65.6474  28
   3   2  -8 391.381 71.0373  26
   3   2  -8 311.462 67.2704  24
  -3  -2   8 392.416 56.9925   7
  -3  -2   8 301.320 42.3986  35
  -3  -2   7 1565.79 81.2942   6
  -3  -2   7 1805.36 99.6686   4
  -3  -2   7 1687.23 117.333  28
   3   2  -7 1923.07 128.208  26
  -3  -2   7 1940.42 126.893  25
  -3  -2   7 1973.31 120.516   7
  -3  -2   7 1614.97 95.0981  35
  -3  -2   6 2561.70 115.033   6
  -3  -2   6 2684.99 124.402   4
  -3  -2   6 2446.76 141.373  28
   3   2  -6 2607.31 150.915  26
  -3  -2   6 2743.05 125.651   4
  -3  -2   6 2691.35 139.299   7
  -3  -2   6 2582.95 121.585  35
  -3  -2   5 17701.7 265.032   6
  -3  -2   5 17937.3 313.367  30
  -3  -2   5 17407.8 349.385  28
  -3  -2   5 18487.2 365.405  25
  -3  -2   5 17275.4 351.207  14
  -3  -2   5 17509.8 303.966   4
  -3  -2   5 18291.0 331.643   8
  -3  -2   5 19105.2 349.116   7
  -3  -2   5 17526.6 300.632  35
  -3  -2   4 507.172 64.8397   6
  -3  -2   4 365.879 52.8988  30
  -3  -2   4 469.740 78.9505  29
  -3  -2   4 351.091 63.0769  28
  -3  -2   4 503.917 73.9437  25
  -3  -2   4 380.820 58.1162   4
  -3  -2   4 370.025 48.7393  35
  -3  -2   4 320.983 54.2857   8
  -3  -2   4 432.918 61.8250   7
  -3  -2   4 240.092 16.0410  34
  -3  -2   4 252.364 66.3544  14
  -3  -2   3 4289.80 133.310  30
  -3  -2   3 4278.29 175.888  29
  -3  -2   3 4571.96 167.431  28
  -3  -2   3 4605.96 148.481   8
  -3  -2   3 4795.66 167.134  15
  -3  -2   3 4758.93 146.008  35
  -3  -2   2 3752.48 115.634  30
  -3  -2   2 3780.35 124.577   8
  -3  -2   1 11703.3 187.789  30
  -3  -2   1 11006.9 117.886   1
  -3  -2   0 1480.50 43.2705   1
  -3  -2   0 1617.95 88.3872   2
   3   2   1 1397.86 75.2826  11
  -3  -2  -1 1468.83 82.8489   2
  -3  -2  -1 1305.04 43.1132   1
  -3  -2  -2 158.414 23.3109   1
  -3  -2  -2 107.003 31.4984   8
   3   2   2 118.268 36.8684  11
  -3  -2  -3 32095.7 247.941   1
  -3  -2  -3 32286.7 378.728   2
  -3  -2  -4 181.041 38.0720  30
   3   2   4 34.0186 39.2546  11
  -3  -2  -4 146.846 30.7850   1
  -3  -2  -4 72.7403 34.2747   2
   3   2   5 29191.0 368.906  11
  -3  -2  -5 29616.6 298.905   1
  -3  -2  -5 29505.1 398.033   2
  -3  -2  -6 285.377 46.7528  30
   3   2   6 173.086 48.2242  11
  -3  -2  -6 343.168 45.2245   1
  -3  -2  -6 205.657 52.8632   4
  -3  -2  -6 229.902 61.9289  21
  -3  -2  -6 343.540 47.5015   6
  -3  -2  -6 260.739 54.0352  35
  -3  -2  -6 338.708 55.8976   2
   3   2   7 3587.57 160.691  11
  -3  -2  -7 4001.85 148.718  30
  -3  -2  -7 3868.91 160.367  35
  -3  -2  -7 3581.42 126.065   1
  -3  -2  -7 3934.94 175.305  26
  -3  -2  -7 3811.65 166.278  24
  -3  -2  -7 3561.04 176.412  21
  -3  -2  -7 3616.37 155.113   4
  -3  -2  -7 3695.59 114.737   6
  -3  -2  -7 3883.28 142.059  34
  -3  -2  -7 3843.16 168.429   2
  -3  -2  -7 3862.35 122.917  32
   3   2   8 674.294 79.7878  11
  -3  -2  -8 669.211 85.0822  26
  -3  -2  -8 695.424 87.2163  24
  -3  -2  -8 839.102 102.214  21
  -3  -2  -8 608.304 79.6306   4
  -3  -2  -8 724.954 78.2482  35
  -3  -2  -8 624.400 52.6371   6
  -3  -2  -8 704.267 75.6346  34
  -3  -2  -8 746.198 60.7824  32
  -3  -2  -9 14570.1 255.605  34
  -3  -2  -9 13867.0 333.990  26
  -3  -2  -9 14209.9 344.874  21
  -3  -2  -9 13687.9 304.994   4
  -3  -2  -9 14441.6 322.017  35
  -3  -2  -9 14236.9 199.296  32
  -3  -2 -10 6653.46 148.755  34
  -3  -2 -10 6489.19 223.427  26
  -3  -2 -10 6290.18 211.739  24
  -3  -2 -10 6014.16 222.662  21
  -3  -2 -10 6224.71 206.878   4
  -3  -2 -10 6692.31 213.394  35
  -3  -2 -11 2601.13 135.058  26
  -3  -2 -11 2351.82 122.787   4
  -3  -2 -11 2564.42 124.517  35
   3   2  12-35.1901 45.5532  32
  -3  -2 -12 19.6489 38.5270   4
  -3  -2 -12-7.31179 48.2940  26
  -3  -2 -12-16.2280 34.0310  35
  -3  -3   8 1046.88 67.9875   4
   3   3  -8 1129.29 97.3561  27
   3   3  -8 1212.17 91.0906  26
   3   3  -8 1118.60 90.8431  24
  -3  -3   8 1123.29 80.9476   7
  -3  -3   8 1179.61 64.5083  35
  -3  -3   7-40.4676 56.5029  28
   3   3  -7 4.39980 56.4882  26
  -3  -3   7 13.3075 48.6320  25
  -3  -3   7 33.2886 40.5055   4
  -3  -3   7 14.6752 34.6667  35
  -3  -3   6 1216.82 102.300  28
  -3  -3   6 1207.02 90.8486   4
  -3  -3   6 1122.99 86.4889  35
   3   3  -6 1412.66 117.493  26
  -3  -3   6 1352.90 112.018  25
  -3  -3   6 1411.19 98.3720   4
  -3  -3   5 195.940 62.3743   6
  -3  -3   5 338.148 70.8141  28
  -3  -3   5 297.325 59.4669   4
  -3  -3   5 297.049 64.1333  25
  -3  -3   5 186.518 20.3972  34
  -3  -3   5 387.822 58.2899  35
  -3  -3   5 314.940 70.7063  14
  -3  -3   4 3229.55 120.655   6
  -3  -3   4 3278.26 140.485  30
  -3  -3   4 3252.21 169.056  29
  -3  -3   4 3240.01 163.125  14
  -3  -3   4 3293.67 155.937  28
  -3  -3   4 3180.40 140.636   4
  -3  -3   4 3045.03 145.038   8
  -3  -3   4 3160.63 92.4177  34
  -3  -3   4 3217.95 139.604  35
  -3  -3   3 8114.54 178.236   6
  -3  -3   3 7846.30 197.735  30
  -3  -3   3 8063.66 247.632  29
  -3  -3   3 8421.15 234.601  28
  -3  -3   3 8062.71 233.486  25
  -3  -3   3 8016.15 208.917   4
  -3  -3   3 7741.56 216.025   8
  -3  -3   3 7529.49 155.076   1
  -3  -3   3 7831.12 224.002  15
  -3  -3   3 7884.87 210.620  35
  -3  -3   3 7839.25 241.575  14
  -3  -3   3 8051.50 156.244  34
  -3  -3   2 21848.3 277.074   6
  -3  -3   2 20868.2 301.559  30
  -3  -3   2 20833.4 356.086  28
  -3  -3   2 22542.5 345.027  35
  -3  -3   2 20770.7 326.698   4
  -3  -3   2 21262.1 329.490   8
  -3  -3   2 21814.1 258.074   1
  -3  -3   2 21031.7 344.226  15
  -3  -3   2 21540.5 388.570  29
  -3  -3   2 21837.0 389.215  14
  -3  -3   1 402.283 48.2921  30
  -3  -3   1 285.337 51.8140   8
  -3  -3   1 415.621 43.3740   1
  -3  -3   1 288.817 51.0773  15
  -3  -3   0 609.396 65.4599   8
  -3  -3   0 695.282 50.9332   1
  -3  -3   0 600.164 62.6533   2
   3   3   1 6530.92 168.757  11
  -3  -3  -1 6166.03 147.472  30
  -3  -3  -1 6536.61 134.060   1
  -3  -3  -1 6125.60 160.301   8
  -3  -3  -1 6422.94 177.353   2
   3   3   2 11730.2 220.783  11
  -3  -3  -2 10810.9 194.506  30
  -3  -3  -2 10596.8 205.073   8
  -3  -3  -2 11693.2 240.470   2
  -3  -3  -2 11271.7 175.396   1
   3   3   3 8347.28 191.615  11
  -3  -3  -3 6897.21 162.332  30
  -3  -3  -3 7772.51 197.496   2
  -3  -3  -3 7502.97 148.151   1
   3   3   4 21160.1 315.060  11
  -3  -3  -4 21291.3 265.241   1
  -3  -3  -4 20841.2 287.448  30
  -3  -3  -4 21254.2 336.788   2
   3   3   5 7508.79 200.267  11
  -3  -3  -5 7165.00 181.494  30
  -3  -3  -5 7527.56 213.002   2
  -3  -3  -5 7480.14 169.760   1
  -3  -3  -6 156.722 40.2678  32
  -3  -3  -6 81.5012 33.0578   6
  -3  -3  -6 154.810 51.7862  30
   3   3   6 131.248 56.1575  11
  -3  -3  -6 211.320 47.8093  35
  -3  -3  -6 98.0380 44.8048   4
  -3  -3  -6 294.115 68.1052  26
  -3  -3  -6 108.633 65.0359  21
  -3  -3  -6 182.353 41.9481   1
  -3  -3  -6 160.825 47.3080   2
   3   3   7 15365.2 321.807  11
  -3  -3  -7 16055.4 224.176   6
  -3  -3  -7 15127.8 271.208   1
  -3  -3  -7 15616.7 336.329  26
  -3  -3  -7 13762.6 296.110   4
  -3  -3  -7 15662.0 361.997  21
  -3  -3  -7 14133.4 282.066  34
  -3  -3  -7 16398.2 335.672  35
  -3  -3  -7 15964.6 222.477   6
  -3  -3  -7 15376.4 336.322   2
  -3  -3  -7 15864.6 265.921  32
   3   3   8 94.6210 52.2070  11
  -3  -3  -8 368.184 78.3095  26
  -3  -3  -8 156.146 50.9797   4
  -3  -3  -8 171.584 82.4412  21
  -3  -3  -8 136.590 44.5492  35
  -3  -3  -8 182.884 65.7345  34
  -3  -3  -8 280.378 53.1274  32
  -3  -3  -9 957.132 104.196  26
  -3  -3  -9 818.394 101.109  21
  -3  -3  -9 792.351 84.8108   4
  -3  -3  -9 860.331 88.1586  35
  -3  -3  -9 800.035 82.7093  34
  -3  -3  -9 1016.53 72.7000  32
  -3  -3 -10 4902.60 116.044  32
  -3  -3 -10 5325.48 205.809  26
  -3  -3 -10 5450.54 219.269  21
  -3  -3 -10 5058.86 189.403   4
  -3  -3 -10 5717.46 206.497  35
  -3  -3 -10 5619.00 162.310  34
  -3  -3 -11 145.341 44.5913  35
  -3  -3 -11 226.614 58.8549   4
  -3  -3 -11 214.858 60.5551  26
   3   3  11 160.695 59.6565  22
  -3  -3 -11 176.436 71.6066  21
  -3  -3 -11 218.026 37.9738  34
   3   3  12 25.4121 39.8903  32
  -3  -3 -12 33.0413 44.3789   4
  -3  -3 -12-56.9051 48.0152  26
  -3  -3 -12 16.6167 38.9768  35
  -3  -4   7 2976.28 113.657   4
   3   4  -7 2941.40 136.220  26
  -3  -4   7 2868.30 132.163  25
   3   4  -7 2487.90 123.882  24
  -3  -4   7 2677.67 106.443  35
  -3  -4   6 502.185 66.9938   4
   3   4  -6 524.252 79.6621  26
  -3  -4   6 678.266 78.8230  25
  -3  -4   6 698.710 73.4134   4
   3   4  -6 473.776 77.5700  24
  -3  -4   6 519.085 61.4312  35
  -3  -4   5 17993.9 330.896  35
  -3  -4   5 17578.9 343.767  28
  -3  -4   5 18547.0 365.009  25
  -3  -4   5 17578.5 329.351   4
  -3  -4   5 17762.9 362.503  14
  -3  -4   4 4234.52 175.309  28
  -3  -4   4 4055.54 164.320  35
  -3  -4   4 4194.97 183.558  25
  -3  -4   4 4044.35 164.876   4
  -3  -4   4 4065.25 188.772  14
  -3  -4   4 4368.57 120.663  34
  -3  -4   4 4450.34 199.029  29
  -3  -4   3 9167.20 178.335   6
  -3  -4   3 9216.42 156.033  32
  -3  -4   3 8994.48 279.193  29
  -3  -4   3 9497.92 194.447  34
  -3  -4   3 8695.54 245.860  28
  -3  -4   3 9754.58 267.000  25
  -3  -4   3 9395.61 247.556  35
  -3  -4   3 8391.76 228.534   4
  -3  -4   3 8909.14 251.469   8
  -3  -4   3 8611.74 277.837  14
  -3  -4   3 8432.96 144.743  32
  -3  -4   2 2120.29 95.1992   6
  -3  -4   2 2534.41 112.248  34
  -3  -4   2 2539.94 134.828  28
  -3  -4   2 2166.10 132.176  25
  -3  -4   2 2214.33 122.747   4
  -3  -4   2 2440.91 128.733  35
  -3  -4   2 2245.24 128.622   8
  -3  -4   2 2489.38 106.811   1
  -3  -4   2 2527.17 132.230  15
  -3  -4   2 2591.57 151.804  14
  -3  -4   2 2103.57 138.664  29
  -3  -4   2 2316.41 88.8379  32
  -3  -4   1 8.81791 33.6973  30
  -3  -4   1 90.3048 42.6563   6
  -3  -4   1 133.584 64.0318  29
  -3  -4   1 89.8134 48.8020  28
  -3  -4   1 66.6899 49.1520  34
  -3  -4   1 18.2399 40.9466   4
  -3  -4   1 189.487 63.7171  14
  -3  -4   1 72.8168 51.8438  25
  -3  -4   1 233.459 52.9707  15
  -3  -4   1 67.0236 37.5062   1
  -3  -4   1 101.134 48.8258   8
  -3  -4   1 48.5607 43.8036  35
  -3  -4   1 66.3308 35.1037  32
  -3  -4   0 7234.37 157.943   6
  -3  -4   0 6667.10 177.751  30
  -3  -4   0 6647.84 224.326  29
  -3  -4   0 6446.35 191.399   4
  -3  -4   0 6618.39 191.792   8
  -3  -4   0 7329.18 170.053   1
  -3  -4   0 7709.70 214.629  35
  -3  -4   0 6584.71 192.710  15
  -3  -4   0 6950.20 224.129  14
  -3  -4  -1 228.750 48.0202  30
  -3  -4  -1 138.569 44.7839  15
   3   4   1 167.822 51.5566  11
  -3  -4  -1 340.005 75.8311  29
  -3  -4  -1 215.023 39.4855   1
  -3  -4  -1 239.606 48.5306   8
  -3  -4  -1 179.978 42.8401   2
   3   4   2 8214.49 209.178  11
  -3  -4  -2 7834.11 188.262  30
  -3  -4  -2 7862.36 206.900   8
  -3  -4  -2 7826.06 208.809   2
  -3  -4  -2 8166.33 177.032   1
   3   4   3 3215.27 139.210  11
  -3  -4  -3 3111.49 121.565  30
  -3  -4  -3 3320.07 137.597   8
  -3  -4  -3 2979.93 132.708   2
  -3  -4  -3 2952.51 109.994   1
   3   4   4 12607.5 273.092  11
  -3  -4  -4 13465.7 236.089   1
  -3  -4  -4 12420.8 200.005   6
  -3  -4  -4 13237.1 250.808  30
  -3  -4  -4 13438.1 279.949   8
  -3  -4  -4 13007.7 280.007   2
   3   4   5 29188.8 415.989  11
  -3  -4  -5 28224.0 357.233   1
  -3  -4  -5 28450.0 298.577   6
  -3  -4  -5 28428.8 432.814  35
  -3  -4  -5 27712.0 431.136  26
  -3  -4  -5 26983.5 398.999   4
  -3  -4  -5 29691.5 437.429   2
  -3  -4  -5 27581.4 357.317  32
   3   4   6 2472.82 134.313  11
  -3  -4  -6 2250.93 87.5796   6
  -3  -4  -6 2512.14 118.258   1
  -3  -4  -6 2478.11 139.558  26
  -3  -4  -6 2478.80 134.678   2
  -3  -4  -6 2520.21 139.159  35
  -3  -4  -6 2449.39 118.185  32
   3   4   7 6027.24 213.502  11
  -3  -4  -7 5649.98 180.517   1
  -3  -4  -7 5594.77 212.050  26
  -3  -4  -7 5908.09 202.420   4
  -3  -4  -7 6597.40 243.183  21
  -3  -4  -7 6192.98 221.539  35
  -3  -4  -7 6258.00 220.943   2
  -3  -4  -7 6154.61 179.689  32
   3   4   8 16075.1 354.336  11
  -3  -4  -8 15955.7 353.752  26
  -3  -4  -8 16097.6 336.258   4
  -3  -4  -8 15947.2 378.151  21
  -3  -4  -8 16947.9 294.175  32
  -3  -4  -9 3334.90 166.245  35
  -3  -4  -9 2974.24 161.693  26
   3   4   9 3223.24 169.617  22
  -3  -4  -9 3013.42 151.247   4
  -3  -4  -9 3048.30 174.663  21
  -3  -4  -9 3325.01 148.595  34
  -3  -4  -9 3077.86 124.819  32
  -3  -4 -10 1949.29 134.621  26
  -3  -4 -10 2315.83 136.328  35
   3   4  10 2187.31 141.877  23
   3   4  10 1888.31 130.172  22
  -3  -4 -10 2290.82 135.408   4
  -3  -4 -10 2385.98 151.313  21
   3   4  10 2235.50 138.664  16
  -3  -4 -10 2196.52 111.962  34
  -3  -4 -10 2122.48 91.2256  32
   3   4  11 88.6956 49.7378  32
  -3  -4 -11 91.1798 46.8164   4
  -3  -4 -11-13.9571 62.2312  26
   3   4  11 84.2745 53.3751  22
  -3  -4 -11 186.816 62.3378  21
  -3  -4 -11 133.795 48.2448  35
  -3  -4 -11 58.1802 44.2449  34
  -3  -4 -12 6830.50 185.969  35
  -3  -4 -12 6886.40 190.919  26
  -3  -4 -12 6592.46 181.448   4
  -3  -4 -12 6721.07 193.440  21
   3   5  -6-34.5343 53.8386  26
  -3  -5   6-11.5383 45.8413  25
  -3  -5   6-9.67694 34.3433   4
  -3  -5   6-43.5604 37.6256  35
   3   5  -5 3542.85 164.408  26
  -3  -5   5 3679.43 160.228  25
  -3  -5   5 3763.20 150.757   4
  -3  -5   5 3934.24 150.746  35
  -3  -5   5 3518.06 157.928  14
  -3  -5   4 4257.64 190.840  29
  -3  -5   4 4396.58 179.803  25
  -3  -5   4 4572.71 175.468   4
  -3  -5   4 4435.29 189.603  14
  -3  -5   4 4370.71 111.415  34
  -3  -5   4 4006.98 165.706  35
  -3  -5   3 503.894 44.9181  32
  -3  -5   3 586.955 91.9486  29
  -3  -5   3 545.038 71.6606  28
  -3  -5   3 487.406 73.6699  25
  -3  -5   3 540.041 69.9418   4
  -3  -5   3 430.574 66.5649  35
  -3  -5   3 675.094 93.2596  14
  -3  -5   3 607.141 65.8540  34
  -3  -5   3 435.063 39.9721  32
  -3  -5   2 453.234 87.3336  29
  -3  -5   2 484.632 73.6600  28
  -3  -5   2 342.699 82.9258  14
  -3  -5   2 422.562 60.3153  34
  -3  -5   2 450.200 72.2838  25
  -3  -5   2 446.528 72.1170   4
  -3  -5   2 475.922 71.6777  35
  -3  -5   2 449.619 51.6968  32
  -3  -5   1 40.2518 36.4522  32
  -3  -5   1 5.64908 43.1262  35
  -3  -5   1 40.9883 67.4261  29
  -3  -5   1 50.8055 52.5052  28
  -3  -5   1-20.0694 42.9393   4
  -3  -5   1 32.6486 46.1028  25
  -3  -5   1 5.66072 46.9363   8
  -3  -5   1 62.8357 45.1035  15
  -3  -5   1 41.7560 52.5903  34
  -3  -5   1 2.14723 56.8747  14
  -3  -5   0 1466.68 77.4822   6
  -3  -5   0 1670.54 111.826  28
  -3  -5   0 1465.30 105.649   4
  -3  -5   0 1557.48 111.189  35
  -3  -5   0 1435.43 108.393   8
  -3  -5   0 1722.55 99.5179   1
  -3  -5   0 1629.71 103.085  15
  -3  -5   0 1671.36 124.138  14
  -3  -5   0 1616.08 91.3264  32
  -3  -5  -1 1751.06 81.1076   6
  -3  -5  -1 1557.08 93.0004   1
  -3  -5  -1 1373.51 104.717   4
  -3  -5  -1 1624.60 115.985   8
  -3  -5  -1 1809.77 105.466  15
  -3  -5  -1 1900.76 122.432  35
  -3  -5  -1 1438.12 91.5155  32
   3   5   2 6259.22 209.634  11
  -3  -5  -2 5348.34 131.779   6
  -3  -5  -2 5983.23 206.713  35
  -3  -5  -2 5412.01 188.012   4
  -3  -5  -2 5561.27 195.594   8
  -3  -5  -2 5790.50 171.182   1
  -3  -5  -2 4876.50 182.954   2
  -3  -5  -2 6020.29 175.293  32
   3   5   3 665.145 80.9381  11
  -3  -5  -3 1025.86 62.9423   6
  -3  -5  -3 944.614 93.4786  35
  -3  -5  -3 655.070 65.4688   1
  -3  -5  -3 802.618 82.3222   4
  -3  -5  -3 704.986 83.7022   8
  -3  -5  -3 656.512 72.2735   2
  -3  -5  -3 650.680 68.6062  32
  -3  -5  -4 118.832 51.4548  32
  -3  -5  -4 65.2361 34.9643   6
   3   5   4 66.3547 47.8224  11
  -3  -5  -4 52.9247 53.5884   4
  -3  -5  -4 49.7728 38.7734   1
  -3  -5  -4 58.1302 50.8498   8
  -3  -5  -4 46.1435 44.1209  35
   3   5   5 7740.41 236.940  11
  -3  -5  -5 7846.74 206.467   1
  -3  -5  -5 7970.64 233.832   8
  -3  -5  -5 8181.25 240.809   2
  -3  -5  -5 8087.27 209.278  32
  -3  -5  -6 528.479 64.7626   1
   3   5   6 337.774 67.4670  11
   3   5   6 457.852 81.2171  22
  -3  -5  -6 565.096 82.7919   8
  -3  -5  -6 416.881 72.9864   4
  -3  -5  -6 516.398 93.1728  21
  -3  -5  -6 387.093 66.1510   2
  -3  -5  -6 600.571 69.1260  32
  -3  -5  -7 421.735 62.9700  32
   3   5   7 229.390 63.1068  11
  -3  -5  -7 286.661 64.5967   4
  -3  -5  -7 210.098 67.0064  26
   3   5   7 291.878 69.5766  22
  -3  -5  -7 437.505 98.6672  21
  -3  -5  -8 8474.79 264.280  26
   3   5   8 8622.17 264.843  22
  -3  -5  -8 8685.27 254.237   4
  -3  -5  -8 8727.38 284.477  21
  -3  -5  -8 9277.47 224.237  32
   3   5   9 4533.54 193.652  22
  -3  -5  -9 4513.83 183.887   4
  -3  -5  -9 4372.57 198.222  21
   3   5   9 4371.73 197.297  16
  -3  -5  -9 4488.23 152.889  32
   3   5  10 3980.04 171.775  32
   3   5  10 3861.61 179.197  23
   3   5  10 4070.91 178.495  22
  -3  -5 -10 4018.41 175.007   4
  -3  -5 -10 4020.50 188.885  21
   3   5  10 4006.76 180.976  16
  -3  -5 -10 3292.57 139.287  34
  -3  -5 -10 3937.60 126.846  32
   3   5  11 1156.46 82.8462  32
   3   5  11 1034.01 89.7819  16
  -3  -5 -11 1265.22 101.703  26
   3   5  11 1224.36 96.1623  23
   3   5  11 1143.04 95.3419  22
  -3  -5 -11 1203.72 94.0984   4
  -3  -5 -11 1083.62 102.925  21
  -3  -5 -11 1058.00 72.3513  34
  -3  -5 -12 6584.52 188.701  21
   3   6  -5 37.4824 48.9777  32
  -3  -6   5 94.9773 35.7339  35
  -3  -6   5 82.8068 41.5322   4
   3   6  -5 46.9823 44.5513  26
  -3  -6   5 55.3008 39.8113  25
  -3  -6   5 17.7210 35.0155   4
  -3  -6   4 1631.04 112.216  29
   3   6  -4 1600.05 110.434  26
  -3  -6   4 1542.13 103.419  25
  -3  -6   4 1682.68 104.723   4
  -3  -6   4 1591.34 99.5677  35
  -3  -6   4 1569.43 107.445  14
  -3  -6   3 59.3487 62.8415  29
  -3  -6   3 15.0593 53.0436   4
  -3  -6   3 23.2868 50.9001  25
  -3  -6   3 27.1702 42.8829  35
  -3  -6   3 23.0320 56.5410  14
  -3  -6   3 107.702 39.7882  34
  -3  -6   2 193.110 37.1349  32
  -3  -6   2 117.414 67.3195  29
  -3  -6   2 53.5373 51.9703   4
  -3  -6   2 189.324 60.7443  25
  -3  -6   2 122.714 50.7489  35
  -3  -6   2 111.354 66.5116  14
  -3  -6   2 139.434 47.5995  34
  -3  -6   1 86.4712 42.5602  32
  -3  -6   1 68.3942 44.0103  35
  -3  -6   1 24.7894 65.7266  29
  -3  -6   1-34.3633 49.2787  28
  -3  -6   1 45.5343 50.8485   4
  -3  -6   1 52.8774 45.1744  25
  -3  -6   1 39.0006 54.8331  14
  -3  -6   1 35.9211 49.5358  34
  -3  -6   0 35791.1 563.743  29
  -3  -6   0 38276.2 524.950  25
  -3  -6   0 36697.6 512.015   4
  -3  -6   0 38714.2 546.983  35
  -3  -6   0 36889.7 557.338  14
  -3  -6   0 38172.2 419.196  32
  -3  -6  -1 32276.6 538.193  29
  -3  -6  -1 33979.0 493.602  25
  -3  -6  -1 31764.7 479.245   4
  -3  -6  -1 32519.2 499.732   8
  -3  -6  -1 35026.8 413.642  32
  -3  -6  -2 14743.6 325.997  25
  -3  -6  -2 14703.3 321.539   4
  -3  -6  -2 15386.2 285.009  32
  -3  -6  -3 246.267 56.4188  32
   3   6   3 144.476 60.8044  11
  -3  -6  -3 276.387 64.0843   4
  -3  -6  -3 253.807 65.8946  25
  -3  -6  -3 175.471 56.4476   8
   3   6   4 9862.06 280.154  11
  -3  -6  -4 10572.6 275.520  25
  -3  -6  -4 9864.10 268.095   4
  -3  -6  -4 10033.9 279.029   8
   3   6   5 291.582 68.3647  11
  -3  -6  -5 333.108 68.6219   4
  -3  -6  -5 304.206 69.0174   8
  -3  -6  -5 474.415 69.3654  32
  -3  -6  -6 10330.8 276.305  25
  -3  -6  -6 9712.35 271.806   4
  -3  -6  -6 10544.1 249.554  32
  -3  -6  -7 456.055 73.8197   4
   3   6   7 397.512 68.7663  22
   3   6   8 523.774 77.7248  22
  -3  -6  -8 686.835 84.2132   4
  -3  -6  -8 522.081 90.8807  21
   3   6   8 532.363 83.1862  16
  -3  -6  -8 546.018 66.2474  32
   3   6   9 6319.63 210.340  32
   3   6   9 5463.65 219.417  23
   3   6   9 5744.56 210.503  22
  -3  -6  -9 5910.49 210.782   4
  -3  -6  -9 6191.28 230.032  21
   3   6   9 5529.07 217.202  16
  -3  -6  -9 6433.89 178.104  32
   3   6  10 27644.5 384.094  32
   3   6  10 27523.7 444.165  23
   3   6  10 26401.0 421.405  22
  -3  -6 -10 27550.8 424.383   4
  -3  -6 -10 27277.6 445.538  21
   3   6  10 25871.0 438.936  16
  -3  -6 -10 27142.5 363.454  34
  -3  -6 -10 26560.8 311.358  32
   3   6  11 16033.0 306.457  23
   3   6  11 15583.9 298.615  22
  -3  -6 -11 15749.1 296.228   4
  -3  -6 -11 15748.0 313.362  21
  -3  -6 -11 15668.2 227.289  34
   3   6  11 15482.0 306.204  16
   3   6  11 14895.9 303.527   4
   3   7  -3 191.314 53.1404  32
  -3  -7   3 209.574 47.1415  35
  -3  -7   3 228.220 57.3637  29
  -3  -7   3 282.697 53.8792   4
   3   7  -3 252.064 59.2050  26
  -3  -7   3 203.526 48.8277  25
  -3  -7   3 280.723 60.7926  14
   3   7  -2 1010.38 92.9940  32
  -3  -7   2 979.579 96.2041  29
  -3  -7   2 1206.34 92.3112  25
  -3  -7   2 1041.51 90.5069   4
  -3  -7   2 873.507 86.9226  14
  -3  -7   2 1114.12 64.9138  34
  -3  -7   2 967.177 84.0654  35
   3   7  -1 2457.62 137.602  32
  -3  -7   1 2333.95 109.635  34
  -3  -7   1 2237.98 144.472  29
  -3  -7   1 2063.96 124.052  25
  -3  -7   1 2166.42 129.830   4
  -3  -7   1 2395.55 136.109  35
  -3  -7   1 2189.58 137.970  14
  -3  -7   0 226.427 47.9454  32
  -3  -7   0 188.651 60.6998  29
  -3  -7   0 191.860 60.5223   4
  -3  -7   0 226.913 54.9572  25
  -3  -7   0 231.217 59.7200  34
  -3  -7   0 88.8803 60.3683  14
  -3  -7  -1 750.752 101.278  29
  -3  -7  -1 1035.92 97.0211  28
  -3  -7  -1 1167.13 100.495  25
  -3  -7  -1 994.493 96.7651   4
  -3  -7  -1 897.714 77.0017  32
  -3  -7  -2 9528.98 266.209  25
  -3  -7  -2 9210.90 269.183   4
  -3  -7  -2 9852.44 228.467  32
  -3  -7  -3 3925.39 173.810  25
  -3  -7  -3 3537.91 167.554   4
  -3  -7  -3 3720.26 147.566  32
  -3  -7  -4 4049.03 179.380  25
  -3  -7  -4 4174.41 186.019   4
  -3  -7  -4 4110.22 155.391  32
  -3  -7  -5 558.524 80.9849  25
  -3  -7  -5 438.486 76.1670   4
  -3  -7  -5 462.070 69.6734  32
   3   7   6 10803.6 289.602  32
  -3  -7  -6 10156.7 278.458   4
  -3  -7  -6 10704.8 247.054  32
   3   7   7 1111.99 101.114  32
   3   7   7 847.546 102.150  23
  -3  -7  -7 998.748 103.112   4
   3   7   7 1038.60 100.456  16
  -3  -7  -7 1061.30 85.8989  32
   3   7   8 1154.22 98.9049  32
   3   7   8 1082.96 109.551  23
   3   7   8 1298.37 105.166  22
  -3  -7  -8 1472.02 115.405   4
   3   7   8 1096.90 102.668  16
  -3  -7  -8 1419.57 91.1399  32
   3   7   9 1351.16 93.6092  32
   3   7   9 1404.59 115.202  23
   3   7   9 1368.61 101.952  22
  -3  -7  -9 1599.58 114.922   4
   3   7   9 1245.68 105.303  16
   3   7   9 1361.31 112.950   4
  -3  -7  -9 1336.64 81.9534  32
   3   7  10 3282.66 149.901   4
   3   7  10 3369.84 154.443  23
   3   7  10 3363.32 142.668  22
  -3  -7 -10 3575.22 151.860   4
  -3  -7 -10 3393.90 149.595  21
   3   7  10 3059.86 145.149  16
  -3  -7 -10 3316.87 124.437  34
   3   7  11 3.55895 20.3930  32
  -3  -7 -11-19.3702 34.2268  34
   3   8  -1 5059.90 148.875  32
  -3  -8   1 5358.81 178.852  29
  -3  -8   1 5080.24 165.048  25
  -3  -8   1 5557.24 173.421   4
  -3  -8   1 4957.49 164.653  35
  -3  -8   1 5305.38 171.072  14
  -3  -8   1 4968.19 92.1146  34
   3   8   0 1313.49 88.9908  32
  -3  -8   0 1211.70 98.4026  29
  -3  -8   0 1290.45 95.3876  25
  -3  -8   0 1242.34 95.6223   4
  -3  -8   0 1318.46 98.4039  14
  -3  -8   0 1176.20 71.9706  34
  -3  -8  -1 89.8752 37.6797  32
   3   8   1 144.340 52.8199  32
  -3  -8  -1 71.5543 53.2009  29
  -3  -8  -1 91.7986 48.2048   4
  -3  -8  -1 58.9127 49.2419  25
  -3  -8  -1 26.0403 54.3072  14
  -3  -8  -1 61.7543 46.8800  34
   3   8   2 3052.64 142.330  32
  -3  -8  -2 2471.67 138.581  29
  -3  -8  -2 2962.22 146.262  25
  -3  -8  -2 3044.93 151.388   4
  -3  -8  -2 2864.43 132.069  34
  -3  -8  -2 2865.28 112.060  32
   3   8   3 1731.69 115.206  32
  -3  -8  -3 1828.63 118.576  25
  -3  -8  -3 1758.53 117.381   4
  -3  -8  -3 1987.34 101.656  32
   3   8   4 2738.74 137.048  32
  -3  -8  -4 2751.06 144.000  25
  -3  -8  -4 2747.98 148.631   4
  -3  -8  -4 2900.35 121.835  32
   3   8   5 2282.20 126.442  32
  -3  -8  -5 2172.92 126.577  25
  -3  -8  -5 2322.61 139.547   4
   3   8   5 2309.56 141.199   4
  -3  -8  -5 2553.49 116.449  32
  -3  -8  -6 106.602 45.8924  32
   3   8   6 64.5111 52.2433  32
  -3  -8  -6 168.108 56.5520   4
  -3  -8  -6 75.5952 49.0697  25
   3   8   6 94.0976 56.2073   4
  -3  -8  -7 33.5857 41.1174  32
   3   8   7-7.92713 47.8966  32
  -3  -8  -7 26.3604 60.6679   4
  -3  -8  -7 12.2426 46.6606  25
   3   8   7-24.0772 54.7051   4
   3   8   8 1190.25 78.3713  32
   3   8   8 1198.50 97.1305  16
   3   8   8 1178.43 101.881  23
  -3  -8  -8 1404.31 107.202   4
   3   8   8 1158.75 99.9084   4
  -3  -8  -8 1408.68 80.1554  32
   3   8   9 1320.11 96.3528  23
  -3  -8  -9 1266.25 99.1630   4
   3   8   9 1168.77 85.0181  22
  -3  -8  -9 1294.07 81.5215  34
   3   8   9 1306.13 96.9500   4
   3   8  10 109.924 34.5377  34
   3   8  10 131.739 37.0517  34
  -3  -9  -2 448.895 63.1082  25
  -3  -9  -2 337.020 60.6367   4
   3   9   2 353.783 56.0454  34
  -3  -9  -3-7.72517 26.9641  32
   3   9   3 67.8076 31.0334  32
  -3  -9  -3-16.3139 48.5969   4
  -3  -9  -3-12.1241 37.7775  25
   3   9   3 54.5741 46.5885   4
  -3  -9  -3 28.7227 41.2512  34
   3   9   3 7.96675 52.6511  34
   3   9   4 628.518 51.7493  32
  -3  -9  -4 675.362 68.8095  25
  -3  -9  -4 736.042 77.9266   4
   3   9   4 593.595 74.3603   4
  -3  -9  -4 786.336 68.6652  34
   3   9   4 707.107 68.8859  34
   3   9   5 1485.96 71.3543  32
  -3  -9  -5 2301.96 114.671  25
  -3  -9  -5 1823.05 112.576   4
   3   9   5 2190.84 122.473   4
  -3  -9  -5 2122.75 101.380  34
   3   9   5 2027.63 101.190  34
  -3  -9  -5 1288.59 67.1758  32
   3   9   6 4969.50 139.718  34
  -3  -9  -6 5013.33 161.885  25
  -3  -9  -6 4738.92 169.117   4
   3   9   6 4950.99 172.168   4
  -3  -9  -6 5004.87 147.347  34
  -3  -9  -7 3284.69 125.441  25
  -3  -9  -7 3348.05 116.123  34
   3   9   7 3125.63 132.692   4
   3   9   7 3216.24 103.297  34
   3   9   8 1926.14 58.6374  34
  -4   8   4 31.4874 46.2510  12
  -4   8   3 8465.12 219.249  12
  -4   7   7 1580.83 55.7539   5
  -4   7   7 1580.57 103.213  23
  -4   7   6 39.0079 24.8163  36
  -4   7   6-20.7643 24.7110   5
  -4   7   6-17.2779 58.4072  23
  -4   7   5 4015.45 98.0389   5
  -4   7   5 3762.04 158.687  23
  -4   7   5 3802.35 99.0361  36
  -4   7   5 3691.55 160.726  12
  -4   7   4 4267.96 108.605  36
  -4   7   4 4111.23 175.425  12
  -4   7   3 11581.1 185.288  36
  -4   7   3 12200.1 183.955   5
  -4   7   3 11537.2 293.716  12
  -4   7   2 45.9385 29.0923   5
  -4   7   2 36.3340 35.5304  36
  -4   7   2-17.5086 52.7540  33
  -4   7   2 13.7600 58.4994  12
  -4   7   1 889.459 61.1508   5
  -4   7   1 878.866 64.2829  36
  -4   7   1 726.511 80.0358  33
  -4   7   1 802.948 89.5984  12
  -4   7   0 11.6014 47.8527  27
  -4   7   0 1276.83 76.0639   5
  -4   7   0 36.4325 34.3805  36
  -4   7   0 1229.43 97.1283  33
  -4   7   0 1201.89 100.491  12
  -4   7  -1 968.020 66.9777   5
  -4   7  -1 849.679 84.1771  33
  -4   7  -2 2801.98 89.8016   6
  -4   6   8 6170.69 199.776  23
  -4   6   7 310.427 39.5232   5
  -4   6   7 306.008 42.5598  36
  -4   6   6 964.271 56.8407   5
  -4   6   6 838.872 94.1755  23
  -4   6   6 940.728 61.4048  36
  -4   6   5 162.473 30.2047   5
  -4   6   5 269.348 65.6382  23
  -4   6   5 281.756 40.0232  36
  -4   6   5 182.709 66.8749  33
  -4   6   5 166.190 63.2950  12
  -4   6   4 35.4817 52.4783  27
  -4   6   4 100.240 30.9214   5
  -4   6   4 66.1366 57.8439  23
  -4   6   4 22.9810 33.0665  36
  -4   6   4 26.0675 57.3605  33
  -4   6   4 80.1728 53.8012  12
  -4   6   3 780.579 91.9981  27
  -4   6   3 920.885 56.9937   5
  -4   6   3 888.357 58.8127  36
  -4   6   3 832.741 92.2014  33
  -4   6   3 839.375 97.5792  12
  -4   6   2 7619.13 241.667  27
  -4   6   2 7513.30 153.201   5
  -4   6   2 7366.42 158.380  36
  -4   6   2 7709.00 244.915  33
  -4   6   2 7227.53 250.361  12
  -4   6   1 5963.90 217.539  27
  -4   6   1 5724.20 142.887   5
  -4   6   1 5706.26 212.217  33
  -4   6   1 5653.92 218.983  12
  -4   6   0 3511.54 173.084  27
  -4   6   0 3748.67 123.816   5
  -4   6   0 3742.01 126.453  36
  -4   6   0 3523.69 171.055  12
  -4   6  -1 9404.41 270.684  27
  -4   6  -1 9571.60 207.676   5
  -4   6  -1 9363.96 268.228  33
  -4   6  -2 13016.2 309.189  27
  -4   6  -2 13143.6 254.580   5
  -4   6  -2 12906.4 306.000  33
  -4   6  -3 6514.80 212.922  27
  -4   6  -3 6880.41 154.596   6
  -4   6  -3 6368.79 208.739  33
  -4   6  -4 56.0785 32.9714   6
  -4   6  -4 76.3604 49.4803  27
  -4   6  -4 99.9291 51.0336  33
  -4   5   9 3559.42 145.917  23
  -4   5   8 526.440 50.6262   5
  -4   5   8 565.042 80.7913  23
  -4   5   7 1718.32 121.063   9
  -4   5   7 1957.10 83.3956   5
  -4   5   7 1880.06 131.737  23
  -4   5   7 1974.94 89.7117  36
  -4   5   6 5239.95 206.347   9
  -4   5   6 5876.55 135.158   5
  -4   5   6 5083.06 212.494  23
  -4   5   6 5786.57 140.720  36
  -4   5   5 15910.5 352.494   9
  -4   5   5 15440.7 203.815   5
  -4   5   5 15885.3 214.774  36
  -4   5   5 15927.7 350.912  12
  -4   5   4 8655.50 273.656  31
  -4   5   4 9316.21 273.971   9
  -4   5   4 9351.83 148.219   5
  -4   5   4 8982.67 277.481  23
  -4   5   4 8975.84 152.371  36
  -4   5   4 8933.95 267.867  33
  -4   5   4 9180.09 275.852  12
  -4   5   3 1199.11 110.495  31
  -4   5   3 808.407 55.4706  36
  -4   5   3 988.994 105.541  27
  -4   5   3 1063.12 53.0008   5
  -4   5   3 955.141 102.473  23
  -4   5   3 1145.00 58.5015  36
  -4   5   3 1022.66 102.799  33
  -4   5   3 1255.69 113.671  12
  -4   5   2 623.091 86.5347  31
  -4   5   2 743.654 92.2572  27
  -4   5   2 586.734 44.1105   5
  -4   5   2 622.031 90.3401  23
  -4   5   2 590.317 93.7667  21
  -4   5   2 610.354 46.8760  36
  -4   5   2 508.080 79.1566  33
  -4   5   2 686.912 91.7823  12
  -4   5   1 309.674 73.7043  31
  -4   5   1 294.461 77.6644  27
  -4   5   1 202.483 77.1795  21
  -4   5   1 210.857 40.0398  36
  -4   5   1 175.459 67.1371  33
  -4   5   1 257.459 69.4792  12
  -4   5   0 2542.50 98.9845  36
  -4   5   0 2368.22 151.510  31
  -4   5   0 2286.95 149.533  27
  -4   5   0 2574.41 98.7345   5
  -4   5   0 2323.35 144.668  33
  -4   5   0 2430.47 151.823  12
  -4   5  -1 564.292 85.8864  31
  -4   5  -1 588.870 88.0213  27
  -4   5  -1 542.358 58.7587   5
  -4   5  -1 580.977 60.5140  36
  -4   5  -1 451.476 83.7397  33
  -4   5  -1 616.372 85.1618  12
  -4   5  -2 23.1241 61.8164  27
  -4   5  -2 21.8729 36.5037   5
  -4   5  -2 94.4429 63.4341  33
  -4   5  -3 1058.90 109.610  27
  -4   5  -3 975.617 84.9759   5
  -4   5  -3 978.055 106.414  33
  -4   5  -4 4664.08 193.236  27
  -4   5  -4 4619.69 193.955  33
  -4   5  -5 233.138 59.8057  27
  -4   5  -5 359.431 45.7257   6
  -4   5  -5 256.937 66.7849  33
  -4   5  -6 4572.85 168.895  27
  -4   4   9 6991.98 168.143   5
  -4   4   9 7070.96 149.166   6
  -4   4   8 2876.96 108.568   5
  -4   4   8 2878.54 111.031   5
  -4   4   8 3077.25 155.335  23
  -4   4   7 572.329 58.5162  36
  -4   4   7 721.679 56.4087   5
  -4   4   7 764.644 92.2622   9
  -4   4   7 727.209 58.2807   5
  -4   4   7 664.599 88.9606  23
  -4   4   6 962.067 59.1019   5
  -4   4   6 1059.02 64.2030   5
  -4   4   6 890.899 100.037  23
  -4   4   6 1019.07 68.5008  36
  -4   4   5 509.122 75.3789  31
  -4   4   5 710.264 48.9803   5
  -4   4   5 564.931 83.2962   9
  -4   4   5 649.292 49.2331   5
  -4   4   5 635.506 88.1379  23
  -4   4   5 713.409 55.0055  36
  -4   4   5 566.233 91.1237  33
  -4   4   4 15672.7 356.236  31
  -4   4   4 16000.1 354.358   9
  -4   4   4 14604.5 176.277   5
  -4   4   4 14743.5 352.124  23
  -4   4   4 14233.0 341.194  33
  -4   4   4 15989.3 354.209  12
  -4   4   3 6181.35 225.366  31
  -4   4   3 5555.29 213.903  27
  -4   4   3 5381.76 206.379   9
  -4   4   3 5101.91 201.593  14
  -4   4   3 5232.71 210.559  23
  -4   4   3 5371.34 214.675  21
  -4   4   3 5628.20 210.894  33
  -4   4   3 5355.88 211.073  12
  -4   4   2 497.638 83.5027  31
  -4   4   2 292.966 64.4298  29
  -4   4   2 587.105 88.1224  27
  -4   4   2 544.114 80.6769   9
  -4   4   2 450.979 30.2583   5
  -4   4   2 186.461 20.4156   5
  -4   4   2 434.118 80.1410  23
  -4   4   2 474.569 81.0776  21
  -4   4   2 417.036 74.8099  14
  -4   4   2 424.848 31.1610  36
  -4   4   2 466.404 33.9893  36
  -4   4   2 442.545 77.4252  33
  -4   4   2 585.484 91.5577  12
  -4   4   1 37211.6 546.540  31
  -4   4   1 36966.0 534.139  29
  -4   4   1 36178.2 526.806  27
  -4   4   1 36635.9 262.990   5
  -4   4   1 36788.3 520.571  23
  -4   4   1 34986.4 525.050  21
  -4   4   1 35136.3 508.569  14
  -4   4   1 38801.7 274.845  36
  -4   4   1 37063.0 523.145  33
  -4   4   1 35809.0 532.170  12
  -4   4   0 10347.2 291.730  31
  -4   4   0 9776.84 282.294  29
  -4   4   0 10021.6 284.076  27
  -4   4   0 10530.4 282.321   9
  -4   4   0 10669.7 165.067   5
  -4   4   0 10721.8 291.194  21
  -4   4   0 11142.5 174.066  36
  -4   4   0 10356.9 284.222  14
  -4   4   0 10316.6 284.200  33
  -4   4   0 10564.9 291.314  12
  -4   4  -1 1168.48 105.296  31
  -4   4  -1 1143.92 114.907  27
  -4   4  -1 1413.18 74.5123   5
  -4   4  -1 1357.40 110.092  21
  -4   4  -1 1439.30 79.5729  36
  -4   4  -1 1222.72 116.254  33
  -4   4  -1 1227.87 111.638  12
  -4   4  -2 1792.57 129.369  31
  -4   4  -2 1617.06 127.255  27
  -4   4  -2 1605.38 90.9045   5
  -4   4  -2 1749.84 96.3019  36
  -4   4  -2 1871.31 134.931  33
  -4   4  -3 69.0923 63.9173  27
  -4   4  -3 49.2953 41.2666   5
  -4   4  -3 124.246 62.2190  33
  -4   4  -4 100.435 69.6319  27
  -4   4  -4 53.9322 63.6533  33
  -4   4  -5 2381.33 149.429  27
  -4   4  -5 2362.51 103.736   6
  -4   4  -5 2411.62 150.218  33
  -4   4  -6 14226.3 220.833   6
  -4   4  -6 13326.0 313.246  27
  -4   4  -6 13457.7 316.014  33
  -4   4  -7 172.326 30.2695   6
  -4   4  -7 119.609 64.4704  27
  -4   4  -7 144.361 60.4111  33
  -4   3   9 36.1036 53.3310   6
  -4   3   9-24.5940 41.9147  28
  -4   3   8 781.149 66.0970   5
  -4   3   8 25.0039 44.2550  28
  -4   3   8 582.230 85.5388   9
  -4   3   8-15.8539 53.9572  23
  -4   3   7 362.127 48.8817   5
  -4   3   7 339.191 73.2873   9
  -4   3   7 344.741 77.0559  23
  -4   3   6 2505.80 148.785  31
  -4   3   6 2803.23 103.844   5
  -4   3   6 2797.56 158.920   9
  -4   3   6 2835.64 161.485  23
  -4   3   5 847.612 95.7475  31
  -4   3   5 740.264 51.2743   5
  -4   3   5 716.010 86.6294   9
  -4   3   5 810.704 96.4808  23
  -4   3   5 774.366 60.4755  36
  -4   3   5 596.356 93.0116  33
  -4   3   5 697.966 84.5525  12
  -4   3   4 103.764 51.9778  31
  -4   3   4 30.3714 61.7149  27
  -4   3   4 81.7102 55.5224   9
  -4   3   4 48.2124 20.4018   5
  -4   3   4 88.0393 61.4486  23
  -4   3   4 37.3092 62.2541  21
  -4   3   4 46.8089 29.0859  36
  -4   3   4 116.425 29.7436  36
  -4   3   4 72.0370 53.0730  14
  -4   3   4 106.481 67.0989  33
  -4   3   4 112.942 54.9938  12
  -4   3   3 164.823 51.4906  31
  -4   3   3 171.752 60.9451  14
  -4   3   3 296.741 73.7441  29
  -4   3   3 241.004 20.6362   5
  -4   3   3 354.578 73.6427  27
  -4   3   3 229.477 57.5405   9
  -4   3   3 95.7929 18.9519   5
  -4   3   3 266.468 73.1201  23
  -4   3   3 323.727 72.8508  21
  -4   3   3 216.717 24.5344  36
  -4   3   3 232.735 66.6179  33
  -4   3   3 305.105 68.2307  12
  -4   3   2 5531.73 203.929  31
  -4   3   2 5396.24 197.846  29
  -4   3   2 4302.04 53.0534   5
  -4   3   2 6074.17 213.874  27
  -4   3   2 5578.69 204.252   9
  -4   3   2 4685.00 55.9007   5
  -4   3   2 5265.91 203.671  23
  -4   3   2 5480.35 205.971  21
  -4   3   2 4543.54 56.6986  36
  -4   3   2 5836.74 201.635  14
  -4   3   2 5417.93 198.236  33
  -4   3   2 5597.16 208.378  12
  -4   3   1 2059.19 127.069  31
  -4   3   1 2025.60 130.943  29
  -4   3   1 2191.94 136.398  27
  -4   3   1 2382.46 135.010   9
  -4   3   1 1815.90 38.8988   5
  -4   3   1 2025.29 128.734  21
  -4   3   1 1654.23 39.8383  36
  -4   3   1 2068.43 123.137  14
  -4   3   1 1907.92 40.0222  36
  -4   3   1 2123.63 131.818  33
  -4   3   1 2002.46 127.610  12
  -4   3   0 2344.58 133.870  31
  -4   3   0 1993.33 126.050  29
  -4   3   0 2109.76 135.859  27
  -4   3   0 2021.80 128.630   9
  -4   3   0 2072.84 59.3805   5
  -4   3   0 1795.88 120.514  23
  -4   3   0 2237.82 139.722  21
  -4   3   0 2200.27 61.8753  36
  -4   3   0 1888.84 59.9468  36
  -4   3   0 2357.96 139.866  33
  -4   3   0 2008.91 126.876  12
  -4   3  -1 21736.0 398.421  31
  -4   3  -1 22218.6 398.265  29
  -4   3  -1 22572.3 415.050  27
  -4   3  -1 22457.4 412.239   9
  -4   3  -1 22239.1 238.579   5
  -4   3  -1 23416.2 409.389  21
  -4   3  -1 23284.3 245.904  36
  -4   3  -1 22395.3 397.282  14
  -4   3  -1 22897.4 412.663  33
  -4   3  -2 4127.49 176.803  31
  -4   3  -2 3752.67 173.701  29
  -4   3  -2 4299.63 189.734  27
  -4   3  -2 3852.81 122.376   5
  -4   3  -2 3985.46 177.522  21
  -4   3  -2 4231.89 129.117  36
  -4   3  -2 4093.85 184.179  33
  -4   3  -3 1458.26 125.177  27
  -4   3  -3 1585.81 91.7624   5
  -4   3  -3 1676.42 129.361  21
  -4   3  -3 1639.94 95.2629  36
  -4   3  -3 1647.57 123.843  33
  -4   3  -4 141.257 62.3345  27
  -4   3  -4 120.461 49.3035   5
  -4   3  -4 61.0949 53.0617  24
  -4   3  -4 131.316 66.9925  21
  -4   3  -4 213.754 20.8448   7
  -4   3  -5 3604.18 179.668  27
  -4   3  -5 3793.05 170.168  24
  -4   3  -5 3748.63 98.2441   7
  -4   3  -5 3481.54 177.094  33
  -4   3  -6 282.376 51.6910   6
  -4   3  -6 233.367 79.6277  27
  -4   3  -6 338.104 68.8048  24
  -4   3  -6 305.854 35.8560   7
  -4   3  -6 425.226 85.2572  33
  -4   3  -7 122.540 36.3501   6
  -4   3  -7 189.715 66.9076  27
  -4   3  -7 24.3866 53.2936  24
  -4   3  -7 160.353 26.9372   7
  -4   3  -7 191.406 68.5050  33
  -4   3  -8 1672.67 108.066  27
  -4   3  -8 1668.69 112.657  33
  -4   2   9 1089.81 75.1165   6
  -4   2   9 1271.75 94.6336  28
  -4   2   8 277.334 67.1649   6
  -4   2   8 511.015 76.0065  28
  -4   2   8 402.877 73.2510   9
  -4   2   7 8465.68 201.348   5
  -4   2   7 8582.20 243.200  28
  -4   2   6 51371.6 463.494   5
  -4   2   6 52611.0 599.416  28
  -4   2   6 52037.5 658.569   9
  -4   2   6 50472.5 626.146  23
  -4   2   5 19783.8 396.788   9
  -4   2   5 20567.5 405.452  23
  -4   2   5 20217.7 283.606  36
  -4   2   5 20706.9 372.052  14
  -4   2   4 2929.90 152.316  31
  -4   2   4 2361.33 82.3154   5
  -4   2   4 2544.84 143.455   9
  -4   2   4 2574.13 150.166  23
  -4   2   4 2577.06 91.0243  36
  -4   2   4 2631.18 140.063  14
  -4   2   4 2383.91 140.247  12
  -4   2   3 3996.02 170.407  31
  -4   2   3 4317.13 174.942  29
  -4   2   3 4014.26 84.7462   5
  -4   2   3 3579.80 172.420  27
  -4   2   3 4201.13 177.029   9
  -4   2   3 4145.84 181.836  23
  -4   2   3 3861.49 86.7542  36
  -4   2   3 3983.93 167.337  14
  -4   2   2 32737.4 469.466  31
  -4   2   2 32179.6 463.155  29
  -4   2   2 29422.8 167.751   5
  -4   2   2 29502.7 451.659  27
  -4   2   2 31548.2 460.659   9
  -4   2   2 29185.7 465.394  23
  -4   2   2 32330.0 472.135  21
  -4   2   2 32522.6 454.501  14
  -4   2   2 31991.8 458.253  33
  -4   2   2 30657.0 465.277  12
  -4   2   1 3.44873 43.5902  31
  -4   2   1-0.88308 48.0884  29
  -4   2   1 48.0651 52.5446  27
  -4   2   1 46.7458 44.3993   9
  -4   2   1 90.6245 63.9627  23
  -4   2   1 121.450 63.0640  21
  -4   2   1-2.55536 49.2008  14
  -4   2   1 0.88237 49.7485  33
  -4   2   1 87.6238 53.1665  12
  -4   2   0 211.127 47.0717  31
  -4   2   0 181.840 59.2786  29
  -4   2   0 288.683 70.7074  27
  -4   2   0 277.993 19.5855   5
  -4   2   0 247.477 56.8427   9
  -4   2   0 35.7532 11.8887   5
  -4   2   0 264.907 66.9239  23
  -4   2   0 271.441 65.0225  21
  -4   2   0 237.162 18.0175  36
  -4   2   0 156.208 17.0361  36
  -4   2   0 214.866 53.8160  14
  -4   2   0 376.078 67.3161  33
  -4   2   0 201.734 61.6197  12
  -4   2  -1 394.641 59.0354  31
  -4   2  -1 306.293 59.7495  29
  -4   2  -1 435.933 74.8504  27
  -4   2  -1 302.123 30.9835   5
  -4   2  -1 279.853 61.7021   9
  -4   2  -1 313.269 66.1118  24
  -4   2  -1 226.142 68.7784  23
  -4   2  -1 484.025 77.6133  21
  -4   2  -1 434.606 34.7950  36
  -4   2  -1 236.552 30.7363  36
  -4   2  -1 312.124 69.6361  14
  -4   2  -1 271.142 69.1618  12
  -4   2  -1 320.985 70.3884  33
  -4   2  -2 58.6511 39.9351  31
  -4   2  -2 62.1366 61.0222  29
  -4   2  -2 161.076 62.2265  27
  -4   2  -2 179.776 64.2402   9
  -4   2  -2 148.569 32.3193   5
  -4   2  -2 141.567 60.3481  24
  -4   2  -2 77.4448 64.7755  23
  -4   2  -2 143.209 66.6813  21
  -4   2  -2 173.825 34.2897  36
  -4   2  -2 84.7261 55.5335  14
  -4   2  -2 200.397 66.6699  33
  -4   2  -3 18281.3 355.282  29
  -4   2  -3 18018.3 371.921  27
  -4   2  -3 17836.5 272.830   5
  -4   2  -3 18293.1 356.993  24
  -4   2  -3 18166.6 363.648  21
  -4   2  -3 18360.7 274.899  36
  -4   2  -3 17067.9 363.376  33
  -4   2  -4 54445.1 650.918  27
  -4   2  -4 54142.4 536.320   5
  -4   2  -4 54711.5 629.293  24
  -4   2  -4 52510.9 627.687  21
  -4   2  -4 51559.6 364.906   7
  -4   2  -4 53647.3 640.992  33
  -4   2  -5 19215.3 397.614  27
  -4   2  -5 19110.1 385.585  24
  -4   2  -5 18858.1 383.361  21
  -4   2  -5 18971.3 261.415   7
  -4   2  -5 19660.0 398.987  33
  -4   2  -6 304.058 77.9528  27
  -4   2  -6 184.330 67.4132  24
  -4   2  -6 232.726 62.5002  21
  -4   2  -6 238.375 44.7187   7
  -4   2  -6 249.844 52.9006   6
  -4   2  -6 252.378 75.5554  33
  -4   2  -7-21.8142 41.2851   6
  -4   2  -7 9.13053 37.9644   7
  -4   2  -7 4.09591 69.2249  27
  -4   2  -7 36.3026 61.0141  24
  -4   2  -7 8.36562 59.7610  33
  -4   2  -8 3832.11 167.203  24
  -4   2  -8 4091.83 124.080   7
  -4   2  -8 3889.10 104.893   6
  -4   2  -8 3964.85 175.100  33
  -4   2  -9 2968.98 131.878  24
  -4   2  -9 2496.06 73.8571   7
  -4   1   9 1052.30 68.5315   6
  -4   1   9 1144.30 86.9371  28
  -4   1   8 3847.22 132.179   6
  -4   1   8 4367.23 171.861  28
  -4   1   8 4131.39 181.986   9
  -4   1   7 15584.8 329.251  28
  -4   1   7 14860.4 351.562   9
  -4   1   6 39.5021 50.8754  28
  -4   1   6-50.4282 58.9841   9
  -4   1   6 11.3712 36.1028   5
  -4   1   5 1411.70 84.6457   5
  -4   1   5 1555.84 111.460  28
  -4   1   5 1454.32 114.333   9
  -4   1   5 1594.47 120.090  23
  -4   1   5 1470.71 119.217  14
  -4   1   4 21261.7 256.528  30
  -4   1   4 20176.3 364.765  29
  -4   1   4 19624.2 260.466   5
  -4   1   4 20410.4 387.867   9
  -4   1   4 20328.0 388.478  23
  -4   1   4 20263.8 277.680  36
  -4   1   4 20860.8 383.685  14
  -4   1   3 6176.47 213.248  31
  -4   1   3 6160.09 204.675  29
  -4   1   3 6316.59 132.043   5
  -4   1   3 5636.48 214.953  27
  -4   1   3 6762.05 218.662   9
  -4   1   3 6085.69 218.210  23
  -4   1   3 6294.87 210.731  14
  -4   1   3 5859.57 210.693  12
  -4   1   2 4025.81 165.737  31
  -4   1   2 4980.19 183.811  29
  -4   1   2 4482.59 93.7575   5
  -4   1   2 4652.85 176.445   9
  -4   1   2 4717.96 188.589  23
  -4   1   2 4702.08 177.987  14
  -4   1   2 3946.32 170.015  12
  -4   1   1 5528.54 184.325  31
  -4   1   1 5752.17 192.271  29
  -4   1   1 5361.34 83.8264   5
  -4   1   1 5492.72 187.941   9
  -4   1   1 5397.18 196.442  23
  -4   1   1 5983.84 197.280  14
  -4   1   1 5687.36 198.538  12
  -4   1   0 3542.66 145.595  31
  -4   1   0 3624.72 152.870  29
  -4   1   0 3699.24 71.4454   5
  -4   1   0 3481.49 151.781   9
  -4   1   0 3877.19 75.7266  36
  -4   1  -1 33135.3 423.690  31
  -4   1  -1 31653.5 440.514  29
  -4   1  -1 33380.5 255.930   5
  -4   1  -1 31302.9 442.238   9
  -4   1  -2 17940.2 333.856  29
  -4   1  -2 18802.5 232.153   5
  -4   1  -2 18672.0 355.675   9
  -4   1  -2 20129.1 355.127  24
  -4   1  -2 18352.6 353.664  21
  -4   1  -2 19302.6 228.979  36
  -4   1  -2 16566.5 324.911  33
  -4   1  -3 19933.6 356.530  29
  -4   1  -3 20513.7 284.555   5
  -4   1  -3 20098.8 368.597  24
  -4   1  -3 20173.5 379.584  21
  -4   1  -3 20836.9 280.322  36
  -4   1  -3 20826.9 373.611  33
  -4   1  -4 1380.07 113.947  27
  -4   1  -4 1322.63 88.8004   5
  -4   1  -4 1466.03 112.286  24
  -4   1  -4 1514.33 114.688  21
  -4   1  -4 1359.87 68.5461   7
  -4   1  -5 1898.96 130.037  24
  -4   1  -5 1857.46 131.024  21
  -4   1  -5 1710.63 90.0810   7
  -4   1  -5 1621.39 50.0441  35
  -4   1  -5 1707.55 126.798  33
   4  -1   6 1904.20 120.525  11
  -4   1  -6 2121.44 139.786  24
  -4   1  -6 2254.11 143.631  21
  -4   1  -6 2018.23 104.946   7
  -4   1  -6 2048.11 73.3882  35
  -4   1  -6 1791.02 131.440  33
  -4   1  -7 132.199 45.2706   6
  -4   1  -7 115.848 39.8180   7
  -4   1  -7 62.8760 62.4666  24
  -4   1  -7 104.408 60.0611  21
  -4   1  -7 92.5598 28.8978  35
  -4   1  -8 1293.19 87.3345   7
  -4   1  -8 1185.66 54.3942  35
  -4   1  -8 1312.96 73.5717   6
  -4   1  -9 314.944 71.0712  24
  -4   1  -9 332.167 49.2485   7
  -4   1 -10 2064.00 110.577  24
  -4   1 -10 2094.37 77.8686   7
  -4   0   9 1744.45 100.179  28
  -4   0   8 1350.88 89.0397   6
  -4   0   8 1636.28 109.927  28
  -4   0   7 248.354 76.1056   6
  -4   0   7 192.660 64.5122  28
  -4   0   7 344.767 34.3705   7
  -4   0   6 13775.3 319.491  28
  -4   0   6 14363.1 339.417   9
  -4   0   5 1441.36 112.613   9
  -4   0   5 1201.90 110.084  14
  -4   0   4 22302.8 288.794  30
  -4   0   4 22152.1 392.468  29
  -4   0   4 21473.9 385.433  28
  -4   0   4 22672.6 318.836   5
  -4   0   4 22033.1 398.515   9
  -4   0   4 22713.8 402.113  14
  -4   0   3 5895.08 134.558  30
  -4   0   3 5743.46 199.245  29
  -4   0   3 5706.78 195.154  28
  -4   0   3 6115.42 155.666   5
  -4   0   3 6462.21 210.700   9
  -4   0   3 5142.12 82.0810   7
  -4   0   3 5425.38 148.802  36
  -4   0   3 5783.87 204.377  14
  -4   0   2 1815.92 67.6820  30
  -4   0   2 1751.67 78.9989  36
  -4   0   2 1705.37 115.405  29
  -4   0   2 1719.95 75.9167   5
  -4   0   2 1852.33 112.577   9
  -4   0   2 1783.47 103.119  15
  -4   0   2 1882.83 117.087  14
  -4   0   2 1679.94 116.131  12
  -4   0   1 19955.4 351.277  29
  -4   0   1 20212.5 222.220   5
  -4   0   1 19990.6 342.309   9
  -4   0   0 3603.21 154.884  29
  -4   0   0 3751.87 150.337   9
  -4   0  -1 7057.82 206.063   9
  -4   0  -2 7799.36 155.811   5
  -4   0  -2 7476.52 219.707   9
  -4   0  -3 12507.2 273.706  29
  -4   0  -3 13335.4 228.190   5
  -4   0  -3 12535.3 285.897  24
  -4   0  -3 12025.2 294.852  21
  -4   0  -3 13238.1 189.567   7
  -4   0  -3 13474.4 227.934  36
   4   0   4 597.735 62.6505  11
   4   0   4 111.216 43.2065  18
  -4   0  -4 230.711 59.4826  24
  -4   0  -4 382.146 79.1136  21
  -4   0  -4 367.103 43.8540   7
  -4   0  -4 396.828 31.2489  35
   4   0   5-17.3374 47.7541  11
  -4   0  -5-6.79958 55.6578  24
  -4   0  -5 34.6720 63.6709  21
  -4   0  -5 17.8959 29.2967   7
  -4   0  -5 21.1165 23.7521  35
  -4   0  -6 6309.45 165.363   6
   4   0   6 5689.00 191.676  11
  -4   0  -6 5633.52 212.961  24
  -4   0  -6 5579.14 218.303  21
  -4   0  -6 5986.37 158.231   4
  -4   0  -6 5631.56 179.437   7
  -4   0  -6 5524.89 143.638  35
  -4   0  -7 22290.1 424.297  24
  -4   0  -7 23174.7 440.002  21
  -4   0  -7 24480.8 327.152   4
  -4   0  -7 24441.4 383.542   7
  -4   0  -7 23238.7 305.264  35
  -4   0  -7 24407.7 315.433   6
  -4   0  -8 10214.7 249.258  30
  -4   0  -8 10053.8 282.041  24
  -4   0  -8 10689.6 291.988  21
  -4   0  -8 10470.7 213.218   4
  -4   0  -8 10623.0 256.708   7
  -4   0  -8 10327.9 203.674  35
  -4   0  -8 10211.8 191.877   6
  -4   0  -9 4492.29 184.150  24
  -4   0  -9 766.461 61.5375   4
  -4   0  -9-9.86290 56.3102  21
  -4   0  -9 4880.47 170.100   7
  -4   0  -9 4447.11 123.449  35
  -4   0 -10 215.831 55.5908  24
  -4   0 -10 57.3968 14.6018  35
  -4   0 -10 173.671 41.1481   7
  -4  -1   8 2654.40 86.2897   6
  -4  -1   8 2800.10 68.6883   7
  -4  -1   7 28.1149 65.5394   6
  -4  -1   7-15.0908 56.1195  28
  -4  -1   7 13.1287 27.5688   7
  -4  -1   7 31.3617 28.9117   7
  -4  -1   6 1698.58 102.027   6
  -4  -1   6 1593.15 120.990  28
  -4  -1   6 1739.56 86.7416   7
  -4  -1   5 1310.78 90.5770   6
  -4  -1   5 1248.58 88.8080  30
  -4  -1   5 1276.78 113.064  28
  -4  -1   5 1274.32 75.4905   7
  -4  -1   5 1227.33 109.841  14
  -4  -1   4 1582.72 88.5412  30
  -4  -1   4 1670.00 119.618  29
  -4  -1   4 1584.41 117.253  28
  -4  -1   4 1675.43 82.3028   7
  -4  -1   4 1520.96 117.269  14
  -4  -1   3 1406.89 78.1361  30
  -4  -1   3 1292.01 108.339  29
  -4  -1   3 1313.68 102.444  28
  -4  -1   3 1502.33 104.687   9
  -4  -1   3 1344.30 70.6527   7
  -4  -1   3 1554.74 104.944  15
  -4  -1   3 1566.85 117.260  14
  -4  -1   2 201.481 37.2210  30
  -4  -1   2 219.764 63.0595  29
  -4  -1   2 197.027 57.2907  28
  -4  -1   2 279.169 54.9621   9
  -4  -1   2 171.436 43.6104   5
  -4  -1   2 257.139 70.5664  23
  -4  -1   2 145.427 28.0694   7
  -4  -1   2 196.546 53.7752  15
  -4  -1   2 198.529 53.1639  14
  -4  -1   1 8060.68 152.148  30
  -4  -1   1 7911.97 230.142  29
  -4  -1   1 8622.32 182.322   5
  -4  -1   1 8176.00 219.951   9
  -4  -1   1 7852.74 143.717   7
  -4  -1   1 8736.57 189.193  36
  -4  -1   1 8224.29 215.538  15
  -4  -1   1 8677.51 240.433  14
  -4  -1   0 29185.1 276.682  30
  -4  -1   0 28198.4 423.301  29
  -4  -1   0 28104.6 393.193   9
  -4  -1   0 28441.1 388.371  15
  -4  -1  -1 8298.84 149.378  30
  -4  -1  -1 8315.94 227.873  29
  -4  -1  -1 8369.84 221.554   9
  -4  -1  -2 8153.04 154.291  30
  -4  -1  -2 8602.90 228.099   9
  -4  -1  -3 16.3728 25.9976  30
   4   1   3 14.7056 39.6394  11
  -4  -1  -3 2.88041 26.5262   7
  -4  -1  -3 29.3738 49.9205  24
  -4  -1  -3-3.12432 31.9728   2
   4   1   4 4853.26 153.433  11
  -4  -1  -4 5034.05 130.687   4
  -4  -1  -4 4541.78 189.746  21
  -4  -1  -4 4939.34 150.765   7
  -4  -1  -4 4991.23 178.795   2
  -4  -1  -4 4822.52 123.104  35
  -4  -1  -5 70.7908 38.0277  30
   4   1   5-44.1356 45.7583  11
  -4  -1  -5 26.6097 36.2758   4
  -4  -1  -5-22.5366 53.5057  24
  -4  -1  -5 54.7860 63.2579  21
  -4  -1  -5 4.80288 32.7920   7
  -4  -1  -5 54.9059 28.1098  35
   4   1   6 1879.38 112.366  11
  -4  -1  -6 1820.78 101.183  30
  -4  -1  -6 1963.82 135.361  24
  -4  -1  -6 1801.56 96.6689   4
  -4  -1  -6 1636.56 126.973  21
  -4  -1  -6 1982.69 114.479   7
  -4  -1  -6 1928.72 93.9040  35
  -4  -1  -6 2057.60 97.8850   6
   4   1   7 7629.55 230.386  11
  -4  -1  -7 8153.22 214.123  30
  -4  -1  -7 8098.76 253.880  24
  -4  -1  -7 8167.63 271.065  21
  -4  -1  -7 8673.93 210.360   4
  -4  -1  -7 8576.42 239.991   7
  -4  -1  -7 8250.07 199.551  35
  -4  -1  -7 8653.23 185.873   6
  -4  -1  -8 1015.44 89.4312  30
  -4  -1  -8 1056.05 103.863  24
  -4  -1  -8 1212.16 115.502  21
  -4  -1  -8 1184.01 86.3617   4
  -4  -1  -8 951.472 90.1134   7
  -4  -1  -8 1081.29 79.3704  35
  -4  -1  -8 1106.82 70.6300   6
  -4  -1  -9 999.350 100.531  24
  -4  -1  -9 1039.08 104.605  21
  -4  -1  -9 1202.45 83.5167   4
  -4  -1  -9 1172.14 96.8691   7
  -4  -1  -9 1245.11 81.7155  35
  -4  -1 -10-70.8499 51.3795  26
  -4  -1 -10 2902.97 139.864  24
  -4  -1 -10 2600.27 104.952   4
  -4  -1 -10-6.67472 49.6050  21
  -4  -1 -10 3048.64 135.487   7
  -4  -1 -10 3022.04 106.234  35
  -4  -2   8-0.62570 41.5431  28
   4   2  -8 48.1580 49.0712  24
  -4  -2   8 1.93006 14.0995   7
  -4  -2   7 705.656 57.6870   6
  -4  -2   7 761.024 82.5759  28
  -4  -2   6-4.49049 67.0123   6
  -4  -2   6 41.1455 52.9842  28
  -4  -2   6 68.9525 34.9488   7
  -4  -2   6-6.49880 14.5627  35
  -4  -2   5 11916.5 222.260   6
  -4  -2   5 12564.5 266.655  30
  -4  -2   5 12167.0 300.891  28
  -4  -2   5 12189.4 245.135   7
  -4  -2   5 11402.2 178.385  35
  -4  -2   5 12512.2 306.667  14
  -4  -2   4 671.429 78.7489   6
  -4  -2   4 564.638 68.0114  30
  -4  -2   4 611.123 88.6335  29
  -4  -2   4 527.455 49.4998   4
  -4  -2   4 530.869 54.6968   4
  -4  -2   4 485.951 57.2961   7
  -4  -2   4 486.105 46.0272  35
  -4  -2   4 430.731 76.5733  14
  -4  -2   3 5895.60 165.376  30
  -4  -2   3 5483.45 207.487  29
  -4  -2   3 5429.04 199.721  28
  -4  -2   3 5783.98 145.957   4
  -4  -2   3 5451.64 169.581   8
  -4  -2   3 5484.85 163.973   7
  -4  -2   3 5622.94 199.666  15
  -4  -2   3 5675.43 136.522  35
  -4  -2   3 5620.43 211.640  14
  -4  -2   2 164.031 38.7202  30
  -4  -2   2 264.846 62.6225  29
  -4  -2   2 168.189 62.4506  28
  -4  -2   2 131.256 46.2102  15
  -4  -2   2 191.087 32.9874  35
  -4  -2   2 92.6889 34.5603   8
  -4  -2   2 179.000 34.7726   7
  -4  -2   2 213.801 65.9949  14
  -4  -2   1 26147.4 309.985  30
  -4  -2   1 27504.8 443.522  29
  -4  -2   1 26449.6 422.842  28
  -4  -2   1 27509.8 280.381  35
  -4  -2   1 29047.1 341.134   8
  -4  -2   1 28799.9 343.800   7
  -4  -2   1 26949.8 400.215  15
  -4  -2   1 27361.7 435.964  14
  -4  -2   0 21207.1 269.390  30
  -4  -2   0 21391.5 384.007  29
  -4  -2   0 23005.6 294.977   8
  -4  -2   0 22874.1 300.628   7
  -4  -2   0 22481.9 355.506  15
  -4  -2   0 21927.6 246.921  35
  -4  -2   0 22456.5 390.694  14
  -4  -2  -1 7262.43 157.300  30
  -4  -2  -1 7791.42 228.837  29
  -4  -2  -1 8190.57 176.365   8
  -4  -2  -1 8397.01 183.471   7
  -4  -2  -1 7755.97 222.364   2
  -4  -2  -1 7587.47 148.053  35
  -4  -2  -2 5121.40 135.815  30
  -4  -2  -2 5249.94 186.163  29
  -4  -2  -2 5208.29 144.336   8
  -4  -2  -2 5521.86 154.069   7
  -4  -2  -2 5259.38 129.827  35
  -4  -2  -2 5684.92 190.528   2
  -4  -2  -3 5622.48 145.884  30
  -4  -2  -3 5965.35 190.596  29
  -4  -2  -3 5827.19 144.010  35
  -4  -2  -3 5937.08 167.632   7
   4   2   4 6572.00 186.936  11
  -4  -2  -4 5819.74 155.106  30
  -4  -2  -4 6596.08 166.769   4
  -4  -2  -4 6356.02 184.631   7
  -4  -2  -4 6617.42 210.343   2
  -4  -2  -4 6081.01 156.225  35
   4   2   5 32290.7 430.664  11
  -4  -2  -5 33001.1 385.978  30
  -4  -2  -5 34575.6 400.470   4
  -4  -2  -5 31495.6 504.370  21
  -4  -2  -5 34047.2 449.137   7
  -4  -2  -5 32791.3 381.843  35
  -4  -2  -5 36130.2 501.654   2
  -4  -2  -5 32851.9 357.390   6
   4   2   6 8050.40 229.689  11
  -4  -2  -6 7638.25 199.635  30
  -4  -2  -6 8584.04 258.164  26
  -4  -2  -6 8307.15 209.475   4
  -4  -2  -6 7968.29 264.471  21
  -4  -2  -6 8242.17 181.148   6
  -4  -2  -6 7958.53 230.446   7
  -4  -2  -6 7838.21 198.092  35
  -4  -2  -6 8115.13 249.001   2
  -4  -2  -7 112.020 40.3492   6
  -4  -2  -7 109.871 43.5961  30
   4   2   7 157.889 60.1836  11
  -4  -2  -7 162.865 49.5784   4
  -4  -2  -7 176.217 66.8515  26
  -4  -2  -7 76.5197 56.6989  24
  -4  -2  -7 127.045 70.9788  21
  -4  -2  -7 74.8626 46.3823   7
  -4  -2  -7 154.848 40.8501  35
  -4  -2  -8 3629.46 171.714  24
  -4  -2  -8 3506.70 144.547   4
  -4  -2  -8 3546.56 184.655  21
  -4  -2  -8 3954.60 174.577   7
  -4  -2  -8 3796.79 148.408  35
  -4  -2  -8 3883.56 116.335   6
  -4  -2  -9 6231.72 210.218  24
  -4  -2  -9 6752.39 193.821   4
  -4  -2  -9 6159.94 228.189  21
  -4  -2  -9 6636.11 226.960   7
  -4  -2  -9 6373.86 186.442  35
  -4  -2 -10 7118.93 216.297  26
  -4  -2 -10 6594.62 200.649  24
  -4  -2 -10 6984.03 183.508   4
  -4  -2 -10 6327.58 217.845  21
  -4  -2 -10 6834.96 213.892   7
  -4  -2 -10 6528.58 173.583  35
  -4  -2 -11 478.135 50.9925   4
  -4  -2 -11 584.717 66.2792  21
  -4  -2 -11 615.644 47.8026  35
  -4  -3   7 6143.83 176.877  28
   4   3  -7 6603.08 187.688  26
   4   3  -7 6360.82 191.548  24
  -4  -3   6 1503.48 108.134  28
   4   3  -6 1424.99 110.259  26
  -4  -3   6 1295.08 84.9473   7
  -4  -3   6 1255.70 51.2131  35
  -4  -3   5 1090.61 81.7365   6
  -4  -3   5 1167.81 72.2994   4
  -4  -3   5 1132.55 104.268  28
  -4  -3   5 991.847 63.7369  35
   4   3  -5 1181.76 111.108  26
  -4  -3   5 1199.43 84.9834   7
  -4  -3   5 1051.96 103.290  14
  -4  -3   4 5998.52 163.500   6
  -4  -3   4 6457.39 194.750  30
  -4  -3   4 6241.61 226.058  29
  -4  -3   4 6433.42 222.851  28
  -4  -3   4 6256.10 169.080   4
  -4  -3   4 6534.67 174.859   4
  -4  -3   4 6354.74 192.546   7
  -4  -3   4 6181.62 160.496  35
  -4  -3   4 6165.51 223.435  14
  -4  -3   3 1241.13 90.7441   6
  -4  -3   3 1224.83 88.4520  30
  -4  -3   3 1047.45 111.079  29
  -4  -3   3 1128.19 105.143  28
  -4  -3   3 1396.36 89.0597   4
  -4  -3   3 1284.63 96.9508   8
  -4  -3   3 1128.22 87.3729   7
  -4  -3   3 1055.12 92.0054  15
  -4  -3   3 1199.40 80.1680  35
  -4  -3   3 1154.32 109.419  14
  -4  -3   2 476.154 59.4366  30
  -4  -3   2 287.135 51.6345   6
  -4  -3   2 352.254 76.1785  29
  -4  -3   2 425.563 72.8829  28
  -4  -3   2 422.039 58.4414   4
  -4  -3   2 373.014 61.5913   8
  -4  -3   2 519.032 63.2452   7
  -4  -3   2 380.721 63.0260  15
  -4  -3   2 372.499 49.9304  35
  -4  -3   2 242.115 66.8127  14
  -4  -3   1 180.010 46.6631  30
  -4  -3   1 221.762 45.7371   6
  -4  -3   1 146.572 70.6691  29
  -4  -3   1 214.156 60.7552  28
  -4  -3   1 206.912 45.4710   4
  -4  -3   1 286.491 53.4665   8
  -4  -3   1 197.270 44.0824   7
  -4  -3   1 207.210 38.4908  35
  -4  -3   1 235.236 58.5452  15
  -4  -3   1 165.898 63.7501  14
  -4  -3   0 612.215 60.5433  30
  -4  -3   0 627.701 85.5410  29
  -4  -3   0 681.772 83.6844  28
  -4  -3   0 604.504 57.3914  35
  -4  -3   0 617.208 65.7354   4
  -4  -3   0 519.779 63.4868   8
  -4  -3   0 603.594 63.8293   7
  -4  -3   0 473.371 66.5955  15
  -4  -3   0 622.855 87.8621  14
  -4  -3  -1 120.548 38.6424  30
   4   3   1 154.457 50.5617  11
  -4  -3  -1 121.851 65.1595  29
  -4  -3  -1 162.091 46.7672   4
  -4  -3  -1 110.450 38.9100   8
  -4  -3  -1 127.033 32.4397  35
  -4  -3  -1 162.477 43.1820   7
  -4  -3  -1 234.169 52.1456  15
  -4  -3  -1 120.833 56.6052  14
  -4  -3  -1 87.8287 42.0195   2
  -4  -3  -2 1212.52 77.8701  30
  -4  -3  -2 1366.37 85.5337   4
  -4  -3  -2 1248.33 87.7051   7
  -4  -3  -2 1281.75 98.1727   2
  -4  -3  -2 1198.41 77.6946  35
   4   3   3 2555.31 126.441  11
  -4  -3  -3 2238.44 102.326  30
  -4  -3  -3 2387.47 129.345  29
  -4  -3  -3 2293.36 108.572   4
  -4  -3  -3 2079.33 106.114   8
  -4  -3  -3 2537.47 123.813   7
  -4  -3  -3 2267.41 130.302   2
  -4  -3  -3 2200.07 103.711  35
   4   3   4 3618.46 151.498  11
  -4  -3  -4 3508.61 129.686  30
  -4  -3  -4 3592.35 133.480  35
  -4  -3  -4 3422.75 133.594   4
  -4  -3  -4 3294.46 168.936  21
  -4  -3  -4 3954.08 159.290   7
  -4  -3  -4 3996.93 173.651   2
  -4  -3  -4 3515.27 118.402   6
   4   3   5 2302.22 125.661  11
  -4  -3  -5 1902.95 103.912  30
  -4  -3  -5 2009.42 128.279   2
  -4  -3  -5 1889.52 107.096   4
  -4  -3  -5 2161.44 124.842   7
  -4  -3  -5 1948.87 106.908  35
  -4  -3  -5 2073.70 92.0528   6
   4   3   6 708.719 78.0994  11
  -4  -3  -6 709.128 71.3874  30
  -4  -3  -6 734.732 77.9666   4
  -4  -3  -6 618.197 89.4890  21
  -4  -3  -6 707.871 85.2904   7
  -4  -3  -6 786.890 72.4089  35
  -4  -3  -6 773.926 64.6741   6
   4   3   7 1025.76 98.8891  11
  -4  -3  -7 979.454 65.6013   6
  -4  -3  -7 920.755 84.5565  30
  -4  -3  -7 939.250 84.7258   4
  -4  -3  -7 970.388 110.644  21
  -4  -3  -7 1022.00 86.7293  35
  -4  -3  -7 831.005 62.6893   6
  -4  -3  -8 544.452 51.0124   6
  -4  -3  -8 358.471 79.2202  26
  -4  -3  -8 581.952 71.8544   4
  -4  -3  -8 519.440 93.9563  21
  -4  -3  -8 500.347 65.9276  35
  -4  -3  -9 5753.63 214.976  26
  -4  -3  -9 5828.60 187.710   4
  -4  -3  -9 5646.25 225.130  21
  -4  -3  -9 5763.88 186.336  35
  -4  -3 -10 5765.76 201.563  26
  -4  -3 -10 5588.91 172.862   4
  -4  -3 -10 5574.20 212.118  21
  -4  -3 -10 5651.88 173.440  35
  -4  -3 -11 267.357 61.7035  26
   4   3  11 230.448 58.8805  22
  -4  -3 -11 351.651 49.2029   4
  -4  -3 -11 165.146 55.9430  21
  -4  -3 -11 241.428 41.5879  35
  -4  -4   6 752.362 68.5141  28
   4   4  -6 914.999 82.0737  26
  -4  -4   6 947.652 66.6302   7
  -4  -4   5 1568.03 82.0359   4
  -4  -4   5 1532.88 105.204  28
  -4  -4   5 1751.58 99.5174   7
  -4  -4   5 1570.37 75.7506  35
  -4  -4   5 1642.75 111.561  14
  -4  -4   4 3727.48 107.359   6
  -4  -4   4 4001.03 183.730  29
  -4  -4   4 4072.80 173.265  28
  -4  -4   4 4521.27 150.028   4
  -4  -4   4 4338.28 165.975   7
  -4  -4   4 4468.88 143.274  35
  -4  -4   4 4401.66 186.446  14
  -4  -4   3 1955.49 100.198   6
  -4  -4   3 2230.82 122.401  30
  -4  -4   3 1986.50 140.795  29
  -4  -4   3 2113.15 131.056  28
  -4  -4   3 1938.29 107.359   4
  -4  -4   3 2211.20 124.164   7
  -4  -4   3 1879.16 102.123  35
  -4  -4   3 1877.38 136.751  14
  -4  -4   2 5591.91 154.115   6
  -4  -4   2 5874.91 186.034  30
  -4  -4   2 5296.63 219.503  29
  -4  -4   2 5183.47 201.387  28
  -4  -4   2 5836.52 181.291   4
  -4  -4   2 5801.86 200.181   7
  -4  -4   2 5224.81 193.958  15
  -4  -4   2 5582.00 174.748  35
  -4  -4   2 5326.17 216.748  14
  -4  -4   1 1242.61 83.4773   6
  -4  -4   1 1107.94 86.1456  30
  -4  -4   1 1267.36 122.056  29
  -4  -4   1 1297.48 112.634  28
  -4  -4   1 1124.38 88.6866   4
  -4  -4   1 1212.62 98.7789   8
  -4  -4   1 1192.97 97.4836   7
  -4  -4   1 1033.70 79.6389  35
  -4  -4   1 1149.35 93.7893  15
  -4  -4   1 1012.21 108.472  14
  -4  -4   0 3729.27 124.775   6
  -4  -4   0 3525.43 138.518  30
  -4  -4   0 3312.86 178.320  29
  -4  -4   0 3495.96 165.429  28
  -4  -4   0 3523.58 143.800   4
  -4  -4   0 3653.00 154.247   8
  -4  -4   0 3961.45 165.209   7
  -4  -4   0 3379.25 152.486  15
  -4  -4   0 3425.36 137.282  35
  -4  -4  -1-20.4448 37.5953  30
  -4  -4  -1-11.8041 36.9573   6
  -4  -4  -1-13.5412 58.9136  29
  -4  -4  -1 31.3755 43.3292   4
  -4  -4  -1-31.9222 46.2161   8
  -4  -4  -1 63.6709 39.9503  15
  -4  -4  -1 5.42451 39.2941   7
  -4  -4  -1 131.106 39.6665  35
  -4  -4  -1 60.4185 56.1562  14
   4   4   2 630.358 79.9022  11
  -4  -4  -2 508.486 55.2875   6
  -4  -4  -2 512.344 62.2728  30
  -4  -4  -2 532.389 66.4793   4
  -4  -4  -2 677.549 74.4193   8
  -4  -4  -2 578.177 73.8178   7
  -4  -4  -2 553.132 74.2844   2
  -4  -4  -2 668.725 65.9813  35
  -4  -4  -2 584.749 76.3458  14
   4   4   3 495.573 74.5181  11
  -4  -4  -3 457.945 54.2096   6
  -4  -4  -3 477.454 33.8360  34
  -4  -4  -3 512.843 60.8145  30
  -4  -4  -3 417.836 58.2320  35
  -4  -4  -3 506.736 81.5127  29
  -4  -4  -3 498.141 65.5545   4
  -4  -4  -3 547.152 66.2257   8
  -4  -4  -3 882.636 88.8756   7
  -4  -4  -3 538.999 74.9984   2
  -4  -4  -3 84.6717 26.4866  34
  -4  -4  -4 6307.48 117.497  34
   4   4   4 7016.43 222.743  11
  -4  -4  -4 6500.77 159.049   6
  -4  -4  -4 6590.01 188.506  30
  -4  -4  -4 6573.01 197.138   4
  -4  -4  -4 6195.60 197.927   8
  -4  -4  -4 6984.52 237.838   2
  -4  -4  -4 6801.20 200.581  35
   4   4   5 7533.77 229.919  11
  -4  -4  -5 7523.83 168.498   6
  -4  -4  -5 7616.58 210.948  30
  -4  -4  -5 7572.87 213.011   4
  -4  -4  -5 7689.48 215.813  35
  -4  -4  -5 7244.40 133.401  34
   4   4   6 1025.10 99.1450  11
  -4  -4  -6 1043.79 69.0201   6
  -4  -4  -6 1019.97 87.8044   4
  -4  -4  -6 1165.27 115.837  21
  -4  -4  -6 1102.48 89.4683  35
  -4  -4  -6 1090.44 60.1751  34
  -4  -4  -7 1090.80 65.7843   6
  -4  -4  -7 1112.06 58.0957  34
  -4  -4  -7 1154.54 95.1287   4
  -4  -4  -7 1059.54 117.661  21
  -4  -4  -7 1196.55 94.5652  35
  -4  -4  -8 1574.73 108.571   4
  -4  -4  -8 1266.18 117.926  21
  -4  -4  -8 1575.96 106.700  35
  -4  -4  -8 1228.29 45.5054  34
   4   4   9 1153.35 111.747  22
  -4  -4  -9 1149.43 92.5003   4
  -4  -4  -9 1000.94 107.220  21
  -4  -4  -9 1226.49 93.3868  35
  -4  -4 -10 1370.91 107.184  26
   4   4  10 1147.34 99.3735  23
   4   4  10 1251.09 105.949  22
  -4  -4 -10 1444.17 96.2133   4
  -4  -4 -10 1302.81 116.740  21
  -4  -4 -10 1320.79 89.1024  35
   4   4  11 6683.33 194.415  22
  -4  -4 -11 6720.72 170.163   4
  -4  -4 -11 6666.13 201.733  21
  -4  -4 -11 7025.04 170.567  35
   4   5  -5 351.159 62.4134  26
  -4  -5   5 316.610 45.5150   7
  -4  -5   5 353.792 32.6042  35
  -4  -5   5 324.496 62.4370  14
  -4  -5   4 2115.03 125.408  29
  -4  -5   4 2285.99 123.041  28
  -4  -5   4 2418.94 103.177   4
  -4  -5   4 2564.32 107.997   4
  -4  -5   4 2238.46 116.357   7
  -4  -5   4 2254.11 98.2305  35
  -4  -5   4 2360.79 135.251  14
  -4  -5   3 1970.26 134.488  29
  -4  -5   3 2185.47 127.255  28
  -4  -5   3 2045.91 111.146   4
  -4  -5   3 2226.83 124.111   7
  -4  -5   3 1980.97 103.433  35
  -4  -5   3 1956.83 133.571  14
  -4  -5   2 3641.90 184.963  29
  -4  -5   2 3566.34 162.215  28
  -4  -5   2 3853.95 151.516   4
  -4  -5   2 3855.81 149.764  35
  -4  -5   2 3610.54 183.610  14
  -4  -5   1 1336.56 81.1474   6
  -4  -5   1 1411.36 124.234  29
  -4  -5   1 1347.99 108.385  28
  -4  -5   1 1472.52 102.529   4
  -4  -5   1 1382.84 106.146  15
  -4  -5   1 1506.58 98.5845  35
  -4  -5   1 1614.45 125.118  14
  -4  -5   0 879.654 74.7912   6
  -4  -5   0 714.933 95.4035  29
  -4  -5   0 726.399 89.0909  28
  -4  -5   0 757.478 78.5925   4
  -4  -5   0 670.242 74.9168  15
  -4  -5   0 754.094 76.3159  35
  -4  -5   0 620.334 88.2081  14
  -4  -5  -1 4054.08 123.775   6
  -4  -5  -1 3939.71 187.503  29
  -4  -5  -1 4409.04 185.853  28
  -4  -5  -1 4088.46 161.702   4
  -4  -5  -1 3866.81 170.715   8
  -4  -5  -1 3686.59 158.952  15
  -4  -5  -1 4124.28 161.942  35
  -4  -5  -1 4050.93 185.767  14
  -4  -5  -1 3417.60 79.3430  34
  -4  -5  -2 4622.79 132.554   6
  -4  -5  -2 5022.00 207.638  29
  -4  -5  -2 5160.73 199.872  14
  -4  -5  -2 5019.54 179.252   4
  -4  -5  -2 4491.39 181.799   8
  -4  -5  -2 4753.32 180.795  15
  -4  -5  -2 4982.14 179.380  35
  -4  -5  -2 4906.30 112.918  34
   4   5   3 1707.73 121.389  11
  -4  -5  -3 1879.55 86.4979   6
  -4  -5  -3 1918.86 117.487   4
  -4  -5  -3 1658.73 120.256   8
  -4  -5  -3 1844.62 114.532  35
  -4  -5  -3 1849.56 80.0351  34
   4   5   4 10262.3 283.643  11
  -4  -5  -4 11621.1 198.579   6
  -4  -5  -4 12207.0 282.887  35
  -4  -5  -4 11612.3 273.130   4
  -4  -5  -4 9548.67 267.687   8
  -4  -5  -4 10971.8 190.394  34
  -4  -5  -5 19.3841 35.5032   6
   4   5   5 37.5028 52.8092  11
  -4  -5  -5 85.9752 52.5526   4
  -4  -5  -5 58.5059 43.9107  35
  -4  -5  -5 103.232 38.6735  34
  -4  -5  -6 4361.56 172.822   4
  -4  -5  -6 4868.77 185.399  35
  -4  -5  -6 4587.60 128.271  34
  -4  -5  -7 4554.71 179.183   4
  -4  -5  -7 4817.85 204.237  21
  -4  -5  -7 4924.25 185.363  35
  -4  -5  -7 4681.43 124.276  34
   4   5   8 5487.50 208.827  22
  -4  -5  -8 5380.04 191.132   4
  -4  -5  -8 4774.83 210.997  21
  -4  -5  -8 5429.93 193.010  35
  -4  -5  -8 5214.77 111.908  34
  -4  -5  -9 333.005 66.5042   4
   4   5   9 209.276 64.0875  22
  -4  -5  -9 327.965 78.8287  21
  -4  -5  -9 271.953 53.0960  35
   4   5  10 3093.47 147.488  23
   4   5  10 3102.51 147.766  22
  -4  -5 -10 3169.19 135.404   4
  -4  -5 -10 2955.00 153.924  21
   4   5  10 2850.57 144.184  16
  -4  -5 -10 3193.02 133.571  35
   4   5  11 643.671 68.2446  32
   4   5  11 537.401 72.2915  22
  -4  -5 -11 482.024 55.8178   4
  -4  -5 -11 367.064 72.3220  21
  -4  -5 -11 468.407 52.1335  35
   4   6  -4 6909.62 184.278  26
  -4  -6   3 5502.64 186.509  29
  -4  -6   3 5018.40 148.362   4
  -4  -6   3 4962.89 142.048  35
  -4  -6   3 4949.55 175.575  14
  -4  -6   2 294.549 74.2181  29
  -4  -6   2 349.818 63.6824  28
  -4  -6   2 464.123 61.6418   4
  -4  -6   2 477.217 58.9114  35
  -4  -6   2 387.839 70.3810  14
  -4  -6   1-24.9034 64.7361  29
  -4  -6   1 51.0240 50.8379  28
  -4  -6   1-28.7762 51.3262   4
  -4  -6   1-43.2207 47.0477  25
  -4  -6   1 88.2124 41.2577  35
  -4  -6   1 98.2255 56.1265  14
  -4  -6   0 124.749 66.9594  29
  -4  -6   0 69.2870 52.2010  28
  -4  -6   0-18.5525 51.1634   4
  -4  -6   0 66.2815 46.8745  35
  -4  -6   0 61.2474 59.2973  14
  -4  -6  -1 2461.74 140.660  28
  -4  -6  -1 2667.97 136.782   4
  -4  -6  -1 2508.37 132.584  15
  -4  -6  -1 2416.65 131.530  35
  -4  -6  -1 2360.74 144.463  14
  -4  -6  -2 734.175 97.9912  29
  -4  -6  -2 778.486 92.5222  28
  -4  -6  -2 848.759 86.0866   4
  -4  -6  -2 816.985 82.7409  15
  -4  -6  -2 757.269 78.1111  35
  -4  -6  -2 797.265 57.5157  34
  -4  -6  -3 4353.72 174.072   4
  -4  -6  -3 4617.79 181.178  35
  -4  -6  -3 4062.51 164.580  15
  -4  -6  -3 4394.39 122.069  34
  -4  -6  -4 2651.43 141.524   4
  -4  -6  -4 2296.94 126.102  15
  -4  -6  -4 2574.44 140.615  35
  -4  -6  -4 2435.87 97.6914  34
  -4  -6  -5 6472.42 157.117  34
  -4  -6  -5 6261.27 208.458   4
  -4  -6  -5 6444.43 215.480  35
  -4  -6  -6 3370.30 155.456   4
  -4  -6  -6 3511.90 162.132  35
  -4  -6  -6 3672.11 118.546  34
  -4  -6  -7 4797.15 186.116  35
  -4  -6  -7 4735.44 124.160  34
  -4  -6  -8 2326.80 132.054   4
   4   6   8 2222.67 128.356  22
  -4  -6  -8 2453.95 132.053  35
  -4  -6  -8 2170.29 74.1965  34
   4   6   9 3903.84 171.787  23
  -4  -6  -9 3919.12 155.378   4
   4   6   9 4003.51 162.526  22
  -4  -6  -9 4266.53 176.877  21
   4   6   9 3834.48 173.513  16
  -4  -6  -9 3858.78 155.236  35
   4   6  10 4420.24 167.035  23
  -4  -6 -10 4402.16 152.026   4
   4   6  10 4312.47 158.007  22
  -4  -6 -10 4442.90 164.755  21
  -4  -6 -10 4831.49 157.697  35
  -4  -7   2 2.94230 37.0434   4
  -4  -7   2 16.9522 35.0270  35
  -4  -7   1 19.8650 47.8927  29
  -4  -7   1 16.1799 38.5285   4
  -4  -7   1 3.49103 38.0968  25
  -4  -7   1-15.1790 37.0642  35
  -4  -7   1-3.90748 49.7867  14
  -4  -7   0 5173.89 194.455  29
  -4  -7   0 4938.06 173.460  28
  -4  -7   0 5086.39 171.355   4
  -4  -7   0 4772.63 163.701  35
  -4  -7   0 4808.71 183.625  14
  -4  -7  -1 421.319 80.1426  29
  -4  -7  -1 327.792 64.2244  28
  -4  -7  -1 257.702 54.7181   4
  -4  -7  -1 268.414 54.0041  35
  -4  -7  -1 270.165 62.2427  14
  -4  -7  -2 2020.76 130.180  29
  -4  -7  -2 1700.74 117.501  28
  -4  -7  -2 1815.28 117.040   4
  -4  -7  -2 1828.43 112.440  35
  -4  -7  -3 655.403 80.4163   4
  -4  -7  -3 799.897 81.7399  35
  -4  -7  -3 839.661 52.7715  34
  -4  -7  -4 217.140 64.5606   4
  -4  -7  -4 148.340 48.9024  35
  -4  -7  -4 260.903 42.1391  34
  -4  -7  -5 77.5023 55.4925   4
  -4  -7  -5 13.5612 44.6533  35
  -4  -7  -5 86.2140 38.2071  34
  -4  -7  -6 4365.88 173.790   4
  -4  -7  -6 4746.07 183.798  35
  -4  -7  -6 4553.72 115.669  34
  -4  -7  -7 76.2647 53.8524   4
   4   7   7 41.0014 58.1174  23
   4   7   7 205.059 59.8806  16
  -4  -7  -7 46.7813 42.0352  35
  -4  -7  -7 121.298 34.5381  34
   4   7   8 569.482 79.0314  32
   4   7   8 595.372 81.3262  23
  -4  -7  -8 691.787 75.1656   4
   4   7   8 648.792 80.2123  16
  -4  -7  -8 667.102 71.1101  35
   4   7   9 3156.72 129.791  32
   4   7   9 3113.48 142.194  23
  -4  -7  -9 3223.82 134.196   4
  -4  -7  -9 3077.80 130.716  35
   4   8   1 18517.7 305.318  32
  -4  -8  -1 19132.1 291.230   4
  -4  -8  -1 18259.2 282.835  35
   4   8   2 10164.6 236.082  32
  -4  -8  -2 8547.58 205.543  28
  -4  -8  -2 9557.50 219.915   4
  -4  -8  -2 9111.77 213.822  35
   4   8   3 71.3735 53.5522  32
  -4  -8  -3 79.4187 48.0849  28
  -4  -8  -3 74.9061 44.2300   4
  -4  -8  -3 60.4723 34.7809  35
   4   8   4 3486.18 150.275  32
  -4  -8  -4 2990.88 134.728  28
  -4  -8  -4 3251.97 138.559  35
  -4  -8  -4 3190.89 137.351   4
  -4  -8  -5 169.593 50.5767   4
  -4  -8  -5 200.403 45.9666  35
   4   8   6 3557.98 144.857  32
  -4  -8  -6 3550.77 143.906   4
  -4  -8  -6 3269.71 138.984  35
   4   8   7-3.78060 52.0385  32
  -4  -8  -7-10.3023 44.9577   4
  -4  -8  -7-7.78225 40.2433  35
   4   8   8-11.2955 48.0768  32
  -4  -8  -8 100.247 47.3044   4
  -5   6   5 845.436 85.3143  23
  -5   6   5 724.702 77.9005  12
  -5   6   4 87.2431 55.5811  23
  -5   6   4 118.211 60.0333  33
  -5   6   4-63.9647 53.5781  12
  -5   6   3 7828.61 230.025  27
  -5   6   3 7858.74 232.381  33
  -5   6   3 7986.31 236.821  12
  -5   6   2 8138.33 236.721  27
  -5   6   2 8380.00 240.461  33
  -5   6   2 8105.49 240.251  12
  -5   6   1 4336.94 175.704  27
  -5   6   1 4355.40 175.764  33
  -5   6   1 4600.16 180.483  12
  -5   6   0 1486.83 106.772  27
  -5   6   0-49.4288 51.1686  21
  -5   6   0 969.654 32.9808  36
  -5   6   0 182.014 17.5765  36
  -5   6   0 1232.68 98.5179  33
  -5   6   0 1461.38 106.899  12
  -5   6  -1 188.160 19.8657   5
  -5   6  -1 160.431 59.1925  27
  -5   6  -1 34.0553 13.3786   5
  -5   6  -1 33.0057 24.6528  36
  -5   6  -1 196.450 55.9283  33
  -5   6  -2 4625.86 165.391  27
  -5   5   7 400.211 71.2625  23
  -5   5   6 2.72942 54.3397  23
  -5   5   6 42.0675 39.4318  12
  -5   5   5 1229.12 107.596  23
  -5   5   5 1333.93 105.755  12
  -5   5   4 12201.0 308.735  23
  -5   5   4 13019.5 314.400  12
  -5   5   3 3775.84 180.605   9
  -5   5   3 3865.58 183.971  23
  -5   5   3 3810.77 184.318  21
  -5   5   3 3700.63 176.570  33
  -5   5   3 3548.12 170.598  12
  -5   5   2 3157.27 168.096  27
  -5   5   2 3436.53 168.473  23
  -5   5   2 3379.12 174.309  21
  -5   5   2 3478.86 170.563  33
  -5   5   2 2988.12 159.589  12
  -5   5   1 29.5379 58.7384  27
  -5   5   1-1.03672 71.7632  21
  -5   5   1 65.0732 60.7004  33
  -5   5   1 30.5280 64.7320  12
  -5   5   0 6268.86 227.290  27
  -5   5   0 6271.57 85.6418   5
  -5   5   0 6149.30 219.685  21
  -5   5   0 6028.76 99.5205  36
  -5   5   0 5761.56 214.624  33
  -5   5   0 6315.33 222.186  12
  -5   5  -1 199.170 70.8278  27
  -5   5  -1 200.140 29.0012   5
  -5   5  -1 305.821 67.8774  21
  -5   5  -1 242.983 35.8465  36
  -5   5  -1 70.0144 30.3453  36
  -5   5  -1 148.806 63.6504  33
  -5   5  -2 9113.07 264.924  27
  -5   5  -2 9133.14 261.210  33
  -5   5  -3 2388.17 133.606  27
  -5   5  -3 2626.23 94.7240   5
  -5   5  -3 2397.42 91.6698  36
  -5   5  -3 2306.30 131.781  33
  -5   5  -4 33.3662 34.0883   6
  -5   5  -4 15.0369 54.3125  27
  -5   5  -4-21.6889 56.8794  33
  -5   4   7 2156.20 126.098  23
  -5   4   7 320.916 29.8286  36
  -5   4   6 161.748 16.1658   5
  -5   4   6 343.259 69.7966  23
  -5   4   6 265.676 26.5385  36
  -5   4   6 54.0091 21.4917  36
  -5   4   6 4.35020 45.4594  12
  -5   4   5 1783.86 132.829   9
  -5   4   5 1523.10 120.406  23
  -5   4   5 1707.99 125.595  12
  -5   4   4 1064.85 109.633   9
  -5   4   4 1057.03 113.511  23
  -5   4   4 992.140 104.671  14
  -5   4   4 1024.58 102.297  12
  -5   4   3 208.686 80.1242  29
  -5   4   3 224.542 79.7446  27
  -5   4   3 314.276 79.8499   9
  -5   4   3 101.024 62.7642  23
  -5   4   3 113.450 66.8923  21
  -5   4   3 158.286 69.7996  14
  -5   4   3 252.428 76.5871  33
  -5   4   3 231.155 66.3759  12
  -5   4   2 5752.92 227.074  29
  -5   4   2 5551.50 220.072  27
  -5   4   2 5971.24 231.589   9
  -5   4   2 5183.50 214.799  23
  -5   4   2 5469.93 216.239  33
  -5   4   2 5671.48 223.546  12
  -5   4   1 5910.72 232.347  29
  -5   4   1 6148.62 231.210  27
  -5   4   1 5581.68 225.067   9
  -5   4   1 5514.95 214.440  23
  -5   4   1 5599.93 223.111  21
  -5   4   1 5231.58 212.356  14
  -5   4   1 5972.62 221.904  33
  -5   4   1 5618.27 218.665  12
  -5   4   0 901.124 104.473  27
  -5   4   0 743.045 29.4202   5
  -5   4   0 956.980 110.747   9
  -5   4   0 784.432 99.5567  21
  -5   4   0 768.782 36.5663  36
  -5   4   0 813.421 104.946  33
  -5   4   0 978.388 104.423  12
  -5   4  -1 3265.58 174.289  27
  -5   4  -1 2863.05 82.2845   5
  -5   4  -1 3083.37 166.939  21
  -5   4  -1 3114.06 89.7808  36
  -5   4  -1 2869.38 161.704  33
  -5   4  -1 3033.59 157.903  12
  -5   4  -2 20930.0 416.796  27
  -5   4  -2 21043.8 256.956   5
  -5   4  -2 21406.1 402.959  21
  -5   4  -2 20745.8 410.841  33
  -5   4  -3 10184.2 286.867  27
  -5   4  -3 10778.4 204.022   5
  -5   4  -3 10283.5 287.854  33
  -5   4  -4-38.3762 64.9733  27
  -5   4  -4 23.5921 37.8306   5
  -5   4  -4-10.1563 36.6560  36
  -5   4  -4-68.6601 56.4650  33
  -5   4  -5 237.957 62.2731  27
  -5   4  -5 150.994 43.5622   5
  -5   4  -5 216.650 45.2937   6
  -5   4  -5 192.552 61.2449  33
  -5   3   7 68.1022 26.5259   5
  -5   3   7 97.2473 28.2942   5
  -5   3   7 23.2185 45.3562  23
  -5   3   7 5.35168 31.2354  36
  -5   3   6 6432.80 119.131   5
  -5   3   6 6839.58 232.879  23
  -5   3   5 10238.8 132.482   5
  -5   3   5 11019.0 312.032   9
  -5   3   5 10792.1 299.173  23
  -5   3   5 10484.7 153.660  36
  -5   3   5 11050.1 278.235  14
  -5   3   4 5197.02 218.896   9
  -5   3   4 4431.41 66.9888   5
  -5   3   4 5006.82 216.950  23
  -5   3   4 4308.26 79.2171  36
  -5   3   4 4819.82 191.534  14
  -5   3   4 4880.02 207.064  12
  -5   3   3 3162.13 171.553  31
  -5   3   3 2589.18 153.464  29
  -5   3   3 3036.07 170.857  27
  -5   3   3 2827.43 163.948   9
  -5   3   3 2576.64 160.867  23
  -5   3   3 2588.49 149.249  14
  -5   3   3 2717.64 160.010  12
  -5   3   2 161.868 59.7592  31
  -5   3   2 214.054 65.8597  29
  -5   3   2 276.494 77.0763  27
  -5   3   2 238.097 69.9210   9
  -5   3   2 170.334 74.2948  23
  -5   3   2 276.609 80.1961  21
  -5   3   2 321.819 69.7296  14
  -5   3   2 177.616 76.5277  33
  -5   3   2 194.532 70.4217  12
  -5   3   1 1485.95 124.498  31
  -5   3   1 1552.07 123.203  29
  -5   3   1 1649.24 126.380  27
  -5   3   1 1404.56 117.154   9
  -5   3   1 1536.99 127.096  23
  -5   3   1 1503.72 124.510  21
  -5   3   1 1570.02 122.369  14
  -5   3   1 1633.08 123.809  33
  -5   3   1 1431.40 118.202  12
  -5   3   0 886.912 100.466  31
  -5   3   0 930.837 108.023  29
  -5   3   0 795.738 106.897  27
  -5   3   0 821.771 27.0950   5
  -5   3   0 833.838 102.767   9
  -5   3   0 799.871 99.1269  21
  -5   3   0 781.480 91.0078  33
  -5   3   0 834.495 93.5503  12
  -5   3  -1 6173.14 232.999  31
  -5   3  -1 4750.66 205.032  29
  -5   3  -1 5357.01 219.741  27
  -5   3  -1 5610.54 108.982   5
  -5   3  -1 5193.63 227.831   9
  -5   3  -1 5580.73 219.614  21
  -5   3  -1 5579.39 113.281  36
  -5   3  -1 5313.39 211.958  33
  -5   3  -1 5289.21 210.561  12
  -5   3  -2 2459.43 157.831  29
  -5   3  -2 2255.34 148.843  27
  -5   3  -2 2345.02 88.3829   5
  -5   3  -2 2300.49 89.1411  36
  -5   3  -2 2430.61 150.969  33
  -5   3  -3 199.172 70.9489  27
  -5   3  -3 237.226 44.3192   5
  -5   3  -3 117.272 62.0477  21
  -5   3  -3 223.576 45.1584  36
  -5   3  -3 240.619 68.1889  33
  -5   3  -4 3397.79 175.167  27
  -5   3  -4 3528.62 133.335   5
  -5   3  -4-41.7881 58.2441  24
  -5   3  -4 3612.07 174.552  21
  -5   3  -4 23.3741 37.1717  36
  -5   3  -4 3472.01 175.471  33
  -5   3  -5 13.4813 36.3852   6
  -5   3  -5 2015.18 137.922  27
  -5   3  -5 1995.01 107.495   5
  -5   3  -5-4.44881 54.0003  24
  -5   3  -5-27.1394 46.4641  21
  -5   3  -5 2126.97 135.486  33
  -5   3  -6 4453.66 173.889  27
  -5   3  -6 4000.60 168.829  33
  -5   2   8 291.553 52.7957   6
  -5   2   7 414.003 44.2822   5
  -5   2   7-8.60841 33.5758  36
  -5   2   6 617.211 50.0764   5
  -5   2   6 551.586 77.5404   9
  -5   2   5 118.888 58.7897   9
  -5   2   5 176.103 32.9256   5
  -5   2   5 134.292 37.3446  36
  -5   2   5 132.281 58.7921  14
  -5   2   4 2884.93 167.258  31
  -5   2   4 3049.50 158.192  29
  -5   2   4 2980.75 82.2634   5
  -5   2   4 3089.49 169.435   9
  -5   2   4 3042.81 93.5383  36
  -5   2   4 2956.82 157.190  14
  -5   2   4 2711.19 162.162  12
  -5   2   3 9644.15 293.663  31
  -5   2   3 9888.18 280.311  29
  -5   2   3 9399.68 121.299   5
  -5   2   3 10432.2 301.639   9
  -5   2   3 8585.52 280.391  23
  -5   2   3 9807.02 276.547  21
  -5   2   3 9031.39 130.066  36
  -5   2   3 9091.78 265.808  14
  -5   2   3 9223.36 284.624  12
  -5   2   2 205.562 66.6041  31
  -5   2   2 351.482 81.3499  29
  -5   2   2 218.066 15.8512   5
  -5   2   2 157.359 66.4641  27
  -5   2   2 226.137 66.2336   9
  -5   2   2 208.194 72.8439  23
  -5   2   2 181.679 64.1730  21
  -5   2   2 153.047 18.5715  36
  -5   2   2 193.540 64.7041  14
  -5   2   2 140.421 65.5945  33
  -5   2   2 291.763 72.9445  12
  -5   2   1 14510.5 349.917  31
  -5   2   1 14301.0 338.265  29
  -5   2   1 11787.3 83.4444   5
  -5   2   1 14366.0 343.043  27
  -5   2   1 15515.3 364.106   9
  -5   2   1 13699.3 343.561  23
  -5   2   1 14076.9 340.450  21
  -5   2   1 12474.6 101.312  36
  -5   2   1 11097.6 102.134  36
  -5   2   1 13851.0 323.528  14
  -5   2   1 13115.9 336.299  12
  -5   2   0 14953.2 355.275  31
  -5   2   0 14327.1 334.084  29
  -5   2   0 13844.1 339.217  27
  -5   2   0 13194.7 126.447   5
  -5   2   0 14307.7 350.924   9
  -5   2   0 13719.5 349.023  23
  -5   2   0 14384.3 341.823  21
  -5   2   0 13812.4 136.723  36
  -5   2   0 13642.8 144.009  36
  -5   2   0 13446.0 336.207  12
  -5   2  -1 20443.7 401.807  31
  -5   2  -1 19576.9 394.893  29
  -5   2  -1 20443.4 409.414  27
  -5   2  -1 20056.9 204.154   5
  -5   2  -1 20101.9 421.768   9
  -5   2  -1 20005.6 402.635  21
  -5   2  -1 20668.6 210.703  36
  -5   2  -1 19402.9 402.300  12
  -5   2  -2 7861.24 254.442  29
  -5   2  -2 8134.85 263.149  27
  -5   2  -2 7952.03 156.677   5
  -5   2  -2 7698.37 256.870  21
  -5   2  -2 8498.32 162.455  36
  -5   2  -2 8505.03 266.491  33
  -5   2  -3 184.828 70.9759  29
  -5   2  -3 139.498 70.7689  27
  -5   2  -3 156.018 38.8979   5
  -5   2  -3 220.424 67.2553  24
  -5   2  -3 105.034 65.4533  21
  -5   2  -3 77.5113 41.1546  36
  -5   2  -3 150.518 63.9596  33
  -5   2  -4 4.33834 61.6053  27
  -5   2  -4 54.4555 36.2191   5
  -5   2  -4 88.7624 60.2738  24
  -5   2  -4 54.2242 57.2965  21
  -5   2  -4-18.4450 42.2167  36
  -5   2  -4-35.1924 59.2113  33
  -5   2  -5 3010.98 159.384  27
  -5   2  -5 3006.98 133.752   5
  -5   2  -5 2854.73 157.818  21
  -5   2  -5 2930.57 164.255  33
  -5   2  -6 2892.69 148.919  21
  -5   2  -6 3056.52 116.628   6
  -5   2  -6 2708.52 148.566  33
  -5   2  -7 8757.80 234.520  24
  -5   2  -7 9255.48 171.628   6
  -5   1   8 45.0940 46.0358   6
  -5   1   7 8.38474 53.4020   6
  -5   1   7 36.4297 44.7071  28
  -5   1   6-24.8128 50.6284  28
  -5   1   6 129.322 61.3584   9
  -5   1   6 195.856 42.7166   5
  -5   1   6-47.8859 46.6601  36
  -5   1   5 28.5230 54.5526   9
  -5   1   5 6.84710 32.7888   5
  -5   1   5 15.2520 51.7563  23
  -5   1   5-15.5239 44.1564  36
  -5   1   5-30.1442 66.0973  14
  -5   1   4 916.061 64.3097  30
  -5   1   4 868.262 97.0104  29
  -5   1   4 783.375 57.4509   5
  -5   1   4 864.133 98.1769   9
  -5   1   4 854.261 98.5775  23
  -5   1   4 879.156 65.7011  36
  -5   1   4 863.313 96.4993  14
  -5   1   3 4067.61 111.383  30
  -5   1   3 4304.48 191.535  29
  -5   1   3 4002.51 107.851   5
  -5   1   3 4284.86 194.856   9
  -5   1   3 4237.14 119.089  36
  -5   1   3 3947.43 184.251  14
  -5   1   3 3928.59 195.920  12
  -5   1   2 4763.10 201.160  29
  -5   1   2 4790.11 107.666   5
  -5   1   2 5090.76 211.107   9
  -5   1   2 4574.34 206.220  23
  -5   1   2 4175.80 108.519  36
  -5   1   2 5065.13 117.857  36
  -5   1   2 4400.57 190.688  14
  -5   1   2 4476.50 203.340  12
  -5   1   1 1599.30 125.264  31
  -5   1   1 1726.56 127.006  29
  -5   1   1 1649.15 61.2195   5
  -5   1   1 1539.19 121.664   9
  -5   1   1 1518.30 128.947  23
  -5   1   1 1720.82 123.375  21
  -5   1   1 1564.10 64.6794  36
  -5   1   1 1763.55 68.6685  36
  -5   1   1 1613.93 118.259  14
  -5   1   1 1721.09 132.715  12
  -5   1   0 294.370 68.6240  31
  -5   1   0 248.609 69.4731  29
  -5   1   0 209.189 27.4268   5
  -5   1   0 273.763 69.3622  27
  -5   1   0 201.154 59.7836   9
  -5   1   0 254.360 83.1861  23
  -5   1   0 270.408 69.5821  21
  -5   1   0 291.349 34.2215  36
  -5   1   0 220.527 34.7589  36
  -5   1   0 208.599 64.8859  14
  -5   1   0 368.835 69.3880  12
  -5   1  -1 4540.49 188.271  31
  -5   1  -1 4976.20 203.488  29
  -5   1  -1 4983.18 112.561   5
  -5   1  -1 4702.94 201.076   9
  -5   1  -1 4637.59 207.429  23
  -5   1  -1 5039.42 201.768  21
  -5   1  -1 5396.56 119.318  36
  -5   1  -1 4951.74 192.266  14
  -5   1  -1 4562.93 193.498  12
  -5   1  -2 15871.6 345.703  29
  -5   1  -2 14957.9 343.849  27
  -5   1  -2 15423.5 222.184   5
  -5   1  -2 15657.7 355.704  21
  -5   1  -2 15689.8 228.107  36
  -5   1  -3 1096.59 105.240  29
  -5   1  -3 1408.61 122.685  27
  -5   1  -3 1144.01 74.8523   5
  -5   1  -3 1159.43 112.820  21
  -5   1  -3 1460.77 83.9417  36
  -5   1  -4 736.121 71.7882   5
  -5   1  -4 704.705 91.3275  24
  -5   1  -4 646.045 92.7908  21
  -5   1  -5 4348.03 160.415   5
  -5   1  -5 3991.13 191.171  21
  -5   1  -6 105.282 50.9993   6
  -5   1  -6 46.3189 56.5501  24
  -5   1  -6 35.7144 58.2583  21
  -5   1  -7 198.927 44.2293   6
  -5   1  -7 230.732 52.0072  30
  -5   1  -7 191.730 61.2921  24
  -5   1  -7 179.231 58.6914  21
  -5   1  -8 2044.11 120.464  24
  -5   1  -8 1968.04 77.3335   6
  -5   0   7 8705.91 169.846   6
  -5   0   7 8588.40 219.657  28
  -5   0   6 12165.1 241.397   5
  -5   0   6 11954.8 278.938  28
  -5   0   5 22256.5 318.853  30
  -5   0   5 22522.3 324.052   5
  -5   0   5 23296.8 401.769  28
  -5   0   5 22505.7 401.274  14
  -5   0   4 5936.38 158.181  30
  -5   0   4 5838.85 215.744  29
  -5   0   4 5768.76 209.945  28
  -5   0   4 5786.05 159.406   5
  -5   0   4 5833.75 224.037   9
  -5   0   4 5571.04 214.638  14
  -5   0   3 2629.82 150.651  29
  -5   0   3 2489.15 141.182  28
  -5   0   3 2589.62 105.151   5
  -5   0   3 2526.83 150.811   9
  -5   0   3 2690.28 114.857  36
  -5   0   3 2696.24 153.109  14
  -5   0   2 7725.00 159.133  30
  -5   0   2 6911.85 237.070  29
  -5   0   2 8287.99 174.901   5
  -5   0   2 7356.41 245.050   9
  -5   0   2 8168.88 183.865  36
  -5   0   2 7414.85 222.143  15
  -5   0   2 7025.93 242.849  14
  -5   0   1 8363.89 156.256  30
  -5   0   1 7189.65 241.702  29
  -5   0   1 7769.67 160.043   5
  -5   0   1 7553.30 244.766   9
  -5   0   1 7805.75 171.800  36
  -5   0   1 7845.57 253.624  14
  -5   0   0 540.283 79.4307  31
  -5   0   0 691.326 49.8303  30
  -5   0   0 626.151 89.0511  29
  -5   0   0 617.353 51.2061   5
  -5   0   0 512.180 74.6812   9
  -5   0   0 704.575 97.1327  23
  -5   0   0 486.597 86.7556  21
  -5   0   0 616.766 54.5070  36
  -5   0   0 768.977 60.3247  36
  -5   0   0 704.570 82.9113  14
  -5   0  -1 9186.51 167.158  30
  -5   0  -1 9194.37 264.734  29
  -5   0  -1 8919.94 171.435   5
  -5   0  -1 8639.96 262.499   9
  -5   0  -1 9272.62 269.956  21
  -5   0  -1 9424.21 180.797  36
  -5   0  -1 8976.39 258.127  14
  -5   0  -2 3304.32 106.961  30
  -5   0  -2 2916.39 155.306  29
  -5   0  -2 3012.61 109.306   5
  -5   0  -2 2956.35 161.281   9
  -5   0  -2 3178.62 165.237  21
  -5   0  -2 2965.08 110.426  36
  -5   0  -3 18679.8 264.616  30
  -5   0  -3 17432.4 357.368  29
  -5   0  -3 18588.8 287.113   5
  -5   0  -3 17863.7 388.499  21
  -5   0  -3 19138.0 298.717  36
  -5   0  -4 26322.3 334.384  30
  -5   0  -4 26490.8 371.976   5
  -5   0  -4 24889.2 451.254  24
  -5   0  -4 24880.3 461.148  21
  -5   0  -5 20460.1 403.676  24
  -5   0  -5 20273.5 417.186  21
  -5   0  -6 4997.08 167.299  30
  -5   0  -6 4682.73 197.965  24
  -5   0  -6 4608.44 204.585  21
  -5   0  -6 4423.65 101.376   7
  -5   0  -6 4866.49 150.896   6
  -5   0  -7 2441.03 121.454  30
  -5   0  -7 2161.94 143.916  24
  -5   0  -7 2279.08 143.434  21
  -5   0  -7 2206.13 75.6269   7
  -5   0  -7 2492.01 103.874   6
  -5   0  -8 2355.02 115.966  30
  -5   0  -8 1600.10 116.397  24
  -5   0  -8 2095.59 133.147  21
  -5   0  -8 1854.66 57.9608   7
  -5   0  -8 2175.92 88.2422   6
  -5   0  -9 1433.44 101.586  24
  -5   0  -9-37.0157 42.2402  21
  -5  -1   7 5533.57 120.184   6
  -5  -1   7 5923.33 177.036  28
  -5  -1   6 1534.26 93.4190   6
  -5  -1   6 1487.02 104.919  28
  -5  -1   5 721.552 79.8783   6
  -5  -1   5 826.808 75.6794  30
  -5  -1   5 1016.22 94.3452  28
  -5  -1   5 767.128 95.7627  14
  -5  -1   4 21860.6 318.686  30
  -5  -1   4 22390.5 411.643  29
  -5  -1   4 22116.7 401.913  28
  -5  -1   4 22592.0 346.316   5
  -5  -1   4 21819.3 409.600  14
  -5  -1   3 3361.91 124.659  30
  -5  -1   3 3250.24 170.216  29
  -5  -1   3 3459.45 167.047  28
  -5  -1   3 3294.28 134.234   5
  -5  -1   3 3130.46 167.576  14
  -5  -1   2 2007.23 95.0666  30
  -5  -1   2 2130.69 144.734  29
  -5  -1   2 2458.10 114.799   5
  -5  -1   2 2152.24 128.577  15
  -5  -1   2 2102.61 141.351  14
  -5  -1   1 2049.85 91.6769  30
  -5  -1   1 1805.47 136.031  29
  -5  -1   1 2133.72 103.368   5
  -5  -1   1 2389.24 118.055  36
  -5  -1   1 2236.71 129.172  15
  -5  -1   1 1946.73 138.696  14
  -5  -1   0 4465.16 127.772  30
  -5  -1   0 3918.76 180.908  29
  -5  -1   0 4558.90 140.876   5
  -5  -1   0 3721.00 170.961   9
  -5  -1   0 4542.73 149.896  36
  -5  -1   0 4818.08 156.184  36
  -5  -1   0 4437.39 174.283  15
  -5  -1   0 4095.02 182.661  14
  -5  -1  -1 5670.86 143.684  30
  -5  -1  -1 5334.03 206.318  29
  -5  -1  -1 5595.41 156.248   5
  -5  -1  -1 5033.78 200.568   9
  -5  -1  -1 5603.49 162.523  36
  -5  -1  -1 5318.85 191.318  15
  -5  -1  -1 5266.29 202.502  14
  -5  -1  -2 16832.9 252.662  30
  -5  -1  -2 16176.2 346.580  29
  -5  -1  -2 16623.2 273.419   5
  -5  -1  -2 16211.6 356.282   9
  -5  -1  -2 16084.1 349.842  21
  -5  -1  -2 15990.2 333.827  14
  -5  -1  -3 26946.4 331.251  30
  -5  -1  -3 27424.0 440.256  29
  -5  -1  -3 28144.6 374.553   5
  -5  -1  -3 26672.3 465.388  21
  -5  -1  -4 508.628 56.7539  30
  -5  -1  -4 489.180 87.7866  24
  -5  -1  -4 397.797 81.5071  21
  -5  -1  -4 547.054 43.5569   7
  -5  -1  -5 2093.05 106.769  30
  -5  -1  -5 1957.40 139.055  21
  -5  -1  -5 2085.86 87.4670   7
  -5  -1  -6 2316.56 116.429  30
  -5  -1  -6 2083.76 148.011  21
  -5  -1  -6 2223.34 97.4064   7
  -5  -1  -6 2527.58 110.895   6
  -5  -1  -7 1290.20 91.7445  30
  -5  -1  -7 1223.52 114.698  24
  -5  -1  -7 1066.62 113.951  21
  -5  -1  -7 1254.15 76.5191   7
  -5  -1  -7 1324.81 77.5981   6
  -5  -1  -8 16.1604 34.7676   6
  -5  -1  -8-63.0602 50.5364  30
  -5  -1  -8 91.7381 65.0770  24
  -5  -1  -8-52.8008 59.9496  21
  -5  -1  -8 12.1393 30.7508   7
  -5  -1  -9 1155.69 96.3780  24
  -5  -1  -9 1290.78 99.6970  21
  -5  -2   6 1154.62 69.7909   6
  -5  -2   6 1314.48 93.2555  28
  -5  -2   5 3815.57 127.382   6
  -5  -2   5 3755.70 164.269  28
  -5  -2   5 3538.94 160.005  14
  -5  -2   4 9981.90 204.929   6
  -5  -2   4 10082.3 230.241  30
  -5  -2   4 10042.9 276.685  29
  -5  -2   4 10145.6 271.382  28
  -5  -2   4 9424.48 272.047  14
  -5  -2   3 1885.26 134.327  29
  -5  -2   3 1836.17 122.960  28
  -5  -2   3 1871.61 55.4897   7
  -5  -2   3 2141.85 141.166  14
  -5  -2   2 5939.97 169.105  30
  -5  -2   2 5819.09 225.212  29
  -5  -2   2 5482.21 104.486   7
  -5  -2   2 5773.38 208.795  15
  -5  -2   2 5662.47 222.407  14
  -5  -2   1 391.863 55.7924  30
  -5  -2   1 291.740 76.2429  29
  -5  -2   1 390.777 76.1968  28
  -5  -2   1 284.023 29.8090   7
  -5  -2   1 338.599 62.1781  15
  -5  -2   1 323.732 75.1301  14
  -5  -2   0 1047.49 74.1835  30
  -5  -2   0 1014.06 108.344  29
  -5  -2   0 926.315 49.5109   7
  -5  -2   0 945.158 90.1454  15
  -5  -2   0 1132.20 110.702  14
  -5  -2  -1 139.027 40.2036  30
  -5  -2  -1 127.623 66.6411  29
  -5  -2  -1 61.5208 52.1588  28
  -5  -2  -1 112.088 27.3318   7
  -5  -2  -1 127.038 49.6628  15
  -5  -2  -1-3.06238 54.2466  14
  -5  -2  -2 11007.1 219.389  30
  -5  -2  -2 10837.0 286.902  29
  -5  -2  -2 10857.3 275.161  15
  -5  -2  -2 11402.5 285.839  14
  -5  -2  -3 484.540 57.8388  30
  -5  -2  -3 511.222 73.4417  29
  -5  -2  -3 362.668 76.7216  21
  -5  -2  -3 410.021 45.0941   7
  -5  -2  -4 780.081 69.6795  30
  -5  -2  -4 775.473 97.9046  21
  -5  -2  -4 737.186 61.5793   7
  -5  -2  -5-19.5680 34.3354   6
  -5  -2  -5 90.3058 47.6009  30
  -5  -2  -5 10.1093 58.4603  24
  -5  -2  -5 60.3639 71.3189  21
  -5  -2  -5 70.2988 35.8150   7
  -5  -2  -6 9664.27 231.255  30
  -5  -2  -6 9322.03 288.222  21
  -5  -2  -6 10134.6 222.747   7
  -5  -2  -6 9937.88 199.889   6
  -5  -2  -7 8303.18 218.124  30
  -5  -2  -7 7949.48 265.174  21
  -5  -2  -7 8315.20 203.035   7
  -5  -2  -7 7879.63 173.963   6
  -5  -2  -8 11318.5 185.928   6
  -5  -2  -8 11246.3 250.928  30
  -5  -2  -8 10926.9 277.994  24
  -5  -2  -8 11106.4 303.078  21
  -5  -2  -8 10963.3 227.730   7
  -5  -2  -8 10843.6 181.882   6
  -5  -2  -9 3939.98 159.170  24
  -5  -2  -9 4069.14 174.490  21
  -5  -2  -9 3908.36 125.624   7
  -5  -2 -10 293.145 64.8180  21
  -5  -2 -10 216.755 33.0598   7
  -5  -3   5 1098.81 65.5187   6
  -5  -3   5 1253.08 95.9825  28
  -5  -3   5 1107.39 92.7590  14
  -5  -3   4 251.737 68.0995   6
  -5  -3   4 232.031 52.0903  30
  -5  -3   4 94.1645 60.1270  29
  -5  -3   4 214.901 58.8651  28
  -5  -3   4 174.689 26.5477   7
  -5  -3   4 236.843 68.7290  14
  -5  -3   3 737.190 77.8910   6
  -5  -3   3 796.177 76.6246  30
  -5  -3   3 875.451 96.0604  29
  -5  -3   3 900.799 90.4865  28
  -5  -3   3 784.617 55.4687   7
  -5  -3   3 718.837 87.1682  14
  -5  -3   2 6.27589 41.9329  30
  -5  -3   2 22.5111 52.6268   6
  -5  -3   2 43.4020 63.2344  29
  -5  -3   2 39.0290 54.9312  28
  -5  -3   2 81.3749 31.0625   7
  -5  -3   2 47.1386 47.5218  15
  -5  -3   2 24.5173 60.0095  14
  -5  -3   1 3380.07 125.376   6
  -5  -3   1 3275.01 135.462  30
  -5  -3   1 3328.08 179.932  29
  -5  -3   1 3375.91 168.268  28
  -5  -3   1 3378.27 117.313   7
  -5  -3   1 3448.91 161.002  15
  -5  -3   1 3309.88 172.635  14
  -5  -3   0 12495.9 230.173   6
  -5  -3   0 12285.6 248.041  30
  -5  -3   0 12009.3 320.228  29
  -5  -3   0 11922.1 220.792   7
  -5  -3   0 12232.4 294.131  15
  -5  -3   0 12820.3 321.622  14
  -5  -3  -1 9569.29 217.976  30
  -5  -3  -1 9198.46 278.286  29
  -5  -3  -1 9203.66 273.367  28
  -5  -3  -1 9246.31 197.915   7
  -5  -3  -1 9015.37 254.399  15
  -5  -3  -1 9315.35 270.066  14
  -5  -3  -2 7126.41 188.204  30
  -5  -3  -2 7221.57 239.890  29
  -5  -3  -2 7311.13 182.099   7
  -5  -3  -2 7406.06 230.469  15
  -5  -3  -2 7833.65 241.926  14
  -5  -3  -3 2253.78 105.284   6
  -5  -3  -3 2396.70 114.559  30
  -5  -3  -3 2370.78 138.634  29
  -5  -3  -3 2539.49 114.448   7
  -5  -3  -3 2121.56 71.8941  35
  -5  -3  -3 2198.45 102.480   6
  -5  -3  -4 161.924 45.6768  30
   5   3   4 141.173 54.2145  11
  -5  -3  -4 204.178 50.2926   6
  -5  -3  -4 252.985 35.0600  35
  -5  -3  -4 193.298 42.5810   7
  -5  -3  -4 282.372 52.1255   6
  -5  -3  -5 500.996 57.8081   6
  -5  -3  -5 403.193 60.0812  30
  -5  -3  -5 514.378 62.6938   7
  -5  -3  -5 490.242 45.5318  35
  -5  -3  -5 586.449 61.8014   6
  -5  -3  -6 772.086 63.7413   6
  -5  -3  -6 864.269 81.5773  30
  -5  -3  -6 759.952 71.0427   7
  -5  -3  -6 682.935 53.2266  35
  -5  -3  -6 796.616 68.5820   6
  -5  -3  -7 1616.18 81.3729   6
  -5  -3  -7 1615.09 105.175  30
  -5  -3  -7 1454.79 126.705  21
  -5  -3  -7 1642.09 102.001   7
  -5  -3  -7 1526.84 75.9130  35
  -5  -3  -8 4155.63 108.664   6
  -5  -3  -8 4345.74 195.103  21
  -5  -3  -8 4322.43 110.152  35
  -5  -3  -9 1.23857 31.4575   7
  -5  -3  -9 22.5321 10.7490  35
  -5  -3 -10 4429.12 165.399  21
  -5  -3 -10 4365.37 124.162   7
  -5  -4   4 345.177 64.4395  29
  -5  -4   4 289.178 57.9808  28
  -5  -4   4 288.619 29.7802   7
  -5  -4   4 190.330 54.4304  14
  -5  -4   3 2854.57 98.6326   6
  -5  -4   3 3204.09 158.629  29
  -5  -4   3 2907.46 149.688  28
  -5  -4   3 3139.71 105.555   7
  -5  -4   3 2988.69 154.670  14
  -5  -4   2 1073.68 83.3959   6
  -5  -4   2 1269.75 93.0367  30
  -5  -4   2 1067.47 102.478  29
  -5  -4   2 1363.41 108.887  28
  -5  -4   2 1317.01 79.4684   7
  -5  -4   2 1149.23 105.426  14
  -5  -4   1 1871.01 97.2809   6
  -5  -4   1 2003.13 112.066  30
  -5  -4   1 1786.74 135.878  29
  -5  -4   1 1892.57 127.364  28
  -5  -4   1 1867.12 97.3081   7
  -5  -4   1 1852.83 122.331  15
  -5  -4   1 1595.38 50.5815  35
  -5  -4   1 1687.47 128.576  14
  -5  -4   0 9710.21 200.022   6
  -5  -4   0 10252.6 240.320  30
  -5  -4   0 9779.20 290.570  29
  -5  -4   0 10242.7 279.857  28
  -5  -4   0 10530.6 228.741   7
  -5  -4   0 10663.4 272.958  15
  -5  -4   0 9224.71 151.794  35
  -5  -4   0 10139.4 283.210  14
  -5  -4  -1 5532.41 152.418   6
  -5  -4  -1 5292.09 172.951  30
  -5  -4  -1 4818.12 202.198  29
  -5  -4  -1 5443.56 209.838  28
  -5  -4  -1 5150.78 166.257   7
  -5  -4  -1 4934.39 188.471  15
  -5  -4  -1 5067.56 125.889  35
  -5  -4  -1 5117.93 204.177  14
  -5  -4  -2 740.076 64.3165   6
  -5  -4  -2 721.884 72.1872  30
  -5  -4  -2 749.828 96.5885  28
  -5  -4  -2 838.616 63.7555   4
  -5  -4  -2 683.873 72.2383   7
  -5  -4  -2 681.299 81.0792  15
  -5  -4  -2 698.854 55.1287  35
  -5  -4  -3 0.72915 44.5199  30
  -5  -4  -3-30.9632 41.7112   6
  -5  -4  -3 0.99381 48.8465  29
  -5  -4  -3-9.49269 33.6778   4
  -5  -4  -3 57.1466 39.1190   7
  -5  -4  -3-11.2786 44.3318  15
  -5  -4  -3 8.87686 27.2661  35
  -5  -4  -4 4917.56 142.678   6
  -5  -4  -4 5278.83 174.617  30
  -5  -4  -4 5237.67 154.499   4
  -5  -4  -4 5091.45 176.956   7
  -5  -4  -4 4820.71 140.985  35
  -5  -4  -5 15645.7 246.119   6
  -5  -4  -5 16676.5 308.374  30
  -5  -4  -5 16491.6 272.142   4
  -5  -4  -5 16660.9 317.670   7
  -5  -4  -5 15762.1 258.135  35
  -5  -4  -6 2050.40 90.4203   6
  -5  -4  -6 2091.73 115.480  30
  -5  -4  -6 2036.02 102.778   4
  -5  -4  -6 2125.67 144.384  21
  -5  -4  -6 2291.76 122.393   7
  -5  -4  -6 2328.28 102.862  35
  -5  -4  -7 1333.03 68.9714   6
  -5  -4  -7 1608.56 91.4649   4
  -5  -4  -7 1512.70 127.036  21
  -5  -4  -7 1688.13 108.091   7
  -5  -4  -7 1594.33 84.9035  35
  -5  -4  -8 1975.85 95.2417   4
  -5  -4  -8 1928.75 128.951  21
  -5  -4  -8 2186.70 115.793   7
  -5  -4  -8 2034.51 88.7311  35
  -5  -4  -9 3749.83 163.786  21
  -5  -4  -9 4176.50 147.189   7
  -5  -4  -9 4009.29 101.480  35
   5   4  10 6190.15 181.694  22
  -5  -4 -10 6525.46 195.174  21
  -5  -5   3 1334.31 96.9359  29
  -5  -5   3 1448.89 96.7773  28
  -5  -5   3 1338.14 64.5256   7
  -5  -5   3 1368.61 97.5459  14
  -5  -5   2 1631.83 115.755  29
  -5  -5   2 1691.79 110.831  28
  -5  -5   2 1387.66 76.7931   7
  -5  -5   2 1556.10 112.753  14
  -5  -5   1 7.98248 64.8898  29
  -5  -5   1 107.489 57.4306  28
  -5  -5   1 59.7420 33.0015   7
  -5  -5   1 112.941 47.9129  15
  -5  -5   1 79.6551 22.1978  35
  -5  -5   1 56.9956 59.0568  14
  -5  -5   0 51.3396 57.6792   6
  -5  -5   0 83.4590 64.0442  29
  -5  -5   0 61.0849 54.8590  28
  -5  -5   0-8.18941 32.3671   4
  -5  -5   0 70.6215 41.2064   7
  -5  -5   0 26.1699 47.0851  15
  -5  -5   0 133.593 32.3678  35
  -5  -5   0 121.825 60.3510  14
  -5  -5  -1 1237.72 79.4585   6
  -5  -5  -1 1115.89 92.0218  30
  -5  -5  -1 1263.91 118.025  29
  -5  -5  -1 1245.37 105.404  28
  -5  -5  -1 1151.83 77.6138   4
  -5  -5  -1 1157.60 87.6462   7
  -5  -5  -1 1161.54 100.186  15
  -5  -5  -1 968.079 65.2722  35
  -5  -5  -1 1128.20 102.733  14
  -5  -5  -2 2033.02 92.9000   6
  -5  -5  -2 2336.78 125.069  30
  -5  -5  -2 1965.73 132.191  29
  -5  -5  -2 2367.15 143.903  28
  -5  -5  -2 2492.89 111.588   4
  -5  -5  -2 2283.50 121.344   7
  -5  -5  -2 2175.44 128.679  15
  -5  -5  -2 2266.92 99.3412  35
  -5  -5  -3 68.0302 50.4883  30
  -5  -5  -3-60.4767 58.3876   6
  -5  -5  -3 29.1440 50.4174  29
  -5  -5  -3 107.075 60.4005  28
  -5  -5  -3 43.1203 39.6596   4
  -5  -5  -3 13.1185 40.8060   7
  -5  -5  -3 37.4820 46.0123  15
  -5  -5  -3 61.2624 33.0385  35
  -5  -5  -4 287.136 45.5617   6
  -5  -5  -4 416.052 57.8956   4
  -5  -5  -4 278.270 59.3377   7
  -5  -5  -4 345.190 49.4425  35
  -5  -5  -4 291.250 64.5207  15
  -5  -5  -5 57.0568 34.5026   6
  -5  -5  -5 60.5140 42.3936   4
  -5  -5  -5 39.7347 39.0473   7
  -5  -5  -5 63.5978 34.6395  35
  -5  -5  -6 294.044 49.6610   4
  -5  -5  -6 196.077 48.8901   7
  -5  -5  -6 356.737 51.8832  35
  -5  -5  -7 745.235 68.6970   4
  -5  -5  -7 578.599 72.9464   7
  -5  -5  -7 588.665 59.2948  35
  -5  -5  -8 698.589 61.9797   4
  -5  -5  -8 637.390 84.8898  21
  -5  -5  -8 731.290 71.8190   7
  -5  -5  -8 626.511 57.2109  35
  -5  -5  -9 11.7760 31.3637   4
   5   5   9 41.0494 50.2372  22
  -5  -5  -9-35.2882 57.7887  21
  -5  -5  -9 28.2899 37.2671   7
  -5  -5  -9 87.7534 26.5950  35
  -5  -6   1 2093.43 119.265  29
  -5  -6   1 2026.01 112.090  28
  -5  -6   1 2162.57 95.2084   7
  -5  -6   1 2171.94 119.997  14
  -5  -6   0 1125.46 99.5976  29
  -5  -6   0 923.895 83.1159  28
  -5  -6   0 1221.77 83.2088   7
  -5  -6   0 1131.07 56.1077  35
  -5  -6   0 1026.37 89.3638  14
  -5  -6  -1 33.2190 51.3427  29
  -5  -6  -1 64.4782 55.4722  28
  -5  -6  -1 8.65234 36.6147   4
  -5  -6  -1 23.4509 39.8252   7
  -5  -6  -1 1.54570 43.2511  15
  -5  -6  -1 8.99581 26.9120  35
  -5  -6  -1 4.20107 47.4682  14
  -5  -6  -2 399.116 72.5632  29
  -5  -6  -2 461.022 67.2046  28
  -5  -6  -2 365.846 52.4896   4
  -5  -6  -2 359.078 60.1802   7
  -5  -6  -2 486.095 65.8326  15
  -5  -6  -2 399.264 49.0826  35
  -5  -6  -3 374.592 69.8800  28
  -5  -6  -3 538.347 63.8623   4
  -5  -6  -3 511.245 66.3719   7
  -5  -6  -3 511.050 68.2586  15
  -5  -6  -3 457.239 54.3503  35
  -5  -6  -4 1367.73 110.629  28
  -5  -6  -4 1671.10 96.4559   4
  -5  -6  -4 1407.65 103.123   7
  -5  -6  -4 1226.08 94.3141  15
  -5  -6  -4 1382.31 85.2833  35
  -5  -6  -5 1409.43 91.3444   4
  -5  -6  -5 1302.95 100.455   7
  -5  -6  -5 1116.80 93.1526  15
  -5  -6  -5 1411.32 86.9172  35
  -5  -6  -6 3777.16 136.883   4
  -5  -6  -6 3582.94 156.439   7
  -5  -6  -6 3423.69 125.846  35
  -5  -6  -7 372.207 53.6035   4
  -5  -6  -7 443.569 62.2315   7
  -5  -6  -7 506.737 54.2636  35
  -5  -6  -8 925.535 67.6426   4
  -5  -6  -8 1064.42 82.4378   7
  -5  -6  -8 956.752 61.7863  35
  -5  -7  -1 92.6734 52.3089  28
  -5  -7  -1 14.7130 18.1609  35
  -5  -7  -2 1452.80 96.6547  28
  -5  -7  -2 1355.71 71.7212   4
  -5  -7  -2 1410.92 88.1482   7
  -5  -7  -2 1633.38 70.6294  35
  -5  -7  -3 3526.48 147.160  28
  -5  -7  -3 3726.62 121.029   4
  -5  -7  -3 3692.02 141.332   7
  -5  -7  -3 3944.70 115.934  35
  -5  -7  -4 1210.26 95.2152  28
  -5  -7  -4 1285.04 78.2828   4
  -5  -7  -4 1216.00 88.5256   7
  -5  -7  -4 1165.05 70.0299  35
  -5  -7  -5 414.365 67.6552  28
  -5  -7  -5 602.958 61.5891   4
  -5  -7  -5 504.047 64.3405   7
  -5  -7  -5 536.093 52.3890  35
  -5  -7  -6 1168.67 91.0958  28
  -5  -7  -6 1212.80 75.9569   4
  -5  -7  -6 1306.27 89.2312   7
  -5  -7  -6 1263.34 70.6019  35
  -5  -7  -7 1781.37 83.9368   4
  -5  -7  -7 2014.05 81.8090  35
  -6   5   2 3011.66 141.088  12
  -6   5   1 3259.79 148.532  27
  -6   4   4 974.067 94.5030  23
  -6   4   3 1289.46 109.423  23
  -6   4   3 1130.69 99.5720  12
  -6   4   2 11060.7 285.410  27
  -6   4   2 11276.6 282.421  23
  -6   4   2 11148.3 281.287  21
  -6   4   2 10668.5 273.628  33
  -6   4   2 11230.5 285.856  12
  -6   4   1 7669.43 241.249  27
  -6   4   1 7521.93 232.724  21
  -6   4   1 7933.03 235.984  33
  -6   4   1 7978.87 237.484  12
  -6   4   0 166.377 67.6464  27
  -6   4   0 325.563 65.9980  21
  -6   4   0 181.882 58.4265  33
  -6   4   0 147.793 56.7051  12
  -6   4  -1 263.103 73.0850  27
  -6   4  -1 137.443 57.1245  21
  -6   4  -1 271.557 66.2689  33
  -6   4  -2 11749.4 271.705  21
  -6   4  -2 11991.4 270.842  33
  -6   3   5 1835.35 117.623  23
  -6   3   4 8928.69 254.165  23
  -6   3   4 8499.17 230.096  14
  -6   3   3 7054.53 226.159  29
  -6   3   3 6508.56 227.174  23
  -6   3   3 6834.18 217.691  14
  -6   3   3 6470.75 225.077  12
  -6   3   2 3360.39 168.221  29
  -6   3   2 2787.17 159.674  23
  -6   3   2 2735.22 149.574  14
  -6   3   2 2998.61 158.390  33
  -6   3   2 2900.11 159.764  12
  -6   3   1 102.012 66.9428  29
  -6   3   1-2.09050 61.5608  27
  -6   3   1 1.03692 63.7929  23
  -6   3   1 140.038 69.7715  21
  -6   3   1 40.6639 60.6241  14
  -6   3   1 100.863 61.8726  33
  -6   3   1 32.3480 59.8422  12
  -6   3   0 3879.37 183.303  29
  -6   3   0 3516.45 177.518  27
  -6   3   0 3685.08 177.553  21
  -6   3   0 3763.40 174.427  14
  -6   3   0 3659.70 169.750  33
  -6   3   0 3356.16 168.053  12
  -6   3  -1 305.558 75.9245  27
  -6   3  -1 405.130 74.5895  21
  -6   3  -1 376.324 68.7368  33
  -6   3  -1 454.279 77.1495  12
  -6   3  -2 9250.39 260.479  27
  -6   3  -2 8697.80 257.608  21
  -6   3  -2 9245.82 255.866  33
  -6   3  -3 5259.30 190.742  27
  -6   3  -3 4688.85 75.4895   5
  -6   3  -3 6003.26 206.403  21
  -6   3  -3 5705.71 100.746  36
  -6   3  -3 5082.44 186.722  33
  -6   3  -4 167.290 65.4308  27
  -6   3  -4 90.2654 23.1817   5
  -6   3  -4 137.803 61.4760  21
  -6   3  -4 62.5049 27.8109  36
  -6   2   5 1102.86 98.5619  23
  -6   2   5 1091.06 87.3061  14
  -6   2   4 110.224 62.6330  23
  -6   2   4 51.6160 54.5042  14
  -6   2   3 1294.07 111.432  29
  -6   2   3 1152.74 112.061  23
  -6   2   3 1270.12 107.811  14
  -6   2   2 144.456 64.7254  29
  -6   2   2 297.700 75.7367   9
  -6   2   2 290.021 74.1444  23
  -6   2   2 209.687 77.8274  21
  -6   2   2 212.224 65.8177  14
  -6   2   1 3058.52 165.654  29
  -6   2   1 2942.83 170.270   9
  -6   2   1 2671.75 166.284  23
  -6   2   1 2981.65 165.377  21
  -6   2   1 2739.26 149.535  14
  -6   2   0 385.960 82.6937  29
  -6   2   0 315.879 77.5677  27
  -6   2   0 403.857 78.1391   9
  -6   2   0 281.741 75.9203  21
  -6   2   0 217.543 64.6845  14
  -6   2   0 249.718 78.2765  33
  -6   2   0 160.893 72.2568  12
  -6   2  -1 6694.73 236.800  29
  -6   2  -1 6451.22 233.645  21
  -6   2  -1 6627.55 223.510  14
  -6   2  -2 2628.21 152.678  29
  -6   2  -2 2136.55 138.200  27
  -6   2  -2 2198.05 58.0268   5
  -6   2  -2 2492.88 148.400  21
  -6   2  -2 2383.00 69.3305  36
  -6   2  -2 2017.61 69.0613  36
  -6   2  -3 15705.1 337.434  27
  -6   2  -3 16560.8 200.061   5
  -6   2  -3 16075.1 351.191  21
  -6   2  -3 16441.7 210.405  36
  -6   2  -4 1630.15 80.8353  30
  -6   2  -4 1643.53 73.8158   5
  -6   2  -4 1517.67 119.095  21
  -6   2  -4 1589.79 77.0291  36
  -6   2  -5-17.5887 31.0517   6
  -6   2  -5 94.2253 32.9849   5
  -6   2  -5 135.756 54.7269  21
  -6   2  -5 25.5183 34.0289  36
  -6   1   5 5441.82 82.4472   5
  -6   1   5 5678.25 105.302  36
  -6   1   5 5878.72 182.453  14
  -6   1   4 4154.57 169.158  29
  -6   1   4 3898.55 72.3512   5
  -6   1   4 4131.22 167.564  14
  -6   1   3 1774.02 126.644  29
  -6   1   3 1704.61 45.5799   5
  -6   1   3 1879.19 121.544  14
  -6   1   2 37.5353 68.8921  29
  -6   1   2-8.18874 55.5002   9
  -6   1   2-6.23891 10.3288   5
  -6   1   2 80.1830 76.2306  23
  -6   1   2 3.02613 18.2943  36
  -6   1   2-9.37160 19.5230  36
  -6   1   2-48.5546 64.9232  14
  -6   1   1 243.989 71.5016  29
  -6   1   1 218.673 17.0641   5
  -6   1   1 202.729 66.8785   9
  -6   1   1 153.565 72.3332  21
  -6   1   1 196.366 24.2927  36
  -6   1   1 296.020 72.1691  14
  -6   1   0 1130.70 111.295  29
  -6   1   0 1107.90 40.9161   5
  -6   1   0 1059.57 114.036   9
  -6   1   0 1178.27 112.661  21
  -6   1   0 1111.34 46.7729  36
  -6   1   0 974.487 45.9562  36
  -6   1   0 1153.83 105.592  14
  -6   1  -1 12215.2 313.324  29
  -6   1  -1 12115.0 314.603  21
  -6   1  -1 12237.2 162.753  36
  -6   1  -1 12475.1 301.591  14
  -6   1  -2 4169.44 188.479  29
  -6   1  -2 4026.55 103.151   5
  -6   1  -2 3872.64 184.464  21
  -6   1  -2 3989.07 107.273  36
  -6   1  -3 445.070 52.9266  30
  -6   1  -3 456.610 75.6620  29
  -6   1  -3 403.232 46.8362   5
  -6   1  -3 431.490 90.6854  21
  -6   1  -3 460.224 52.5285  36
  -6   1  -4 4365.74 135.455  30
  -6   1  -4 4322.02 131.587   5
  -6   1  -4 4330.44 135.612  36
  -6   1  -5 2938.15 113.387  30
  -6   1  -5 2834.37 111.721   5
  -6   1  -5 2549.26 146.402  21
  -6   1  -6 763.347 65.2547   5
  -6   1  -6 568.728 76.9372  21
  -6   1  -6 743.498 60.1552   6
  -6   0   5 6.84892 27.6048   6
  -6   0   5 50.1546 25.8482   5
  -6   0   5 37.2300 35.2423  36
  -6   0   5 26.6867 32.4457  36
  -6   0   5 60.1279 49.6897  14
  -6   0   4 2396.63 132.532  29
  -6   0   4 2286.82 83.8161   5
  -6   0   4 2395.54 94.3543  36
  -6   0   4 2628.83 99.5788  36
  -6   0   4 2409.65 134.545  14
  -6   0   3 585.307 86.7275  29
  -6   0   3 467.155 44.1441   5
  -6   0   3 469.241 51.3232  36
  -6   0   3 418.770 49.8899  36
  -6   0   3 506.681 75.6551  14
  -6   0   2 1258.05 114.695  29
  -6   0   2 1200.06 63.5415   5
  -6   0   2 1235.96 69.6294  36
  -6   0   2 1045.54 100.947  14
  -6   0   1 7591.87 161.023  30
  -6   0   1 7112.58 245.990  29
  -6   0   1 7820.18 150.269   5
  -6   0   1 7421.28 256.972   9
  -6   0   1 7913.76 157.057  36
  -6   0   1 7405.56 240.895  14
  -6   0   0 10174.4 183.221  30
  -6   0   0 9207.97 278.397  29
  -6   0   0 9759.66 170.526   5
  -6   0   0 9299.89 293.020   9
  -6   0   0 9931.87 176.074  36
  -6   0   0 9640.98 271.644  14
  -6   0  -1 10589.7 190.767  30
  -6   0  -1 10728.3 294.511  29
  -6   0  -1 10194.3 180.852   5
  -6   0  -1 10391.9 288.318  21
  -6   0  -1 10809.8 188.530  36
  -6   0  -1 10732.3 278.507  14
  -6   0  -2 899.676 64.0524  30
  -6   0  -2 751.854 93.4058  29
  -6   0  -2 790.701 59.3453   5
  -6   0  -2 816.660 96.9406  21
  -6   0  -2 807.508 64.1604  36
  -6   0  -3 3250.14 117.591  30
  -6   0  -3 3184.23 159.050  29
  -6   0  -3 3100.55 113.516   5
  -6   0  -3 3038.10 116.502  36
  -6   0  -4 362.619 51.8594  30
  -6   0  -4 357.202 50.8532   5
  -6   0  -4 476.734 91.9282  21
  -6   0  -5 402.157 55.2099  30
  -6   0  -5 428.336 59.9779   5
  -6   0  -5 487.944 85.1408  21
  -6   0  -6 2461.57 109.889  30
  -6   0  -6 2707.80 123.481   5
  -6   0  -6 2480.91 143.326  21
  -6   0  -6 2563.34 99.3019   6
  -6   0  -7 3816.78 161.615  21
  -6   0  -7 3855.73 106.226   6
  -6  -1   4 591.650 57.3475  30
  -6  -1   4-33.7578 41.9895   6
  -6  -1   4 376.684 67.4082  29
  -6  -1   4 600.605 57.4076   5
  -6  -1   4 63.1344 43.0727  28
  -6  -1   4-13.7434 31.6330  36
  -6  -1   4 554.482 78.5060  14
  -6  -1   3 1932.36 93.7635  30
  -6  -1   3 1859.91 123.196  29
  -6  -1   3 1697.01 86.8354   5
  -6  -1   3-24.0860 33.9132  36
  -6  -1   3-4.89628 41.4692  36
  -6  -1   3 1472.61 116.730  14
  -6  -1   2 1706.26 87.6079  30
  -6  -1   2 1384.30 118.423  29
  -6  -1   2 1732.40 89.1769   5
  -6  -1   2 1567.83 120.401  14
  -6  -1   1 7003.35 167.679  30
  -6  -1   1 6647.49 237.334  29
  -6  -1   1 6867.84 177.057  36
  -6  -1   1 6809.05 232.552  14
  -6  -1   0 38.9616 31.4234  30
  -6  -1   0 72.3433 60.9633  29
  -6  -1   0 88.4596 36.1844   5
  -6  -1   0 128.621 43.4064  36
  -6  -1   0-43.2444 48.5621  15
  -6  -1   0 105.081 55.6994  14
  -6  -1  -1 945.173 68.8232  30
  -6  -1  -1 905.642 70.1579   5
  -6  -1  -1 820.946 68.8066  36
  -6  -1  -1 839.413 91.8707  14
  -6  -1  -2 16514.2 262.177  30
  -6  -1  -2 16781.5 360.646  29
  -6  -1  -2 17064.3 277.814   5
  -6  -1  -3 391.579 52.9812  30
  -6  -1  -3 327.619 67.1484  29
  -6  -1  -3 304.195 53.1219   5
  -6  -1  -3 437.851 85.4024  21
  -6  -1  -4 766.829 68.9550  30
  -6  -1  -4 673.929 69.9818   5
  -6  -1  -5 3045.97 124.964  30
  -6  -1  -5 2926.69 161.744  21
  -6  -1  -6 3872.80 137.915  30
  -6  -1  -6 3609.38 173.013  21
  -6  -1  -6 3987.15 122.223   6
  -6  -1  -7 783.610 57.6801   6
  -6  -1  -7 681.665 85.9203  21
  -6  -1  -7 854.135 58.5031   6
  -6  -2   4 2055.00 89.5709   6
  -6  -2   4 2300.85 114.557  28
  -6  -2   4 2150.35 117.482  14
  -6  -2   3 319.776 50.8942  30
  -6  -2   3 319.394 57.2754   6
  -6  -2   3 353.188 72.3888  29
  -6  -2   3 333.182 63.0653  28
  -6  -2   3 262.179 50.8776   5
  -6  -2   3 315.878 71.5862  14
  -6  -2   2 5288.45 155.619  30
  -6  -2   2 5664.67 209.394  29
  -6  -2   2 5550.86 165.522   5
  -6  -2   2-54.1535 49.7619  28
  -6  -2   2 5505.07 209.762  14
  -6  -2   1 2236.00 104.949  30
  -6  -2   1 2054.39 139.678  29
  -6  -2   1 2107.54 128.879  15
  -6  -2   1 2301.14 141.920  14
  -6  -2   0 2177.77 104.483  30
  -6  -2   0 2154.33 146.152  29
  -6  -2   0 2302.26 117.108   5
  -6  -2   0 2077.45 125.692  15
  -6  -2   0 2466.18 143.220  14
  -6  -2  -1 2563.43 113.017  30
  -6  -2  -1 2544.36 152.274  29
  -6  -2  -1 2483.52 121.858   5
  -6  -2  -1 2262.10 131.145  15
  -6  -2  -1 2363.06 138.689  14
  -6  -2  -2 470.274 58.7569  30
  -6  -2  -2 357.590 77.5963  29
  -6  -2  -2 432.046 63.9522   5
  -6  -2  -2 397.117 64.8161  15
  -6  -2  -3 8454.24 201.273  30
  -6  -2  -3 8335.65 222.501   5
  -6  -2  -3 8335.35 243.241  15
  -6  -2  -4 11245.9 235.755  30
  -6  -2  -4 11175.1 291.880  21
  -6  -2  -4 11022.3 277.620  15
  -6  -2  -5 15330.3 242.075   6
  -6  -2  -5 15799.0 279.013  30
  -6  -2  -5 15562.4 343.123  21
  -6  -2  -5 15204.8 239.808   6
  -6  -2  -6 4274.88 126.010   6
  -6  -2  -6 4420.64 148.030  30
  -6  -2  -6 4394.08 184.127  21
  -6  -2  -6 4082.03 122.728   6
  -6  -2  -7 96.2508 34.5075   6
  -6  -2  -7-0.89422 62.1509  21
  -6  -2  -8 793.476 86.9730  21
  -6  -3   3 3813.89 153.255  29
  -6  -3   3 3665.98 144.855  28
  -6  -3   3 3446.40 146.527  14
  -6  -3   2 4811.30 150.672  30
  -6  -3   2 4613.14 180.519  29
  -6  -3   2 5011.97 178.439  28
  -6  -3   2 4965.87 186.652  14
  -6  -3   1 518.579 62.3480   6
  -6  -3   1 625.833 64.1452  30
  -6  -3   1 523.924 84.7597  29
  -6  -3   1 676.628 81.3016  28
  -6  -3   1 503.178 68.8037  15
  -6  -3   1 506.065 74.5623  14
  -6  -3   0 2812.52 112.930   6
  -6  -3   0 3024.77 125.519  30
  -6  -3   0 2875.67 156.973  29
  -6  -3   0 2780.29 143.619  15
  -6  -3   0 3088.98 157.042  14
  -6  -3  -1 3.92713 44.7877  30
  -6  -3  -1 10.9211 45.7392   6
  -6  -3  -1 80.7902 66.1224  29
  -6  -3  -1-21.8266 47.0032  28
  -6  -3  -1-37.8287 49.6111  15
  -6  -3  -1-44.4761 61.2064  14
  -6  -3  -2 11553.9 216.209   6
  -6  -3  -2 11609.0 243.372  30
  -6  -3  -2 11848.6 296.299  29
  -6  -3  -2 11403.6 283.623  15
  -6  -3  -3 7787.14 176.974   6
  -6  -3  -3 7701.04 198.721  30
  -6  -3  -3 7513.14 231.433  15
  -6  -3  -4 8636.25 185.396   6
  -6  -3  -4 8638.17 211.282  30
  -6  -3  -4 8936.44 248.770  15
  -6  -3  -5 1113.80 70.7044   6
  -6  -3  -5 1123.56 81.9855  30
  -6  -3  -5 1019.51 91.6139  15
  -6  -3  -6 9532.85 177.785   6
  -6  -3  -6 9447.58 217.568  30
  -6  -3  -7 152.190 33.9455   6
  -6  -3  -7 92.1029 59.5172  21
  -6  -4   2 1734.93 104.750  28
  -6  -4   2 1833.65 109.855  14
  -6  -4   1 361.394 51.7170   6
  -6  -4   1 480.793 75.4817  29
  -6  -4   1 556.489 70.6493  28
  -6  -4   1 640.234 77.5812  14
  -6  -4   0 70.0520 40.7183  30
  -6  -4   0 21.5707 48.0548   6
  -6  -4   0-36.6076 58.2983  29
  -6  -4   0-14.0354 52.9844  28
  -6  -4   0-22.1042 45.0397  15
  -6  -4   0 53.7652 51.3641  14
  -6  -4  -1-15.9485 41.4432  30
  -6  -4  -1-35.6181 49.7999   6
  -6  -4  -1 42.1912 53.7796  29
  -6  -4  -1 48.2466 53.1512  28
  -6  -4  -1 33.3884 42.8231  15
  -6  -4  -1-51.3165 47.7783  14
  -6  -4  -2 3047.50 108.559   6
  -6  -4  -2 3148.66 129.464  30
  -6  -4  -2 3061.06 151.790  29
  -6  -4  -2 3334.98 152.789  15
  -6  -4  -3 234.270 49.1823  30
  -6  -4  -3 193.430 45.1707   6
  -6  -4  -3 233.652 53.8877  15
  -6  -4  -4 711.669 59.9143   6
  -6  -4  -4 702.833 71.4030  30
  -6  -4  -4 719.819 78.0812  15
  -6  -4  -5 44.5173 43.8650  30
  -6  -4  -5 56.7528 36.0358   6
  -6  -4  -5 33.4364 10.4594   7
  -6  -4  -5 61.1889 42.6586  15
  -6  -4  -6 1792.38 71.1842   6
  -6  -4  -6 2482.75 126.749  15
  -6  -4  -7 5022.43 167.911  15
  -6  -5   0 7352.93 199.333  28
  -6  -5  -1 5225.94 179.159  29
  -6  -5  -1 5231.86 175.267  28
  -6  -5  -1 5233.37 170.274  15
  -6  -5  -2 3896.92 157.078  28
  -6  -5  -2 3740.17 148.434  15
  -6  -5  -3 96.1922 33.6096   6
  -6  -5  -3 11.0090 47.3146  28
  -6  -5  -3 66.8919 13.2814   7
  -6  -5  -3 5.42907 43.3663  15
  -6  -5  -4 2681.69 67.6558   7
  -6  -5  -4 3631.37 150.051  15
  -6  -5  -5 345.865 28.2527   7
  -6  -5  -5 422.125 59.9744  15
  -6  -5  -6 130.951 18.0807   7
  -7   1   0 2028.41 120.992  29
  -7   1   0 2086.94 116.659  14
  -7   0   1 2335.31 122.358  14
  -7   0   0 34.9973 54.3603  29
  -7   0   0 22.1239 48.2835  14
  -7   0  -1 3063.05 144.522  29
  -7   0  -1-41.5820 46.8370  14
  -7  -1   0 371.922 71.7479  29
  -7  -1   0 350.772 23.2649   5
  -7  -1   0 350.744 63.4055  14
  -7  -1  -1 2956.20 139.271  29
  -7  -1  -1 2732.25 68.8199   5
  -7  -1  -2 609.463 40.9909   5
  -7  -1  -2 601.568 47.6918  36
  -7  -1  -3 1865.53 70.0033   5
   0   0   0    0.00    0.00   0
TITL n17088 in P-1
REM P-1 (#2 in standard setting)
CELL 1.54184   6.110089   8.607487  11.008310  68.9567  83.7988  87.1885
ZERR    2.00   0.000392   0.000503   0.000650   0.0055   0.0051   0.0050
LATT  1
SFAC C H N O Cl
UNIT 20.00 24.00 8.00 2.00 2.00
TREF
HKLF 4
END
;
_shelx_hkl_checksum              61185
_shelx_res_file
;
TITL II N17088 IN P-1 #2
    H:\II\II_sx.res
    created by SHELXL-2018/3 at 11:33:44 on 13-Apr-2019
CELL  1.54184  6.11009  8.60749 11.00831 68.95670 83.79880 87.18850
ZERR 2  0.00039  0.00050  0.00065  0.00550  0.00510  0.00500
LATT 1
SFAC C H N O CL
UNIT 20 26 8 2 2
TEMP -163
L.S. 15
OMIT 3 -7 1
OMIT 3 -7 2
OMIT -3 7 0
PLAN  20
DFIX 0.86 .02 N9 H9
EADP C4' C4'B
EADP C6' C6'B
HTAB
EQIV $1 -X+1, -Y, -Z+2
HTAB C8 O1'_$1
EQIV $2 -X+2, -Y, -Z+1
HTAB N9 N3_$2
EQIV $3 X, Y, Z+1
HTAB O1' N1_$3
EQIV $4 -X+1, -Y+1, -Z+1
HTAB C4' N1_$4
HTAB C6' CL1
HTAB C6'B CL1
EQIV $5 -X, -Y+1, -Z+1
HTAB C6'B CL1_$5
HTAB C6'B CL1_$4
BOND $H
CONF
FMAP 2
ACTA
WGHT    0.047900    0.546400
FVAR       6.61015   0.85820
CL1   5    0.168337    0.418077    0.406240    11.00000    0.02216    0.03212 =
         0.02403   -0.01100   -0.00495    0.01013
N1    3    0.481695    0.284975    0.289988    11.00000    0.02266    0.02395 =
         0.01619   -0.00778   -0.00181    0.00001
C2    1    0.666890    0.201151    0.286422    11.00000    0.02273    0.02553 =
         0.01585   -0.01041    0.00119   -0.00042
AFIX  43
H2    2    0.719070    0.193795    0.204161    11.00000   -1.20000
AFIX   0
N3    3    0.791985    0.124101    0.386086    11.00000    0.01978    0.02437 =
         0.01732   -0.01000    0.00098    0.00134
C4    1    0.712225    0.138741    0.498982    11.00000    0.01711    0.01920 =
         0.01860   -0.00798   -0.00028   -0.00081
C5    1    0.513897    0.225433    0.516746    11.00000    0.01811    0.01934 =
         0.01661   -0.00867    0.00060   -0.00254
C6    1    0.406383    0.298406    0.407199    11.00000    0.01683    0.02041 =
         0.01920   -0.00866   -0.00037    0.00137
N7    3    0.484312    0.216288    0.645731    11.00000    0.01734    0.02766 =
         0.01554   -0.01090   -0.00142    0.00571
C8    1    0.667123    0.118429    0.714526    11.00000    0.02118    0.02934 =
         0.01757   -0.01213   -0.00361    0.00593
AFIX  23
H8A   2    0.750275    0.184768    0.750830    11.00000   -1.20000
H8B   2    0.612778    0.016417    0.786389    11.00000   -1.20000
AFIX   0
N9    3    0.802745    0.077610    0.612860    11.00000    0.01807    0.02936 =
         0.01809   -0.01145   -0.00376    0.00943
H9    2    0.915512    0.017976    0.626857    11.00000    0.02133
O1'   4    0.157562    0.257850    1.123733    11.00000    0.02754    0.03939 =
         0.01773   -0.01147   -0.00432    0.00282
H1'   2    0.256158    0.284269    1.160622    11.00000    0.04544
C2'   1    0.216950    0.345491    0.990047    11.00000    0.02855    0.03714 =
         0.01788   -0.01192   -0.00084   -0.00166
AFIX  13
H2'   2    0.230429    0.466833    0.973632    11.00000   -1.20000
AFIX   0
C3'   1    0.409135    0.287284    0.916019    11.00000    0.02573    0.05217 =
         0.03402   -0.02532   -0.00299    0.00004
AFIX  23
H3'1  2    0.446403    0.167641    0.956402    11.00000   -1.20000
H3'2  2    0.541933    0.356932    0.895749    11.00000   -1.20000
AFIX   0
C5'   1    0.062945    0.320317    0.898459    11.00000    0.02497    0.03999 =
         0.02154   -0.01571   -0.00519    0.01190
AFIX  23
H5'1  2   -0.044286    0.412524    0.866879    11.00000   -1.20000
H5'2  2   -0.011259    0.211215    0.933326    11.00000   -1.20000
PART 1
AFIX   0
C4'   1    0.264185    0.328144    0.799771    21.00000    0.02582    0.02632 =
         0.02055   -0.01035    0.00019    0.00351
AFIX  13
H4'   2    0.288618    0.445876    0.739504    21.00000   -1.20000
AFIX   0
C6'   1    0.271611    0.215651    0.721339    21.00000    0.01643    0.03409 =
         0.02160   -0.01471   -0.00004    0.00108
AFIX  23
H6'1  2    0.239112    0.100518    0.781565    21.00000   -1.20000
H6'2  2    0.155181    0.251106    0.660680    21.00000   -1.20000
PART 2
AFIX   0
C4'B  1    0.245967    0.215509    0.841686   -21.00000    0.02582    0.02632 =
         0.02055   -0.01035    0.00019    0.00351
AFIX  13
H4'B  2    0.228733    0.092243    0.870206   -21.00000   -1.20000
AFIX   0
C6'B  1    0.332251    0.308377    0.704324   -21.00000    0.01643    0.03409 =
         0.02160   -0.01471   -0.00004    0.00108
AFIX  23
H6'3  2    0.206224    0.345077    0.650824   -21.00000   -1.20000
H6'4  2    0.406521    0.409522    0.701360   -21.00000   -1.20000
AFIX   0
HKLF 4
REM  II N17088 IN P-1 #2
REM wR2 = 0.0980, GooF = S = 1.068, Restrained GooF = 1.068 for all data
REM R1 = 0.0371 for 1681 Fo > 4sig(Fo) and 0.0401 for all 1793 data
REM 160 parameters refined using 1 restraints
END
WGHT      0.0479      0.5467
REM Instructions for potential hydrogen bonds
HTAB C8 O1'_$1
HTAB N9 N3_$2
HTAB O1' N1_$3
HTAB C4' N1_$4
HTAB C6' Cl1
HTAB C6'B Cl1
HTAB C6'B Cl1_$5
HTAB C6'B Cl1_$4
REM Highest difference peak  0.711,  deepest hole -0.270,  1-sigma level  0.057
Q1    1   0.3419  0.1482  0.9598  11.00000  0.05    0.71
Q2    1   0.4861  0.2255  0.5814  11.00000  0.05    0.26
Q3    1   0.6027  0.1820  0.5010  11.00000  0.05    0.24
Q4    1   0.2977  0.3580  0.4082  11.00000  0.05    0.23
Q5    1   0.1863  0.2411  0.8044  11.00000  0.05    0.23
Q6    1   0.3927  0.2210  0.6825  11.00000  0.05    0.22
Q7    1   0.2843  0.2572  1.0039  11.00000  0.05    0.22
Q8    1   0.2380  0.2493  0.7800  11.00000  0.05    0.21
Q9    1  -0.0775  0.3353  0.8902  11.00000  0.05    0.21
Q10   1   0.4791  0.2925  0.4572  11.00000  0.05    0.20
Q11   1   0.8986  0.0683  0.3777  11.00000  0.05    0.20
Q12   1   0.1650  0.1937  0.6913  11.00000  0.05    0.20
Q13   1   0.4301  0.3383  0.7032  11.00000  0.05    0.20
Q14   1   0.4234  0.2335  0.4752  11.00000  0.05    0.19
Q15   1   0.0321  0.1576  0.9567  11.00000  0.05    0.19
Q16   1   0.5710  0.1767  0.6800  11.00000  0.05    0.19
Q17   1   0.2760  0.3600  1.0800  11.00000  0.05    0.19
Q18   1   0.7395  0.1015  0.6579  11.00000  0.05    0.18
Q19   1   0.0257  0.3439  0.4515  11.00000  0.05    0.18
Q20   1   0.1183  0.3617  0.9406  11.00000  0.05    0.18
;
_shelx_res_checksum              65030
loop_
_space_group_symop_operation_xyz
'x, y, z'
'-x, -y, -z'
loop_
_atom_site_type_symbol
_atom_site_label
_atom_site_fract_x
_atom_site_fract_y
_atom_site_fract_z
_atom_site_U_iso_or_equiv
_atom_site_adp_type
_atom_site_calc_flag
_atom_site_occupancy
_atom_site_disorder_assembly
_atom_site_disorder_group
Cl Cl1 0.16834(8) 0.41808(6) 0.40624(5) 0.02598(19) Uani d 1 . .
N N1 0.4817(3) 0.2850(2) 0.28999(16) 0.0208(4) Uani d 1 . .
C C2 0.6669(3) 0.2012(3) 0.28642(19) 0.0208(4) Uani d 1 . .
H H2 0.719070 0.193795 0.204161 0.025 Uiso calc 1 . .
N N3 0.7920(3) 0.1241(2) 0.38609(16) 0.0201(4) Uani d 1 . .
C C4 0.7122(3) 0.1387(2) 0.49898(19) 0.0181(4) Uani d 1 . .
C C5 0.5139(3) 0.2254(2) 0.51675(19) 0.0175(4) Uani d 1 . .
C C6 0.4064(3) 0.2984(2) 0.40720(19) 0.0185(4) Uani d 1 . .
N N7 0.4843(3) 0.2163(2) 0.64573(16) 0.0195(4) Uani d 1 . .
C C8 0.6671(3) 0.1184(3) 0.71453(19) 0.0217(4) Uani d 1 . .
H H8A 0.750275 0.184768 0.750830 0.026 Uiso calc 1 . .
H H8B 0.612778 0.016417 0.786389 0.026 Uiso calc 1 . .
N N9 0.8027(3) 0.0776(2) 0.61286(16) 0.0212(4) Uani d 1 . .
H H9 0.916(3) 0.018(3) 0.627(2) 0.021(6) Uiso d 1 . .
O O1' 0.1576(3) 0.2578(2) 1.12373(14) 0.0278(4) Uani d 1 . .
H H1' 0.256(5) 0.284(4) 1.161(3) 0.045(8) Uiso d 1 . .
C C2' 0.2169(4) 0.3455(3) 0.9900(2) 0.0273(5) Uani d 1 . .
H H2' 0.230429 0.466833 0.973632 0.033 Uiso calc 1 . .
C C3' 0.4091(4) 0.2873(3) 0.9160(2) 0.0346(6) Uani d 1 . .
H H3'1 0.446403 0.167641 0.956402 0.041 Uiso calc 1 A 1
H H3'2 0.541933 0.356932 0.895749 0.041 Uiso calc 1 A 1
C C5' 0.0629(4) 0.3203(3) 0.8985(2) 0.0277(5) Uani d 1 . .
H H5'1 -0.044286 0.412524 0.866879 0.033 Uiso calc 1 B 1
H H5'2 -0.011259 0.211215 0.933326 0.033 Uiso calc 1 B 1
C C4' 0.2642(4) 0.3281(3) 0.7998(2) 0.0240(6) Uani d 0.858(4) C 1
H H4' 0.288618 0.445876 0.739504 0.029 Uiso calc 0.858(4) C 1
C C6' 0.2716(4) 0.2157(3) 0.7213(2) 0.0229(6) Uani d 0.858(4) C 1
H H6'1 0.239112 0.100518 0.781565 0.027 Uiso calc 0.858(4) C 1
H H6'2 0.155181 0.251106 0.660680 0.027 Uiso calc 0.858(4) C 1
C C4'B 0.246(3) 0.216(2) 0.8417(15) 0.0240(6) Uani d 0.142(4) C 2
H H4'B 0.228733 0.092243 0.870206 0.029 Uiso calc 0.142(4) C 2
C C6'B 0.332(3) 0.308(2) 0.7043(15) 0.0229(6) Uani d 0.142(4) C 2
H H6'3 0.206224 0.345077 0.650824 0.027 Uiso calc 0.142(4) C 2
H H6'4 0.406521 0.409522 0.701360 0.027 Uiso calc 0.142(4) C 2
loop_
_atom_site_aniso_label
_atom_site_aniso_U_11
_atom_site_aniso_U_22
_atom_site_aniso_U_33
_atom_site_aniso_U_12
_atom_site_aniso_U_13
_atom_site_aniso_U_23
Cl1 0.0222(3) 0.0321(3) 0.0240(3) 0.0101(2) -0.0049(2) -0.0110(2)
N1 0.0227(9) 0.0239(9) 0.0162(8) 0.0000(7) -0.0018(7) -0.0078(7)
C2 0.0227(11) 0.0255(10) 0.0158(10) -0.0004(8) 0.0012(8) -0.0104(8)
N3 0.0198(9) 0.0244(9) 0.0173(8) 0.0013(7) 0.0010(7) -0.0100(7)
C4 0.0171(10) 0.0192(10) 0.0186(10) -0.0008(8) -0.0003(8) -0.0080(8)
C5 0.0181(10) 0.0193(9) 0.0166(10) -0.0025(8) 0.0006(8) -0.0087(8)
C6 0.0168(10) 0.0204(10) 0.0192(10) 0.0014(8) -0.0004(8) -0.0087(8)
N7 0.0173(9) 0.0277(9) 0.0155(8) 0.0057(7) -0.0014(7) -0.0109(7)
C8 0.0212(11) 0.0293(11) 0.0176(10) 0.0059(8) -0.0036(8) -0.0121(8)
N9 0.0181(9) 0.0294(10) 0.0181(9) 0.0094(7) -0.0038(7) -0.0114(7)
O1' 0.0275(9) 0.0394(9) 0.0177(7) 0.0028(7) -0.0043(6) -0.0115(7)
C2' 0.0286(12) 0.0371(12) 0.0179(10) -0.0017(9) -0.0008(9) -0.0119(9)
C3' 0.0257(12) 0.0522(15) 0.0340(13) 0.0000(11) -0.0030(10) -0.0253(12)
C5' 0.0250(11) 0.0400(13) 0.0215(11) 0.0119(9) -0.0052(9) -0.0157(10)
C4' 0.0258(13) 0.0263(14) 0.0205(12) 0.0035(11) 0.0002(10) -0.0104(11)
C6' 0.0164(12) 0.0341(16) 0.0216(12) 0.0011(11) 0.0000(10) -0.0147(11)
C4'B 0.0258(13) 0.0263(14) 0.0205(12) 0.0035(11) 0.0002(10) -0.0104(11)
C6'B 0.0164(12) 0.0341(16) 0.0216(12) 0.0011(11) 0.0000(10) -0.0147(11)
loop_
_atom_type_symbol
_atom_type_description
_atom_type_scat_dispersion_real
_atom_type_scat_dispersion_imag
_atom_type_scat_source
C C 0.0181 0.0091 'International Tables Vol C Tables 4.2.6.8 and 6.1.1.4'
H H 0.0000 0.0000 'International Tables Vol C Tables 4.2.6.8 and 6.1.1.4'
N N 0.0311 0.0180 'International Tables Vol C Tables 4.2.6.8 and 6.1.1.4'
O O 0.0492 0.0322 'International Tables Vol C Tables 4.2.6.8 and 6.1.1.4'
Cl Cl 0.3639 0.7018 'International Tables Vol C Tables 4.2.6.8 and 6.1.1.4'
loop_
_geom_angle_atom_site_label_1
_geom_angle_atom_site_label_2
_geom_angle_atom_site_label_3
_geom_angle
C2 N1 C6 116.73(17)
N1 C2 N3 127.76(18)
N1 C2 H2 116.1
N3 C2 H2 116.1
C4 N3 C2 113.74(17)
N3 C4 N9 126.70(19)
N3 C4 C5 124.39(18)
N9 C4 C5 108.91(17)
C6 C5 N7 136.29(19)
C6 C5 C4 115.33(18)
N7 C5 C4 108.35(17)
N1 C6 C5 122.04(18)
N1 C6 Cl1 115.38(15)
C5 C6 Cl1 122.56(15)
C5 N7 C6'B 128.7(6)
C5 N7 C6' 125.55(17)
C5 N7 C8 108.55(16)
C6'B N7 C8 121.7(6)
C6' N7 C8 118.33(17)
N9 C8 N7 103.41(15)
N9 C8 H8A 111.1
N7 C8 H8A 111.1
N9 C8 H8B 111.1
N7 C8 H8B 111.1
H8A C8 H8B 109.0
C4 N9 C8 110.76(17)
C4 N9 H9 125.9(17)
C8 N9 H9 123.2(17)
C2' O1' H1' 103(2)
O1' C2' C3' 121.1(2)
O1' C2' C5' 114.52(18)
C3' C2' C5' 89.12(16)
O1' C2' H2' 110.1
C3' C2' H2' 110.1
C5' C2' H2' 110.1
C2' C3' C4' 87.87(18)
C2' C3' C4'B 92.5(5)
C2' C3' H3'1 114.0
C4' C3' H3'1 114.0
C2' C3' H3'2 114.0
C4' C3' H3'2 114.0
H3'1 C3' H3'2 111.2
C2' C5' C4' 88.64(17)
C2' C5' C4'B 92.8(6)
C2' C5' H5'1 113.9
C4' C5' H5'1 113.9
C2' C5' H5'2 113.9
C4' C5' H5'2 113.9
H5'1 C5' H5'2 111.1
C6' C4' C5' 118.5(2)
C6' C4' C3' 120.1(2)
C5' C4' C3' 87.40(17)
C6' C4' H4' 109.7
C5' C4' H4' 109.7
C3' C4' H4' 109.7
N7 C6' C4' 113.3(2)
N7 C6' H6'1 108.9
C4' C6' H6'1 108.9
N7 C6' H6'2 108.9
C4' C6' H6'2 108.9
H6'1 C6' H6'2 107.7
C6'B C4'B C5' 112.7(13)
C6'B C4'B C3' 99.0(12)
C5' C4'B C3' 82.6(7)
C6'B C4'B H4'B 118.5
C5' C4'B H4'B 118.5
C3' C4'B H4'B 118.5
N7 C6'B C4'B 115.0(14)
N7 C6'B H6'3 108.5
C4'B C6'B H6'3 108.5
N7 C6'B H6'4 108.5
C4'B C6'B H6'4 108.5
H6'3 C6'B H6'4 107.5
loop_
_geom_bond_atom_site_label_1
_geom_bond_atom_site_label_2
_geom_bond_distance
Cl1 C6 1.739(2)
N1 C2 1.317(3)
N1 C6 1.365(3)
C2 N3 1.355(3)
C2 H2 0.9500
N3 C4 1.332(3)
C4 N9 1.342(3)
C4 C5 1.424(3)
C5 C6 1.366(3)
C5 N7 1.386(2)
N7 C6'B 1.440(15)
N7 C6' 1.465(3)
N7 C8 1.471(3)
C8 N9 1.455(3)
C8 H8A 0.9900
C8 H8B 0.9900
N9 H9 0.833(17)
O1' C2' 1.407(3)
O1' H1' 0.84(3)
C2' C3' 1.524(3)
C2' C5' 1.527(3)
C2' H2' 1.0000
C3' C4' 1.561(3)
C3' C4'B 1.626(16)
C3' H3'1 0.9900
C3' H3'2 0.9900
C5' C4' 1.537(3)
C5' C4'B 1.616(15)
C5' H5'1 0.9900
C5' H5'2 0.9900
C4' C6' 1.508(3)
C4' H4' 1.0000
C6' H6'1 0.9900
C6' H6'2 0.9900
C4'B C6'B 1.48(2)
C4'B H4'B 1.0000
C6'B H6'3 0.9900
C6'B H6'4 0.9900
loop_
_geom_hbond_atom_site_label_D
_geom_hbond_atom_site_label_H
_geom_hbond_atom_site_label_A
_geom_hbond_site_symmetry_A
_geom_hbond_distance_DH
_geom_hbond_distance_HA
_geom_hbond_distance_DA
_geom_hbond_angle_DHA
_geom_hbond_publ_flag
C6' H6'2 Cl1 . 0.99 2.64 3.390(3) 132 yes
N9 H9 N3 2_756 0.83(2) 2.14(2) 2.952(2) 166(2) yes
O1' H1' N1 1_556 0.84(3) 2.09(3) 2.909(2) 164(3) yes
C4' H4' Cg1 2_666 0.99 2.87 3.857(3) 170 yes
loop_
_geom_torsion_atom_site_label_1
_geom_torsion_atom_site_label_2
_geom_torsion_atom_site_label_3
_geom_torsion_atom_site_label_4
_geom_torsion
C6 N1 C2 N3 0.8(3)
N1 C2 N3 C4 -0.3(3)
C2 N3 C4 N9 -178.94(19)
C2 N3 C4 C5 0.4(3)
N3 C4 C5 C6 -1.1(3)
N9 C4 C5 C6 178.36(17)
N3 C4 C5 N7 -179.35(17)
N9 C4 C5 N7 0.1(2)
C2 N1 C6 C5 -1.6(3)
C2 N1 C6 Cl1 177.14(14)
N7 C5 C6 N1 179.3(2)
C4 C5 C6 N1 1.6(3)
N7 C5 C6 Cl1 0.7(3)
C4 C5 C6 Cl1 -176.96(14)
C6 C5 N7 C6'B -10.1(10)
C4 C5 N7 C6'B 167.6(10)
C6 C5 N7 C6' 32.6(4)
C4 C5 N7 C6' -149.7(2)
C6 C5 N7 C8 -178.7(2)
C4 C5 N7 C8 -0.9(2)
C5 N7 C8 N9 1.3(2)
C6'B N7 C8 N9 -168.2(9)
C6' N7 C8 N9 152.69(18)
N3 C4 N9 C8 -179.79(18)
C5 C4 N9 C8 0.8(2)
N7 C8 N9 C4 -1.3(2)
O1' C2' C3' C4' 138.2(2)
C5' C2' C3' C4' 19.78(18)
O1' C2' C3' C4'B 105.1(6)
C5' C2' C3' C4'B -13.3(6)
O1' C2' C5' C4' -144.2(2)
C3' C2' C5' C4' -20.09(19)
O1' C2' C5' C4'B -110.7(6)
C3' C2' C5' C4'B 13.4(6)
C2' C5' C4' C6' 142.7(2)
C2' C5' C4' C3' 19.62(18)
C2' C3' C4' C6' -141.4(2)
C2' C3' C4' C5' -19.66(18)
C5 N7 C6' C4' -135.6(2)
C8 N7 C6' C4' 78.4(3)
C5' C4' C6' N7 -171.4(2)
C3' C4' C6' N7 -66.6(3)
C2' C5' C4'B C6'B -109.4(12)
C2' C5' C4'B C3' -12.7(6)
C2' C3' C4'B C6'B 124.6(10)
C2' C3' C4'B C5' 12.7(6)
C5 N7 C6'B C4'B 146.2(9)
C8 N7 C6'B C4'B -46.6(16)
C5' C4'B C6'B N7 -175.7(10)
C3' C4'B C6'B N7 98.5(13)

_cod_database_fobs_code 2242925
