#------------------------------------------------------------------------------
#$Date: 2017-08-23 09:24:40 +0300 (Wed, 23 Aug 2017) $
#$Revision: 199899 $
#$URL: file:///home/coder/svn-repositories/cod/cif/2/24/22/2242289.cif $
#------------------------------------------------------------------------------
#
# This file is available in the Crystallography Open Database (COD),
# http://www.crystallography.net/. The original data for this entry
# were provided by IUCr Journals, http://journals.iucr.org/.
#
# The file may be used within the scientific community so long as
# proper attribution is given to the journal article from which the
# data were obtained.
#
data_2242289
loop_
_publ_author_name
'Zheoat, Ahmed M.'
'Gray, Alexander I.'
'Igoli, John O.'
'Kennedy, Alan R.'
'Ferro, Valerie A.'
_publ_section_title
;
 Crystal structures of hibiscus acid and hibiscus acid dimethyl ester
 isolated from <i>Hibiscus sabdariffa</i> (Malvaceae)
;
_journal_coeditor_code           ZS2386
_journal_issue                   9
_journal_name_full               'Acta Crystallographica Section E'
_journal_page_first              1368
_journal_page_last               1371
_journal_paper_doi               10.1107/S2056989017011902
_journal_volume                  73
_journal_year                    2017
_chemical_formula_iupac          'C6 H6 O7, C2 H6 O S'
_chemical_formula_moiety         'C6 H6 O7, C2 H6 O S'
_chemical_formula_sum            'C8 H12 O8 S'
_chemical_formula_weight         268.24
_chemical_name_common
'Hibiscus acid dimethyl sulfoxide monosolvate'
_chemical_name_systematic
;
(2<i>S</i>,3<i>R</i>)-3-Hydroxy-5-oxo-2,3,4,5-tetrahydrofuran-2,3-dicarboxylic
acid dimethyl sulfoxide monosolvate
;
_space_group_crystal_system      monoclinic
_space_group_IT_number           4
_space_group_name_Hall           'P 2yb'
_space_group_name_H-M_alt        'P 1 21 1'
_symmetry_space_group_name_Hall  'P 2yb'
_symmetry_space_group_name_H-M   'P 1 21 1'
_atom_sites_solution_hydrogens   mixed
_audit_creation_method           SHELXL-2014/7
_cell_angle_alpha                90
_cell_angle_beta                 94.092(3)
_cell_angle_gamma                90
_cell_formula_units_Z            2
_cell_length_a                   5.4258(2)
_cell_length_b                   8.9491(3)
_cell_length_c                   11.4365(3)
_cell_measurement_reflns_used    2057
_cell_measurement_temperature    123(2)
_cell_measurement_theta_max      72.8390
_cell_measurement_theta_min      6.2800
_cell_volume                     553.90(3)
_computing_cell_refinement
;
CrysAlis PRO (Oxford Diffraction, 2010)
;
_computing_data_collection
;
CrysAlis PRO (Oxford Diffraction, 2010)
;
_computing_data_reduction
;
CrysAlis PRO (Oxford Diffraction, 2010)
;
_computing_molecular_graphics
;
Mercury (Macrae <i>et al.</i>,  2008)
;
_computing_publication_material
;
SHELXL2014 (Sheldrick, 2015)
;
_computing_structure_refinement
;
SHELXL2014 (Sheldrick, 2015)
;
_computing_structure_solution
;
SIR92 (Altomare <i>et al.</i>,  1993)
;
_diffrn_ambient_temperature      123(2)
_diffrn_measured_fraction_theta_full 0.994
_diffrn_measured_fraction_theta_max 0.988
_diffrn_measurement_device_type  'Oxford Diffraction Gemini S CCD'
_diffrn_measurement_method       '\w scans'
_diffrn_radiation_type           CuK\a
_diffrn_radiation_wavelength     1.5418
_diffrn_reflns_av_R_equivalents  0.0542
_diffrn_reflns_limit_h_max       6
_diffrn_reflns_limit_h_min       -6
_diffrn_reflns_limit_k_max       8
_diffrn_reflns_limit_k_min       -10
_diffrn_reflns_limit_l_max       14
_diffrn_reflns_limit_l_min       -14
_diffrn_reflns_number            4397
_diffrn_reflns_theta_full        70.000
_diffrn_reflns_theta_max         72.769
_diffrn_reflns_theta_min         3.875
_diffrn_standards_number         0
_exptl_absorpt_coefficient_mu    2.935
_exptl_absorpt_correction_T_max  1.0000
_exptl_absorpt_correction_T_min  0.5539
_exptl_absorpt_correction_type   multi-scan
_exptl_absorpt_process_details
;
(CrysAlis PRO; Oxford Diffraction, 2010)
;
_exptl_crystal_colour            colourless
_exptl_crystal_density_diffrn    1.608
_exptl_crystal_description       'fragment from a square plate'
_exptl_crystal_F_000             280
_exptl_crystal_size_max          0.30
_exptl_crystal_size_mid          0.15
_exptl_crystal_size_min          0.05
_refine_diff_density_max         0.435
_refine_diff_density_min         -0.253
_refine_ls_abs_structure_details
;
Flack <i>x</i> determined using 698 quotients [(I+)-(I-)]/[(I+)+(I-)]
(Parsons <i>et al.</i>,  2013)
;
_refine_ls_abs_structure_Flack   0.00(4)
_refine_ls_extinction_method     none
_refine_ls_goodness_of_fit_ref   1.045
_refine_ls_hydrogen_treatment    mixed
_refine_ls_matrix_type           full
_refine_ls_number_parameters     169
_refine_ls_number_reflns         1854
_refine_ls_number_restraints     4
_refine_ls_restrained_S_all      1.044
_refine_ls_R_factor_all          0.0569
_refine_ls_R_factor_gt           0.0473
_refine_ls_shift/su_max          0.000
_refine_ls_shift/su_mean         0.000
_refine_ls_structure_factor_coef Fsqd
_refine_ls_weighting_details
'w=1/[\s^2^(Fo^2^)+(0.0678P)^2^] where P=(Fo^2^+2Fc^2^)/3'
_refine_ls_weighting_scheme      calc
_refine_ls_wR_factor_gt          0.1079
_refine_ls_wR_factor_ref         0.1132
_reflns_number_gt                1640
_reflns_number_total             1854
_reflns_threshold_expression     'I > 2\s(I)'
_cod_data_source_file            zs2386sup1.cif
_cod_data_source_block           I
_cod_database_code               2242289
_shelx_space_group_comment
;
The symmetry employed for this shelxl refinement is uniquely defined
by the following loop, which should always be used as a source of
symmetry information in preference to the above space-group names.
They are only intended as comments.
;
_shelx_hkl_file
;
   0 -10  -3 5300.46 3935.91  10
   0 -10  -5 4771.11 2441.64  10
   0  -9   0 127.909 1367.80  10
   0  -9  -1 52906.3 3317.19  10
   0  -9   1 60182.2 3268.06  10
   0  -9  -2 9285.73 1914.68  10
   0  -9  -3 16570.3 2198.04  10
   0  -9  -4 22058.7 2383.23  10
   0  -9   4 22849.0 3048.01  22
   0  -9   5 37894.2 3093.60  22
   0  -9  -6-1029.65 2485.99  10
   0  -9   6 404.575 2493.46  22
   0  -9   6 2470.21 886.821   7
   0  -9   7 1357.06 1764.53  22
   0  -9   7 2302.27 772.477   7
   0  -8   0 39223.7 2840.25  10
   0  -8   0 47634.2 7909.12   3
   0  -8   1 22651.1 2212.59  10
   0  -8  -1 21859.1 2312.06  10
   0  -8  -2-141.361 1390.06  10
   0  -8   2 21253.8 5835.57   3
   0  -8  -3 11687.9 1938.36  10
   0  -8   3 32113.9 2922.04  22
   0  -8  -4 50171.6 3133.50  10
   0  -8   4 46784.8 3679.46  22
   0  -8   5 3929.98 1189.78   7
   0  -8  -5 6360.78 1589.34  10
   0  -8   6 2335.66 1152.62   7
   0  -8   6 5433.79 2939.92  22
   0  -8   7 36049.4 3210.97  22
   0  -8   7 30372.2 2053.76   7
   0  -8  -7 35839.3 2892.12  10
   0  -8   8 1816.69 905.508   7
   0  -8   9 316.838 699.626   7
   0  -7   0 3518.77 4241.09   3
   0  -7   1 23635.6 6095.47   3
   0  -7  -1 24019.3 5901.24   3
   0  -7   2 72751.4 8660.26   3
   0  -7  -2 62747.0 7431.35   3
   0  -7   3 61462.2 3343.65  22
   0  -7  -3 70169.2 3581.86  10
   0  -7  -4 92047.7 4113.81  10
   0  -7   4 87663.7 3857.72  22
   0  -7   5 15009.1 1834.83   7
   0  -7  -5 19236.8 2029.19  10
   0  -7   6 3050.60 1246.16   7
   0  -7   6 9368.54 2909.59  22
   0  -7  -6 6970.60 1522.73  10
   0  -7  -7 15990.9 1631.55  12
   0  -7   7 15803.6 3204.91  22
   0  -7   7 13084.5 1736.56   7
   0  -7   8 40925.1 2466.50   7
   0  -7   8 36827.9 3420.39  22
   0  -7  -8 40396.6 2315.14  12
   0  -7  -9 1976.06 939.863  12
   0  -7   9 1342.95 976.116   7
   0  -7  10 4124.96 901.108   7
   0  -6   0 120064. 9676.40   3
   0  -6  -1 44927.6 6270.57   3
   0  -6   1 34465.0 6258.40   3
   0  -6   2 201.527 4362.12   3
   0  -6  -2 2607.75 2861.59   3
   0  -6   3 27483.6 5615.15   3
   0  -6   4 65985.6 7349.85   3
   0  -6  -4 55306.0 6165.49  16
   0  -6   5 25743.9 4848.76   3
   0  -6  -5 7994.04 2912.57  16
   0  -6  -6 33417.5 2378.60  12
   0  -6  -6 33736.4 2400.51  10
   0  -6   6 37980.2 3030.15  22
   0  -6  -6 35463.9 5568.79  16
   0  -6   7 20570.6 3011.82  22
   0  -6  -7 21070.1 1902.63  12
   0  -6  -7 25289.4 4635.31  16
   0  -6   8 18961.6 3208.47  22
   0  -6   8 23544.6 1818.09  23
   0  -6  -8 24547.6 2001.51  12
   0  -6   9 6085.89 1076.58  23
   0  -6  -9 4924.65 1283.05  12
   0  -6  10 40664.5 1931.37  23
   0  -6 -10 39038.6 2122.28  12
   0  -6  10 38402.9 2132.46   7
   0  -6  11 13456.5 1146.52   7
   0  -5   0-2259.92 3556.07   3
   0  -5   1 44646.5 5750.03   3
   0  -5  -1 44776.4 5368.86   3
   0  -5  -2 153033. 9006.97   3
   0  -5  -2 142226. 8029.75  16
   0  -5   2 167865. 10087.8   3
   0  -5   3 40155.9 4244.35   5
   0  -5   3 41948.8 5531.04   3
   0  -5  -3 32259.4 4348.20  16
   0  -5  -4 5763.15 2751.35  16
   0  -5   4 1870.06 2312.47   5
   0  -5   4 3457.35 3066.07   3
   0  -5   5 142467. 10079.7   5
   0  -5  -5 171349. 10773.0  16
   0  -5   6 16812.0 4307.98   5
   0  -5  -6 23909.0 4580.34  16
   0  -5   7 14621.0 4280.27   5
   0  -5   7 19699.1 1626.37   8
   0  -5  -7 22168.9 4303.12  16
   0  -5  -7 20903.9 1963.69  12
   0  -5   7 25394.2 2539.96  22
   0  -5   7 16693.9 1664.80  23
   0  -5  -8 696.546 2269.95  16
   0  -5  -8 1263.22 1183.38  12
   0  -5   8 5962.22 3272.65   5
   0  -5   8 2019.26 1034.58  23
   0  -5   8-17.2698 2482.02  22
   0  -5  -9 23514.3 2045.79  12
   0  -5   9 28457.6 1919.76  23
   0  -5  -9 23810.3 1744.00   6
   0  -5  10 3256.98 993.879  23
   0  -5 -10 2122.38 931.236   6
   0  -5 -10 1691.05 1142.07  12
   0  -5  11 7858.36 1068.65  23
   0  -5 -11 7291.83 960.254   6
   0  -5  12 28472.1 1388.24  23
   0  -5 -12 26493.2 1256.14   6
   0  -5  12 25230.8 1360.61   7
   0  -4   0 76648.8 3964.69   5
   0  -4   0 79628.0 6087.51   3
   0  -4  -1 16588.8 3377.62   3
   0  -4  -1 19324.4 2652.68  16
   0  -4   1 16761.4 3731.62   3
   0  -4   1 20104.8 2252.59   5
   0  -4  -2 66842.1 5188.78  16
   0  -4  -2 74543.1 5533.59   3
   0  -4   2 68684.4 5957.46   3
   0  -4   2 75796.6 4788.51   5
   0  -4  -3 483292. 16882.1  16
   0  -4   3 537384. 17446.7   3
   0  -4   3 511510. 16814.4   5
   0  -4   4 12504.6 3171.49   3
   0  -4   4 10989.7 3135.15   5
   0  -4  -4 11644.9 3156.39  16
   0  -4  -5 7964.70 3045.48  16
   0  -4   5 5070.93 2934.12   5
   0  -4   5 11838.9 2912.17   3
   0  -4   5 8303.98 2935.62  17
   0  -4   6 87960.7 7002.83  17
   0  -4  -6 77002.9 7155.16  16
   0  -4   7 33553.9 5743.80   5
   0  -4  -7 49179.7 5882.65  16
   0  -4   8 1089.20 794.284   8
   0  -4   8-1192.24 1952.53  22
   0  -4  -8 750.871 1030.56   6
   0  -4   8 512.832 916.596  23
   0  -4  -8 1430.82 2430.88  16
   0  -4   8 545.751 2497.93   5
   0  -4  -8 1019.06 1138.70  12
   0  -4   9 6820.13 1253.23  23
   0  -4  -9 6242.56 1351.78  12
   0  -4  -9 5321.95 1223.45   6
   0  -4   9 1987.79 2688.81   5
   0  -4 -10 25621.6 1807.85   6
   0  -4  10 26310.5 1872.46  23
   0  -4 -10 26290.2 2115.17  12
   0  -4 -11 6864.14 1122.73   6
   0  -4  11 6688.39 1124.70  23
   0  -4  12 5047.67 939.280  23
   0  -4  12 3888.75 763.186   7
   0  -4 -12 4522.71 900.624   6
   0  -4  13 11807.1 876.691  23
   0  -4 -13 11487.5 840.101   6
   0  -3   0 778.014 1854.86   3
   0  -3  -1 676935. 15000.5  14
   0  -3  -1 612643. 12691.1  16
   0  -3   1 656121. 14830.5   3
   0  -3  -1 637336. 14302.1   3
   0  -3  -2 2895.53 1874.54  16
   0  -3   2 3594.17 1582.03   5
   0  -3   2 4043.55 2059.74   3
   0  -3  -2 3403.07 1628.16   3
   0  -3  -2 4009.98 1249.22   1
   0  -3  -2 3954.07 2008.27  14
   0  -3  -2 323.040 882.708   5
   0  -3   3 69037.6 5012.28   3
   0  -3  -3 69951.6 5358.16  16
   0  -3   3 68416.5 5196.92   5
   0  -3  -3 72260.8 3952.14   1
   0  -3   3 72858.7 4582.94  17
   0  -3  -4 1062.65 2269.02  16
   0  -3   4 136.649 1908.34   3
   0  -3   4 959.631 1881.82  17
   0  -3   5 92985.3 6421.14  17
   0  -3   5 100172. 6042.39   3
   0  -3  -5 100073. 7403.56  16
   0  -3   6 195304. 9897.62  17
   0  -3  -6 206047. 11237.1  16
   0  -3   7 15268.8 3325.85  17
   0  -3  -7 14387.0 3810.51  16
   0  -3  -8 3732.80 2163.18  16
   0  -3  -9 93495.2 3817.98  12
   0  -3   9 81054.8 3548.90  22
   0  -3  -9 93064.3 8270.70  16
   0  -3   9 91026.1 3461.67  23
   0  -3   9 90356.8 3398.01   8
   0  -3  -9 83170.9 3367.12   6
   0  -3  10 8335.44 1330.04  23
   0  -3 -10 7246.00 1470.66  12
   0  -3 -10 7153.32 1295.42   6
   0  -3 -11 12858.5 1435.18   6
   0  -3  11 14361.7 1458.40  23
   0  -3 -12 38919.4 1979.10   6
   0  -3  12 41618.5 2007.87  23
   0  -3  13 760.439 728.566  23
   0  -3 -13 1153.82 761.518   6
   0  -2   0 845584. 19343.1  14
   0  -2  -1 122528. 4296.97   1
   0  -2  -2 151537. 6518.69  16
   0  -2   2 158692. 6315.15   3
   0  -2  -2 147676. 5022.87   1
   0  -2  -3 657382. 18250.0  16
   0  -2   3 665997. 16779.4   3
   0  -2   3 661505. 16539.6  17
   0  -2   3 639982. 17178.9   2
   0  -2  -3 637437. 15661.1   1
   0  -2   4 502766. 14604.8  17
   0  -2  -4 563013. 16982.6  14
   0  -2   4 449810. 15051.8   2
   0  -2  -4 504973. 16108.2  16
   0  -2  -4 490708. 13872.4   1
   0  -2   4 512657. 13808.9   3
   0  -2   5 6541.30 2512.78  17
   0  -2   5 8317.65 3005.29   2
   0  -2  -5 7903.19 2805.71  16
   0  -2   6 169492. 9415.40   2
   0  -2   6 159397. 8638.72  17
   0  -2  -6 175876. 9649.39  16
   0  -2   7 29009.2 4120.35  17
   0  -2  -7 27308.9 4486.17  16
   0  -2   7 29131.5 4626.33   2
   0  -2  -8 22856.2 4249.91  16
   0  -2   8 22972.4 4499.75   2
   0  -2   8 24451.7 3854.30  17
   0  -2  -9 34653.0 2164.87   6
   0  -2   9 37658.9 2104.45  23
   0  -2  -9 35385.5 2360.77  12
   0  -2  -9 33707.5 5067.19  16
   0  -2  -9 30657.0 2326.78  21
   0  -2   9 34886.6 2004.76   8
   0  -2   9 31354.2 4195.24  17
   0  -2 -10 41309.4 2340.00   6
   0  -2  10 43304.7 2285.26  23
   0  -2 -10 44681.5 2584.87  12
   0  -2 -11 6663.72 1256.07   6
   0  -2  11 8493.06 1218.82  23
   0  -2 -12 1813.12 1043.02   6
   0  -2  12 2566.88 991.891  23
   0  -2 -13 10010.6 1074.37   6
   0  -2  13 10039.3 1025.83  23
   0  -1  -1 45131.8 1832.31   1
   0  -1  -2 408064. 9887.68   1
   0  -1  -2 428188. 11769.1  14
   0  -1  -3 143066. 5950.42  14
   0  -1  -3 127525. 4762.97   1
   0  -1  -3 131106. 5659.30  16
   0  -1  -4 301684. 10552.9   1
   0  -1  -4 305679. 9953.36  18
   0  -1   4 292964. 10645.8  17
   0  -1   4 313112. 10962.7   2
   0  -1   5 66492.0 5006.37  17
   0  -1   5 69914.8 5413.52   2
   0  -1  -5 63295.6 4595.83  18
   0  -1  -5 70596.6 5160.57  14
   0  -1  -5 60057.9 5095.02   1
   0  -1  -5 67520.4 5318.04  16
   0  -1  -6 232755. 10631.3  16
   0  -1  -6 208935. 9465.70  18
   0  -1   6 228857. 10477.2   2
   0  -1   6 240331. 10274.4  17
   0  -1  -7 388.733 1520.31  18
   0  -1   7-182.011 1832.83  17
   0  -1   7 1556.90 2538.38   2
   0  -1  -7 474.514 2052.37  16
   0  -1  -8 119946. 8366.15  16
   0  -1   8 114805. 8128.83   2
   0  -1   8 116582. 7796.48  17
   0  -1   9 185817. 10780.6   2
   0  -1   9 194453. 10524.8  17
   0  -1  10 16421.9 4160.69   2
   0  -1  10 20007.5 3668.60  17
   0  -1 -10 17958.8 1638.55   6
   0  -1  10 18468.5 1556.68  23
   0  -1 -10 12013.0 1866.64  21
   0  -1 -11 32373.2 2061.09   6
   0  -1  11 30440.7 1917.65  23
   0  -1 -12 43456.8 2222.00   6
   0  -1  12 45175.7 2193.64  23
   0  -1 -13 1149.89 807.658   6
   0  -1  13 1587.63 754.509  23
   0  -1 -14 6198.96 698.026   6
   0   0  -1 169594. 4224.48  14
   0   0  -2 132213. 4334.47  14
   0   0  -3 106342. 4473.09  14
   0   0  -4 84886.0 5012.23  18
   0   0   4 86918.3 5157.19   2
   0   0  -4 95649.1 4643.13  14
   0   0  -4 86959.2 4968.15  16
   0   0   4 88465.0 5194.84  17
   0   0   5-111.672 2042.95  17
   0   0   5 1701.84 2201.61   2
   0   0  -5 1089.82 1688.95  18
   0   0  -5 415.674 1603.60  16
   0   0   6 27882.7 3959.86   2
   0   0   6 27930.6 3883.87  17
   0   0  -6 23620.7 3564.55  18
   0   0  -6 28200.3 3684.02  16
   0   0  -7 42439.0 4636.33  16
   0   0   7 39756.3 4796.33   2
   0   0  -7 36344.4 4468.50  18
   0   0   7 39403.5 4873.08  17
   0   0  -8 1564.08 2183.70  18
   0   0   8 7373.19 2820.29  17
   0   0   8 2857.14 2949.20   2
   0   0   9 3198.47 3173.93   2
   0   0   9 6451.02 2721.97  17
   0   0  -9 1786.67 2133.46  18
   0   0  10 15142.6 3975.64   2
   0   0 -10 11873.4 1888.63  21
   0   0  10 9029.67 3000.66  17
   0   0  10 12813.9 1397.96  23
   0   0 -10 11205.8 1442.06   6
   0   0  11 8130.56 1217.34  23
   0   0 -11 9166.19 1300.07   6
   0   0  12 3922.90 1020.37  23
   0   0 -12 3813.06 1049.76   6
   0   0  13 759.072 705.900  23
   0   0 -13 745.347 745.075   6
   0   1   0 1184.35 686.174  14
   0   1   1 49968.2 2908.72  14
   0   1  -1 53203.3 1943.88  14
   0   1   1 45571.8 1886.63   1
   0   1   2 404078. 11231.5  14
   0   1  -3 91866.2 2955.74  14
   0   1   3 112437. 4829.74   2
   0   1   4 321799. 10065.2   2
   0   1   4 301063. 10094.7  17
   0   1   5 50655.0 4427.52  17
   0   1  -5 55231.0 4829.30  18
   0   1   5 53971.7 4552.83   2
   0   1   6 219300. 10023.0  17
   0   1  -6 226079. 10665.2  18
   0   1   6 219044. 9892.11   2
   0   1   7 1126.42 2709.82  17
   0   1   7 357.557 2417.39   2
   0   1  -7 1518.98 2277.15  18
   0   1   8 116242. 8330.20  17
   0   1   8 106382. 7606.87   2
   0   1  -8 98448.2 7863.19  18
   0   1   9 178436. 10327.6   2
   0   1   9 196216. 11027.9  17
   0   1  -9 172618. 10818.7  18
   0   1 -10 22078.2 2212.48  21
   0   1  10 17183.8 3736.33  17
   0   1 -10 17049.4 1508.69   6
   0   1  10 12699.1 3627.73   2
   0   1  10 19084.4 1547.67  23
   0   1 -10 19530.7 4385.37  18
   0   1 -11 32034.6 2498.68  21
   0   1 -11 37214.1 2033.64   6
   0   1  11 33296.9 1939.07  23
   0   1  12 41640.1 2018.89  23
   0   1 -12 43136.5 2543.76  21
   0   2   0 972898. 21376.2  14
   0   2   0 876926. 19645.4   1
   0   2   1 137726. 6047.08  14
   0   2  -1 146269. 5289.46  14
   0   2  -2 150723. 6309.11  18
   0   2   2 148940. 5228.15   1
   0   2   3 596626. 14353.9   2
   0   2  -3 664409. 16635.4  18
   0   2   4 479003. 13935.6   2
   0   2   4 493989. 14660.8  17
   0   2   5 6415.14 2487.48   2
   0   2   5 5905.90 2513.13  17
   0   2  -5 6532.52 2582.76  18
   0   2   6 154729. 8141.30   2
   0   2   6 153223. 8428.82  17
   0   2  -6 170658. 9616.31  18
   0   2  -7 16966.8 3896.67  18
   0   2   7 19175.8 3607.45   2
   0   2   7 19064.6 4008.90  17
   0   2   8 24526.9 4184.03   2
   0   2   8 29181.4 4916.83  17
   0   2  -8 21437.6 4221.35  18
   0   2   9 28703.8 4784.98   2
   0   2   9 37806.8 5635.79  17
   0   2  -9 37475.4 2606.09  21
   0   2  -9 38653.0 5607.54  18
   0   2 -10 42289.5 5868.89  18
   0   2 -10 33011.5 2716.55  21
   0   2  10 35818.1 5759.76  17
   0   2  10 28668.9 5064.26   2
   0   2 -11 5998.71 1816.22  21
   0   2 -12-1417.92 1658.51  21
   0   2 -13 10300.4 970.628  19
   0   3   0 74.2997 1118.37  14
   0   3   0-77.8086 970.124   1
   0   3   1 707492. 17493.2   1
   0   3  -1 781340. 19475.2  14
   0   3   1 823378. 21031.1  14
   0   3  -1 699217. 18103.9   1
   0   3   2 5826.64 1474.74   1
   0   3  -2 5730.81 1903.33  18
   0   3  -2 10188.7 1957.21  14
   0   3  -2 7197.03 1902.11   1
   0   3   2 6860.99 2384.17  14
   0   3   3 64390.1 4166.38   2
   0   3  -3 70801.6 5143.90  18
   0   3   3 62084.7 4001.57   1
   0   3  -4 1150.68 2114.11  18
   0   3   4 2162.14 2001.60   2
   0   3  -5 97947.1 7184.51  18
   0   3   5 89861.0 6422.65  17
   0   3   5 95310.9 6078.27   2
   0   3  -6 198086. 11024.5  18
   0   3   6 190553. 9435.59   2
   0   3   6 181599. 9808.98  17
   0   3  -7 18535.5 4023.05  18
   0   3   7 15280.3 4136.79  17
   0   3   7 14731.2 3614.90   2
   0   3   8 115.802 3420.01  17
   0   3  -8 877.822 2685.37  18
   0   3   8-620.806 2452.47   2
   0   3   9 91954.3 8237.78  17
   0   3  -9 95880.7 8381.12  18
   0   3  -9 86849.1 3752.73  21
   0   3 -10 7887.85 2132.06  21
   0   3 -11 16069.3 2003.06  21
   0   3 -12 40842.8 2281.72  21
   0   3 -13 319.902 659.107  19
   0   4   0 81385.1 4891.93   1
   0   4  -1 21636.4 3223.84  14
   0   4   1 18904.2 2524.41   1
   0   4  -2 70462.0 4866.11  18
   0   4   3 522318. 14878.2   2
   0   4  -3 493342. 16256.7  18
   0   4   4 16045.1 2889.27   2
   0   4  -4 13795.3 3315.46  18
   0   4   5 7792.22 3205.23  17
   0   4  -5 8709.07 2992.97  18
   0   4   5 7642.57 2662.68   2
   0   4   6 76407.6 6861.56  17
   0   4  -6 82258.3 7292.54  18
   0   4   6 76174.3 6286.76   2
   0   4   7 42962.2 5745.91  17
   0   4  -7 48274.8 6097.39  18
   0   4  -8 3551.79 2950.90  18
   0   4  -8 583.463 1346.72  21
   0   4   8-1307.75 3695.39  17
   0   4   9 12837.1 4753.62  17
   0   4  -9 8786.01 1907.38  21
   0   4  -9 13060.7 3520.63  18
   0   4 -10 29694.3 2479.80  21
   0   4 -11 8539.05 1616.75  21
   0   4 -12 2291.17 1171.87  21
   0   4 -13 11214.7 890.772  19
   0   5  -4 2553.38 2457.29  18
   0   5  -5 205387. 11383.5  18
   0   5   5 176409. 10384.9  17
   0   5   6 26617.3 4763.18  17
   0   5  -6 24215.4 4581.90  18
   0   5   7 26706.2 4800.20  17
   0   5  -7 24725.7 4759.97  18
   0   5  -7 15734.0 4091.53  15
   0   5   8 5373.90 3320.28  17
   0   5  -8 586.493 1937.34  18
   0   5 -12 30015.9 1518.87  19
   0   6   5 8244.74 3165.61  17
   0   6  -6 28336.2 5397.24  15
   0   6   6 35747.3 5456.47  17
   0   6   7 14856.3 4131.05  17
   0   6  -7 11642.1 4006.75  15
   0   6 -10 42287.2 2055.52  19
   0   6 -11 14244.4 1114.41  19
   0   7   0-3324.38 2659.30  15
   0   7  -1 24477.8 4546.29  15
   0   7  -4 84105.1 8585.71  15
   0   7   5 28033.2 4755.36  17
   0   7  -5 16555.5 4540.73  15
   0   8  -1 18175.0 4972.29  15
   0   8  -2 542.588 2066.98  15
   1 -10  -5 20039.7 2583.00  10
   1 -10  -4 30688.9 3344.18  10
   1 -10  -3 78414.4 4398.11  10
   1 -10  -2 2056.18 3220.55  10
   1 -10  -1 7399.24 3069.89  10
  -1 -10   1 6078.76 1294.27  10
   1 -10   0 13127.9 2743.78  10
  -1 -10   0 10463.3 1625.76  10
  -1 -10  -1-69.5522 1241.56  10
  -1 -10  -2 5186.17 1475.05  10
  -1 -10  -3 32224.7 2215.16  10
   1 -10   3 33466.3 2658.04  22
   1 -10   4 8095.17 2112.23  22
   1 -10   5-190.186 1695.25  22
  -1 -10  -5-2358.84 1962.64  10
  -1  -9   8 2079.42 638.775   7
  -1  -9   7 54.9849 814.088   7
  -1  -9   6 29560.0 1846.80   7
   1  -9  -6 46130.6 3562.17  10
   1  -9  -5-1239.32 3531.02  10
  -1  -9   5 4461.89 1161.82   7
  -1  -9   4 13438.4 1512.45   7
   1  -9  -4-4631.84 4573.76  10
   1  -9  -2 3823.11 4473.45  10
  -1  -9   2 31237.2 2267.76  10
  -1  -9   1-146.102 1292.63  10
   1  -9   0-5247.31 4111.09  10
  -1  -9   0 8568.55 1722.74  10
   1  -9   1 30815.0 2755.83  22
  -1  -9  -1 23650.9 2370.09  10
  -1  -9  -2 19431.6 2238.91  10
   1  -9   2 36650.9 2831.31  22
   1  -9   3 32467.7 2705.50  22
  -1  -9  -3 2430.95 1457.25  10
  -1  -9  -4 17165.9 1916.67  10
   1  -9   4 24566.8 3073.13  22
   1  -9   5 21437.9 2916.74  22
  -1  -9  -5 19008.4 1821.26  10
  -1  -9  -6 16409.9 2197.76  10
   1  -9   6 32950.0 2754.60  22
  -1  -8   9-170.283 845.377   7
  -1  -8   8 8462.72 1211.83   7
  -1  -8   7 19854.2 1733.32   7
  -1  -8   7 12957.2 2392.29  22
   1  -8  -6 21971.6 3605.54  10
  -1  -8   6 24385.6 1987.79   7
  -1  -8   6 15835.0 2805.05  22
   1  -8  -5 21445.8 3867.02  10
  -1  -8   5 33465.8 2330.18   7
  -1  -8   4 4535.80 1275.13   7
   1  -8  -3 6461.04 3941.78  10
  -1  -8   3 33837.3 2269.09   7
   1  -8  -2 5678.21 1881.88  10
  -1  -8   2 3688.11 1269.85  10
   1  -8  -1 1907.50 1614.12  10
  -1  -8   1 1369.77 1240.16  10
   1  -8   0 33949.1 2776.48  10
  -1  -8   0 32700.6 2550.27  10
   1  -8   0 38386.5 2324.19  22
   1  -8   1 2599.32 2472.96  22
   1  -8   1 9438.54 4896.73   3
  -1  -8  -2 35593.6 2625.00  10
   1  -8   2 29983.3 2711.36  22
  -1  -8  -3 20962.8 2139.13  10
   1  -8   3 26821.6 2700.37  22
   1  -8   4 22559.5 2749.03  22
  -1  -8  -4 5377.55 1491.62  10
   1  -8   5 31769.0 3239.69  22
  -1  -8  -5 16159.8 1844.12  10
  -1  -8  -6 34882.9 2222.93  12
   1  -8   6 43447.9 3542.12  22
  -1  -8  -6 39438.7 2407.94  10
   1  -8   7 6801.97 2904.60  22
  -1  -8  -7 4231.27 1107.92  12
   1  -8   7 3239.05 997.514   7
  -1  -8  -8 3122.54 899.897  12
   1  -8   8 2734.66 836.808   7
  -1  -8  -9 27877.1 1380.79  12
   1  -8   9 24090.7 1252.47   7
   1  -8   9 29225.9 1986.03  22
  -1  -7  10 5862.10 916.812   7
  -1  -7   9 6431.00 1142.49   7
  -1  -7   8 17896.8 1784.26   7
  -1  -7   8 1078.89 2596.30  22
  -1  -7   7 15.5497 1121.37   7
   1  -7  -7 1974.61 2507.39  10
  -1  -7   6 44625.2 2855.88   7
  -1  -7   6 44471.7 3427.70  22
   1  -7  -6 40599.8 3788.29  10
  -1  -7   5 1808.98 1114.47   7
  -1  -7   4 555.734 984.269   7
   1  -7  -4 2644.41 1502.29  10
  -1  -7   3 68493.6 3171.04   7
   1  -7  -3 65973.1 3729.88  10
  -1  -7   2 32408.5 2359.12  10
   1  -7  -2 32365.6 2683.35  10
   1  -7  -1-5903.06 4908.05   3
   1  -7   0 11732.3 5068.17   3
   1  -7   1-8184.22 5115.13   3
  -1  -7  -2 113397. 4366.42  10
   1  -7   2 102876. 9883.86   3
   1  -7   3-118.692 2233.24  22
  -1  -7  -3 5815.81 1300.73  10
   1  -7   3-2781.88 4110.66   3
  -1  -7  -4 4674.68 1139.63  12
   1  -7   4 5247.59 2205.67  22
  -1  -7  -4 5853.64 1409.00  10
   1  -7   5 25937.9 5332.41   3
   1  -7   5 48212.8 3251.16  22
  -1  -7  -5 41391.1 2616.54  10
  -1  -7  -5 34639.5 2334.54  12
   1  -7   6 23041.5 3305.09  22
  -1  -7  -6 18180.4 1842.60  12
  -1  -7  -7 11639.7 1539.40  12
   1  -7   7 15923.2 3290.77  22
   1  -7   8 6272.58 3011.48  22
  -1  -7  -8 4554.75 1202.34  12
  -1  -7  -9 4058.04 1034.41  12
   1  -7   9 2940.48 938.121   7
  -1  -7 -10 7146.53 994.839  12
   1  -7  10 6364.84 909.151   7
  -1  -6  11 3669.84 765.304   7
  -1  -6  10 19379.8 1530.26   7
  -1  -6   9 867.718 1056.20   7
  -1  -6   8 4207.02 1241.34   7
   1  -6  -8 4392.18 1174.25  12
   1  -6  -7 17788.5 2635.82  10
  -1  -6   7 12771.4 3760.49   5
   1  -6  -7 13206.5 3538.92  16
  -1  -6   7 17425.6 1893.16   7
  -1  -6   7 9921.50 2709.16  22
  -1  -6   6 20009.6 2713.14  22
   1  -6  -6 20015.0 4351.61  16
  -1  -6   6 21763.4 2067.26   7
  -1  -6   6 18345.3 4546.77   5
   1  -6  -6 17197.3 2665.01  10
   1  -6  -5 4172.43 2617.06  16
  -1  -6   5 5721.42 1310.74   7
  -1  -6   5 801.617 2499.90   5
  -1  -6   4 85886.7 7630.63   5
   1  -6  -4 70677.8 6867.90  16
  -1  -6   3 3641.84 2493.03   5
  -1  -6   2 13773.1 2759.16   5
   1  -6  -2 18370.7 4259.87   3
  -1  -6   1 2222.97 1578.44   5
   1  -6  -1 3101.89 2833.91   3
   1  -6   0 133808. 10480.1   3
   1  -6   1 45239.3 6610.87   3
   1  -6   2 48202.8 6527.68   3
   1  -6   3 69093.4 7576.77   3
  -1  -6  -4 12042.0 3534.39  16
   1  -6   4 6163.04 3871.05   3
  -1  -6  -5 23306.9 1880.18  12
   1  -6   5 30528.3 2563.54  22
  -1  -6  -5 19189.2 4362.31  16
   1  -6   5 20293.9 4565.35   3
  -1  -6  -5 25488.6 2021.46  10
  -1  -6  -6 20121.6 4256.13  16
  -1  -6  -6 18972.7 1798.24  12
  -1  -6  -7 3882.36 1278.77  12
   1  -6   7 11131.3 2902.96  22
   1  -6   8 20945.3 3268.12  22
  -1  -6  -8 15015.2 1728.35  12
  -1  -6  -9 27409.7 2044.97  12
   1  -6   9 20834.5 3039.42  22
   1  -6  10-2784.82 2270.82  22
  -1  -6 -10 6958.71 1178.87  12
   1  -6  11 3508.60 779.533   7
   1  -5 -12 11783.8 966.969  13
  -1  -5  12 8492.66 805.172   7
  -1  -5  11 199.726 720.014   7
  -1  -5  10 2269.03 1075.14  23
  -1  -5  10 2422.10 1003.85   7
  -1  -5   9 24095.0 1937.56   7
  -1  -5   9 28134.9 1966.80  23
   1  -5  -9 24336.4 2019.25  12
   1  -5  -8 29907.0 4973.36  16
  -1  -5   8 17374.3 4454.96   5
   1  -5  -8 27913.6 2166.47  12
  -1  -5   8 28993.2 2107.76  23
  -1  -5   8 19857.5 2534.87  22
   1  -5  -7 2791.71 1256.19  12
   1  -5  -7 6.41954 2253.55  16
  -1  -5   7 833.416 2454.27   5
  -1  -5   7 1060.42 935.716  23
  -1  -5   7-1628.65 2245.47  22
   1  -5  -6 49397.0 6268.04  16
  -1  -5   6 37277.0 5845.31   5
   1  -5  -5 88225.7 7845.19  16
  -1  -5   5 95186.7 8423.26   5
  -1  -5   4 20518.8 4015.86   5
   1  -5  -4 15825.8 3322.35  16
  -1  -5   3 39468.2 4646.86   5
   1  -5  -3 39147.9 5041.35   3
   1  -5  -3 32138.7 4073.94  16
   1  -5  -2 20389.0 2999.59  16
  -1  -5   2 28114.7 3762.95   5
   1  -5  -2 20252.9 4270.28   3
  -1  -5   1 43719.6 4176.20   5
   1  -5  -1 41000.3 5729.93   3
  -1  -5   0 5148.16 1880.26   5
   1  -5   0 5391.66 3396.47   3
  -1  -5  -1 43732.1 4009.09   5
   1  -5   1 49051.0 6179.20   3
  -1  -5  -2 104501. 7513.54  16
  -1  -5  -2 110166. 6485.14   5
   1  -5   3 89868.4 7654.68   3
  -1  -5  -3 82778.4 7061.53  16
  -1  -5  -3 95972.9 6302.18   5
   1  -5   4 77246.4 6987.98   3
  -1  -5  -4 68066.3 6697.26  16
  -1  -5  -5 83530.6 7656.66  16
   1  -5   5 71040.4 6788.25   3
  -1  -5  -6 9994.21 3612.04  16
   1  -5   7 1187.20 817.342   8
  -1  -5  -7 1001.39 1032.54  12
  -1  -5  -7 660.473 2565.50  16
   1  -5   8 19782.8 2897.74  22
  -1  -5  -8 21503.9 1954.62  12
  -1  -5  -8 20461.0 1710.17   6
   1  -5   8 20813.7 1602.09   8
  -1  -5  -9 6949.41 1228.74   6
   1  -5   9 6263.61 1065.54   8
  -1  -5  -9 5765.11 1367.91  12
   1  -5   9 6386.67 1148.71  23
  -1  -5 -10 1423.19 953.120   6
   1  -5  10 1312.25 815.737  23
  -1  -5 -10 1553.66 1184.87  12
   1  -5  11 20740.0 1328.04  23
  -1  -5 -11 22978.0 1376.52   6
  -1  -5 -11 24140.1 1660.20  12
   1  -5  12 14849.5 1016.30   7
  -1  -5 -12 16048.2 943.801   6
   1  -4 -13 8057.48 801.748  13
  -1  -4  12 515.967 802.287  23
   1  -4 -12 743.961 751.372   6
   1  -4 -11 15707.6 1372.12   6
  -1  -4  11 16827.5 1546.86  23
  -1  -4  11 13179.3 1282.93   7
  -1  -4  10 1716.66 985.496  23
   1  -4 -10 1006.73 921.857   6
   1  -4  -9 4627.57 2696.11  16
  -1  -4   9 6807.21 3677.43   5
  -1  -4   9 8184.71 1397.65  23
   1  -4  -9 6461.98 1382.47  12
  -1  -4   9 5788.32 2772.90  17
   1  -4  -9 6600.99 1240.10   6
  -1  -4   8 15380.9 1556.87  23
  -1  -4   8 11259.3 1862.22  22
  -1  -4   8 8691.25 3832.87   5
   1  -4  -8 13738.4 1722.70  12
  -1  -4   8 15332.5 3909.04  17
   1  -4  -8 10547.5 3638.27  16
   1  -4  -8 13059.3 1398.04   6
  -1  -4   7 44840.5 6506.96   5
  -1  -4   7 57246.1 6530.03  17
   1  -4  -7 58662.7 6681.01  16
  -1  -4   6 16037.6 4366.83   5
   1  -4  -6 18350.1 4151.99  16
  -1  -4   6 22781.2 4586.75  17
   1  -4  -5 8017.79 2965.02  16
  -1  -4   5 12802.0 3939.31  17
  -1  -4   5 6923.72 3322.68   5
  -1  -4   4 484141. 17695.3   5
   1  -4  -4 419299. 16285.0  16
  -1  -4   3 43102.1 4540.82   5
   1  -4  -3 43443.4 4411.89  16
   1  -4  -3 44043.1 4700.56   3
  -1  -4   2 37248.7 3841.80   5
   1  -4  -2 34226.3 4751.06   3
   1  -4  -2 31501.7 3455.80  16
  -1  -4   2 46817.4 5250.23   3
  -1  -4   1 131591. 6700.90   5
   1  -4  -1 134879. 8519.12   3
  -1  -4   1 135791. 6972.19  14
   1  -4  -1 125196. 5988.91  16
   1  -4   0 64173.8 6047.61   3
  -1  -4   0 57421.2 4111.69   5
  -1  -4   0 52528.5 4111.63  16
  -1  -4   0 66479.5 6083.55   3
  -1  -4  -1 64751.1 4378.04   5
  -1  -4  -1 61339.5 4854.25  16
   1  -4   1 74081.5 6276.73   3
  -1  -4  -2 6454.99 1824.65   5
   1  -4   2 5321.74 2829.01   3
  -1  -4  -2 5811.75 2433.03  16
   1  -4   3 192371. 9911.25   3
  -1  -4  -3 168726. 9405.58  16
  -1  -4  -3 187031. 8536.15   5
   1  -4   4 14271.9 3139.16   3
  -1  -4  -4 13088.3 3155.40  16
  -1  -4  -5 8874.99 3159.28  16
   1  -4   5 7569.29 2825.60   3
  -1  -4  -6 25157.1 4592.46  16
  -1  -4  -7 60140.1 6714.81  16
  -1  -4  -8 31286.1 2255.42  12
   1  -4   8 36174.5 2165.97  23
   1  -4   8 37226.4 2800.07  22
  -1  -4  -8 35112.7 5413.68  16
   1  -4   8 35212.2 2091.53   8
  -1  -4  -9 23050.1 1867.00   6
   1  -4   9 26679.6 1838.58  23
   1  -4   9 25696.1 1791.16   8
  -1  -4  -9 27746.4 2181.68  12
   1  -4  10 6773.40 1168.84  23
  -1  -4 -10 5393.60 1219.34   6
   1  -4  10 6749.94 1090.77   8
  -1  -4 -10 5887.09 1383.83  12
  -1  -4 -11 5536.79 1092.97   6
   1  -4  11 4943.43 1013.50  23
  -1  -4 -11 5667.57 1196.64  12
   1  -4  12 5193.38 800.539  23
  -1  -4 -12 4146.94 843.953   6
   1  -3 -13 16249.8 1143.35   6
  -1  -3  13 14870.9 1120.35  23
  -1  -3  12 2932.80 940.887  23
   1  -3 -12 2436.36 957.467   6
   1  -3 -11 18167.8 1571.64   6
  -1  -3  11 17996.7 1613.58  23
   1  -3 -10 43107.4 2329.78   6
  -1  -3  10 46376.4 2429.96  23
  -1  -3   9 20783.9 4406.80  17
  -1  -3   9 19498.6 1677.27  23
  -1  -3   9 15840.0 4384.55   5
   1  -3  -9 13227.9 3774.33  16
   1  -3  -9 17075.6 1824.64  12
   1  -3  -9 16470.0 1602.69   6
  -1  -3   8 21609.8 4624.25   5
  -1  -3   8 28778.8 4894.45  17
   1  -3  -8 28425.7 4823.40  16
  -1  -3   7 18601.5 4086.99  17
  -1  -3   7 17305.4 4437.61   5
   1  -3  -7 21700.0 4188.34  16
  -1  -3   6 28946.4 5154.66   5
  -1  -3   6 32594.4 4770.15  17
   1  -3  -6 33311.7 4803.49  16
   1  -3  -5 65637.5 6028.19  16
  -1  -3   5 68903.8 6049.44  17
  -1  -3   5 61203.6 6642.16   5
  -1  -3   4 46667.5 4814.00  17
   1  -3  -4 41557.4 4612.05  16
  -1  -3   4 47708.8 5041.42   5
   1  -3  -3-717.623 1737.41   3
   1  -3  -3 623.935 1771.08  16
  -1  -3   3 542.040 1952.81   5
  -1  -3   3 1548.23 2262.95  17
   1  -3  -2 154807. 7012.41  16
  -1  -3   2 167977. 7461.18   5
   1  -3  -2 163610. 8241.86   3
  -1  -3   1 840110. 20696.4   5
   1  -3  -1 784533. 19737.7  16
  -1  -3   1 779789. 22058.9   3
   1  -3  -1 802003. 22737.7   3
  -1  -3   0 147117. 5947.28   1
   1  -3   0 168880. 7823.38   3
  -1  -3   0 165265. 7353.31  14
  -1  -3   0 133592. 5179.77   4
  -1  -3   0 144684. 5573.04   5
   1  -3   1 76710.9 5580.68   3
  -1  -3  -1 62264.7 4330.44  16
  -1  -3  -1 61838.7 5240.87  14
  -1  -3  -1 61212.1 3938.59   5
  -1  -3  -1 73287.8 4510.97   1
   1  -3   2 39682.4 4127.09   3
  -1  -3  -2 31548.0 3030.09   5
  -1  -3  -2 30156.3 3487.39  16
  -1  -3  -3 4376.08 1751.38   5
   1  -3   3 6167.90 2342.62   3
  -1  -3  -3 5509.58 2418.00  16
   1  -3   4 228497. 9853.22   3
  -1  -3  -4 214367. 10383.0  16
  -1  -3  -5 83202.7 6730.03  16
   1  -3   5 74102.0 6213.76   2
  -1  -3  -6 48318.7 5671.10  16
   1  -3   6 45756.1 5514.48   2
  -1  -3  -7 12001.3 3569.11  16
   1  -3   8 84575.3 3317.14   8
  -1  -3  -8 88304.7 7932.87  16
  -1  -3  -9 14585.3 1618.01   6
   1  -3   9 15762.4 1472.51  23
  -1  -3  -9 16295.3 1752.69  12
  -1  -3  -9 13728.2 1561.99  20
   1  -3   9 16669.0 1489.52   8
  -1  -3  -9 18627.0 4120.44  16
  -1  -3 -10 2510.41 1163.44  12
  -1  -3 -10 1970.68 1092.48   6
   1  -3  10 1941.69 916.065   8
   1  -3  10 2592.65 996.290  23
  -1  -3 -11 41153.5 2180.12   6
   1  -3  11 40961.4 2113.69  23
  -1  -3 -11 40830.8 2350.77  12
   1  -3  12 1896.14 852.403  23
  -1  -3 -12 1801.91 932.351   6
   1  -3  13 1723.73 637.144  23
  -1  -3 -13 1456.98 680.207   6
   1  -2 -13 16713.4 1241.34   6
  -1  -2  13 16653.0 1134.04  23
  -1  -2  12 9698.48 1134.02  23
   1  -2 -12 7981.52 1263.81   6
  -1  -2  11 6634.55 1174.71  23
   1  -2 -11 5929.43 1250.25   6
  -1  -2  10 61493.9 2810.62  23
   1  -2 -10 63440.7 2836.84   6
   1  -2 -10 63722.3 7052.41  16
  -1  -2  10 68949.8 6649.29  17
  -1  -2   9 13353.9 1458.45  23
  -1  -2   9 17115.1 3765.93  17
  -1  -2   9 14007.1 4058.20   5
   1  -2  -9 14708.8 3739.38  16
   1  -2  -9 13642.2 1511.78   6
  -1  -2   8 16715.1 4524.99   5
  -1  -2   8 19287.2 3850.35  17
   1  -2  -8 22284.9 4518.76  16
   1  -2  -7 136750. 9189.62  16
  -1  -2   7 122234. 8519.81  17
  -1  -2   7 116920. 9331.38   5
  -1  -2   6 114822. 7886.19  17
  -1  -2   6 118319. 8955.98   5
   1  -2  -5 35207.9 3445.85  18
   1  -2  -5 33212.6 4197.56  16
  -1  -2   5 30885.4 4563.05   5
  -1  -2   5 31328.7 4129.29  17
  -1  -2   4 150199. 8447.93   5
  -1  -2   4 160403. 7852.98  17
   1  -2  -4 147543. 7731.58  16
   1  -2  -4 151171. 6414.03  18
   1  -2  -3 31388.1 3312.48  16
   1  -2  -3 34216.1 2580.10  18
  -1  -2   3 35115.4 3495.24  17
  -1  -2   3 35803.6 3705.27   5
  -1  -2   2 15940.0 1697.25  14
  -1  -2   2 11659.8 2051.54   5
   1  -2  -2 17014.0 2232.78  16
  -1  -2   2 13731.7 2230.83  17
   1  -2  -2 13452.8 2349.74   3
  -1  -2   1 817744. 13489.9   5
   1  -2  -1 799867. 15097.1   3
  -1  -2   1 806368. 13529.0   1
  -1  -2   0 849469. 19509.6   5
  -1  -2   0 847150. 19839.2   1
  -1  -2  -1 161078. 6286.84   1
  -1  -2  -1 171843. 6355.30   4
  -1  -2  -1 167668. 6227.14   5
  -1  -2  -2 87291.6 4333.32   5
  -1  -2  -2 92592.9 5926.15  14
  -1  -2  -2 101070. 4861.47   1
   1  -2   2 94500.1 5134.51   3
  -1  -2  -2 87792.0 4704.81   4
   1  -2   3 15994.9 2885.74   2
   1  -2   3 15419.5 2541.45   3
  -1  -2  -3 13709.6 2532.07  16
  -1  -2  -3 13955.2 2481.93   1
  -1  -2  -3 14525.8 2434.12   5
   1  -2   4 36401.1 4185.20   2
  -1  -2  -4 43857.8 4341.87  16
   1  -2   4 43615.5 3661.95   3
   1  -2   5 93757.2 6682.99   2
  -1  -2  -5 89490.8 6588.04  16
   1  -2   6 24642.1 4100.69   2
  -1  -2  -6 23579.9 3902.76  16
   1  -2   7 38005.5 4964.07   2
  -1  -2  -7 34517.8 4868.73  16
   1  -2   8 13179.6 3735.46   2
  -1  -2  -8 15694.9 4163.56  16
  -1  -2  -9 29390.5 2035.10   6
  -1  -2  -9 33859.1 2257.11  12
   1  -2   9 29814.6 1936.34  23
   1  -2   9 29618.1 1949.15   8
   1  -2   9 38621.5 5438.83   2
  -1  -2  -9 28251.3 4864.26  16
  -1  -2  -9 30702.4 2140.66  20
  -1  -2  -9 30392.0 2368.82  21
  -1  -2 -10 11915.0 1538.32  12
   1  -2  10 13609.7 1393.06   8
  -1  -2 -10 12758.9 1529.68  20
  -1  -2 -10 11914.1 1495.03   6
   1  -2  10 12012.7 1354.69  23
   1  -2  11 18667.7 1552.51   8
  -1  -2 -11 17839.0 1619.37   6
   1  -2  11 17223.8 1558.51  23
  -1  -2 -12 12644.1 1309.93   6
   1  -2  12 13172.5 1262.62  23
  -1  -2 -13 27913.6 1406.60   6
   1  -2  13 28154.6 1440.27  23
  -1  -1  14 5651.41 729.529  20
  -1  -1  13 7333.42 847.569  23
   1  -1 -13 9378.32 1116.86   6
  -1  -1  12 339.405 801.037  23
   1  -1 -12 1080.37 1027.82   6
  -1  -1  11 884.567 848.252  23
   1  -1 -11 140.737 1005.15   6
   1  -1 -10 28244.8 1965.68   6
  -1  -1  10 27990.8 4415.56  17
  -1  -1  10 28449.2 1940.62  23
  -1  -1  10 23331.5 5034.93   5
  -1  -1   9 41197.3 5394.52  17
   1  -1  -8 10890.3 3277.68  16
   1  -1  -8 16643.9 3407.07  18
  -1  -1   8 15351.7 3658.33  17
   1  -1  -7 6631.01 2279.79  18
   1  -1  -7 6609.29 2637.27  16
  -1  -1   7 4252.20 2763.89  17
  -1  -1   6 100086. 7106.67  17
  -1  -1   6 89607.0 6661.67   2
   1  -1  -6 86235.8 6175.21  18
   1  -1  -6 99257.0 6911.67  16
   1  -1  -5 89618.4 6040.87  16
   1  -1  -5 84144.8 5474.04  18
  -1  -1   5 74515.9 5779.86   2
  -1  -1   5 79535.5 6104.79  17
   1  -1  -4 109452. 4421.79   1
   1  -1  -4 120106. 5842.29  18
  -1  -1   4 107190. 6360.92  17
   1  -1  -4 111846. 6145.96  16
  -1  -1   3 21666.1 2828.81  17
   1  -1  -3 18625.0 2190.80  18
   1  -1  -3 17879.3 2370.52  16
   1  -1  -3 16009.0 1116.45   1
  -1  -1   3 17784.0 2724.54   5
  -1  -1   2 380236. 10800.6   5
  -1  -1   1 131477. 4764.67   1
  -1  -1   0 48794.3 2710.53   1
  -1  -1  -1 793635. 18148.1   1
  -1  -1  -2 567516. 14838.8   1
   1  -1   3 50690.2 3987.11   2
   1  -1   3 42727.1 2962.74   3
  -1  -1  -3 51572.9 3833.58   4
  -1  -1  -3 56375.0 4325.14   1
   1  -1   4 98065.6 5904.37   2
  -1  -1  -4 95636.0 5745.34  16
  -1  -1  -4 84573.6 4750.68  18
   1  -1   4 82302.7 4584.42  17
  -1  -1  -5 384649. 12738.8  18
  -1  -1  -5 398065. 14079.5  16
   1  -1   5 418035. 14191.2   2
  -1  -1  -6 8439.71 2216.85  18
   1  -1   6 9047.24 3064.43   2
  -1  -1  -6 11596.1 2742.36  16
   1  -1   7 34673.7 4766.52   2
  -1  -1  -7 29142.1 4482.74  16
  -1  -1  -8 167265. 10082.0  16
   1  -1   8 156582. 9899.14   2
  -1  -1  -9 2869.61 1805.94  21
   1  -1   9 2072.00 2992.69   2
  -1  -1  -9 2931.13 1078.02  12
  -1  -1  -9 2735.61 1121.58   6
  -1  -1  -9 2392.27 1047.37  20
   1  -1   9 2019.49 882.291   8
   1  -1   9 1789.16 960.481  23
  -1  -1 -10 21115.7 2184.53  21
  -1  -1 -10 22111.4 1782.65   6
  -1  -1 -10 22596.2 1914.30  20
   1  -1  10 22152.0 1687.41   8
   1  -1  10 23110.8 1736.47  23
   1  -1  10 21159.0 4466.61   2
  -1  -1 -10 22905.4 1868.79  12
   1  -1  11 3147.60 915.332   8
   1  -1  11 2761.22 1000.03  23
  -1  -1 -11 2751.48 1082.10   6
   1  -1  12 1519.43 873.483  23
  -1  -1 -12 1132.95 967.386   6
   1  -1  13 2287.72 810.023  23
  -1  -1 -13 2560.57 771.075   6
  -1   0  14 12690.0 963.521  20
   1   0 -13 108.456 766.872   6
   1   0 -12 707.338 958.559   6
  -1   0  11 4757.86 1022.79  23
   1   0 -11 5341.31 1204.14   6
   1   0 -10 242670. 13076.4  18
  -1   0  10 209701. 5847.40  23
   1   0 -10 220705. 6058.38   6
  -1   0  10 241141. 12254.0  17
  -1   0   9 24643.4 4426.34  17
  -1   0   9 21205.9 4220.58   2
   1   0  -9 26592.8 4575.99  18
   1   0  -8 43861.4 5475.05  18
  -1   0   8 44490.5 5370.51   2
  -1   0   8 45137.8 5422.11  17
   1   0  -7 333727. 13263.9  16
  -1   0   7 324633. 13564.6  17
   1   0  -7 296601. 13352.8  18
  -1   0   7 320783. 13026.8   2
   1   0  -6 521.760 1813.76  18
  -1   0   6 1410.21 2746.50  17
  -1   0   6-31.1033 2213.65   2
   1   0  -6 1022.09 1915.18  16
  -1   0   5 212.243 2267.72  17
   1   0  -5 1685.77 1787.29  16
  -1   0   5 1369.51 2128.45   2
   1   0  -5 1361.43 2050.76  18
  -1   0   4 8607.83 2671.35  17
   1   0  -4 8651.53 2048.64  16
  -1   0   4 4796.21 2296.78   2
  -1   0   4 8761.20 1426.51  14
   1   0  -4 7404.46 2123.22  18
  -1   0   3 30858.9 3339.53  17
   1   0  -3 33210.6 2809.29  16
  -1   0   3 27401.3 2140.95  14
   1   0  -3 28177.0 2036.10   1
   1   0  -3 33000.2 2939.51  18
   1   0  -2 221798. 5930.58   1
  -1   0   1 650160. 13797.0   1
   1   0  -1 651916. 13807.9   1
   1   0   0 171.497 757.137   1
  -1   0   0 219.425 697.497   1
  -1   0  -1 40225.4 2639.45   1
  -1   0  -2 15229.5 1843.81   4
  -1   0  -2 19257.1 2504.77   1
   1   0   3 33232.9 3192.67   2
  -1   0  -3 32655.6 2886.83   4
  -1   0  -3 33778.9 3768.23   1
  -1   0  -4 349.547 1359.07  18
   1   0   4 379.002 2031.05   2
   1   0   4 967.206 1666.59  17
  -1   0  -4 346.016 1581.82  16
  -1   0  -5 31711.7 3531.37  18
   1   0   5 28539.3 3787.95   2
  -1   0  -5 29454.5 3495.20  16
   1   0   5 28040.3 3386.26  17
   1   0   6 18233.7 3382.26   2
  -1   0  -6 16771.7 3092.13  18
   1   0   6 20326.1 3316.11  17
  -1   0  -6 24294.1 3445.43  16
   1   0   7 18134.6 3473.45  17
   1   0   7 18032.7 3782.64   2
  -1   0  -7 15470.1 3082.96  18
  -1   0  -8 41010.7 5038.20  18
   1   0   8 39005.7 5136.71   2
  -1   0  -9 40472.6 2972.95  21
   1   0   9 40995.6 2152.96   8
   1   0   9 42051.3 2298.16  23
  -1   0  -9 41773.0 2448.45  20
  -1   0  -9 41421.6 2314.03   6
   1   0   9 43922.9 5554.91   2
  -1   0 -10 103060. 4307.20  21
  -1   0 -10 115644. 4222.99  20
   1   0  10 109372. 8400.73   2
   1   0  10 100418. 3788.70  23
  -1   0 -10 110915. 3867.50   6
   1   0  10 111581. 3774.17   8
  -1   0 -11 12925.3 1397.19   6
  -1   0 -11 11157.0 1922.21  21
   1   0  11 12521.3 1370.70  23
  -1   0 -12 2272.85 909.837   6
   1   0  12 2215.12 942.662  23
  -1   0 -13 5922.69 806.085   6
   1   0  13 6704.50 912.050  23
  -1   1  14 5606.14 726.252  20
   1   1 -12 797.166 897.685   6
   1   1 -12 1032.45 744.390  19
   1   1 -11 974.881 965.909   6
   1   1 -11 1525.54 871.421  19
   1   1 -10 29099.3 2264.86  21
   1   1 -10 28282.9 5029.86  18
  -1   1  10 30240.0 4553.77  17
   1   1 -10 28190.1 1900.72   6
   1   1  -9 37445.5 5443.49  18
  -1   1   9 34461.4 5053.50  17
  -1   1   8 18415.6 4294.61  17
   1   1  -8 21000.0 4211.64  18
  -1   1   8 16998.8 3910.83   2
  -1   1   7 7500.06 3400.04  17
   1   1  -7 6966.67 2921.61  18
  -1   1   7 6791.10 2771.33   2
  -1   1   6 118332. 6819.71   2
   1   1  -6 105203. 7413.33  18
  -1   1   6 117824. 7451.31  17
   1   1  -5 77114.4 5807.34  18
  -1   1   5 82874.6 6041.84  17
  -1   1   5 82741.3 5264.95   2
   1   1  -5 85171.8 4997.56  16
  -1   1   4 124933. 6627.76  17
  -1   1   4 108872. 5531.03   2
   1   1  -4 109204. 5782.49  15
  -1   1   4 131888. 6091.38  14
   1   1  -4 116276. 6432.99  18
   1   1  -4 131074. 5638.50  16
   1   1  -3 21508.0 2267.20   1
  -1   1   3 25688.7 3259.59  17
   1   1  -3 23344.2 2653.73  18
   1   1  -3 17255.8 2545.26  15
  -1   1   3 22222.4 2375.92  14
   1   1  -2 378126. 10498.1  18
  -1   1   1 87562.5 2296.48   1
   1   1  -1 133831. 4423.50   1
  -1   1  -3 46920.2 3002.67   4
   1   1   3 42910.0 3403.06   2
   1   1   4 88652.7 5071.81  17
  -1   1  -4 98616.8 4906.30  16
  -1   1  -4 99451.6 5749.16  18
   1   1   4 84727.5 5411.86   2
   1   1   5 356502. 12834.2   2
  -1   1  -5 388596. 13714.3  18
   1   1   5 380994. 12673.5  17
  -1   1  -6 10428.9 3016.94  18
   1   1   6 9553.96 2849.37  17
   1   1   6 9443.95 3191.39   2
   1   1   7 29023.2 4267.16  17
  -1   1  -7 26040.7 3970.76  18
   1   1   7 35166.4 4760.07   2
   1   1   8 165852. 9504.67  17
   1   1   8 161426. 9717.17   2
  -1   1  -8 150880. 9761.03  18
  -1   1  -9 3829.85 1085.64  20
   1   1   9 2835.23 977.676  23
   1   1   9 3338.88 2916.15   2
  -1   1  -9 5617.71 2272.55  21
  -1   1  -9 1175.64 2062.72  18
   1   1  10 22552.9 1713.13  23
  -1   1 -10 17261.0 4021.32  18
   1   1  10 19379.5 4308.05   2
  -1   1 -10 16995.3 2697.93  21
  -1   1 -11 11141.3 2062.47  21
   1   1  11 4990.60 1083.23  23
  -1   1 -12-879.914 1522.19  21
   1   1  12 594.801 800.060  23
   1   1  13 2386.51 747.385  23
   1   2 -13 15012.7 1123.58  19
   1   2 -12 10764.0 1212.11  19
   1   2 -11 2801.72 1549.93  21
   1   2 -10 71572.5 3275.36  21
  -1   2  10 76922.9 6954.58  17
   1   2 -10 73052.4 7450.65  18
   1   2  -9 15394.0 1801.76  21
   1   2  -9 20914.9 4638.23  18
  -1   2   9 17059.4 4300.64  17
  -1   2   8 18885.0 4446.36  17
   1   2  -8 19334.4 4440.13  18
  -1   2   7 119546. 8322.65  17
   1   2  -7 129366. 9127.75  18
   1   2  -6 139894. 8862.63  18
  -1   2   6 138070. 8329.55  17
   1   2  -5 34496.8 3998.66  15
   1   2  -5 37978.8 4516.81  18
  -1   2   5 38565.2 4386.83  17
   1   2  -4 146383. 7720.86  15
   1   2  -4 160197. 7945.20  18
  -1   2   4 150133. 7566.35  17
   1   2  -3 37440.9 3641.38  15
   1   2  -3 39493.8 3431.21   1
   1   2  -3 42183.1 3652.04  18
  -1   2   3 35188.9 3598.78  17
  -1   2   3 34361.7 3727.96  14
   1   2  -2 14644.1 2068.12   1
  -1   2   2 14936.5 2475.27  17
   1   2  -2 14918.3 2506.49  15
  -1   2   2 11447.4 2354.52  14
   1   2  -2 13731.8 2016.74  18
   1   2  -1 812215. 17918.2   1
  -1   2   1 696393. 14613.6   1
   1   2   0 847440. 19909.2  15
   1   2   1 169299. 6651.85   1
   1   2   1 174886. 6186.45  15
   1   2   2 85555.3 4869.42   1
   1   2   3 13063.7 2379.86   2
   1   2   3 9251.10 2104.29   1
  -1   2  -4 42792.4 4241.30  18
   1   2   4 44343.2 4082.30   2
  -1   2  -5 99451.0 6850.87  18
   1   2   5 90369.1 6201.16   2
   1   2   5 97401.6 6258.88  17
   1   2   6 16932.9 3386.25  17
  -1   2  -6 21257.8 3965.52  18
   1   2   6 23628.4 3917.37   2
   1   2   7 30109.4 4701.67   2
   1   2   7 34795.3 4631.69  17
  -1   2  -7 29194.4 4600.53  18
   1   2   8 18970.5 4581.76  17
  -1   2  -8 13615.5 3626.25  18
   1   2   8 14887.1 3797.90   2
  -1   2  -9 34539.2 2848.60  21
   1   2   9 34249.3 5550.81  17
   1   2   9 34347.2 2107.67  23
  -1   2  -9 36481.8 2216.98  20
  -1   2  -9 37345.7 5464.83  18
   1   2   9 33188.2 5089.18   2
   1   2  10 9961.84 1321.87  23
  -1   2 -10 12038.5 2771.23  21
  -1   2 -11 9587.02 2787.65  21
   1   2  11 17444.8 1534.75  23
  -1   2 -12 12131.5 1819.61  21
   1   2  12 10502.7 1130.53  23
   1   3 -13 16623.9 1169.29  19
   1   3 -12 2705.13 956.494  19
   1   3 -11 18415.4 1764.38  21
   1   3 -11 20041.3 1671.98  19
   1   3  -9 16549.1 4077.58  18
  -1   3   9 13980.1 4531.37  17
   1   3  -8 33973.3 5365.19  18
  -1   3   8 29192.7 5220.99  17
   1   3  -7 21375.4 4392.95  18
  -1   3   7 23796.8 4385.29  17
   1   3  -6 42898.8 5301.20  18
  -1   3   6 40888.9 4818.80  17
   1   3  -6 37116.8 4937.89  15
   1   3  -5 62164.1 5740.23  18
  -1   3   5 61328.7 5368.36  17
   1   3  -5 61647.6 5952.72  15
   1   3  -4 42936.3 4452.86  18
  -1   3   4 39139.2 4238.22  17
   1   3  -4 47827.0 4847.51  15
  -1   3   3 634.998 1858.00  17
   1   3  -3 232.430 2012.84  15
   1   3  -3-189.644 1563.86  18
   1   3  -2 180785. 8468.44  15
   1   3  -2 189641. 7314.29  18
  -1   3   1 888004. 18479.4   1
   1   3  -1 814083. 19244.1  18
   1   3  -1 849253. 22048.5  15
   1   3  -1 849756. 21416.3   1
   1   3   0 140272. 6521.29  15
  -1   3   0 138765. 5331.96   1
   1   3   0 149670. 6698.06   1
   1   3   1 83661.1 5105.56   1
   1   3   1 82015.7 4555.77  15
   1   3   2 32225.9 2763.49  15
  -1   3  -3 4905.60 2164.84  18
   1   3   3 6010.75 2319.83   2
  -1   3  -4 225566. 10517.5  18
   1   3   4 225465. 9639.41   2
   1   3   5 95237.6 6670.35   2
   1   3   5 94356.3 6696.60  17
  -1   3  -5 91380.2 7058.41  18
   1   3   6 37523.4 5171.00   2
  -1   3  -6 43806.1 5419.85  18
   1   3   6 49167.4 5475.53  17
  -1   3  -7 6447.57 2943.65  18
   1   3   7 4922.22 2997.07  17
   1   3   7 8280.64 3754.42   2
  -1   3  -8 81028.3 7739.38  18
   1   3   8 94590.6 8146.10  17
   1   3   8 83136.0 7534.22   2
   1   3   9 17716.3 4877.47  17
   1   3   9 17700.1 4450.18   2
  -1   3  -9 16358.1 4349.23  18
  -1   3  -9 17528.2 2506.66  21
   1   3   9 17231.4 1572.14  23
  -1   3 -10 3608.79 2538.02  21
   1   3  10 1913.92 964.247  23
  -1   3 -11 36630.2 3068.10  21
  -1   3 -12 2461.82 1457.49  21
   1   4 -13 7989.54 811.956  19
   1   4 -12 302.899 779.655  19
   1   4 -11 17922.9 1602.99  19
   1   4  -9 7741.60 3604.02  18
  -1   4   9 9350.20 3891.33  17
   1   4  -8 10407.1 3916.61  18
  -1   4   8 12995.3 3909.81  17
  -1   4   7 63951.3 6528.05  17
   1   4  -7 67157.2 7230.87  18
   1   4  -7 68472.8 6926.50  15
   1   4  -6 19772.8 4285.74  15
   1   4  -6 19489.3 4082.75  18
  -1   4   6 16350.1 3786.96  17
   1   4  -5 10203.5 3101.19  18
  -1   4   5 8697.36 2841.02  17
   1   4  -5 13151.2 3621.09  15
   1   4  -4 439593. 15671.4  18
  -1   4   4 416055. 15048.9  17
   1   4  -4 460417. 17323.5  15
  -1   4   3 31586.4 3852.57  17
   1   4  -3 42189.5 3943.54  18
   1   4  -3 37995.7 4777.54  15
   1   4  -2 33838.1 4238.28  15
   1   4  -1 118057. 7139.46  15
   1   4   0 70337.4 5094.12  15
   1   4   1 72772.8 4814.06  15
  -1   4  -2 6750.50 2321.84  18
   1   4   3 199359. 9154.30   2
  -1   4  -3 186148. 9574.19  18
  -1   4  -4 16131.0 3641.84  18
   1   4   4 12655.9 3239.99   2
  -1   4  -5 9750.65 3242.90  18
   1   4   5 13261.8 3532.65   2
   1   4   6 24917.7 4740.72   2
  -1   4  -6 30479.3 4856.31  18
   1   4   6 32921.3 4970.11  17
   1   4   7 70585.4 6991.65   2
  -1   4  -7 66917.6 7129.17  18
   1   4   7 70109.6 7024.36  17
  -1   4  -8 34091.9 5172.21  18
   1   4   8 33603.8 5557.13   2
   1   4   8 37409.9 6044.75  17
  -1   4  -9 21955.0 2616.78  21
  -1   4 -10 11117.8 2517.16  21
  -1   4 -11 2830.63 2243.96  21
  -1   4 -12 4466.55 1276.99  21
   1   5 -12 11548.3 1055.46  19
   1   5 -11 19.6430 823.834  19
   1   5 -10 2441.94 1068.83  19
   1   5  -9 28278.2 1973.30  19
   1   5  -8 40940.0 6161.52  18
  -1   5   8 31339.2 5442.28  17
   1   5  -7 1246.97 2650.13  18
  -1   5   7 1352.15 2967.97  17
   1   5  -7-1382.50 2875.68  15
   1   5  -6 52645.7 6221.25  18
  -1   5   6 46768.1 5756.53  17
   1   5  -6 48350.5 6429.42  15
  -1   5   5 99817.0 7736.82  17
   1   5  -5 119203. 9206.95  15
   1   5  -5 99250.6 7801.99  18
  -1   5   4 20411.6 3675.55  17
   1   5  -4 22520.8 4512.33  15
   1   5  -3 51399.8 6080.03  15
   1   5  -2 22309.1 3986.18  15
   1   5  -1 41737.3 4836.37  15
   1   5   0 10283.3 2652.06  15
   1   5   1 38544.5 4066.83  15
  -1   5  -3 88174.1 6978.76  18
   1   5   3 96264.6 6794.63   2
  -1   5  -4 72532.9 6692.66  18
   1   5   4 86805.9 6943.01   2
   1   5   5 79561.5 7046.45   2
  -1   5  -5 69711.4 6792.07  18
   1   5   6 9954.64 3853.31   2
  -1   5  -6 9993.03 3593.85  18
   1   5   6 15721.5 4162.84  17
  -1   5  -7-1853.08 2818.74  18
   1   5   7 1248.05 2161.93  17
   1   5   7 3305.02 3352.80   2
  -1   5  -9 8022.19 2197.33  21
  -1   5 -10 4017.32 2066.12  21
  -1   5 -11 22436.5 1986.74  21
  -1   5 -12 14769.2 1131.07  21
  -1   5 -12 15851.8 1020.38  19
   1   6 -11 4987.89 854.461  19
   1   6 -10 17554.5 1411.76  19
   1   6  -9 1077.91 921.223  19
   1   6  -8 3991.41 1051.72  19
   1   6  -7 20117.0 4742.94  15
  -1   6   7 18215.8 4361.15  17
  -1   6   6 26672.3 5015.10  17
   1   6  -6 21383.2 5035.44  15
  -1   6   5 2591.81 2621.33  17
   1   6  -5 5349.58 3635.69  15
  -1   6   4 90215.0 7334.35  17
   1   6  -4 84074.6 8192.08  15
  -1   6   3 3045.59 2315.32  17
   1   6  -3 2837.93 3048.76  15
   1   6  -2 13885.0 3810.67  15
   1   6  -1 9208.07 3127.94  15
   1   6   0 168151. 9792.80  15
   1   6   3 70334.5 6389.43   2
   1   6   4 14598.2 3728.50   2
   1   6   5 24126.6 5038.79   2
   1   6   6 22581.9 5107.49  17
  -1   6  -8 14453.6 1978.65  21
  -1   6  -9 27470.1 2283.04  21
  -1   6 -10 9146.86 1599.08  21
  -1   6 -11 3522.46 730.424  19
   1   7  -5 351.930 2687.09  15
   1   7  -4-548.219 2907.36  15
   1   7  -3 63221.6 7239.40  15
   1   7  -2 28740.3 5091.55  15
   1   7  -1 6184.74 2960.37  15
   1   7   0 18207.0 4183.30  15
   1   7   2 100003. 7930.98   2
   1   7   3 4794.00 3339.99   2
   1   7   5 30618.6 5147.10  17
   1   8  -1 5790.22 3361.84  15
  -2 -10   2 24234.1 1588.23  10
  -2 -10   1 16029.3 1553.19  10
  -2 -10   0 3782.17 1272.85  10
   2 -10   0 20941.1 1948.91  22
   2 -10   1 27031.7 2033.41  22
  -2 -10  -1 2748.28 1298.78  10
   2 -10   2 44191.3 2426.38  22
  -2 -10  -2 26596.3 2034.61  10
   2 -10   3 5188.62 2051.04  22
  -2 -10  -3 2169.87 1124.71  10
  -2  -9   7 9681.97 990.646   7
  -2  -9   6 9565.92 1186.89   7
   2  -9  -5 22688.6 3575.83  10
  -2  -9   5 3116.71 1079.17   7
   2  -9  -4 62164.3 4638.99  10
  -2  -9   4 30328.4 1974.40   7
  -2  -9   3-513.835 984.242  10
  -2  -9   3 1268.64 1031.92   7
   2  -9  -2 7743.08 1354.76  22
  -2  -9   2 5969.81 1317.06  10
  -2  -9   2 6530.54 1221.68   7
   2  -9  -1 20153.2 3736.53  10
  -2  -9   1 3784.94 1393.61  10
  -2  -9   0 7834.64 1646.48  10
   2  -9   0-2289.79 2347.33  22
  -2  -9  -1 16839.7 2025.55  10
   2  -9   1 5219.63 2335.56  22
   2  -9   2 5948.76 2253.63  22
  -2  -9  -2-68.8705 1420.39  10
  -2  -9  -3 5751.79 1454.52  10
   2  -9   3 23683.8 2575.69  22
  -2  -9  -4 15868.3 1697.59  10
   2  -9   4 47866.3 2769.03  22
  -2  -9  -5 7045.97 1103.47  12
  -2  -9  -5 9556.32 1245.50  10
   2  -9   5 11896.9 2492.50  22
  -2  -9  -6 7568.81 1020.01  12
   2  -9   6 10642.5 2121.86  22
  -2  -8   9 4105.90 739.241   7
  -2  -8   8 14547.1 1309.82   7
  -2  -8   7 4306.96 1246.56   7
   2  -8  -6 9356.80 3695.11  10
  -2  -8   6-604.987 1190.53   7
   2  -8  -5 51839.6 5173.81  10
  -2  -8   5 42285.3 2590.82   7
   2  -8  -4 13588.8 1553.01  22
   2  -8  -4 17324.9 4536.11  10
  -2  -8   4 14825.4 1774.16   7
   2  -8  -3 33741.8 2180.69  22
  -2  -8   3 32389.2 2264.02  10
  -2  -8   3 29942.9 2170.16   7
   2  -8  -2-280.550 4013.67  10
  -2  -8   2 1623.13 1267.84  10
  -2  -8   2 977.318 1042.44   7
   2  -8  -2 1020.30 1027.92  22
   2  -8  -1 69474.4 5330.80  10
  -2  -8   1 77211.1 3840.52  10
  -2  -8   1 89273.1 3481.00   7
   2  -8  -1 90568.3 3606.17  22
  -2  -8   0 4630.71 1472.31  10
   2  -8   0 5120.42 1210.65  22
  -2  -8   0 4473.64 1112.80   7
  -2  -8  -1 46884.8 2966.36  10
   2  -8   1 37692.0 2518.56  22
  -2  -8  -2 43680.8 2392.58  12
  -2  -8  -2 45655.8 2847.56  10
  -2  -8  -3 10255.2 1383.66  12
  -2  -8  -3 11332.0 1693.68  10
  -2  -8  -4 7349.90 1345.35  12
  -2  -8  -4 8450.55 1519.76  10
  -2  -8  -5 28314.4 2046.65  10
  -2  -8  -5 24581.7 1938.01  12
  -2  -8  -6-638.976 967.386  12
   2  -8   6 3884.50 2788.24  22
  -2  -8  -7 3044.52 995.158  12
   2  -8   7 6278.30 2369.06  22
  -2  -8  -8 7078.89 1010.30  12
   2  -8   8 4417.44 1770.90  22
  -2  -7  10 14333.1 1050.48   7
  -2  -7   9 4091.69 1022.13   7
  -2  -7   8 3946.65 1177.57   7
  -2  -7   7 50339.0 2790.61   7
   2  -7  -6 14735.6 3622.97  10
  -2  -7   6 6133.51 1421.29   7
   2  -7  -5 47459.3 2794.91  22
   2  -7  -5 49975.0 4903.60  10
  -2  -7   5 47435.6 2822.78   7
   2  -7  -4 14888.3 1658.51  22
   2  -7  -4 11720.9 3985.90  10
  -2  -7   4 13932.0 1742.73   7
  -2  -7   3 48747.6 6101.25   5
  -2  -7   3 52435.6 2894.95  10
   2  -7  -3 40200.1 4718.65  10
  -2  -7   3 51359.3 2768.55   7
   2  -7  -3 48720.7 2712.41  22
   2  -7  -2 10182.9 1361.38  22
  -2  -7   2 10218.8 3128.71   5
   2  -7  -2 5841.38 3844.98   3
  -2  -7   2 11744.1 1437.30   7
  -2  -7   2 9939.55 1563.20  10
   2  -7  -1 8993.85 3521.83  10
  -2  -7   1 19819.8 3979.09   5
  -2  -7   1 22996.6 1761.40   7
  -2  -7   1 24952.0 2199.26  10
   2  -7  -1 11793.2 4157.73   3
   2  -7  -1 23644.9 1840.64  22
   2  -7   0 4314.37 3360.44   3
  -2  -7   0 2695.47 1285.31  10
   2  -7   0 1287.73 958.275  22
  -2  -7   0 1566.64 916.288   7
   2  -7   1 22051.5 5030.39   3
  -2  -7  -1 25505.1 1789.33   7
  -2  -7  -1 31162.2 2373.91  10
   2  -7   1 26846.4 1891.85  22
  -2  -7  -2 16384.1 1528.83  12
  -2  -7  -2 16396.0 1828.99  10
   2  -7   2 14326.4 3874.11   3
   2  -7   2 18311.0 1626.19  22
  -2  -7  -3 48742.9 2524.40  12
  -2  -7  -3 52179.9 2885.81  10
   2  -7   3 31188.7 5726.23   3
   2  -7   3 33747.2 2893.03  22
  -2  -7  -4 15734.4 1626.35  12
  -2  -7  -4 18944.9 1797.39  10
  -2  -7  -5 18419.2 1770.05  10
  -2  -7  -5 18165.5 1780.12  12
  -2  -7  -6 1390.98 1107.68  12
   2  -7   6 13211.2 2839.25  22
   2  -7   7 53465.5 3588.44  22
  -2  -7  -7 44825.0 2491.03  12
  -2  -7  -8 2509.92 1092.12  12
   2  -7   8 4810.54 2398.85  22
  -2  -7  -9 349.994 824.093  12
   2  -7   9-113.888 621.992   7
  -2  -6  11 3241.38 634.675   7
  -2  -6  10 1096.24 782.582   7
  -2  -6   9 3001.03 1031.48   7
  -2  -6   8 13392.2 1605.81   7
   2  -6  -7 55853.1 3873.68  10
  -2  -6   7 50632.8 2856.32   7
   2  -6  -6 13468.5 3353.51  10
   2  -6  -6 5241.99 2601.10  16
   2  -6  -6 7647.86 1465.28  22
  -2  -6   6 5649.55 3410.64   5
  -2  -6   6 8317.30 1524.08   7
  -2  -6   5 144790. 11098.7   5
   2  -6  -5 135049. 6368.91  10
   2  -6  -5 151145. 5333.69  22
   2  -6  -5 135170. 9831.82  16
  -2  -6   5 154034. 5270.21   7
   2  -6  -4 7438.14 1351.55  22
   2  -6  -4 6379.55 3144.29  10
  -2  -6   4 11196.6 3703.46   5
  -2  -6   4 7243.22 1308.23   7
  -2  -6   3 79022.9 7366.09   5
   2  -6  -2 28061.9 5617.63   3
  -2  -6   2 30142.1 4471.25   5
  -2  -6   1 67860.9 6313.22   5
   2  -6  -1 62359.1 7955.56   3
  -2  -6   0 7316.63 2625.15   5
   2  -6   0 9116.14 4857.64   3
  -2  -6  -1 17232.3 3494.10   5
   2  -6   1 20250.3 5225.55   3
  -2  -6  -2 29798.4 4236.81   5
   2  -6   2 29004.4 5287.42   3
  -2  -6  -3 27126.3 2061.29  10
  -2  -6  -3 21031.9 3761.96   5
   2  -6   3 29164.6 1919.24  22
   2  -6   3 27214.0 4814.83   3
  -2  -6  -3 23974.8 4643.96  16
  -2  -6  -4 6474.85 1184.24  12
  -2  -6  -4 7410.64 1272.95  10
   2  -6   4 644.122 2207.07  22
   2  -6   4 2930.76 2550.80   3
  -2  -6  -4 5887.29 3071.30  16
  -2  -6  -5 59384.6 2912.99  12
  -2  -6  -5 61884.9 7392.77  16
   2  -6   5 65319.4 3473.83  22
  -2  -6  -6 430.081 1052.40  12
   2  -6   6 9199.12 2550.27  22
  -2  -6  -7 40672.6 2553.61  12
   2  -6   7 49338.8 3588.27  22
  -2  -6  -8 7245.62 1389.83  12
   2  -6   8 6326.79 982.914   8
  -2  -6  -9 6192.59 1199.69  12
  -2  -6  -9 6520.73 1013.55   6
   2  -6  10 5695.70 1431.75  22
  -2  -6 -10 17910.8 1323.62  12
   2  -5 -11-430.451 736.325  13
  -2  -5  10 2759.82 840.221   7
   2  -5 -10 3678.62 1020.00  13
   2  -5  -9 573.203 986.980  13
  -2  -5   9 267.892 847.348   7
  -2  -5   8 29554.8 2165.31   7
   2  -5  -8 27172.1 1998.53  13
   2  -5  -7 13908.2 2513.95  10
  -2  -5   7 8700.68 1441.79   7
  -2  -5   7 7342.96 3763.03   5
   2  -5  -7 4397.39 2230.92  16
   2  -5  -6 24596.5 3052.75  10
  -2  -5   6 14006.8 4338.41   5
  -2  -5   6 17152.7 1795.48   7
   2  -5  -6 16244.8 4079.71  16
  -2  -5   5 18072.7 4400.35   5
   2  -5  -5 14579.6 3722.19  16
  -2  -5   4 23136.4 4504.71   5
   2  -5  -4 19338.9 3682.37  16
  -2  -5   3 32253.4 4809.68   5
   2  -5  -3 27242.3 4762.86   3
   2  -5  -2 101568. 9164.60   3
  -2  -5   2 109817. 7781.60   5
  -2  -5   1 59012.5 5495.11   5
   2  -5  -1 50125.7 6735.45   3
   2  -5   0 55000.7 6990.83   3
  -2  -5   0 44002.6 4607.71   5
  -2  -5  -1 222960. 11657.4  16
  -2  -5  -1 230309. 10831.8   5
   2  -5   2 31718.9 5327.92   3
  -2  -5  -2 27702.4 4221.12  16
  -2  -5  -2 26517.8 3805.35   5
   2  -5   3 70140.2 7009.10   3
  -2  -5  -3 61734.8 5887.79   5
  -2  -5  -3 62162.2 6760.92  16
   2  -5   4 44284.9 5811.63   3
  -2  -5  -4 50326.9 6192.20  16
   2  -5   5 3645.60 2354.49   3
  -2  -5  -5 5721.85 2959.56  16
  -2  -5  -5 5938.41 1095.96  12
   2  -5   6 46848.8 3041.44  22
  -2  -5  -6 36243.2 2327.05  12
   2  -5   6 35266.3 2143.98   8
  -2  -5  -6 36510.5 5430.08  16
   2  -5   7 3195.41 996.995   8
  -2  -5  -7 3222.72 1205.30  12
   2  -5   8 27084.2 1807.70   8
  -2  -5  -8 27775.9 2194.89  12
  -2  -5  -9 4962.00 1320.54  12
  -2  -5  -9 5025.21 1126.58   6
   2  -5   9 4066.52 960.769   8
   2  -5   9 1518.38 2313.99  22
  -2  -5 -10 8009.32 1105.46   6
   2  -5  10 7323.42 945.762   8
  -2  -5 -10 7418.05 1186.07  12
  -2  -5 -11 8338.38 929.178   6
  -2  -5 -11 9721.54 1019.74  12
   2  -4 -12 12684.9 1133.28  13
   2  -4 -11 28035.1 1631.07   6
   2  -4 -11 33509.1 1914.21  13
   2  -4 -10 3411.93 1052.20   6
   2  -4  -9 28622.0 1914.31   6
  -2  -4   9 32974.7 2154.79  23
  -2  -4   9 29172.0 2049.53   7
  -2  -4   8 37010.5 2299.85  23
  -2  -4   8 28671.7 5264.29   5
  -2  -4   8 41184.3 6087.90  17
   2  -4  -8 44366.0 6227.63  16
  -2  -4   8 41317.3 2477.77   7
  -2  -4   7 42472.8 6228.15   5
  -2  -4   7 41841.2 6409.04  17
  -2  -4   7 47126.1 2639.28   7
  -2  -4   7 43439.5 2440.67  23
   2  -4  -7 48680.0 6597.10  16
   2  -4  -6 24304.6 4764.03  16
  -2  -4   6 18408.2 4383.99   5
  -2  -4   6 27914.9 5276.13  17
  -2  -4   5 5979.52 3389.47   5
   2  -4  -5 5115.66 2850.90  16
  -2  -4   4 33049.0 4735.42   5
   2  -4  -4 28205.9 4310.52  16
  -2  -4   3 19015.2 3753.81   5
   2  -4  -3 15969.1 4061.80   3
   2  -4  -3 16743.2 3143.37  16
   2  -4  -2 74461.8 7356.81   3
  -2  -4   2 80321.8 6085.89   5
  -2  -4   1 40641.2 4296.75   5
   2  -4  -1 37586.1 5554.34   3
  -2  -4   0 56894.1 4858.25   5
   2  -4   0 68208.5 7227.76   3
  -2  -4  -1 10442.3 2559.93   5
   2  -4   1 11151.3 3841.90   3
   2  -4   2 45626.1 5513.90   3
  -2  -4  -2 37819.9 4692.80  16
  -2  -4  -2 36212.5 4108.88   5
   2  -4   3 29067.0 4381.18   3
  -2  -4  -3 20099.0 3881.94  16
  -2  -4  -3 22865.8 3694.16   5
  -2  -4  -4 63270.8 6456.91  16
   2  -4   4 55053.9 5805.52   3
  -2  -4  -5 40929.3 5432.82  16
  -2  -4  -6 16957.8 4147.23  16
   2  -4   7 87139.3 3733.83  22
   2  -4   7 81017.8 3284.05   8
  -2  -4  -7 88973.6 8298.69  16
  -2  -4  -7 77529.7 3525.33  12
   2  -4   8 24041.2 1786.95   8
  -2  -4  -8 23066.3 2047.45  12
   2  -4   9 28560.3 1867.29   8
  -2  -4  -9 29945.9 2193.39  12
  -2  -4 -10 8900.56 1309.62  12
   2  -4  10 7763.06 1046.91  23
   2  -4  10 8982.06 1180.29   8
  -2  -4 -10 8946.48 1279.30   6
   2  -4  11 9952.07 1069.61   8
   2  -4  11 9108.49 931.419  23
  -2  -4 -11 10087.7 1137.73   6
  -2  -4 -11 8595.87 1099.61  12
  -2  -4 -12 14888.1 962.819   6
   2  -3 -13 1316.20 690.129  13
  -2  -3  12 520.998 708.141  20
   2  -3 -12 347.033 866.867  13
  -2  -3  11 872.435 926.789  20
  -2  -3  11 988.990 887.445  23
   2  -3 -11 1212.43 937.180   6
  -2  -3  10 8002.49 1297.61  23
   2  -3 -10 11788.1 1427.10   6
   2  -3  -9 32528.7 5399.00  16
  -2  -3   9 27630.2 5369.28   5
  -2  -3   9 43156.7 6057.40  17
  -2  -3   9 36985.1 2201.39  23
   2  -3  -9 33203.6 2108.52   6
  -2  -3   8 3949.51 3226.20   5
  -2  -3   8 8514.67 4069.16  17
   2  -3  -8 10775.2 3197.77  16
   2  -3  -8 9756.18 1330.33   6
  -2  -3   8 8454.40 1296.78  23
  -2  -3   7 2960.00 3013.68   5
  -2  -3   7 3937.34 3231.03  17
   2  -3  -7 5164.21 2672.52  16
  -2  -3   6 104462. 8891.50   5
  -2  -3   6 96351.8 8425.53  17
   2  -3  -6 109169. 8768.48  16
  -2  -3   5 6252.43 3092.23   5
  -2  -3   5 6169.25 3266.79  17
   2  -3  -5 8993.27 3047.77  16
  -2  -3   4 261320. 12051.4   5
  -2  -3   4 267450. 12187.8  17
   2  -3  -4 242199. 11634.1  16
  -2  -3   3 9925.52 2908.05   5
   2  -3  -3 10825.4 3369.81   3
   2  -3  -3 8930.55 2433.38  16
  -2  -3   2 152359. 7831.08   5
   2  -3  -2 141621. 8960.04   3
   2  -3  -1 40187.7 4991.52   3
  -2  -3   1 38030.2 3413.24   4
  -2  -3   1 37434.7 3737.56   5
  -2  -3   0 264204. 10274.2   5
   2  -3   0 300577. 12816.8   3
  -2  -3   0 277296. 10297.4   4
  -2  -3  -1 180661. 8289.79   5
  -2  -3  -1 186724. 8674.74   4
   2  -3   2 102326. 7162.53   3
  -2  -3  -2 84049.8 5828.14   5
  -2  -3  -2 94305.4 6399.19   4
  -2  -3  -3 28186.9 3844.55   5
   2  -3   3 29135.2 4021.48   3
  -2  -3  -3 28044.8 3863.91  16
   2  -3   4 152037. 8566.20   3
  -2  -3  -4 151919. 9201.45  16
  -2  -3  -5 7249.54 3206.56  16
  -2  -3  -6 17293.4 4033.96  16
   2  -3   7 11735.9 1334.91   8
  -2  -3  -7 9509.34 3449.17  16
   2  -3   7 12492.3 3809.56   2
  -2  -3  -8 3043.09 1218.19  12
  -2  -3  -8 2981.30 1063.32  20
   2  -3   8 3275.55 1069.49  23
   2  -3   8 3116.62 1000.58   8
  -2  -3  -8 2753.89 2392.30  16
  -2  -3  -9 2590.74 1075.09  20
   2  -3   9 3589.45 1056.54   8
  -2  -3  -9 2783.62 1174.32  12
   2  -3   9 3318.37 913.905  23
  -2  -3 -10 1007.58 1129.85   6
  -2  -3 -10 492.435 921.556  12
   2  -3  10 498.430 929.657   8
  -2  -3 -10 101.662 853.194  20
   2  -3  10 103.619 773.507  23
   2  -3  11 10249.9 1181.56   8
   2  -3  11 9641.50 1078.37  23
  -2  -3 -11 9259.53 1267.81   6
  -2  -3 -11 7979.28 1120.19  12
  -2  -3 -12 2233.59 819.323   6
   2  -3  12 1920.15 692.691  23
  -2  -2  13 2443.83 774.209  20
   2  -2 -13 3176.99 859.753  13
   2  -2 -12 12303.8 1334.81  13
  -2  -2  12 9504.51 1217.09  20
   2  -2 -12 9637.84 1255.60   6
  -2  -2  11 24118.5 1637.27  23
   2  -2 -11 23229.3 1796.67   6
  -2  -2  10 3405.11 1061.21  23
   2  -2 -10 3063.67 1183.78   6
   2  -2  -9 29949.5 2058.97   6
  -2  -2   9 22514.5 4938.73   5
  -2  -2   9 34381.9 5159.00  17
   2  -2  -9 26595.5 4995.28  16
  -2  -2   9 34174.0 2091.16  23
  -2  -2   8 62284.9 7386.05   5
  -2  -2   8 71669.1 7211.09  17
   2  -2  -8 72477.4 7318.45  16
  -2  -2   7 31336.4 5138.87   5
   2  -2  -7 42358.4 5490.43  16
  -2  -2   7 41843.3 5537.76  17
  -2  -2   6 999.710 2464.90   5
   2  -2  -6 1986.00 1790.44  18
  -2  -2   6 754.762 2917.14  17
   2  -2  -6 749.812 2168.57  16
  -2  -2   5 51245.8 5598.37   5
  -2  -2   5 52538.4 5689.98  17
   2  -2  -5 50457.9 5413.37  16
   2  -2  -5 50586.4 4811.54  18
  -2  -2   4 511.705 2117.80   5
  -2  -2   4 3519.52 2731.07  17
   2  -2  -4 539.148 1841.34  16
   2  -2  -4 351.566 1715.76   3
  -2  -2   3 62737.8 4948.42   5
   2  -2  -3 59208.4 5584.34   3
  -2  -2   3 63588.7 5052.08  17
   2  -2  -3 56354.1 4808.66  16
  -2  -2   3 64728.0 4446.68   4
   2  -2  -3 53417.5 4741.55  15
  -2  -2   2 255519. 9718.18   5
   2  -2  -2 239309. 11072.7   3
  -2  -2   2 258791. 9498.90  17
  -2  -2   2 260503. 9326.52   4
   2  -2  -2 238937. 10095.0  15
  -2  -2   1 148416. 6788.10   5
   2  -2  -1 138923. 8134.15   3
  -2  -2   1 145642. 6615.62   4
   2  -2  -1 153743. 7806.79  15
  -2  -2   0 18351.9 2690.83   5
   2  -2   0 20577.2 3523.49   3
  -2  -2   0 19818.5 2689.38   4
  -2  -2  -1 69608.0 4575.72   5
   2  -2   1 69692.2 5650.40   3
  -2  -2  -1 65583.4 4552.41   4
  -2  -2  -2 134254. 6965.80   5
   2  -2   2 151434. 7743.50   3
  -2  -2  -2 144233. 7227.14   4
   2  -2   3 28928.4 3636.26   3
  -2  -2  -3 34270.3 4111.37   4
  -2  -2  -3 35869.9 3941.91   5
   2  -2   4 14894.1 2720.77   3
  -2  -2  -4 17418.2 3213.16  16
   2  -2   4 14881.2 3180.71   2
  -2  -2  -5 41295.8 5013.91  16
   2  -2   5 43879.0 4954.23   2
   2  -2   6 61347.3 6031.49   2
  -2  -2  -6 52647.3 5868.97  16
  -2  -2  -7 9212.66 3154.36  16
   2  -2   7 6791.32 3335.58   2
   2  -2   8 30364.6 1958.40  23
  -2  -2  -8 29034.6 2159.83  12
   2  -2   8 31286.0 2035.94   8
   2  -2   8 29838.7 5037.15   2
  -2  -2  -8 24079.4 4697.32  16
  -2  -2  -8 30551.8 2125.15  20
  -2  -2  -9 50229.9 2741.84  20
  -2  -2  -9 55696.1 2826.87  12
   2  -2   9 55123.9 2721.80   8
  -2  -2  -9 51906.1 6675.40  16
   2  -2   9 49468.7 6254.03   2
   2  -2   9 51988.5 2543.43  23
  -2  -2 -10 13101.7 1570.73  20
   2  -2  10 12382.7 1370.23  23
   2  -2  10 14424.9 1452.20   8
  -2  -2 -10 12400.4 1515.79   6
  -2  -2 -11 13166.0 1420.45   6
   2  -2  11 14107.7 1338.53   8
   2  -2  11 11715.3 1281.20  23
   2  -2  12 7514.26 933.558  23
  -2  -2 -12 7387.07 1001.34   6
  -2  -1  13 2280.68 845.178  20
   2  -1 -13 2116.27 791.774  13
   2  -1 -12 10563.1 1260.55  13
   2  -1 -12 9192.90 1296.13   6
   2  -1 -11 21090.2 1728.01   6
   2  -1 -10 8404.78 1349.80   6
  -2  -1   9 46721.8 6341.82   5
  -2  -1   9 61077.6 6525.03  17
   2  -1  -9 50457.2 2585.57   6
   2  -1  -8 14871.5 3449.47  18
  -2  -1   8 13322.7 3965.97   5
  -2  -1   8 16618.3 4152.02  17
  -2  -1   7 42464.3 5651.99   5
   2  -1  -7 48440.4 5562.27  18
  -2  -1   7 47222.4 5878.27  17
   2  -1  -7 56176.8 5916.02  16
   2  -1  -6 3599.59 2297.25  18
  -2  -1   6 2177.63 2291.26   5
  -2  -1   6 3998.03 3184.10  17
   2  -1  -6 2870.58 2413.40  16
  -2  -1   5 128126. 8169.85   5
  -2  -1   5 120798. 8070.85  17
   2  -1  -5 139219. 8289.67  16
  -2  -1   5 126297. 7550.04   4
   2  -1  -5 142320. 8056.12  18
   2  -1  -4 6863.65 2220.12  18
  -2  -1   4 5412.76 2255.00   5
  -2  -1   4 4948.85 2597.47  17
   2  -1  -4 5055.02 2125.12  16
  -2  -1   4 8967.80 2457.88   4
  -2  -1   3 68484.5 4876.75   5
   2  -1  -3 70084.9 4957.90  15
  -2  -1   3 75672.1 5063.53   4
  -2  -1   3 67185.4 4906.78  17
   2  -1  -3 71198.8 4867.38  18
  -2  -1   2 338247. 10760.8   5
  -2  -1   2 327641. 10312.5  17
  -2  -1   2 344914. 11286.6   4
   2  -1  -2 330402. 11351.2  15
  -2  -1   2 339210. 10506.5   1
  -2  -1   1 501508. 13193.3   1
  -2  -1   1 455304. 12797.1   5
  -2  -1   1 470884. 13467.7   4
   2  -1  -1 471552. 13969.2  15
  -2  -1   0 340986. 10513.6   1
  -2  -1   0 335374. 10432.5   5
  -2  -1   0 330581. 10666.1   4
   2  -1   0 335641. 11338.6  15
   2  -1   1 114574. 6423.58   3
  -2  -1  -1 97960.9 5305.39   4
   2  -1   1 106155. 5932.50  15
  -2  -1  -1 108127. 5416.88   5
  -2  -1  -2 175176. 7559.14   5
   2  -1   2 158921. 6941.44   2
   2  -1   2 177566. 7831.09   3
   2  -1   2 165276. 7800.21  15
  -2  -1  -2 170853. 7489.65   4
   2  -1   3 55399.6 4353.66   3
  -2  -1  -3 64004.2 4808.26   4
  -2  -1  -4 8802.22 2739.44   4
   2  -1   4 10339.6 2854.82   2
   2  -1   5 51521.8 5078.41   2
  -2  -1  -5 46694.5 4336.14  18
  -2  -1  -5 49191.1 4938.36  16
  -2  -1  -6 649.991 2043.57  16
   2  -1   6 3583.78 2644.03   2
  -2  -1  -7 53719.7 5906.45  16
   2  -1   7 61119.0 6134.57   2
  -2  -1  -8 21256.3 1840.64  20
   2  -1   8 22134.6 1777.01   8
   2  -1   8 19065.6 1612.80  23
   2  -1   9 25319.7 1850.95  23
   2  -1   9 26177.2 1910.72   8
   2  -1   9 27146.1 4635.01   2
  -2  -1  -9 26830.4 2112.33  20
  -2  -1 -10 5203.94 1249.89   6
  -2  -1 -10 4353.20 1243.74  20
   2  -1  10 6100.10 1198.78  23
  -2  -1 -10 4452.28 1612.59  21
   2  -1  10 5478.36 1087.56   8
   2  -1  11 22926.7 1626.84   8
   2  -1  11 22363.2 1671.34  23
  -2  -1 -11 24399.2 1675.16   6
  -2  -1 -12 2303.11 834.963   6
   2  -1  12 2372.13 863.866  23
   2  -1  13 1857.45 624.837  23
  -2   0  13 1304.96 846.032  20
   2   0 -13 2025.22 751.472  13
   2   0 -12 229.499 884.251  13
   2   0 -11 31479.8 2012.25   6
   2   0 -10 39072.9 2307.78   6
  -2   0   9 5221.73 2710.35  17
   2   0  -9 3087.74 2652.65  18
   2   0  -9 4874.04 1207.11   6
  -2   0   8 27943.5 4811.99  17
   2   0  -8 26948.7 4859.07  18
   2   0  -7 10641.6 3349.51  18
  -2   0   7 9407.68 3089.29   5
  -2   0   7 9301.57 3456.23  17
   2   0  -6 8025.74 3013.71  18
  -2   0   6 7304.91 2531.16   5
  -2   0   6 10566.5 3345.03  17
  -2   0   5 60984.9 5152.90   5
  -2   0   5 55100.1 5438.28  17
   2   0  -5 63303.0 5510.36  18
  -2   0   4 20043.6 2927.16   5
  -2   0   4 17093.8 3368.83  17
   2   0  -4 20152.1 3174.72  18
  -2   0   4 17470.1 3193.43   4
  -2   0   3 143294. 6398.07   5
   2   0  -3 149348. 7239.90  18
  -2   0   3 152999. 7009.85  17
  -2   0   3 162517. 7784.85   4
   2   0  -3 141631. 7149.38  15
  -2   0   2 121.689 1713.04   4
   2   0  -2 343.353 1470.24  18
  -2   0   2 6.53620 1079.32   5
  -2   0   2 109.092 1455.49  17
  -2   0   2 481.881 881.577   1
   2   0  -2 1824.80 2032.87  15
  -2   0   1 308444. 6846.00   1
  -2   0   1 282242. 6819.37   5
  -2   0   1 287846. 8273.77   4
   2   0  -1 288121. 8539.00  15
  -2   0   0 68177.4 3731.58   5
  -2   0   0 71496.3 3935.56   1
  -2   0   0 68966.2 4327.46   4
   2   0   0 69153.6 4612.16  15
   2   0   0 70891.1 4288.74   1
  -2   0  -1 127209. 5913.37   1
   2   0   1 110347. 4866.79   2
  -2   0  -1 120391. 5740.63   4
   2   0   1 114205. 5951.46  15
  -2   0  -1 122349. 5407.42   5
   2   0   2 2443.28 1787.65   2
  -2   0  -2 2294.88 1787.95   4
   2   0   2 1629.85 1782.13  15
   2   0   3 314318. 10805.4   2
  -2   0  -3 332432. 11088.6   4
   2   0   3 313690. 10999.1  15
  -2   0  -4 472.442 1841.63   4
   2   0   4 544.072 2255.57   2
   2   0   5 5706.52 2906.04   2
  -2   0  -5 7549.45 2387.20  16
  -2   0  -6 43213.4 4866.55  18
  -2   0  -6 49758.1 5297.83  16
  -2   0  -7 992.171 1838.60  18
   2   0   7 3329.73 2765.65   2
  -2   0  -8 61153.3 2985.38  20
   2   0   8 56091.5 2684.63  23
   2   0   8 58438.7 6304.37   2
  -2   0  -8 46699.7 5497.72  18
  -2   0  -9 2823.45 2585.78  21
  -2   0  -9 2697.79 1162.53  20
   2   0   9 3476.28 986.958   8
   2   0   9 7391.75 3111.11   2
   2   0   9 3087.98 1011.34  23
  -2   0 -10 17528.7 1751.21  20
   2   0  10 15214.8 1595.04  23
   2   0  10 17025.6 1476.89   8
  -2   0 -10 17866.3 1613.86   6
  -2   0 -11 18806.5 1896.88  21
   2   0  11 19102.9 1420.90   8
   2   0  11 18992.2 1615.16  23
  -2   0 -11 18909.4 1504.43   6
  -2   0 -12 1525.24 706.089   6
   2   0  12 1657.04 887.198  23
   2   0  13 548.980 633.321  23
  -2   1  13 2034.17 797.484  20
   2   1 -12 9178.12 1060.84  19
   2   1 -11 17305.5 1524.43  19
   2   1 -11 22036.9 1668.08   6
   2   1 -10 7249.64 1234.96  19
   2   1 -10 7808.22 1292.37   6
   2   1  -9 53629.5 2681.05  19
   2   1  -9 61103.4 7041.33  18
  -2   1   9 58982.6 6239.21  17
   2   1  -9 56280.1 2665.43   6
  -2   1   8 16603.9 3865.37  17
   2   1  -8 14896.8 4205.71  18
   2   1  -7 50957.1 6121.39  18
  -2   1   7 65426.0 6468.97  17
  -2   1   6 3064.85 2604.23  17
   2   1  -6 2927.23 2956.93  18
   2   1  -5 143509. 8570.50  18
  -2   1   5 134036. 8211.05  17
   2   1  -5 149091. 8769.65  15
   2   1  -4 7517.88 2459.98  18
  -2   1   4 5408.87 2562.15  17
   2   1  -4 11350.8 4891.17  15
   2   1  -3 75667.0 5137.41  18
  -2   1   3 65326.2 5091.19  17
   2   1  -3 74921.1 4590.86   1
   2   1  -3 70830.2 5962.06  15
   2   1  -2 311172. 10035.8   1
   2   1  -2 297965. 10385.8  18
  -2   1   2 298217. 9340.92  17
  -2   1   2 309190. 10904.7   4
   2   1  -2 296029. 11029.1  15
  -2   1   1 456917. 13327.9   4
  -2   1   1 414806. 10613.2   1
   2   1  -1 444473. 13610.5  15
   2   1  -1 467950. 13067.6   1
  -2   1   0 321320. 9392.80   1
  -2   1   0 318645. 10403.2   4
   2   1   0 327984. 10893.4  15
   2   1   0 325386. 10770.5   1
  -2   1  -1 95080.4 5129.42   1
  -2   1  -1 90671.9 4906.40   4
   2   1   1 85085.7 5205.99  15
   2   1   1 85561.8 5361.93   1
   2   1   2 168323. 7048.65   2
  -2   1  -2 166595. 6972.50   4
   2   1   2 176306. 7305.29  15
   2   1   3 70884.5 4944.55   2
  -2   1  -3 68033.5 4548.15   4
   2   1   3 73578.1 4763.26  15
  -2   1  -4 16367.5 2763.10   4
   2   1   4 13063.7 3143.53   2
   2   1   5 36525.7 4471.38   2
  -2   1  -5 46361.8 4495.17   4
   2   1   6 1179.65 2739.33   2
  -2   1  -6 2577.20 2224.40  18
  -2   1  -7 58650.8 6230.18  18
   2   1   7 67004.2 6482.50   2
  -2   1  -8 20578.4 2616.90  21
   2   1   8 15733.5 4096.75   2
  -2   1  -8 12876.0 3032.98  18
   2   1   8 17236.5 1653.24  23
  -2   1  -8 19045.7 1759.32  20
  -2   1  -9 30274.4 3151.25  21
   2   1   9 24832.6 1912.11  23
  -2   1  -9 20292.2 3933.68  18
   2   1   9 21613.4 4616.86   2
  -2   1  -9 25037.3 2007.57  20
  -2   1 -10 4298.96 2736.45  21
   2   1  10 5764.01 1222.63  23
  -2   1 -10 6581.03 1279.39  20
  -2   1 -11 26130.0 2469.74  21
   2   1  11 24156.9 1786.32  23
  -2   1 -12 376.695 1260.70  21
   2   1  12 2263.59 857.688  23
   2   1  13 1675.82 628.339  23
  -2   2  13 2079.24 716.114  20
   2   2 -13 2498.26 646.460  19
  -2   2  12 11281.5 1184.38  20
   2   2 -12 10308.9 1152.67  19
   2   2 -11 22085.6 1724.03  19
   2   2 -10 4171.66 1220.16  19
   2   2  -9 26001.7 1995.92  19
  -2   2   9 33236.5 4891.87  17
   2   2  -9 27096.2 1870.00   6
   2   2  -9 32988.8 5410.67  18
   2   2  -8 65930.1 7417.40  18
  -2   2   8 67632.0 6592.02  17
  -2   2   7 46601.8 5659.91  17
   2   2  -7 47442.6 6194.74  18
   2   2  -6 3242.31 2784.91  18
  -2   2   6 1776.97 2620.86  17
   2   2  -5 61444.4 5904.14  18
  -2   2   5 62408.3 5707.30  17
   2   2  -5 45252.9 7166.80  15
   2   2  -4 251.290 1800.49  18
  -2   2   4 1463.35 2082.92  17
   2   2  -3 62285.5 4773.22  18
  -2   2   3 53284.8 4700.98  17
   2   2  -3 52475.1 5865.82  15
   2   2  -2 255352. 9478.38  18
  -2   2   2 264271. 10186.8   4
   2   2  -2 238717. 10545.0  15
  -2   2   1 167968. 7460.96   4
   2   2  -1 164463. 8054.35  15
  -2   2   0 21565.7 2712.04   4
   2   2   0 22015.5 3268.34  15
  -2   2  -1 78951.6 4603.18   4
   2   2   1 72398.4 4942.58  15
  -2   2  -1 73887.0 4897.88   1
  -2   2  -2 138480. 6218.95   4
   2   2   2 130787. 6703.98   2
   2   2   2 145025. 6734.53  15
   2   2   3 38379.1 4042.59   2
  -2   2  -3 37188.6 3403.05   4
   2   2   3 39833.2 3688.53  15
   2   2   4 16278.5 3195.56   2
   2   2   5 33576.9 4576.72   2
  -2   2  -5 35302.5 4701.04  18
   2   2   6 56802.1 6029.92   2
  -2   2  -6 53545.7 6004.62  18
   2   2   7 7302.91 3431.13   2
  -2   2  -7 5713.65 3211.16  18
   2   2   8 29736.8 5176.54   2
  -2   2  -8 28373.0 4894.17  18
   2   2   8 27743.7 1981.78  23
  -2   2  -8 30283.1 2086.64  20
  -2   2  -9 54258.7 3648.01  21
  -2   2  -9 52652.1 2739.48  20
  -2   2  -9 48595.0 5830.46  18
   2   2   9 51608.3 2667.29  23
   2   2   9 43417.5 5922.21   2
   2   2  10 10724.6 1481.86  23
  -2   2 -10 13332.7 3059.73  21
  -2   2 -10 11272.4 1439.63  20
  -2   2 -11 3041.09 2857.85  21
   2   2  11 12255.7 1402.52  23
  -2   2 -12 8675.63 1386.70  21
   2   2  12 8913.64 1037.07  23
   2   3 -13 3076.22 632.874  19
   2   3 -12 619.320 783.144  19
   2   3 -11 1465.74 1069.03  19
   2   3 -10 6658.62 1301.19  19
   2   3  -9 41194.2 2436.41  19
  -2   3   9 33828.8 5093.13  17
   2   3  -8 12102.1 3573.14  18
   2   3  -8 10545.0 1406.18  19
  -2   3   8 5871.50 3008.15  17
   2   3  -7 4890.70 3175.12  18
  -2   3   7 8680.99 3205.73  17
   2   3  -6 107166. 8419.48  18
  -2   3   6 115958. 8104.61  17
   2   3  -5 6915.53 2812.96  18
  -2   3   5 5179.71 2867.19  17
   2   3  -4 267007. 11578.6  18
  -2   3   4 257437. 11203.7  17
   2   3  -3 5980.71 2364.40  18
   2   3  -3-593.155 5464.68  15
   2   3  -2 141741. 6921.81  18
   2   3  -2 145182. 8736.31  15
  -2   3   1 32005.7 3495.63   4
   2   3  -1 33318.5 4462.73  15
  -2   3   0 258951. 9507.20   4
   2   3   0 248278. 10505.3  15
  -2   3  -1 166621. 7130.06   4
   2   3   1 180058. 8163.19  15
   2   3   2 92095.0 5650.24  15
   2   3   3 36935.0 4287.21   2
   2   3   4 178498. 9493.85   2
   2   3   5 5204.38 3204.89   2
  -2   3  -5 4860.68 2745.62  18
   2   3   5 5990.46 2695.26  17
   2   3   6 18611.0 4453.85   2
  -2   3  -6 17142.2 3859.25  18
   2   3   6 18231.3 4100.60  17
   2   3   7 8261.52 4121.51   2
  -2   3  -7 6895.78 2993.16  18
   2   3   8 4759.98 1299.22  23
  -2   3  -8 6101.70 2925.43  18
   2   3   8 3058.53 3025.01   2
  -2   3  -9 5352.97 2838.91  21
   2   3   9 3041.94 1209.01  23
  -2   3 -10 6347.94 2976.35  21
   2   3  10 1463.75 1114.28  23
  -2   3 -11 4743.88 2766.86  21
   2   3  11 9967.53 1232.44  23
  -2   3 -12 3588.65 1230.49  21
   2   3  12 2022.61 721.975  23
   2   4 -12 12343.1 1129.33  19
   2   4 -11 32342.7 1960.14  19
   2   4 -10 3144.51 1170.54  19
   2   4  -9 27322.8 2056.22  19
   2   4  -8 34338.7 2223.60  19
   2   4  -8 43172.1 5978.23  18
  -2   4   8 34248.6 5153.57  17
   2   4  -7 45977.3 2476.24  19
   2   4  -7 53561.1 6581.58  18
  -2   4   7 58898.9 6294.00  17
   2   4  -6 29244.1 4799.57  18
  -2   4   6 26866.9 4867.11  17
   2   4  -5 5628.63 2705.59  18
   2   4  -4 40155.1 4551.27  18
   2   4  -4 21174.0 5583.04  15
   2   4  -3 17315.5 3012.56  18
   2   4  -3 12872.1 4591.79  15
   2   4  -2 65364.2 6928.89  15
  -2   4   1 36761.7 3873.75   4
   2   4  -1 31654.2 4925.07  15
   2   4   0 57885.4 5481.08  15
   2   4   1 12199.2 2876.44  15
   2   4   2 45587.7 4543.73  15
   2   4   3 31133.2 4469.40   2
  -2   4  -4 59115.6 6110.40  18
   2   4   4 75260.6 6730.16   2
   2   4   5 48693.1 5965.51   2
  -2   4  -5 39805.4 5511.03  18
   2   4   6 16796.8 4530.70   2
  -2   4  -6 18626.6 4346.76  18
   2   4   6 23386.7 4547.12  17
   2   4   7 85533.7 3492.78  23
   2   4   7 90125.3 8495.63   2
  -2   4  -7 76565.4 7644.48  18
   2   4   8 22860.5 1938.37  23
  -2   4  -9 26697.8 3190.24  21
   2   4   9 29258.6 1968.39  23
  -2   4 -10 15577.1 3006.66  21
   2   4  10 10152.4 1271.42  23
  -2   4 -11 4966.38 2345.86  21
   2   4  11 9225.08 1011.07  23
  -2   4 -12 17242.1 1280.44  21
   2   5 -12 2199.72 645.724  19
   2   5 -11-6.92653 790.761  19
   2   5 -10 5259.12 1143.84  19
   2   5  -9 1332.75 1015.94  19
   2   5  -8 30048.5 2083.69  19
   2   5  -7 6854.67 1251.89  19
   2   5  -7 6445.50 3488.24  18
   2   5  -6 17730.2 1574.78  19
   2   5  -4 21805.8 5911.14  15
   2   5  -3 30473.1 5659.24  15
   2   5  -2 81996.9 8313.88  15
   2   5  -1 45556.3 6225.27  15
   2   5   0 39729.7 5283.48  15
   2   5   1 234376. 11041.3  15
  -2   5  -3 51455.1 5826.75  18
   2   5   3 57835.1 6041.54   2
  -2   5  -4 47782.2 6025.51  18
   2   5   4 52165.2 6149.09   2
   2   5   5 6145.35 3459.32   2
  -2   5  -5 5224.20 2842.18  18
   2   5   6 34134.0 6146.07   2
  -2   5  -6 26000.2 4841.53  18
   2   5   6 39836.2 5611.23  17
   2   5   7 2086.37 1066.73  23
  -2   5  -9 5185.78 2603.84  21
  -2   5 -10 11816.8 2477.82  21
  -2   5 -11 3577.37 1729.13  21
   2   6 -11 4580.06 761.769  19
   2   6 -10 1793.52 817.716  19
   2   6  -9 4105.31 1047.33  19
   2   6  -8 11861.4 1366.79  19
   2   6  -7 48242.2 2451.17  19
   2   6  -5 151812. 13715.8  15
   2   6  -3 40367.9 7917.41  15
   2   6  -2 31385.5 6374.11  15
   2   6  -1 57197.7 7032.52  15
   2   6   0 2820.30 4360.59  15
   2   6   3 22665.8 4566.07   2
   2   6   4 9599.84 3684.91   2
   2   6   5 69673.8 7420.37   2
  -2   6  -9 10957.3 2207.68  21
  -2   6 -10 19173.6 1880.94  21
   2   7  -4-9859.07 10540.3  15
   2   7  -3 38671.6 8283.35  15
   2   7  -2-4345.30 7685.71  15
   2   7  -1 17553.2 5794.65  15
   2   7   2 15419.7 4289.85   2
   2   7   3 52566.3 6357.65   2
  -2   7  -8 2226.91 1682.53  21
  -2   7  -9 1561.54 1326.76  21
  -3  -9   5 5921.95 988.608   7
  -3  -9   4 8921.86 1214.86   7
   3  -9  -4 7917.98 1076.62  22
  -3  -9   3 20434.8 1509.73  10
  -3  -9   3 20907.7 1570.05   7
   3  -9  -3 19911.5 1499.27  22
  -3  -9   2 275.191 1025.78  10
  -3  -9   2 7.58119 976.397   7
  -3  -9   1 6292.19 1360.22  10
  -3  -9   0 28508.3 2109.58  10
   3  -9   0 11727.6 2296.44  22
  -3  -9  -1 9561.26 1548.58  10
  -3  -9  -1 10432.3 1221.60  12
  -3  -9  -2 8223.59 1423.98  10
  -3  -9  -2 9347.13 1233.12  12
  -3  -9  -3 22181.8 1714.17  10
  -3  -9  -3 19765.6 1538.86  12
  -3  -9  -4 27974.0 1609.02  10
   3  -9   4 28637.6 2303.17  22
  -3  -9  -4 30392.9 1671.55  12
  -3  -8   7 6634.75 1049.43   7
   3  -8  -6 14351.8 1320.42  22
  -3  -8   6 18625.5 1536.31   7
  -3  -8   5 14429.5 1543.83   7
   3  -8  -5 9423.53 1359.87  22
  -3  -8   4 6302.88 1117.01  10
   3  -8  -4 6071.80 1232.47  22
  -3  -8   4 6800.58 1396.98   7
   3  -8  -3 485.617 1034.66  22
  -3  -8   3 912.578 1100.96  10
  -3  -8   3 2003.88 1233.28   7
  -3  -8   2 31544.2 2324.69  10
  -3  -8   2 32985.4 2172.77   7
   3  -8  -2 32405.6 2132.83  22
  -3  -8   1 4562.22 1472.95  10
  -3  -8   1 4230.61 1217.05   7
   3  -8  -1 4513.89 1215.51  22
  -3  -8   0 16542.1 2004.90  10
   3  -8   0 16184.9 1594.82  22
  -3  -8   0 13833.3 1523.88   7
  -3  -8  -1 22557.2 1771.11  12
  -3  -8  -1 24572.2 2216.00  10
  -3  -8  -2 9506.26 1577.41  10
  -3  -8  -2 8449.18 1287.32  12
  -3  -8  -3 7257.46 1287.87  12
  -3  -8  -3 8680.26 1453.34  10
  -3  -8  -4 19441.4 1675.50  10
  -3  -8  -4 18357.8 1678.37  12
   3  -8   5 20440.1 2438.02  22
  -3  -8  -5 16762.4 1528.98  12
  -3  -8  -6 1605.27 978.040  12
   3  -8   6 3666.32 1914.89  22
  -3  -8  -7 9604.90 980.508  12
  -3  -7   9 1620.01 553.060   9
  -3  -7   9 3055.07 692.874   7
  -3  -7   8 15186.9 1291.15   7
   3  -7  -8 12742.1 1199.95  22
  -3  -7   7 38903.1 2142.80   7
   3  -7  -7 32756.1 2066.66  22
   3  -7  -6 595.842 1051.88  22
  -3  -7   6-236.562 912.394   9
  -3  -7   6 1056.68 1109.61   7
  -3  -7   5 16901.5 1624.85   9
  -3  -7   5 17958.2 1889.81   7
   3  -7  -5 18250.1 1806.71  22
  -3  -7   4 18317.8 1763.37  10
  -3  -7   4 17501.3 1629.85   9
  -3  -7   4 19886.1 1874.49   7
   3  -7  -4 18415.6 1828.59  22
   3  -7  -3 38061.4 2393.02  22
  -3  -7   3 33610.0 2463.26  10
  -3  -7   3 38104.9 2227.38   9
  -3  -7   3 36383.7 2388.81   7
  -3  -7   2 30322.4 2481.86  10
  -3  -7   2 38250.6 2201.05   9
  -3  -7   2 36347.8 2301.14   7
   3  -7  -2 37442.7 2351.62  22
  -3  -7   1 2804.76 1362.14  10
  -3  -7   1 4598.30 1013.94   9
   3  -7  -1 3717.03 1159.37  22
  -3  -7   1 3996.51 1171.54   7
  -3  -7   0 121526. 4870.15  10
  -3  -7   0 112419. 4098.56   7
   3  -7   0 113109. 4131.08  22
   3  -7   1 25940.7 1917.76  22
  -3  -7  -1 23352.4 1815.24   7
  -3  -7  -1 26399.9 2300.83  10
  -3  -7  -2 39973.0 2678.70  10
   3  -7   2 44277.8 2495.27  22
  -3  -7  -3 21180.7 1781.11  12
  -3  -7  -3 24318.2 2041.12  10
  -3  -7  -4 114.148 985.508  12
  -3  -7  -4-488.655 1004.67  10
   3  -7   4-2013.92 2447.86  22
  -3  -7  -5 2117.84 1159.53  12
   3  -7   5 10453.0 2375.42  22
  -3  -7  -6 8688.51 1390.11  12
   3  -7   6 11210.9 2453.97  22
  -3  -7  -7 13694.1 1426.12  12
   3  -7   7 16815.3 2162.03  22
  -3  -7  -8 4567.91 926.539  12
  -3  -6   9 15240.5 1176.16   7
   3  -6  -9 12170.5 1313.60  22
   3  -6  -8 10591.5 1526.96  22
  -3  -6   8 11031.0 1317.84   7
  -3  -6   7 5852.25 1246.72   7
   3  -6  -7 4723.19 1378.98  22
   3  -6  -6 19219.2 1986.04  22
  -3  -6   6 21227.3 1870.94   7
  -3  -6   5 38405.7 2464.80   7
   3  -6  -5 40180.0 2613.05  22
  -3  -6   4 16909.1 4010.17   5
  -3  -6   4 17533.5 1786.50   7
   3  -6  -4 17429.7 1852.18  22
   3  -6  -3 26019.2 4634.23  10
  -3  -6   3 18362.7 4194.81   5
  -3  -6   3 17312.4 1617.88   9
  -3  -6   3 18115.1 1730.21   7
   3  -6  -3 17931.1 1794.23  22
  -3  -6   2 30303.6 4773.69   5
  -3  -6   2 28071.6 1917.58   9
   3  -6  -2 19509.9 4869.38   3
  -3  -6   2 28507.4 2021.04   7
   3  -6  -2 28736.3 2090.25  22
   3  -6  -1 22509.4 4021.30  10
  -3  -6   1 14496.9 3938.95   5
  -3  -6   1 13806.2 1420.10   9
   3  -6  -1 14726.5 5062.07   3
  -3  -6   1 13711.9 1481.63   7
   3  -6  -1 15182.1 1551.13  22
   3  -6   0 13654.4 1486.06  22
  -3  -6   0 11690.2 3191.74   5
  -3  -6   0 13772.8 1371.51   9
   3  -6   0 10831.1 3789.89   3
  -3  -6   0 14871.7 1494.74   7
  -3  -6  -1 12357.5 3168.73   5
  -3  -6  -1 10196.8 1218.36   9
  -3  -6  -1 9519.90 1278.10   7
   3  -6   1 9643.12 1320.29  22
  -3  -6  -2 38781.7 5278.58   5
   3  -6   2 46805.6 2476.58  22
  -3  -6  -2 50291.8 2832.43  10
  -3  -6  -2 43904.5 2306.69   9
   3  -6   2 34496.0 5990.44   3
  -3  -6  -3 40464.9 2267.47   9
  -3  -6  -3 44201.7 2590.70  10
   3  -6   3 39967.1 2607.57  22
  -3  -6  -4 116989. 4288.60  10
  -3  -6  -4 114937. 4145.00  12
  -3  -6  -4 112603. 4082.98   9
   3  -6   4 110263. 4524.68  22
  -3  -6  -5 34822.4 2264.97  12
   3  -6   5 37778.8 2949.49  22
  -3  -6  -6 843.626 1069.69  12
   3  -6   6 12104.6 2317.77  22
   3  -6   7 13026.9 2407.43  22
  -3  -6  -7 9773.05 1450.03  12
  -3  -6  -8 6911.05 1208.70  12
  -3  -6  -8 6965.16 1031.70   6
  -3  -6  -9 17142.0 1108.00   6
  -3  -6  -9 17956.7 1290.60  12
   3  -5 -11 21117.1 1153.11  13
   3  -5 -10 22433.9 1476.83  13
   3  -5 -10 19900.4 1518.83  22
   3  -5  -9 27901.2 1825.36  13
   3  -5  -9 26994.7 2012.32  22
  -3  -5   8 36838.1 2121.50   7
   3  -5  -8 32419.9 2101.12  13
   3  -5  -8 32510.4 2403.78  22
   3  -5  -7 12126.1 1503.51  13
   3  -5  -7 11644.8 1763.29  22
  -3  -5   7 14907.6 1597.75   7
  -3  -5   6 43978.7 2557.59   7
   3  -5  -6 40310.5 2732.15  22
  -3  -5   5 71589.6 7592.97   5
  -3  -5   5 66702.0 3165.28   7
   3  -5  -5 68530.2 3404.11  22
  -3  -5   4 56961.8 6576.53   5
  -3  -5   4 60636.9 2961.63   7
   3  -5  -4 67738.9 3249.56  22
  -3  -5   3 32472.9 4996.82   5
   3  -5  -3 39573.7 4085.64  10
  -3  -5   3 34622.8 2158.93   7
   3  -5  -3 37853.9 2321.80  22
   3  -5  -2 57319.0 7853.41   3
  -3  -5   2 59528.9 6162.88   5
  -3  -5   1 7614.87 2908.40   5
   3  -5  -1 8040.41 4173.03   3
  -3  -5   0 16354.2 3500.52   5
   3  -5   0 18366.9 5315.10   3
  -3  -5  -1 5988.42 2620.01   5
   3  -5   1 11212.5 4313.86   3
  -3  -5  -1 9343.15 3038.10  16
  -3  -5  -2 31810.9 4722.34   5
  -3  -5  -2 32635.7 1917.77   9
   3  -5   2 30603.2 5333.28   3
  -3  -5  -2 25504.3 5125.21  16
  -3  -5  -3 64136.4 6590.95   5
   3  -5   3 52684.0 6687.00   3
   3  -5   3 64550.7 2835.90  11
  -3  -5  -3 68073.3 2945.06   9
  -3  -5  -3 62826.5 7378.19  16
   3  -5   4 3382.61 1960.42  22
  -3  -5  -4 6922.98 1218.50  12
   3  -5   4 7081.42 1131.86  11
  -3  -5  -4 6892.37 1169.76   9
   3  -5   4 2526.03 2625.06   3
  -3  -5  -4 5459.61 3213.39  16
  -3  -5  -5 23788.2 1883.40   9
  -3  -5  -5 26226.6 1889.11  12
   3  -5   5 22476.2 1729.19  11
  -3  -5  -5 22407.9 4683.56  16
   3  -5   5 29613.3 2615.03  22
   3  -5   6 17636.6 1540.55   8
  -3  -5  -6 17522.2 1744.78  12
   3  -5   7 17281.7 1501.38   8
  -3  -5  -7 17848.7 1734.41  12
  -3  -5  -8 6300.63 1263.60  12
   3  -5   8 4861.01 941.055   8
   3  -5   9 13918.4 1148.02   8
  -3  -5  -9 15633.2 1324.05   6
  -3  -5  -9 16018.0 1395.60  12
   3  -5  10 19608.4 1101.86   8
  -3  -5 -10 21309.7 1245.40  12
   3  -4 -11 82.8792 786.144  22
   3  -4 -11 89.4826 800.125  13
   3  -4 -10-589.488 1005.45  13
   3  -4  -9 5611.66 1289.07  13
   3  -4  -8 44563.5 2580.73  13
  -3  -4   7 25704.9 5304.93   5
  -3  -4   7 33274.9 2151.21   7
   3  -4  -7 31084.0 2172.22  13
  -3  -4   6 59137.2 6916.41   5
  -3  -4   6 57637.0 2827.96   7
   3  -4  -6 55034.5 2767.87  13
  -3  -4   5 7156.72 3065.14   5
  -3  -4   4 6126.67 2885.82   5
   3  -4  -3 75494.9 8365.99   3
  -3  -4   3 93827.9 7645.54   5
   3  -4  -2 89024.9 8893.23   3
  -3  -4   2 96851.9 7484.28   5
  -3  -4   1 84928.8 6854.81   5
   3  -4  -1 87415.0 8758.59   3
  -3  -4   0 7941.60 2606.25   5
   3  -4   0 6859.02 3915.82   3
  -3  -4  -1 93929.3 7228.89   5
   3  -4   1 112271. 9381.46   3
  -3  -4  -1 113400. 8488.81   4
  -3  -4  -2 103731. 7776.78   5
   3  -4   2 110697. 9163.66   3
  -3  -4  -3 3090.01 2258.41   5
   3  -4   3 3419.59 2633.63   3
  -3  -4  -3 2009.54 2715.88  16
   3  -4   4 58887.0 6451.60   3
  -3  -4  -4 73836.5 7499.38  16
  -3  -4  -5 6783.53 1154.35  12
   3  -4   5 6661.53 1121.12  11
  -3  -4  -5 6132.55 1215.68   9
   3  -4   5 6731.57 1157.92   8
  -3  -4  -5 6243.82 3303.40  16
  -3  -4  -6 84488.2 3431.20  12
   3  -4   6 74934.8 3258.97  11
   3  -4   6 77125.6 3272.95   8
  -3  -4  -6 75867.0 7933.74  16
  -3  -4  -7 6447.25 1295.57  20
   3  -4   7 6133.46 1187.65   8
  -3  -4  -7 7345.41 1323.46  12
  -3  -4  -8 15747.9 1556.70  20
   3  -4   8 16484.7 1508.09   8
  -3  -4  -8 14959.0 1636.14  12
  -3  -4  -9 3569.96 1007.49  12
  -3  -4  -9 3262.43 910.418  20
   3  -4   9 3686.97 988.357   8
   3  -4  10 19549.8 1299.51   8
  -3  -4 -10 19761.3 1382.09   6
  -3  -4 -10 17362.5 1237.45  12
  -3  -4 -11 36578.5 1438.32   6
  -3  -3  12 2006.28 668.881  20
   3  -3 -12 2603.97 854.557  13
  -3  -3  11 22133.4 1538.36  20
   3  -3 -11 25203.0 1727.75  13
  -3  -3  10 27619.8 1999.05  20
   3  -3 -10 28709.8 2065.48  13
  -3  -3   9 25338.3 2065.21  20
   3  -3  -9 23559.9 2034.26  13
  -3  -3   8 26298.7 2204.65  20
   3  -3  -8 28489.8 2147.28  13
  -3  -3   7 29725.8 2301.93  20
   3  -3  -7 32365.3 2202.77  13
  -3  -3   7 24699.0 5066.15   5
  -3  -3   7 31107.3 5515.22  17
  -3  -3   6 55381.0 6556.37   5
  -3  -3   6 58847.1 7202.74  17
  -3  -3   5 26707.5 4490.78   5
  -3  -3   4 124303. 8613.79   5
   3  -3  -4 100082. 8505.18   3
   3  -3  -3 11196.1 3900.13   3
  -3  -3   3 12760.2 3071.37   5
  -3  -3   2 28857.6 3972.01   5
   3  -3  -2 27047.9 5134.68   3
  -3  -3   1 22881.8 3641.20   5
  -3  -3   1 26226.1 3892.61   4
   3  -3  -1 26973.7 5108.21   3
  -3  -3   0 23403.7 3591.10   5
  -3  -3   0 22447.0 3695.72   4
   3  -3   0 21249.7 4726.69   3
  -3  -3  -1 243702. 11222.0   5
   3  -3   1 256400. 13189.7   3
  -3  -3  -1 250842. 11865.4   4
  -3  -3  -2 46161.2 4940.15   5
   3  -3   2 46152.5 5658.74   3
  -3  -3  -2 43336.4 5286.18   4
  -3  -3  -3 80096.6 6924.26   5
  -3  -3  -3 76353.8 7113.28   4
   3  -3   3 63411.2 6508.35   3
   3  -3   4 45018.6 5477.86   3
  -3  -3  -4 61806.6 6517.51  16
  -3  -3  -5 25385.4 4580.19  16
   3  -3   6 16805.6 1580.19  11
  -3  -3  -6 14469.0 1532.35  20
   3  -3   6 15478.4 1574.60   8
  -3  -3  -6 14100.4 3961.11  16
  -3  -3  -6 18618.4 1633.49  12
  -3  -3  -7 39211.8 2427.68  20
   3  -3   7 44657.0 2467.08   8
  -3  -3  -7 38860.1 5792.92  16
  -3  -3  -7 44053.6 2494.39  12
  -3  -3  -8 549.712 970.031  12
  -3  -3  -8-391.073 975.956  20
   3  -3   8-41.3631 894.753   8
  -3  -3  -9 2579.67 1057.06  20
   3  -3   9 2595.59 1057.48   8
   3  -3  10 54647.8 2326.10   8
  -3  -3 -10 51342.9 2250.12   6
   3  -3  11 4823.34 840.366   8
  -3  -3 -11 4848.72 934.197   6
  -3  -2  12 32782.2 1721.22  20
   3  -2 -12 40398.2 1889.31  13
  -3  -2  11 11959.6 1398.22  20
   3  -2 -11 11344.8 1422.19  13
  -3  -2  10 18973.4 1816.54  20
   3  -2 -10 18304.4 1861.38  13
  -3  -2   9 56037.7 3026.20  20
   3  -2  -9 57148.6 3007.95  13
  -3  -2   8 10334.6 1640.71  20
  -3  -2   8 8145.33 3599.81   5
  -3  -2   8 12925.3 4052.96  17
   3  -2  -8 10668.1 1536.83  13
  -3  -2   7 4592.49 1312.73  20
  -3  -2   7 1876.77 2675.77   5
  -3  -2   7 1054.42 2815.58  17
   3  -2  -7 3078.32 1123.21  13
  -3  -2   6 14454.9 3574.55   5
  -3  -2   6 14984.7 4207.80  17
  -3  -2   5 52344.7 5739.35   5
  -3  -2   5 54443.9 6051.27  17
  -3  -2   4 23943.0 3807.20   5
  -3  -2   4 17089.9 3893.75  17
   3  -2  -4 17251.9 4277.20   3
  -3  -2   3 14622.4 3308.38   5
   3  -2  -3 13777.8 3953.79   3
   3  -2  -3 19084.2 3858.74  15
  -3  -2   3 10708.9 2663.37   4
  -3  -2   2 168304. 8638.74   5
   3  -2  -2 147044. 10284.4   3
  -3  -2   2 170441. 9026.12   4
   3  -2  -2 148778. 9463.58  15
  -3  -2   1 23860.0 3421.95   5
  -3  -2   1 24531.8 3590.88   4
   3  -2  -1 20022.3 4358.00   3
   3  -2  -1 18642.4 4019.26  15
  -3  -2   0 18835.4 3112.90   5
   3  -2   0 21184.7 4433.87   3
  -3  -2   0 16838.8 3137.94   4
  -3  -2  -1 207242. 9815.80   5
   3  -2   1 232643. 11740.7   3
  -3  -2  -1 207982. 10218.3   4
  -3  -2  -2 75633.3 6120.46   5
   3  -2   2 75137.2 6664.22   3
  -3  -2  -2 83420.5 6450.01   4
   3  -2   3 39082.7 4902.69   3
  -3  -2  -3 51954.9 5636.82   4
   3  -2   4 3873.54 2408.89   3
  -3  -2  -4 7346.28 3363.38   4
  -3  -2  -5 60556.2 6462.17  16
  -3  -2  -6 85761.8 3534.23  20
   3  -2   6 94797.3 3670.15  11
   3  -2   6 87407.3 3575.22   8
  -3  -2  -6 81515.5 7729.97  16
   3  -2   7 83324.6 3498.78  11
  -3  -2  -7 82491.6 3523.16  20
   3  -2   7 83664.7 3522.72   8
  -3  -2  -7 75990.2 7519.33  16
  -3  -2  -8 33211.5 2243.12  20
   3  -2   8 31369.9 1940.52  23
   3  -2   8 32598.9 2226.70   8
  -3  -2  -9 28619.5 2088.34  20
   3  -2   9 27914.7 1794.97  23
   3  -2   9 30941.1 2048.48   8
  -3  -2 -10 5165.51 1181.22   6
  -3  -2 -10 4385.25 1137.62  20
   3  -2  10 5643.61 1117.17   8
   3  -2  10 4611.48 905.345  23
  -3  -2 -11 3980.76 899.011   6
   3  -2  11 3969.75 834.602   8
   3  -2  11 4074.27 753.722  23
  -3  -1  13 7959.37 784.318  20
  -3  -1  12 440.559 826.223  20
   3  -1 -12 479.051 813.136  13
  -3  -1  11 10006.8 1387.26  20
   3  -1 -11 10727.5 1381.33  13
  -3  -1  10 28343.9 2165.84  20
   3  -1 -10 28913.5 2095.90  13
  -3  -1   9 18833.2 1954.90  20
   3  -1  -9 19007.3 1841.75  13
  -3  -1   8 78782.5 3594.71  20
  -3  -1   8 75630.8 7471.65  17
   3  -1  -8 77929.9 3466.82  13
  -3  -1   7 46667.1 6195.55  17
  -3  -1   6 5171.18 3147.00  17
  -3  -1   5 40404.7 4713.22   5
  -3  -1   5 39819.0 5048.92  17
  -3  -1   5 35457.9 4789.65   4
  -3  -1   4 13674.4 2939.98   5
  -3  -1   4 12134.8 3437.03  17
   3  -1  -4 14886.5 3768.21   3
   3  -1  -4 13068.9 3313.46  15
  -3  -1   4 13742.2 3302.43   4
  -3  -1   3 207705. 9416.43   5
   3  -1  -3 206413. 11490.7   3
  -3  -1   3 197985. 10235.6   4
  -3  -1   2 17718.6 2888.31   5
   3  -1  -2 18350.5 3702.05  15
  -3  -1   2 16958.3 3369.21   4
  -3  -1   1 312080. 11526.7   5
   3  -1  -1 311612. 14271.2   3
  -3  -1   1 316536. 12489.2   4
   3  -1  -1 318885. 13377.4  15
  -3  -1   0 77391.0 5335.45   5
   3  -1   0 85465.9 7057.33   3
  -3  -1   0 75829.1 5740.63   4
   3  -1   0 74958.7 6335.71  15
  -3  -1  -1 103465. 6358.44   5
   3  -1   1 98020.0 7540.11   3
  -3  -1  -1 92652.8 6484.49   4
   3  -1   1 90785.2 6911.64  15
  -3  -1  -2 49826.8 4835.30   5
  -3  -1  -2 47381.4 4790.23   4
   3  -1   2 47596.8 5335.47   3
   3  -1   2 46435.0 5121.04  15
   3  -1   3 2665.87 2401.46   3
  -3  -1  -3 4290.36 2444.47   4
  -3  -1  -4 65548.2 6074.89   4
  -3  -1  -5 10501.2 3468.77   4
  -3  -1  -5 13777.6 3298.43  16
  -3  -1  -6 7101.92 2949.93  16
   3  -1   7 74606.3 3251.96  11
  -3  -1  -7 70613.9 3265.57  20
   3  -1   7 73803.2 3306.91   8
  -3  -1  -7 70566.4 7190.69  16
   3  -1   7 72385.2 3007.09  23
  -3  -1  -8 14422.9 1660.17  20
   3  -1   8 13764.9 1580.50   8
   3  -1   8 13320.9 1447.66  23
   3  -1   9 13691.4 1410.36  23
  -3  -1  -9 12595.0 1650.25  20
   3  -1   9 15299.5 1581.53   8
   3  -1  10 36170.4 1948.00  23
  -3  -1 -10 38709.4 2296.63  20
   3  -1  10 41208.8 2139.10   8
  -3  -1 -10 38941.6 2053.74   6
  -3  -1 -11 3550.30 972.081  20
  -3  -1 -11 4738.99 881.327   6
   3  -1  11 3210.32 788.369   8
   3  -1  11 4174.86 874.678  23
   3  -1  12 2353.95 591.632  23
  -3   0  13 7743.34 807.591  20
  -3   0  12 9336.00 1174.74  20
   3   0 -12 11259.2 1101.61  13
  -3   0  11 11849.1 1493.53  20
   3   0 -11 12587.1 1416.12  13
  -3   0  10 35134.9 2353.55  20
   3   0 -10 36096.5 2297.22  13
  -3   0   9 38336.4 2492.32  20
   3   0  -9 34415.0 2115.09  19
   3   0  -9 42126.5 2475.87  13
  -3   0   8 2684.79 1191.59  20
   3   0  -8 2115.89 892.209  19
   3   0  -8 4307.96 3175.63  18
   3   0  -8 3238.20 1155.75  13
   3   0  -7 43860.9 6084.33  18
  -3   0   7 41892.2 5772.33  17
  -3   0   7 33465.1 4976.00   4
   3   0  -6 4394.78 3003.50  18
  -3   0   6 5142.09 2860.28  17
  -3   0   6 5720.14 2652.57   4
  -3   0   5 68828.1 6100.23  17
  -3   0   5 69689.9 6877.85   4
  -3   0   4 71707.1 6533.35   4
   3   0  -4 59362.3 7298.71  15
  -3   0   3 57402.3 5623.93   4
   3   0  -3 45708.8 6465.38  15
  -3   0   2 51513.4 5134.64   4
   3   0  -2 38459.3 5787.49  15
   3   0  -1 3827.39 4117.44  15
  -3   0   1 13263.4 3002.96   4
  -3   0   0 20.3915 1225.15   5
   3   0   0 2056.45 2507.96  15
  -3   0   0 727.007 2054.23   4
  -3   0  -1 149554. 7462.26   5
  -3   0  -1 140660. 7782.34   4
   3   0   1 139993. 8284.82  15
  -3   0  -2 6977.17 2549.58   4
   3   0   2 6176.43 2625.35   3
   3   0   2 3949.38 2421.34  15
  -3   0  -3 92741.3 6486.13   4
   3   0   3 93151.0 6758.57  15
  -3   0  -4 74258.6 6222.16   4
   3   0   5 117508. 8181.37   2
  -3   0  -5 103052. 7791.93   4
  -3   0  -6 2499.85 2054.82  18
   3   0   6-218.599 2402.71   2
  -3   0  -7 31812.1 2222.33  20
   3   0   7 33904.1 2100.86  23
   3   0   7 35869.2 2278.18   8
   3   0   7 34786.1 5390.28   2
  -3   0  -8 67064.1 3283.95  20
   3   0   8 67209.2 2976.12  23
   3   0   8 72657.3 3202.22   8
  -3   0  -9 11363.4 1554.16  20
   3   0   9 10585.9 1359.86  23
   3   0   9 10901.4 1381.48   8
  -3   0 -10 849.938 883.794   6
  -3   0 -10 1020.93 1073.36  20
   3   0  10 1402.62 808.613   8
   3   0  10 596.398 979.325  23
  -3   0 -11 883.651 879.740  20
   3   0  11 1105.41 851.795  23
   3   0  12 4215.29 714.503  23
  -3   1  12 247.935 751.689  20
  -3   1  11 10251.1 1361.01  20
   3   1 -11 9822.49 1168.74  19
   3   1 -10 25779.0 1825.60  19
  -3   1  10 26749.7 2029.16  20
  -3   1   9 17522.5 1785.40  20
   3   1  -9 17270.1 1665.29  19
   3   1  -9 17786.8 1720.67  13
  -3   1   8 75360.0 3404.47  20
   3   1  -8 70216.8 3148.67  19
   3   1  -8 71226.3 7630.42  18
  -3   1   8 59899.8 6681.04  17
  -3   1   8 53421.5 6518.94   4
   3   1  -8 72734.9 3208.63  13
   3   1  -7 44865.1 6334.63  18
  -3   1   7 44079.2 5860.88  17
  -3   1   7 52246.1 6410.09   4
  -3   1   6 4459.45 2213.20   4
   3   1  -6 1935.66 2863.68  18
   3   1  -5 43453.0 5566.19  18
  -3   1   5 45797.1 5705.78   4
   3   1  -5 55900.7 7834.60  15
   3   1  -4 16942.9 3777.86  18
  -3   1   4 20395.6 4014.16   4
  -3   1   3 200481. 10683.1   4
   3   1  -3 197020. 11591.8  15
   3   1  -2 24105.8 5688.31  15
  -3   1   2 15131.2 3310.35   4
  -3   1   1 304944. 12291.8   4
   3   1  -1 303609. 13478.7  15
  -3   1   0 85562.4 6027.15   4
   3   1   0 78256.4 6964.17  15
  -3   1  -1 97646.0 6373.43   4
   3   1   1 91978.0 6978.83  15
   3   1   2 48724.3 4728.06   2
  -3   1  -2 45691.0 4459.42   4
   3   1   2 45662.8 4838.82  15
   3   1   3 7104.62 2625.95   2
  -3   1  -3 6689.30 2362.37   4
   3   1   3 4346.09 2266.83  15
   3   1   4 63189.4 6156.48   2
  -3   1  -4 64777.2 5614.39   4
   3   1   5 13144.0 3728.86   2
  -3   1  -5 10151.6 2939.86   4
   3   1   6 4778.78 3019.01   2
  -3   1  -6 9390.24 3203.04  18
   3   1   7 73549.9 7137.51   2
  -3   1  -7 75096.4 3316.90  20
   3   1   7 72383.9 3186.48  23
  -3   1  -8 10902.6 1542.69  20
   3   1   8 12120.1 1554.56  23
  -3   1  -9 15567.5 2960.41  21
  -3   1  -9 11649.8 1523.75  20
   3   1   9 13040.1 1511.40  23
  -3   1 -10 33900.9 2115.90  20
   3   1  10 37506.4 2128.36  23
  -3   1 -11 4279.50 1156.59  21
   3   1  11 4737.35 1025.07  23
   3   1  12 3699.53 701.581  23
  -3   2  12 30973.3 1529.37  20
   3   2 -12 35097.2 1598.39  19
  -3   2  11 11729.9 1300.76  20
   3   2 -11 13123.8 1295.66  19
  -3   2  10 17716.1 1628.10  20
   3   2 -10 16278.6 1582.33  19
  -3   2   9 62376.6 3003.59  20
   3   2  -9 57564.4 2906.58  19
  -3   2   8 12663.7 1601.08  20
   3   2  -8 10245.0 1507.27  19
   3   2  -8 12608.5 4224.25  18
  -3   2   8 10871.6 3396.28   4
  -3   2   7 3929.23 1201.28  20
   3   2  -7 2848.03 1084.14  19
   3   2  -7 2855.61 2642.60  18
  -3   2   7 2224.05 2650.07   4
   3   2  -6 18013.6 4070.57  18
  -3   2   6 19034.6 4449.50   4
   3   2  -5 55874.3 6266.43  18
  -3   2   5 53441.6 6350.33   4
   3   2  -4 19451.4 3812.58  18
  -3   2   4 19646.4 4329.29   4
   3   2  -3 27580.2 7678.32  15
  -3   2   3 11288.6 3279.34   4
  -3   2   2 174534. 9539.50   4
   3   2  -2 190153. 11350.3  15
  -3   2   1 19566.0 3458.01   4
   3   2  -1 32572.2 6067.01  15
   3   2   0 24314.5 4974.03  15
  -3   2   0 15130.2 3033.21   4
   3   2   1 208437. 9210.13   2
  -3   2  -1 206161. 9533.56   4
   3   2   1 200267. 10307.6  15
   3   2   2 63275.2 5504.55   2
  -3   2  -2 70804.0 5412.34   4
   3   2   2 64647.5 5945.87  15
   3   2   3 45177.8 5031.41   2
  -3   2  -3 39265.7 4262.67   4
   3   2   3 46763.2 4723.06  15
   3   2   4 13027.5 3366.53   2
   3   2   5 73204.2 7129.81   2
   3   2   6 80618.8 7689.22   2
  -3   2  -6 77658.0 7460.66  18
  -3   2  -7 77779.7 3403.12  20
   3   2   7 80889.2 8001.74   2
   3   2   7 75497.9 3314.20  23
  -3   2  -7 71538.4 7290.26  18
  -3   2  -8 35149.0 2260.48  20
   3   2   8 35006.4 2255.49  23
  -3   2  -9 40756.9 3512.03  21
  -3   2  -9 32066.7 2100.86  20
   3   2   9 36543.7 2217.41  23
  -3   2 -10 4503.49 999.008  20
   3   2  10 5310.92 1176.70  23
  -3   2 -11 9041.13 1435.40  21
   3   2  11 4768.05 973.410  23
   3   3 -12 2457.11 754.259  19
   3   3 -11 20222.1 1540.14  19
   3   3 -10 30390.1 2034.84  19
   3   3  -9 21439.1 1902.91  19
   3   3  -8 24566.7 1978.19  19
   3   3  -7 28878.7 2067.31  19
   3   3  -7 30005.6 5356.99  18
  -3   3   7 30348.7 5455.69   4
   3   3  -6 58962.1 7036.35  18
  -3   3   6 54442.8 6878.10   4
   3   3  -5 31186.9 4898.73  18
  -3   3   5 28595.6 5105.87   4
   3   3  -4 117865. 8454.72  18
  -3   3   4 123526. 9109.48   4
   3   3  -3 37800.8 7979.11  15
  -3   3   3 8969.09 3361.88   4
  -3   3   2 29894.1 4343.79   4
   3   3  -2 59431.5 8591.87  15
  -3   3   1 23781.7 3707.83   4
   3   3  -1 40405.1 6835.76  15
   3   3   0 28139.6 5598.13  15
  -3   3   0 16882.2 3131.38   4
  -3   3  -1 212642. 9795.34   4
   3   3   1 228080. 11631.7  15
   3   3   2 45844.2 4885.90   2
   3   3   2 40503.2 5361.71  15
   3   3   3 85410.6 6901.81   2
   3   3   4 61830.8 6422.32   2
   3   3   5 33980.5 5582.66   2
  -3   3  -5 22272.2 4308.19  18
   3   3   6 19873.1 4855.57   2
  -3   3  -6 13105.9 3565.44  18
   3   3   7 43879.7 6434.69   2
  -3   3  -7 38490.7 5761.35  18
   3   3   7 41468.9 2527.97  23
   3   3   8 221.814 1146.54  23
  -3   3  -9 8555.80 3001.23  21
   3   3   9 3242.04 1294.68  23
  -3   3 -10 55205.2 3307.38  21
   3   3  10 53537.9 2377.72  23
   3   3  11 5817.10 941.679  23
   3   4 -12 19602.0 1079.12  19
   3   4 -11 725.263 809.381  19
   3   4 -10-26.3721 1031.78  19
   3   4  -9 5495.95 1263.85  19
   3   4  -8 51439.4 2721.10  19
   3   4  -7 33014.7 2154.80  19
   3   4  -7 31910.4 5452.83  18
  -3   4   7 24981.9 4786.90   4
   3   4  -6 59122.0 2810.69  19
   3   4  -6 60935.2 6995.51  18
  -3   4   6 64373.8 7313.82   4
   3   4  -5 8366.56 3108.44  18
  -3   4   5 4984.04 3140.51   4
   3   4  -4 25948.0 9512.80  15
  -3   4   4 5532.24 2998.99   4
  -3   4   3 95227.3 7765.90   4
   3   4  -3 121617. 11394.1  15
  -3   4   2 79928.9 6821.01   4
   3   4  -2 106787. 10394.5  15
  -3   4   1 76754.0 6385.34   4
   3   4  -1 111534. 9267.71  15
   3   4   0 25340.4 5863.81  15
   3   4   1 107998. 8443.15  15
   3   4   2 94801.6 7455.04   2
   3   4   2 97028.8 7589.30  15
   3   4   3 1982.01 2540.35   2
   3   4   4 78926.1 7462.94   2
   3   4   5 10102.3 4120.98   2
  -3   4  -5 3026.38 2508.18  18
   3   4   6 74485.5 7910.59   2
  -3   4  -6 67347.6 7236.65  18
   3   4   7 6799.83 1468.32  23
   3   4   8 14324.6 1693.59  23
  -3   4  -9 8914.04 2961.95  21
   3   4   9 4553.49 1126.34  23
  -3   4 -10 20526.5 2512.24  21
   3   4  10 19789.9 1435.46  23
  -3   4 -11 32806.4 1727.44  21
   3   5 -11 23327.8 1290.78  19
   3   5 -10 28018.5 1675.67  19
   3   5  -9 29601.8 1902.55  19
   3   5  -8 37166.9 2209.08  19
   3   5  -7 13041.8 1455.51  19
   3   5  -6 42499.7 2312.27  19
  -3   5   6 36486.4 5578.17   4
   3   5  -5 62796.7 2780.59  19
  -3   5   5 60222.8 6981.47   4
  -3   5   4 58151.3 6669.18   4
   3   5  -4 92551.2 12415.5  15
   3   5  -3 51476.3 9998.83  15
  -3   5   3 26321.8 4561.09   4
   3   5  -2 81212.8 10171.5  15
   3   5  -1 33817.5 7396.73  15
   3   5   0 30108.9 6647.76  15
   3   5   1 13612.7 5111.22  15
   3   5   2 31207.6 4989.10   2
  -3   5  -3 63513.4 6653.84  18
   3   5   3 87863.1 7789.22   2
  -3   5  -4 5418.24 2699.62  18
   3   5   4 6903.72 3463.01   2
   3   5   5 26044.7 5473.79   2
  -3   5  -5 15735.8 4273.24  18
   3   5   7 21230.0 1907.93  23
   3   5   8 7478.22 1295.13  23
  -3   5  -9 24192.5 2836.45  21
   3   5   9 19523.5 1456.05  23
  -3   5 -10 28953.6 2111.62  21
   3   5  10 24311.4 1264.63  23
   3   6 -10 724.110 684.015  19
   3   6  -9 16477.6 1267.90  19
   3   6  -8 13049.3 1296.33  19
   3   6  -7 5105.92 1061.83  19
   3   6  -4 37941.0 11372.7  15
   3   6  -3 38830.0 9970.49  15
   3   6  -2 65045.5 9563.37  15
   3   6  -1 37746.2 8011.38  15
   3   6   0 31839.7 6699.78  15
   3   6   1 8488.13 3339.70   2
   3   6   2 45408.1 6151.93   2
   3   6   3 39253.8 5811.90   2
   3   6   6 428.011 1067.97  23
   3   6   7 9523.58 1321.60  23
   3   6   8 7482.81 1045.36  23
  -3   6  -9 22913.2 2147.72  21
  -3   7  -8 6174.33 1640.87  21
   4  -8  -5 2512.30 832.579  22
  -4  -8   5 3558.12 899.600   7
   4  -8  -4 2864.55 1011.91  22
  -4  -8   4 2539.05 816.996  10
  -4  -8   4 2889.65 759.067   9
  -4  -8   4 4327.68 1075.39   7
  -4  -8   3 6897.24 1146.53  10
  -4  -8   3 6932.41 948.619   9
   4  -8  -3 7991.81 1175.90  22
  -4  -8   2 8654.21 1335.97  10
  -4  -8   2 10268.9 1083.99   9
   4  -8  -2 11558.1 1306.71  22
  -4  -8   1 1936.37 1188.98  10
   4  -8  -1 4197.21 1093.74  22
  -4  -8   0 12009.8 1332.67  12
  -4  -8   0 11993.4 1574.14  10
  -4  -8  -1 17763.3 1479.36  12
  -4  -8  -1 17135.1 1659.50  10
  -4  -8  -2 26930.6 1708.26  12
  -4  -8  -2 24565.6 1748.26  10
   4  -8   2 21164.7 2121.94  22
  -4  -8  -3 3847.47 1022.54  12
  -4  -8  -3 3272.41 937.468  10
  -4  -8  -4 849.330 807.596  12
  -4  -7   7 10612.3 987.905   9
   4  -7  -7 12564.7 1155.61  22
   4  -7  -6 3679.67 1092.93  22
  -4  -7   6 4059.94 919.316   9
  -4  -7   6 5748.31 1036.61   7
   4  -7  -5 2654.45 1134.22  22
  -4  -7   5 1630.33 803.798  10
  -4  -7   5 3207.36 950.987   9
  -4  -7   5 4192.03 1175.17   7
  -4  -7   4 9524.63 1318.93  10
  -4  -7   4 11352.8 1297.75   9
  -4  -7   4 10634.4 1419.38   7
   4  -7  -4 10918.9 1454.09  22
   4  -7  -3 4242.77 1266.11  22
  -4  -7   3 2732.13 1166.99  10
  -4  -7   3 4761.06 1082.06   9
  -4  -7   3 4584.20 1260.13   7
  -4  -7   2 6816.75 1494.03  10
  -4  -7   2 12291.5 1350.41   9
  -4  -7   2 10285.2 1516.87   7
   4  -7  -2 9857.51 1397.42  22
   4  -7  -1 6747.07 1281.87  22
  -4  -7   1 8272.18 1638.19  10
  -4  -7   1 9147.86 1239.12   9
  -4  -7   0 20119.0 2059.16  10
  -4  -7   0 19811.6 1602.37   9
   4  -7   0 18849.3 1628.38  22
   4  -7   1 3207.79 1651.11  22
  -4  -7  -1 125.463 1228.08  10
  -4  -7  -1 371.839 841.791   9
  -4  -7  -2 12036.8 1449.34  12
  -4  -7  -2 11895.5 1556.35  10
  -4  -7  -2 12838.8 1351.83   9
  -4  -7  -3 29109.6 1912.54  12
  -4  -7  -3 26843.1 1844.82  10
  -4  -7  -3 28397.1 1797.70   9
   4  -7   3 27807.3 2410.89  22
   4  -7   4 14689.8 1883.34  22
  -4  -7  -4 8544.41 1196.36  12
  -4  -7  -5 3975.12 1005.75  12
  -4  -7  -6 2413.30 844.603  12
  -4  -6   9 4002.30 673.634   9
   4  -6  -8 2612.03 1018.16  22
  -4  -6   8 2774.08 868.290   9
   4  -6  -7 595.458 1066.44  22
  -4  -6   7 507.570 896.777   9
  -4  -6   7 769.585 703.597   7
  -4  -6   6 38028.5 2263.00   9
   4  -6  -6 36923.4 2317.08  22
   4  -6  -5 5316.28 1407.80  22
  -4  -6   5 4311.39 1206.89   9
  -4  -6   5 5086.65 1139.44   7
   4  -6  -4 5448.91 1374.06  22
  -4  -6   4 4825.51 1221.71   9
  -4  -6   4 5209.95 1193.21   7
  -4  -6   3 28772.4 2028.35   9
  -4  -6   3 29241.0 2064.11   7
   4  -6  -3 31850.7 2216.60  22
  -4  -6   2 11838.6 1406.78   9
  -4  -6   2 11683.3 1465.97   7
   4  -6  -2 11570.7 1533.03  22
  -4  -6   1 15555.2 1566.11   9
  -4  -6   1 13776.0 1593.10   7
   4  -6  -1 14126.8 1575.84  22
  -4  -6   0 40306.4 2261.86   9
   4  -6   0 37444.5 2281.28  22
  -4  -6  -1 20756.5 1703.21   9
   4  -6   1 20671.9 1694.15  22
   4  -6   2 7688.44 1420.74  22
  -4  -6  -2 7352.93 1445.99  10
  -4  -6  -2 8079.05 1250.22   9
  -4  -6  -3 17464.8 1667.57  10
  -4  -6  -3 18332.2 1622.85  12
  -4  -6  -3 16143.7 1611.06   9
  -4  -6  -4 4854.15 1108.44  12
   4  -6   4 3502.87 852.829  11
  -4  -6  -4 3084.39 1062.31   9
   4  -6   4 6443.64 1946.96  22
  -4  -6  -5 8974.27 1278.06  12
  -4  -6  -6 2591.29 964.108  12
  -4  -6  -7 940.838 813.424  12
  -4  -5  10 3801.45 637.179   9
   4  -5  -9 7927.84 968.590  13
   4  -5  -9 6770.56 1159.44  22
   4  -5  -8 2104.15 1166.23  22
   4  -5  -8 2137.94 842.924  13
   4  -5  -7 13336.8 1384.22  13
   4  -5  -7 11998.8 1688.85  22
   4  -5  -6 1961.37 1355.33  22
  -4  -5   6 3113.79 963.203   7
   4  -5  -6 2100.76 977.875  13
  -4  -5   5 30445.1 2215.42   9
  -4  -5   5 31732.8 2091.26   7
   4  -5  -5 33101.8 2009.07  13
   4  -5  -5 32444.4 2418.20  22
  -4  -5   4 9243.60 1369.34   9
  -4  -5   4 8220.35 1316.25   7
   4  -5  -4 9235.56 1526.20  22
   4  -5  -3 4816.13 1298.99  22
  -4  -5   3 4586.17 1150.24   9
  -4  -5   3 5132.60 1120.92   7
   4  -5  -2 757.081 987.169  22
  -4  -5   2 1667.12 947.757   9
  -4  -5   2 2009.41 951.386   7
   4  -5  -1 11664.3 1320.17  11
  -4  -5   1 12444.1 1360.32   9
  -4  -5   1 12887.2 1507.88   7
   4  -5  -1 12294.3 1469.60  22
   4  -5   0 61878.7 2796.50  11
  -4  -5   0 60448.4 2783.77   9
   4  -5   0 62684.5 2892.98  22
   4  -5   1 2886.42 1002.52  22
   4  -5   1 2518.52 912.514  11
  -4  -5  -1 2458.46 924.006   9
   4  -5   2 23739.4 1758.38  11
  -4  -5  -2 25528.5 1877.66   9
   4  -5   2 28300.9 1906.67  22
   4  -5   3 13464.3 1415.86  11
  -4  -5  -3 12501.3 1500.28   9
  -4  -5  -4 18625.1 1600.53  12
   4  -5   4 16408.2 1484.39  11
  -4  -5  -4 16479.2 1658.22   9
  -4  -5  -5 6815.16 1241.26  12
   4  -5   5 5304.64 1077.52  11
   4  -5   5 6595.98 1111.04   8
   4  -5   6 29504.2 1746.89   8
  -4  -5  -6 32942.8 1931.97  12
   4  -5   7 7211.08 959.424   8
  -4  -5  -7 7532.10 1092.25  12
  -4  -5  -8 2128.95 723.102  12
   4  -5   8 2299.29 631.685   8
   4  -4 -10 1259.72 958.930  22
   4  -4 -10 1322.94 813.284  13
  -4  -4   9 26562.1 1591.69  20
   4  -4  -9 31918.5 1886.27  13
   4  -4  -9 26748.7 1944.10  22
  -4  -4   8 20239.4 1622.56  20
   4  -4  -8 23123.4 1816.58  13
   4  -4  -8 21208.7 2051.76  22
  -4  -4   7 16101.6 1633.82  20
   4  -4  -7 18362.2 1740.93  13
   4  -4  -7 17003.7 1956.30  22
  -4  -4   6 33799.9 2234.21  20
   4  -4  -6 34682.6 2225.65  13
   4  -4  -6 30721.6 2430.30  22
   4  -4  -5 1104.56 1178.32  22
  -4  -4   5 1245.93 1042.12  20
  -4  -4   5 176.576 781.530   7
   4  -4  -5 1020.94 972.194  13
  -4  -4   4 34604.3 5364.98   5
  -4  -4   4 41805.4 2353.45   7
   4  -4  -4 40209.2 2299.23  13
   4  -4  -4 36277.3 2516.55  22
  -4  -4   3 74857.9 7246.81   5
  -4  -4   3 75051.0 3237.88   9
  -4  -4   3 75450.0 3270.46   7
   4  -4  -3 78288.3 3145.79  13
   4  -4  -3 71612.4 3363.14  22
  -4  -4   2 8747.95 2960.60   5
  -4  -4   2 8442.53 1198.78   9
   4  -4  -2 5824.56 3875.57   3
  -4  -4   2 8698.77 1312.52   7
   4  -4  -2 8726.44 1158.44  13
   4  -4  -2 8606.47 1412.57  22
   4  -4  -1 8172.29 1125.68  11
  -4  -4   1 7773.57 3016.66   5
  -4  -4   1 7701.06 1161.31   9
   4  -4  -1 5742.62 3765.00   3
  -4  -4   1 7795.42 1222.12   7
   4  -4  -1 9831.82 1333.03  22
   4  -4   0 11277.2 1253.21  11
  -4  -4   0 11676.7 3362.64   5
  -4  -4   0 12120.4 1316.06   9
   4  -4   0 12671.2 1401.03  22
   4  -4   1 25675.3 1787.33  11
  -4  -4  -1 23889.7 4462.79   5
  -4  -4  -1 25460.8 1799.70   9
   4  -4   1 20009.8 5344.11   3
  -4  -4  -1 18646.3 4414.03   4
  -4  -4  -2 5044.22 2676.64   5
   4  -4   2 3502.41 970.249  11
  -4  -4  -2 2857.77 912.637  20
  -4  -4  -2 4165.07 985.387   9
   4  -4   2-140.370 2432.26   3
  -4  -4  -2 4956.58 2948.01  16
   4  -4   3 47562.5 2481.54  11
  -4  -4  -3 49552.8 2491.89  20
  -4  -4  -3 46709.2 2477.65   9
  -4  -4  -4 34757.4 2102.77  12
   4  -4   4 33748.4 2140.02  11
  -4  -4  -4 37562.0 2215.72  20
  -4  -4  -4 32607.8 2167.23   9
   4  -4   4 31892.9 2160.45   8
  -4  -4  -5 1127.70 784.341  12
   4  -4   5 1655.12 951.194  11
  -4  -4  -5 1289.33 956.385  20
   4  -4   5 897.462 958.514   8
  -4  -4  -6 3552.90 1061.50  12
   4  -4   6 3255.49 1025.14  11
  -4  -4  -6 3646.56 1103.33  20
   4  -4   6 3806.25 1065.11   8
  -4  -4  -7 1008.99 901.623  20
   4  -4   7 995.915 860.642   8
  -4  -4  -8 8868.90 1060.87  20
   4  -4   8 8472.55 1061.22   8
   4  -4   9 15529.1 1077.36   8
  -4  -4  -9 17362.1 1214.09   6
   4  -3 -11 25343.4 1358.76  13
   4  -3 -11 17366.6 1284.26  22
  -4  -3  10-159.725 755.105  20
   4  -3 -10 587.635 924.045  13
   4  -3  -9 46638.4 2481.32  13
  -4  -3   9 44595.6 2350.05  20
  -4  -3   8 8429.99 1443.83  20
   4  -3  -8 10099.0 1558.15  13
  -4  -3   7 17346.8 1788.44  20
   4  -3  -7 18193.8 1826.91  13
  -4  -3   6 11208.0 1538.88  20
   4  -3  -6 11137.1 1524.13  13
  -4  -3   5 54136.5 2856.17  20
   4  -3  -5 53428.2 2748.60  13
  -4  -3   4 23831.3 1886.44  20
  -4  -3   4 18209.4 4049.24   5
   4  -3  -4 14431.4 4404.43   3
   4  -3  -4 24292.9 1903.92  13
  -4  -3   3 15916.1 1565.06  20
  -4  -3   3 15630.1 3897.21   5
  -4  -3   3 16219.3 1493.53   9
   4  -3  -3 12785.5 4386.75   3
   4  -3  -3 15751.0 1484.13  13
   4  -3  -3 18173.0 1692.87  22
  -4  -3   2 1964.94 981.732  20
   4  -3  -2 1757.70 823.806  13
  -4  -3   2 935.287 1937.61   5
  -4  -3   2 1148.80 764.807   9
   4  -3  -2 3024.21 2891.49   3
  -4  -3   1 13748.9 3108.24   5
   4  -3  -1 10242.0 4152.64   3
  -4  -3   1 9977.85 3341.28   4
  -4  -3   0 53453.3 5741.36   5
   4  -3   0 48326.0 2374.28  11
   4  -3   0 45978.9 6864.16   3
  -4  -3   0 48325.9 6090.05   4
  -4  -3  -1 15369.4 1443.44  20
   4  -3   1 13849.6 1356.00  11
  -4  -3  -1 10842.1 3116.13   5
  -4  -3  -1 15719.1 1398.55   9
   4  -3   1 14345.1 4355.42   3
  -4  -3  -1 16395.8 3890.92   4
  -4  -3  -2 16141.5 3770.73   5
  -4  -3  -2 14731.7 1398.70  20
   4  -3   2 16465.3 1479.00  11
  -4  -3  -2 15166.0 1435.93   9
   4  -3   2 7888.31 3444.58   3
  -4  -3  -2 11424.8 3759.62   4
  -4  -3  -3 73333.3 3081.22  20
   4  -3   3 78864.0 3279.89  11
  -4  -3  -3 71951.7 3117.57   9
  -4  -3  -3 71145.7 7651.51   4
   4  -3   4 30912.2 2049.32  11
  -4  -3  -4 28080.5 1979.00  20
  -4  -3  -4 28534.5 2030.78   9
  -4  -3  -4 24041.2 4661.43  16
   4  -3   5 1303.45 928.069  11
  -4  -3  -5 1065.71 941.979  20
  -4  -3  -5 1315.49 1054.68   9
   4  -3   5 583.545 951.075   8
   4  -3   6 49480.5 2615.59  11
  -4  -3  -6 45175.9 2533.71  20
   4  -3   6 47476.8 2575.56   8
  -4  -3  -7 19805.4 1779.93  20
   4  -3   7 21204.9 1748.93   8
  -4  -3  -8 4276.65 1056.99  20
   4  -3   8 5412.23 1112.87   8
  -4  -3  -9 15204.5 1255.55  20
   4  -3   9 16249.1 1264.36   8
  -4  -3 -10 2587.46 677.714   6
   4  -3  10 2505.97 596.498   8
  -4  -2  11 883.432 780.119  20
   4  -2 -11 1184.70 852.254  13
  -4  -2  10 8615.75 1242.49  20
   4  -2 -10 9756.70 1330.34  13
  -4  -2   9 35938.7 2285.82  20
   4  -2  -9 35912.4 2331.52  13
  -4  -2   8 22829.3 2060.26  20
   4  -2  -8 24769.7 2079.26  13
  -4  -2   7 2644.72 1224.31  20
   4  -2  -7 2483.16 1214.26  13
  -4  -2   6 28505.1 2192.87  20
   4  -2  -6 30197.4 2157.56  13
  -4  -2   5 15185.5 1652.40  20
   4  -2  -5 16594.2 1661.77  13
  -4  -2   4 55575.9 2791.34  20
   4  -2  -4 58344.4 2734.26  13
   4  -2  -3 70325.7 8314.68   3
  -4  -2   3 64906.0 6763.87   4
  -4  -2   2 33273.3 4669.63   5
   4  -2  -2 27665.3 5439.62   3
  -4  -2   2 28404.3 4870.05   4
  -4  -2   1 30648.8 4472.22   5
   4  -2  -1 24712.3 5651.32   3
  -4  -2   1 27604.1 4725.73   4
  -4  -2   0 27221.8 4181.25   5
   4  -2   0 22057.8 5267.87   3
  -4  -2   0 23181.8 4419.88   4
  -4  -2  -1 15791.0 3709.16   5
   4  -2   1 17767.2 4551.70   3
  -4  -2  -1 17920.5 4072.31   4
   4  -2   2 30561.2 5175.33   3
  -4  -2  -2 43242.2 5675.61   4
  -4  -2  -3 9635.96 1218.87  20
   4  -2   3 9929.78 1291.35  11
   4  -2   3 9798.03 1350.27  19
  -4  -2  -3 9798.46 1251.05   9
   4  -2   3 7687.66 2977.18   3
  -4  -2  -3 6424.59 3362.14   4
   4  -2   4 23860.9 1833.78  11
  -4  -2  -4 23327.9 1789.77  20
  -4  -2  -4 22935.7 1841.05   9
  -4  -2  -4 20978.5 3955.43   4
   4  -2   5 31093.8 2105.94  11
  -4  -2  -5 28703.2 2021.11  20
   4  -2   6 20824.8 1793.27  11
  -4  -2  -6 19530.6 1801.50  20
   4  -2   6 19970.9 1859.25   8
  -4  -2  -7 14339.1 1643.13  20
   4  -2   7 15976.9 1658.17   8
  -4  -2  -8 10733.5 1428.06  20
   4  -2   8 13666.8 1486.58   8
  -4  -2  -9 3927.40 1055.82  20
   4  -2   9 5705.99 1025.13   8
  -4  -2 -10 4485.87 831.453   6
  -4  -2 -10 4563.25 849.421  20
   4  -2  10 4790.27 792.394   8
  -4  -1  11 13263.5 1228.92  20
   4  -1 -11 14195.4 1241.27  13
  -4  -1  10 11142.5 1427.25  20
   4  -1 -10 14601.7 1489.94  13
   4  -1  -9 14863.3 1714.31  13
  -4  -1   9 12748.1 1691.90  20
  -4  -1   8 59445.9 3144.31  20
   4  -1  -8 66030.5 3197.27  13
  -4  -1   7 6282.46 1434.54  20
   4  -1  -7 6272.07 1357.20  13
  -4  -1   6 1130.17 1138.61  20
   4  -1  -6 1413.42 1033.89  13
  -4  -1   5 6837.27 1310.50  20
   4  -1  -5 7382.51 1116.74  19
  -4  -1   5 4440.01 1864.64   4
   4  -1  -5 8099.49 1252.82  13
   4  -1  -4 16904.2 4161.18   3
  -4  -1   4 20801.5 4285.03   4
   4  -1  -3 21770.9 5069.45   3
   4  -1  -3 15314.3 4413.73  15
  -4  -1   3 21897.4 4371.81   4
   4  -1  -2 40019.7 6418.85   3
  -4  -1   2 40214.3 5388.91   4
   4  -1  -2 37813.2 5850.41  15
   4  -1  -1 3181.83 3422.73   3
   4  -1  -1 2168.74 2712.60  15
  -4  -1   1 5709.00 2951.29   4
   4  -1   0 4820.54 3447.98   3
  -4  -1   0 8004.64 3439.47   4
   4  -1   0 4906.00 2906.88  15
   4  -1   1 14925.8 4141.22  15
   4  -1   1 19594.5 4595.13   3
  -4  -1  -1 17847.7 3855.05   4
   4  -1   2 3074.76 2727.38   3
  -4  -1  -2 4737.17 2640.92   4
   4  -1   3 34468.3 4898.70   3
  -4  -1  -3 50069.1 5975.87   4
  -4  -1  -4 9804.34 1290.23  20
   4  -1   4 11091.8 1332.00  11
  -4  -1  -4 10318.9 1351.15   9
  -4  -1  -4 7446.25 3246.28   4
   4  -1   5 2855.96 986.721  11
  -4  -1  -5 3661.72 1079.35  20
  -4  -1  -5 2743.20 2284.01  16
   4  -1   6 73807.9 3231.43  11
  -4  -1  -6 65592.8 3162.58  20
   4  -1   6 71194.8 3303.97   8
  -4  -1  -7 2537.87 1138.16  20
   4  -1   7 3669.56 1218.06   8
  -4  -1  -8 1399.83 1130.31  20
   4  -1   8 2058.73 1053.98   8
  -4  -1  -9 40763.1 2236.90  20
   4  -1   9 44640.5 2120.12   8
   4  -1   9 39331.9 1825.58  23
  -4  -1 -10 23416.0 1460.93  20
   4  -1  10 22445.6 1285.00   8
   4  -1  10 19776.0 1108.76  23
  -4  -1 -10 22149.3 1190.51   6
  -4   0  11 5596.22 985.344  20
   4   0 -11 6391.96 897.171  13
  -4   0  10 12242.6 1444.27  20
   4   0 -10 13030.4 1359.95  13
  -4   0   9 945.501 1183.37  20
   4   0  -9 772.009 879.614  19
   4   0  -9 965.794 1088.37  13
  -4   0   8-385.750 1144.12  20
   4   0  -8 595.863 948.632  19
   4   0  -8 117.745 1051.43  13
  -4   0   7 21780.4 2042.70  20
   4   0  -7 19069.4 1742.17  19
   4   0  -7 21183.1 1871.99  13
  -4   0   6 46577.9 2683.95  20
   4   0  -6 40438.3 2379.53  19
   4   0  -6 47218.0 2592.56  13
  -4   0   5 51530.4 2727.64  20
   4   0  -5 47552.4 2476.09  19
   4   0  -5 54700.5 2647.47  13
   4   0  -4 22277.1 4892.48  15
  -4   0   4 24015.5 4614.63   4
   4   0  -3 25771.3 5017.35  15
  -4   0   3 27385.7 4651.26   4
   4   0  -2 23175.3 4709.50  15
  -4   0   2 15835.2 4047.61   4
  -4   0   1 58731.4 6129.04   4
   4   0  -1 55679.6 6519.32  15
   4   0   0 342643. 16523.8   3
  -4   0   0 312603. 14085.9   4
   4   0   0 305141. 14940.4  15
   4   0   1 1253.66 2815.97   3
  -4   0  -1 1357.41 2324.35   4
   4   0   1 1079.44 2672.43  15
   4   0   2 14018.8 3726.36   3
  -4   0  -2 20997.5 3974.41   4
   4   0   2 17360.7 4264.50  15
  -4   0  -3 31361.5 4586.00   4
   4   0   3 18696.2 4159.91   3
   4   0   4 19895.8 1651.23  11
  -4   0  -4 21407.1 1691.03  20
   4   0   4 18502.1 1754.17  19
   4   0   5 23336.5 1778.79  11
  -4   0  -5 19996.8 1773.44  20
  -4   0  -5 15446.4 4019.52   4
  -4   0  -5 15473.0 4025.31  16
   4   0   6 18347.0 1667.65  11
  -4   0  -6 16368.6 1696.24  20
   4   0   6 19199.1 1831.10   8
   4   0   6 16109.8 1559.78  23
  -4   0  -7 66892.3 3181.08  20
   4   0   7 69237.1 3185.88   8
   4   0   7 70950.5 2971.84  23
  -4   0  -8 424.851 1050.81  20
   4   0   8-35.9176 955.374   8
   4   0   8 539.986 947.883  23
  -4   0  -9 306.184 945.517  20
   4   0   9 526.470 726.123   8
   4   0   9 487.398 768.241  23
  -4   0 -10 218.236 744.230  20
   4   0  10-68.0977 660.212  23
  -4   1  11 13471.3 1151.73  20
   4   1 -11 13910.5 1032.60  19
  -4   1  10 12864.2 1394.37  20
   4   1 -10 12911.0 1267.67  19
  -4   1   9 13837.5 1611.86  20
   4   1  -9 13167.1 1465.29  19
  -4   1   8 64262.2 3124.39  20
   4   1  -8 70478.3 3031.47  13
  -4   1   7 7554.38 1454.84  20
   4   1  -7 7618.02 1356.90  19
   4   1  -7 9189.60 1348.46  13
  -4   1   6 1053.11 1110.60  20
   4   1  -6 1371.78 938.574  19
  -4   1   6-1143.62 2239.18   4
   4   1  -6 1783.10 990.755  13
  -4   1   5 4798.00 1202.05  20
   4   1  -5 5257.29 1115.79  19
  -4   1   5 2312.35 2588.52   4
   4   1  -5 4707.03 1055.95  13
  -4   1   4 26628.9 4771.56   4
  -4   1   3 20711.3 4239.88   4
  -4   1   2 46612.7 5551.74   4
   4   1  -2 7047.31 7994.97  15
   4   1  -1 9252.08 3655.02  15
  -4   1   1 1164.16 2116.13   4
   4   1   0 8412.58 3299.52  15
  -4   1   0 4571.80 2495.42   4
  -4   1  -1 17924.0 3799.70   4
   4   1   1 16863.8 4294.34  15
  -4   1  -2 4660.08 2367.86   4
   4   1   2 3488.60 2647.82   3
   4   1   2 799.624 2651.77  15
  -4   1  -3 43439.2 5239.38   4
   4   1   3 47418.4 5843.46  15
  -4   1  -4 10023.9 1286.06  20
   4   1   4 9536.89 1398.38  19
  -4   1  -4 6947.85 2755.65   4
  -4   1  -5 3067.25 1088.67  20
   4   1   5 1707.84 1054.45  23
  -4   1  -6 68718.5 3231.46  20
   4   1   6 72049.4 3254.31   8
   4   1   6 68587.0 3065.13  23
  -4   1  -7 2271.89 1103.24  20
   4   1   7 2599.10 994.368   8
   4   1   7 2340.84 1079.96  23
  -4   1  -8 1617.24 1057.99  20
   4   1   8 3045.64 1105.18  23
  -4   1  -9 38695.0 2081.71  20
   4   1   9 40083.9 1951.38  23
  -4   1 -10 24545.0 1405.28  20
   4   1  10 26525.6 1407.90  23
  -4   2  11 714.729 609.544  20
   4   2 -11 1123.04 686.412  19
  -4   2  10 6350.55 1001.30  20
   4   2 -10 6890.04 1110.70  19
  -4   2   9 35721.7 2087.50  20
   4   2  -9 36936.8 2177.78  19
  -4   2   8 21895.0 1827.88  20
   4   2  -8 22117.9 1895.00  19
  -4   2   7 4810.92 1236.56  20
   4   2  -7 3034.59 1119.17  19
  -4   2   6 27543.5 2069.84  20
   4   2  -6 25366.1 1969.59  19
  -4   2   6 22488.4 4529.00   4
  -4   2   5 15106.7 1612.52  20
   4   2  -5 14849.3 1531.54  19
  -4   2   5 11636.2 3919.62   4
  -4   2   4 56348.9 2759.58  20
   4   2  -4 54418.4 2599.57  19
  -4   2   4 52266.1 6451.50   4
  -4   2   3 75388.2 7298.62   4
   4   2  -3 60836.8 10873.8  15
  -4   2   2 31908.2 4823.02   4
   4   2  -2 14334.3 8210.79  15
   4   2  -1 10334.5 7009.24  15
  -4   2   1 24294.1 4202.54   4
   4   2   0 4391.44 7311.79  15
  -4   2   0 18493.8 3820.65   4
   4   2   1 27306.5 4594.23  15
  -4   2  -1 19570.6 3954.13   4
  -4   2  -2 43404.0 4999.17   4
   4   2   2 43193.0 5742.07  15
   4   2   3 9427.28 1353.52  19
  -4   2  -3 7169.83 2623.54   4
   4   2   3 9064.36 3298.48  15
  -4   2  -4 26619.4 1884.58  20
   4   2   4 25472.6 1965.01  19
  -4   2  -5 26902.2 1967.89  20
  -4   2  -6 18908.3 1708.49  20
   4   2   6 17928.6 1776.82  23
  -4   2  -7 13162.6 1477.77  20
   4   2   7 14216.1 1635.04  23
  -4   2  -8 11935.8 1368.09  20
   4   2   8 14408.3 1463.07  23
  -4   2  -9 3746.08 904.699  20
   4   2   9 5322.32 1052.59  23
   4   2  10 5224.56 899.517  23
   4   3 -11 26815.3 1342.25  19
   4   3 -10 258.883 855.248  19
   4   3  -9 44707.6 2352.86  19
   4   3  -8 12352.5 1566.40  19
   4   3  -7 19784.6 1849.14  19
   4   3  -6 9325.41 1385.37  19
   4   3  -5 52793.8 2632.16  19
  -4   3   5 44864.2 5996.95   4
   4   3  -5 59661.6 11224.6  15
   4   3  -4 20160.0 1655.32  19
  -4   3   4 20634.4 4475.12   4
   4   3  -3 17110.7 1489.91  19
   4   3  -3 22221.5 9913.55  15
  -4   3   3 10548.1 3298.55   4
   4   3  -2 1532.47 814.022  19
  -4   3   2 2800.25 2456.49   4
   4   3  -1 6075.69 7138.06  15
  -4   3   1 9194.09 3048.90   4
  -4   3   0 39359.1 4860.88   4
   4   3   0 35035.4 7786.50  15
  -4   3  -1 11436.8 3158.25   4
   4   3   1-1215.72 5896.44  15
   4   3   2 19280.9 4350.18  15
   4   3   6 49731.0 2634.69  23
   4   3   7 19296.6 1826.21  23
  -4   3  -8 12529.7 2678.15  21
   4   3   8 3359.64 1179.27  23
  -4   3  -9 14481.7 2092.57  21
   4   3   9 14799.5 1271.15  23
   4   3  10 4196.55 737.206  23
   4   4 -10 1977.12 887.539  19
   4   4  -9 32677.9 1917.72  19
   4   4  -8 22545.7 1784.34  19
   4   4  -7 19639.3 1776.46  19
   4   4  -6 29427.8 2019.33  19
   4   4  -5 858.657 895.652  19
   4   4  -4 37161.0 2156.86  19
  -4   4   4 32993.8 5389.55   4
   4   4  -3 72166.1 2960.05  19
  -4   4   3 56502.1 6396.58   4
   4   4  -2 5426.18 1027.33  19
  -4   4   2 7286.92 2898.04   4
   4   4  -1 8918.31 1146.79  19
   4   4  -1 15496.8 7984.34  15
  -4   4   1 1859.54 1895.07   4
   4   4   0 5598.43 6544.29  15
   4   4   1 23843.5 4443.12   2
   4   4   1 9276.04 5910.49  15
   4   4   2 6797.78 3368.83   2
   4   4   3 48282.0 6214.17   2
   4   4   6 2901.20 1304.61  23
   4   4   7 2024.82 1170.62  23
  -4   4  -8 17784.8 2609.12  21
   4   4   8 10869.8 1333.37  23
  -4   4  -9 19578.9 1949.83  21
   4   4   9 19265.1 1275.27  23
   4   5  -9 8543.65 1054.99  19
   4   5  -8 2409.32 982.830  19
   4   5  -7 15058.0 1475.30  19
   4   5  -6 2673.81 1010.39  19
   4   5  -5 35016.0 2070.71  19
   4   5  -4 5684.96 1085.05  19
   4   5   6 30480.7 1993.20  23
   4   5   7 10245.6 1280.31  23
  -4   5  -8 8856.18 2134.63  21
   4   5   8 2343.73 908.930  23
   4   6  -8 3492.35 763.019  19
   4   6  -7 532.794 716.210  19
   4   6  -6 41850.9 1995.65  19
   4   6   6 3041.39 1035.57  23
   4   6   7 1724.19 852.347  23
   4   7   5 3860.37 969.326  23
   5  -7  -3 3358.86 785.539  22
  -5  -7   3 3724.05 898.400  10
  -5  -7   3 4386.85 815.807   9
  -5  -7   2 15387.7 1187.93   9
   5  -7  -2 14515.9 1173.75  22
  -5  -7   1 4959.52 972.394  12
  -5  -7   1 4079.10 1119.85  10
  -5  -7   1 5250.09 962.065   9
  -5  -7   0 6826.90 1058.06  12
  -5  -7   0 4842.13 1078.39  10
  -5  -7   0 6568.47 996.638   9
  -5  -7  -1 15217.9 1221.62  12
  -5  -7  -1 14898.9 1176.68   9
  -5  -7  -2 21368.7 1311.65  12
   5  -6  -6 1986.60 788.217  22
  -5  -6   6 2509.61 707.084   9
   5  -6  -5 69.7853 904.115  22
  -5  -6   5 487.217 712.787  10
  -5  -6   5-116.044 775.744   9
   5  -6  -4 2625.33 959.230  22
  -5  -6   4 3727.79 950.134   9
   5  -6  -3 1109.94 874.053  22
  -5  -6   3 2284.37 959.164   9
   5  -6  -2 3953.07 971.845  22
  -5  -6   2 5369.63 1070.34   9
   5  -6  -1 1955.84 845.028  22
  -5  -6   1 3411.12 994.387   9
  -5  -6   0 22942.4 1865.27  10
  -5  -6   0 25634.4 1720.47   9
  -5  -6  -1 11754.1 1261.62  12
  -5  -6  -1 10976.9 1387.54  10
  -5  -6  -1 13007.6 1341.11   9
  -5  -6  -2 2595.55 899.824  12
   5  -6   2 1769.05 692.055  11
  -5  -6  -2 1500.34 805.299  10
  -5  -6  -2 2984.77 976.077   9
  -5  -6  -3 3237.97 868.653  12
  -5  -6  -4 7558.44 941.116  12
   5  -5  -7 479.891 875.800  22
  -5  -5   7 463.251 693.831   9
   5  -5  -6 1724.87 998.539  22
  -5  -5   6 2408.25 856.841   9
  -5  -5   5 20396.6 1544.87   9
   5  -5  -5 17046.9 1558.60  22
   5  -5  -4 2476.98 1047.40  22
  -5  -5   4 3043.90 1068.62   9
   5  -5  -3 4664.00 1110.00  22
   5  -5  -3 5384.51 1020.82  11
  -5  -5   3 6264.01 1229.38   9
   5  -5  -2 14542.9 1402.10  11
  -5  -5   2 17268.1 1570.00   9
   5  -5  -2 13847.9 1409.83  22
   5  -5  -1 25211.2 1705.66  11
  -5  -5   1 26387.4 1838.64   9
   5  -5  -1 22734.1 1615.64  22
   5  -5   0 15092.7 1382.45  11
  -5  -5   0 15404.9 1533.46   9
   5  -5   1 12650.4 1313.07  11
  -5  -5  -1 14075.5 1491.52   9
  -5  -5  -2 29270.8 1755.75  12
   5  -5   2 27196.0 1731.54  11
  -5  -5  -2 30738.9 1926.58   9
  -5  -5  -3 8682.76 1094.94  12
   5  -5   3 7922.05 1081.96  11
  -5  -5  -3 8768.27 1281.13   9
   5  -5   4 13280.4 1207.64  11
  -5  -5  -4 14309.9 1210.83  12
   5  -4  -8 4609.49 1038.60  22
  -5  -4   8 5144.07 830.207   9
   5  -4  -8 7032.79 975.139  13
  -5  -4   7 21105.9 1348.60  20
  -5  -4   7 21928.6 1466.01   9
   5  -4  -7 25500.7 1594.52  13
   5  -4  -6 623.143 1042.28  22
  -5  -4   6 1332.07 827.799  20
  -5  -4   6 1533.01 892.879   9
   5  -4  -6 864.951 904.117  13
   5  -4  -5 840.737 1048.06  22
   5  -4  -5 1394.37 879.093  11
  -5  -4   5 1083.52 908.201  20
  -5  -4   5 1240.73 908.140   9
   5  -4  -5 1231.75 960.270  13
  -5  -4   4 54893.5 2552.08  20
   5  -4  -4 54656.9 2579.74  11
  -5  -4   4 54354.0 2631.86   9
   5  -4  -4 47391.5 2542.71  22
   5  -4  -3 4656.79 1136.89  22
   5  -4  -3 5016.54 1098.20  11
  -5  -4   3 6110.34 1175.55  20
  -5  -4   3 5462.96 1185.23   9
   5  -4  -2 776.815 875.778  11
  -5  -4   2 3.37690 943.710  20
  -5  -4   2-157.131 905.248   9
   5  -4  -1 5129.09 1115.46  11
  -5  -4   1 5038.09 1166.73  20
  -5  -4   1 4114.45 1112.08   9
  -5  -4   0 21069.1 1711.00  20
   5  -4   0 19523.3 1671.90  11
  -5  -4   0 21718.5 1732.76   9
  -5  -4  -1 17382.2 1534.53  20
   5  -4   1 16509.0 1570.04  11
  -5  -4  -1 16825.1 1591.09   9
   5  -4   2 9678.34 1261.71  11
  -5  -4  -2 8865.24 1274.77  20
  -5  -4  -2 8854.63 1319.26   9
   5  -4   2 8081.81 1271.41   8
   5  -4   3 31613.4 1947.61  11
  -5  -4  -3 32060.5 1969.03  20
  -5  -4  -3 29918.5 2032.81   9
   5  -4   3 26794.8 1837.36   8
   5  -4   4 9900.87 1270.53  11
  -5  -4  -4 8107.35 1185.03  20
   5  -4   4 7880.20 1153.69   8
   5  -4   5 8233.78 1108.38  11
  -5  -4  -5 8878.36 1139.65  20
   5  -4   5 8144.98 1068.01   8
  -5  -4  -6 2461.93 814.743  20
   5  -4   6 2567.49 758.067   8
   5  -4   7 6581.74 712.775   8
   5  -3  -9 5231.45 937.671  22
  -5  -3   9 4972.97 747.998  20
   5  -3  -9 7193.50 957.423  13
   5  -3  -8-96.7768 922.668  22
  -5  -3   8-139.422 768.259  20
  -5  -3   8 117.527 599.708   9
   5  -3  -8-284.011 879.175  13
   5  -3  -7 5420.00 1286.74  22
  -5  -3   7 7592.32 1204.72  20
  -5  -3   7 6031.28 1001.63   9
   5  -3  -7 8275.46 1271.14  13
  -5  -3   6 14041.0 1499.50  20
  -5  -3   6 13640.3 1376.49   9
   5  -3  -6 15623.7 1605.54  13
   5  -3  -6 11793.1 1512.05  22
   5  -3  -5 7431.77 1375.37  22
  -5  -3   5 10906.6 1443.59  20
  -5  -3   5 10679.8 1342.11   9
   5  -3  -5 11145.5 1431.56  13
  -5  -3   4 14481.0 1566.09  20
  -5  -3   4 14200.2 1474.94   9
   5  -3  -4 14804.7 1552.74  13
   5  -3  -4 12034.5 1467.34  22
  -5  -3   3 848.382 959.116  20
  -5  -3   3 310.555 862.990   9
   5  -3  -2 1201.71 935.562  11
  -5  -3   2 637.049 984.335  20
  -5  -3   2 1319.41 887.555   9
  -5  -3   1 63653.2 2873.00  20
   5  -3  -1 62142.7 2885.25  11
  -5  -3   1 65622.1 2878.16   9
  -5  -3   0 28158.1 1926.01  20
   5  -3   0 28951.9 1980.58  11
   5  -3   0 24633.2 1893.30  19
  -5  -3   0 27894.1 1909.74   9
   5  -3   1 3523.51 1052.82  11
  -5  -3  -1 3130.53 1044.21  20
  -5  -3  -1 3008.43 1057.12   9
  -5  -3  -2 7941.35 1224.46  20
   5  -3   2 8486.13 1269.45  11
  -5  -3  -2 7810.73 1270.06   9
   5  -3   3 2761.25 1068.67  11
  -5  -3  -3 2444.24 1052.99  20
  -5  -3  -3 3288.09 1104.31   9
   5  -3   4 26776.7 1874.51  11
  -5  -3  -4 26240.0 1867.86  20
   5  -3   4 26399.9 1905.20   8
   5  -3   5 27376.9 1817.43  11
  -5  -3  -5 29639.3 1883.25  20
   5  -3   5 24712.2 1792.57   8
  -5  -3  -6 5593.77 1070.77  20
   5  -3   6 6097.29 1064.56   8
  -5  -3  -7 7817.68 1042.55  20
   5  -3   7 7734.75 972.307   8
   5  -2  -9 2236.54 965.379  22
  -5  -2   9 2583.25 902.532  20
   5  -2  -9 2890.90 944.788  13
   5  -2  -8 2696.78 1081.73  22
  -5  -2   8 4530.62 1083.63  20
   5  -2  -8 4857.05 1114.30  13
  -5  -2   7 21733.2 1757.41  20
   5  -2  -7 21628.3 1782.03  13
   5  -2  -7 16732.5 1669.08  22
  -5  -2   6 11103.0 1516.17  20
  -5  -2   6 9663.78 1215.02   9
   5  -2  -6 10365.8 1505.26  13
   5  -2  -6 9483.24 1459.34  22
  -5  -2   5 2349.28 1130.58  20
  -5  -2   5 1867.30 884.083   9
   5  -2  -5 1971.72 1111.59  13
  -5  -2   4 31487.8 2146.48  20
  -5  -2   4 32257.8 2016.07   9
   5  -2  -4 31838.8 2121.79  13
  -5  -2   3 7240.24 1293.69  20
  -5  -2   3 9784.98 1271.76   9
   5  -2  -3 8006.48 1294.07  13
  -5  -2   2 3390.58 1069.34  20
   5  -2  -2 3196.94 1045.85  19
  -5  -2   2 3023.98 965.244   9
  -5  -2   1 30373.2 2039.76  20
   5  -2  -1 33787.6 2098.58  11
   5  -2  -1 35696.7 2188.98  19
  -5  -2   1 34246.4 2051.99   9
  -5  -2   0 9120.33 1307.52  20
   5  -2   0 9715.24 1291.89  11
   5  -2   0 9118.98 1358.63  19
  -5  -2   0 10691.3 1323.55   9
   5  -2   1 4265.20 1077.42  11
  -5  -2  -1 4361.71 1101.19  20
   5  -2   1 5140.11 1165.50  19
  -5  -2  -1 5326.66 1101.86   9
   5  -2   2 1229.72 934.527  11
  -5  -2  -2 2221.44 1005.40  20
  -5  -2  -2 1029.52 915.843   9
  -5  -2  -3 29820.0 2006.55  20
   5  -2   3 33791.7 2100.84  11
  -5  -2  -3 31281.6 2142.39   9
   5  -2   4 1913.98 1005.90  11
  -5  -2  -4 976.354 1049.28  20
   5  -2   5 38874.5 2171.00  11
  -5  -2  -5 39001.7 2260.32  20
   5  -2   5 40158.7 2340.16   8
   5  -2   6 15357.1 1361.98  11
  -5  -2  -6 16122.7 1498.73  20
   5  -2   6 16230.6 1493.17   8
  -5  -2  -7 1422.09 875.377  20
   5  -2   7 1261.99 819.712   8
  -5  -2  -8 8296.86 931.324  20
   5  -2   8 7354.44 834.178   8
  -5  -1  10 7796.83 825.437  20
  -5  -1   9 4335.38 977.074  20
   5  -1  -9 5471.78 1013.60  13
  -5  -1   8 1810.24 1060.38  20
   5  -1  -8 2237.81 1071.48  13
  -5  -1   7 2493.89 1202.53  20
   5  -1  -7 1622.36 1061.56  13
  -5  -1   6 13388.7 1652.63  20
   5  -1  -6 11158.2 1333.17  19
   5  -1  -6 13481.4 1608.03  13
  -5  -1   5 7743.28 1387.76  20
   5  -1  -5 7999.11 1267.12  19
   5  -1  -5 8749.54 1389.84  13
  -5  -1   4 36167.0 2281.89  20
   5  -1  -4 38992.9 2296.97  19
   5  -1  -4 40632.2 2333.28  13
  -5  -1   3 58500.6 2839.85  20
   5  -1  -3 58480.5 2836.01  19
   5  -1  -3 62451.6 2875.16  13
  -5  -1   2 4885.74 1118.81  20
   5  -1  -2 6085.66 1223.41  19
  -5  -1   1 10659.9 1362.76  20
   5  -1  -1 9642.41 1256.53  11
   5  -1  -1 10208.9 1370.97  19
  -5  -1   0 19087.8 1644.22  20
   5  -1   0 18107.0 1586.67  11
   5  -1   0 19688.2 1711.77  19
  -5  -1  -1 25428.6 1817.56  20
   5  -1   1 20591.6 1685.93  11
   5  -1   1 21480.5 1821.10  19
  -5  -1  -2 89207.1 3453.89  20
   5  -1   2 87656.9 3463.88  11
   5  -1   2 81505.4 3483.10  19
  -5  -1  -2 88403.6 3520.27   9
   5  -1   3 832.197 817.092  11
  -5  -1  -3 1234.51 977.247  20
  -5  -1  -3 1108.21 959.905   9
   5  -1   4 17145.7 1572.31  11
  -5  -1  -4 16792.6 1631.56  20
   5  -1   5 48352.1 2417.61  11
  -5  -1  -5 49326.9 2567.99  20
   5  -1   5 46465.3 2550.62   8
  -5  -1  -6 3791.09 1166.68  20
   5  -1   6 3096.29 1113.37   8
  -5  -1  -7 1748.79 975.084  20
   5  -1   7 1591.74 873.836   8
  -5  -1  -8 21389.9 1397.00  20
   5  -1   8 19966.1 1232.67   8
  -5   0  10 51268.6 1801.45  20
  -5   0   9 2826.70 909.082  20
   5   0  -9 3351.62 851.807  13
  -5   0   8 10457.4 1337.72  20
   5   0  -8 10473.7 1159.38  19
   5   0  -8 10810.5 1313.72  13
  -5   0   7 42965.9 2390.15  20
   5   0  -7 42066.1 2263.34  19
   5   0  -7 46492.1 2390.26  13
  -5   0   6 8231.98 1420.54  20
   5   0  -6 7892.41 1299.28  19
   5   0  -6 8001.66 1349.20  13
  -5   0   5 1773.12 1094.30  20
   5   0  -5 2251.50 1117.63  19
   5   0  -5 1726.26 1043.83  13
  -5   0   4 1478.84 1058.16  20
   5   0  -4 865.046 1010.03  19
   5   0  -4 270.641 885.765  13
  -5   0   3 13245.7 1512.49  20
   5   0  -3 14202.5 1540.35  19
  -5   0   2 1399.72 985.400  20
   5   0  -2 1123.69 960.716  19
  -5   0   1 64615.5 2889.19  20
   5   0  -1 66338.8 2942.95  19
  -5   0   1 49709.1 6285.69   4
   5   0  -1 61977.5 7782.44  15
   5   0  -1 42223.6 6867.71   3
  -5   0   0 30920.3 1994.08  20
   5   0   0 30652.8 1939.02  11
   5   0   0 28795.2 1994.61  19
   5   0   0 19885.6 5212.31   3
  -5   0   0 21769.3 4381.58   4
   5   0   0 18590.1 4735.23  15
  -5   0  -1 42078.4 2308.84  20
   5   0   1 43511.0 2305.28  11
   5   0   1 40045.1 2364.73  19
   5   0   2 2395.20 918.940  11
  -5   0  -2 2071.52 951.367  20
   5   0   2 2549.34 1101.87  19
   5   0   3 595.842 794.721  11
  -5   0  -3 378.666 912.283  20
   5   0   3 1239.56 1095.06  19
   5   0   4 14581.8 1430.50  11
  -5   0  -4 13583.3 1497.37  20
   5   0   5 1490.22 803.036  11
  -5   0  -5 1684.53 1127.45  20
   5   0   5 3109.82 1152.41   8
  -5   0  -6 7161.97 1264.93  20
   5   0   6 8074.80 1214.19   8
  -5   0  -7 6646.24 1162.62  20
   5   0   7 6828.36 1040.70   8
  -5   0  -8 3694.73 909.470  20
   5   0   8 3826.36 730.928   8
  -5   1   9 3793.27 831.368  20
   5   1  -9 4840.03 890.892  19
  -5   1   8 743.707 889.954  20
   5   1  -8 1046.55 905.229  19
  -5   1   7 2078.65 1064.35  20
   5   1  -7 2287.38 1063.36  19
   5   1  -7 2505.14 922.340  13
  -5   1   6 14192.6 1591.13  20
   5   1  -6 14100.4 1594.86  19
   5   1  -6 16263.8 1547.32  13
  -5   1   5 5108.94 1208.71  20
   5   1  -5 4541.64 1224.71  19
   5   1  -5 6216.99 1162.66  13
  -5   1   4 37760.5 2265.54  20
   5   1  -4 37707.0 2302.01  19
  -5   1   3 60724.5 2828.54  20
   5   1  -3 60463.3 2863.99  19
  -5   1   2 3614.98 1016.80  20
   5   1  -2 3196.94 1071.06  19
  -5   1   1 11935.7 1338.04  20
   5   1  -1 11830.9 1240.10  11
   5   1  -1 9959.72 1351.59  19
  -5   1   0 20764.4 1651.78  20
   5   1   0 20787.9 1580.54  11
   5   1   0 18883.1 1681.92  19
  -5   1  -1 24516.7 1819.01  20
   5   1   1 26431.6 1935.46  19
  -5   1  -2 83702.8 3334.56  20
   5   1   2 82837.2 3414.41  19
  -5   1  -3 1089.54 910.854  20
   5   1   3 738.970 1012.24  19
  -5   1  -4 15709.1 1587.25  20
  -5   1  -5 48022.0 2475.64  20
   5   1   5 47522.2 2465.15   8
  -5   1  -6 5409.78 1140.45  20
   5   1   6 4188.58 1006.22   8
   5   1   6 4664.04 978.582  23
  -5   1  -7 1841.57 875.892  20
   5   1   7 2068.86 723.274   8
   5   1   7 1673.75 758.064  23
  -5   1  -8 20247.0 1249.93  20
   5   1   8 18163.2 1064.66  23
   5   2  -9 3468.17 920.387  19
  -5   2   8 3741.97 818.726  20
   5   2  -8 3704.02 1057.94  19
  -5   2   7 21855.5 1552.45  20
   5   2  -7 21107.1 1752.02  19
  -5   2   6 11618.2 1353.87  20
   5   2  -6 12411.3 1555.64  19
  -5   2   5 2722.19 980.191  20
   5   2  -5 2508.89 1125.81  19
  -5   2   4 30899.2 1998.13  20
   5   2  -4 29588.2 2093.30  19
  -5   2   3 9090.74 1206.20  20
   5   2  -3 8632.25 1325.82  19
  -5   2   2 2341.62 973.797  20
   5   2  -2 4005.19 1133.34  19
  -5   2   1 35457.3 2100.59  20
   5   2  -1 32654.8 2070.13  19
  -5   2   0 7799.26 1233.30  20
   5   2   0 6003.50 1177.62  19
  -5   2  -1 4322.33 1026.45  20
   5   2   1 4198.18 1114.56  19
  -5   2  -2 1507.93 857.614  20
   5   2   2 1241.94 965.539  19
  -5   2  -3 39058.7 2183.26  20
   5   2   3 34097.4 2165.41  19
  -5   2  -4 1304.82 947.579  20
   5   2   4 2132.57 1046.26  23
  -5   2  -5 37344.4 2087.49  20
   5   2   5 37218.1 2067.37  23
   5   2   6 15134.0 1367.72  23
   5   2   7 1229.81 785.294  23
   5   2   8 8570.47 819.357  23
   5   3  -9 7048.25 930.132  19
   5   3  -8 461.950 922.974  19
   5   3  -7 7296.98 1291.49  19
   5   3  -6 16954.3 1632.40  19
   5   3  -5 8335.96 1363.60  19
   5   3  -4 12206.9 1514.21  19
   5   3  -3 520.871 935.526  19
   5   3  -2 243.670 861.818  19
   5   3  -1 60349.4 2745.54  19
   5   3   0 25639.8 1829.47  19
   5   3   1 3614.72 1086.02  19
   5   3   2 6876.81 1210.93  19
   5   3   3 1521.21 925.345  19
   5   3   5 29366.7 1886.42  23
   5   3   6 5085.47 1056.97  23
   5   3   7 8782.27 1027.97  23
   5   4  -8 7148.74 1039.65  19
   5   4  -7 23581.9 1585.88  19
   5   4  -6 2396.34 1049.09  19
   5   4  -5 855.160 986.508  19
   5   4  -4 56536.5 2596.85  19
   5   4  -3 5148.80 1132.44  19
   5   4  -2 449.332 822.475  19
   5   4  -1 3026.75 971.484  19
   5   4   0 25105.0 1733.27  19
   5   4   5 8972.21 1185.11  23
   5   4   6 2563.40 978.429  23
   5   4   7 12287.7 974.857  23
   5   5  -7 344.074 748.658  19
   5   5  -6 3392.16 858.054  19
   5   5  -5 18602.6 1379.07  19
   5   5  -4 1441.81 852.591  19
   5   5  -3 5558.52 991.208  19
   5   5   5 10056.1 1173.47  23
   5   5   6 8515.89 913.142  23
   5   6   4 6228.70 995.133  23
   6  -4  -4 17288.2 1133.03  11
  -6  -4   3 12045.6 1023.25  20
   6  -4  -3 12884.3 1125.93  11
  -6  -4   3 14310.9 1126.89   9
   6  -4  -2 2149.10 808.440  11
  -6  -4   2 927.079 778.866  20
  -6  -4   2 2286.84 825.820   9
   6  -4  -1 1720.51 823.426  11
  -6  -4   1 1693.31 817.149  20
  -6  -4   1 2365.53 850.307   9
   6  -4   0 16514.7 1286.98  11
  -6  -4   0 15962.2 1235.85  20
  -6  -4   0 16896.1 1324.66   9
   6  -4   1 8484.89 1028.47  11
  -6  -4  -1 8384.86 1023.02  20
   6  -4   2 6043.55 826.960  11
  -6  -3   5 17126.2 1195.51  20
   6  -3  -5 13897.3 1206.41  11
   6  -3  -4 3922.23 965.833  11
  -6  -3   4 4013.00 921.038  20
  -6  -3   3 13180.5 1238.48  20
   6  -3  -3 12454.2 1251.46  11
  -6  -3   3 13399.4 1116.65   9
  -6  -3   2 35495.4 1878.64  20
   6  -3  -2 35689.9 1939.06  11
  -6  -3   2 39680.5 1856.29   9
  -6  -3   1 22599.3 1543.76  20
   6  -3  -1 21969.0 1587.94  11
  -6  -3   1 20999.5 1444.25   9
  -6  -3   0 8368.84 1138.72  20
   6  -3   0 8120.22 1093.90  11
  -6  -3   0 7899.93 1064.28   9
   6  -3   1 41213.3 1989.54  11
  -6  -3  -1 44611.6 2046.62  20
  -6  -3  -1 38808.0 1945.43   9
   6  -3   2-89.2682 751.841  11
  -6  -3  -2 135.090 792.149  20
   6  -3   2 350.923 764.437   8
   6  -3   3 2987.39 797.080  11
  -6  -3  -3 2686.15 876.734  20
   6  -3   3 2101.76 801.882   8
   6  -2  -6 617.743 750.569  11
  -6  -2   6 1125.71 748.590  20
  -6  -2   5 25477.0 1578.75  20
   6  -2  -5 26290.0 1629.95  11
  -6  -2   4 7290.48 1100.60  20
   6  -2  -4 7345.56 1152.56  11
  -6  -2   3 10891.1 1282.20  20
   6  -2  -3 11683.3 1305.29  11
   6  -2  -2 5257.94 1081.89  11
  -6  -2   2 4964.11 1073.26  20
   6  -2  -2 3979.40 1020.97  19
  -6  -2   1 6506.10 1139.08  20
   6  -2  -1 6003.64 1098.47  11
   6  -2   0 2552.80 945.961  11
  -6  -2   0 2583.05 988.441  20
  -6  -2  -1 28191.5 1740.07  20
   6  -2   1 26096.6 1676.56  11
   6  -2   2 10573.5 1180.19  11
  -6  -2  -2 10696.6 1250.68  20
   6  -2   3 10288.2 1056.31  11
  -6  -2  -3 10712.2 1196.52  20
   6  -2   3 10053.8 1191.53   8
   6  -2   4 22010.1 1282.22  11
  -6  -2  -4 24554.7 1476.36  20
   6  -1  -7 1539.65 661.709  11
  -6  -1   7 2157.57 683.319  20
  -6  -1   6 5478.67 984.576  20
   6  -1  -6 5301.78 1011.49  11
  -6  -1   5 70167.2 2632.62  20
   6  -1  -5 70387.4 2695.82  11
   6  -1  -5 64598.1 2452.25  19
   6  -1  -4 4055.31 1015.30  11
  -6  -1   4 4984.99 1065.00  20
   6  -1  -4 3436.13 987.156  19
   6  -1  -3 4514.79 1030.75  11
  -6  -1   3 4497.94 1079.45  20
   6  -1  -3 4275.95 1107.17  19
  -6  -1   2 46735.4 2299.36  20
   6  -1  -2 48120.1 2316.34  11
   6  -1  -2 49006.8 2410.33  19
  -6  -1   1 7373.78 1231.20  20
   6  -1  -1 6761.27 1110.48  11
   6  -1  -1 5916.17 1265.00  19
  -6  -1   0 7154.29 1196.97  20
   6  -1   0 6716.73 1061.98  11
   6  -1   0 6467.59 1266.50  19
  -6  -1  -1 22522.5 1632.88  20
   6  -1   1 22238.0 1534.89  11
   6  -1   2 7165.01 1013.86  11
  -6  -1  -2 8083.17 1199.18  20
   6  -1   3 1036.16 655.377  11
  -6  -1  -3 961.920 891.564  20
   6  -1   3 1112.65 912.533   8
   6  -1   4 19798.7 1206.53  11
  -6  -1  -4 23361.4 1501.26  20
   6  -1   4 20400.4 1432.67   8
  -6  -1  -5 9734.61 1007.68  20
   6  -1   5 7839.19 859.713   8
   6   0  -7 2652.29 698.910  11
  -6   0   7 3373.50 701.385  20
   6   0  -6 344.517 739.661  11
  -6   0   6 627.040 779.138  20
   6   0  -6 329.896 772.056  19
  -6   0   5 16343.0 1326.07  20
   6   0  -5 15143.2 1309.77  11
   6   0  -5 15624.5 1397.81  19
   6   0  -4 3144.49 932.202  11
  -6   0   4 2847.53 961.804  20
   6   0  -4 2991.14 1060.05  19
   6   0  -3 792.087 815.138  11
  -6   0   3 507.753 934.806  20
   6   0  -3 120.836 1011.34  19
   6   0  -2-69.7054 763.102  11
  -6   0   2 395.998 885.704  20
   6   0  -2 194.368 982.615  19
  -6   0   1 16401.6 1463.21  20
   6   0  -1 15233.0 1329.57  11
   6   0  -1 16464.1 1617.73  19
  -6   0   0 19431.2 1545.72  20
   6   0   0 18437.6 1411.63  11
   6   0   0 19087.5 1681.56  19
  -6   0  -1 15728.6 1471.15  20
   6   0   1 14170.9 1233.94  11
   6   0   1 15163.4 1537.51  19
   6   0   2 1762.04 728.399  11
  -6   0  -2 2607.59 972.120  20
  -6   0  -3 25143.6 1606.81  20
  -6   0  -4 10481.1 1144.43  20
   6   0   4 9789.49 1105.62   8
  -6   0  -5 757.381 708.489  20
   6   0   5 689.180 591.618   8
   6   1  -6 3667.03 821.306  11
  -6   1   6 4451.57 819.778  20
   6   1  -6 4094.18 968.181  19
  -6   1   5 71184.6 2494.03  20
   6   1  -5 73917.8 2751.97  19
   6   1  -4 4614.76 882.788  11
  -6   1   4 4841.61 974.192  20
   6   1  -4 4293.25 1117.60  19
   6   1  -3 3112.36 826.701  11
  -6   1   3 2706.44 947.246  20
   6   1  -3 3251.09 1102.21  19
  -6   1   2 50285.2 2272.59  20
   6   1  -2 44918.2 2085.42  11
   6   1  -2 51719.3 2469.84  19
  -6   1   1 7463.99 1119.61  20
   6   1  -1 7440.64 1345.14  19
  -6   1   0 7398.62 1141.28  20
   6   1   0 7494.81 1314.19  19
  -6   1  -1 22760.2 1597.82  20
   6   1   1 21513.1 1692.13  19
  -6   1  -2 6388.92 1035.29  20
  -6   1  -3 1346.26 813.750  20
  -6   1  -4 24273.8 1423.45  20
   6   1   4 20535.3 1299.22   8
   6   2  -6 1051.51 836.194  19
   6   2  -5 31562.9 1787.09  19
   6   2  -4 7929.49 1209.45  19
   6   2  -3 11328.3 1317.73  19
   6   2  -2 4266.17 1102.85  19
   6   2  -1 6374.89 1169.13  19
   6   2   0 1192.31 952.832  19
   6   2   1 23597.6 1619.47  19
   6   2   3 9284.48 958.051   8
   6   3  -6 24998.9 1353.84  19
   6   3  -5 18628.5 1337.65  19
   6   3  -4 5235.89 1035.73  19
   6   3  -3 11010.8 1220.40  19
   6   3  -2 37089.7 1896.02  19
   6   3  -1 20734.8 1482.43  19
   6   3   0 7909.30 1057.53  19
   6   4  -4 20829.3 1254.07  19
   6   4  -3 13335.7 1115.75  19
   6   4  -2 1632.79 803.622  19
   6   4  -1 1163.69 734.721  19
   0   0   0    0.00    0.00   0
TITL sibs_cyclic_try2 in P2(1)
REM P2(1) (#4 in standard setting)
CELL 1.54184   5.425836   8.949100  11.436516  90.0000  94.0920  90.0000
ZERR    2.00   0.000160   0.000344   0.000355   0.0000   0.0028   0.0000
LATT -1
SYMM -x, y+1/2,-z
SFAC C H N O
UNIT 22.00 20.00 2.00 2.00
TREF
HKLF 4
END
;
_shelx_hkl_checksum              56390
_shelx_res_file
;
    shelx.res created by SHELXL-2014/7
TITL sibs_cyclic_try2 in P 21
CELL  1.54180   5.4258   8.9491  11.4365   90.000   94.092   90.000
ZERR     2.00   0.0002   0.0003   0.0003    0.000    0.003    0.000
LATT  -1
SYMM  - X, 1/2 + Y, - Z
SFAC  S    O    C    H
UNIT  2 16 16 24
MERG   2
TWIN
dfix .88 .02   o4 h3h o5 h2h o3 h1h
htab
FMAP   2
PLAN   10
ACTA   140.00
BOND   $H
CONF
L.S.   8
TEMP  -150.00
WGHT    0.067800
BASF   0.00225
FVAR      14.06322
S1    1    0.905637    1.264442    0.853701    11.00000    0.02413    0.02067 =
         0.02540   -0.00206    0.00016    0.00128
O1    2    0.623905    0.722016    0.806592    11.00000    0.02278    0.02403 =
         0.02319    0.00070    0.00157    0.00218
O2    2    1.071070    0.612459    0.746723    11.00000    0.02375    0.02965 =
         0.03196    0.00073    0.00002    0.00502
O3    2    0.902845    0.550107    0.568242    11.00000    0.02126    0.03182 =
         0.02985   -0.00486    0.00232    0.00319
O4    2    0.857487    0.911229    0.633267    11.00000    0.01871    0.02114 =
         0.02989   -0.00260    0.00287   -0.00255
O5    2    0.355071    0.736628    0.471429    11.00000    0.02482    0.03004 =
         0.02430    0.00077   -0.00095   -0.00464
O6    2    0.657195    0.884443    0.415287    11.00000    0.02583    0.02411 =
         0.02672    0.00097    0.00456   -0.00244
O7    2    0.415609    0.892676    0.901519    11.00000    0.03077    0.03251 =
         0.02737   -0.00370    0.00732    0.00317
O8    2    0.823913    1.179820    0.741112    11.00000    0.03294    0.02479 =
         0.02958    0.00295   -0.00580    0.00059
C1    3    0.653406    0.684006    0.685627    11.00000    0.01884    0.02656 =
         0.02385   -0.00069    0.00218   -0.00003
AFIX  13
H1    4    0.518486    0.614858    0.655733    11.00000   -1.20000
AFIX   0
C2    3    0.628760    0.837042    0.620627    11.00000    0.01783    0.01816 =
         0.02975    0.00061    0.00226   -0.00079
C3    3    0.430293    0.909656    0.689684    11.00000    0.01844    0.02292 =
         0.02960   -0.00295    0.00269   -0.00138
AFIX  23
H3A   4    0.446580    1.019843    0.690137    11.00000   -1.20000
H3B   4    0.262668    0.882336    0.656727    11.00000   -1.20000
AFIX   0
C4    3    0.481358    0.846114    0.810860    11.00000    0.01887    0.02432 =
         0.03006   -0.00172    0.00249   -0.00396
C5    3    0.902552    0.612463    0.673655    11.00000    0.02254    0.01694 =
         0.02776    0.00489    0.00734    0.00140
C6    3    0.550418    0.820950    0.489823    11.00000    0.01915    0.01879 =
         0.02709   -0.00043    0.00285    0.00309
C7    3    1.234519    1.278422    0.854897    11.00000    0.02039    0.03117 =
         0.03029    0.00081    0.00115   -0.00141
AFIX 137
H7A   4    1.278792    1.341693    0.789667    11.00000   -1.50000
H7B   4    1.305302    1.178572    0.846518    11.00000   -1.50000
H7C   4    1.299733    1.322664    0.929160    11.00000   -1.50000
AFIX   0
C8    3    0.890565    1.128525    0.967902    11.00000    0.03241    0.03314 =
         0.02734    0.00581    0.00274   -0.00358
AFIX 137
H8A   4    0.989775    1.041130    0.949766    11.00000   -1.50000
H8B   4    0.718438    1.098055    0.973896    11.00000   -1.50000
H8C   4    0.955232    1.172013    1.042537    11.00000   -1.50000
AFIX   0
H2H   4    0.308051    0.729201    0.395593    11.00000    0.03235
H1H   4    1.043452    0.509147    0.554842    11.00000    0.02551
H3H   4    0.865397    0.987122    0.681572    11.00000    0.06639
HKLF 4
REM  sibs_cyclic_try2 in P 21
REM R1 =  0.0473 for    1640 Fo > 4sig(Fo)  and  0.0569 for all    1854 data
REM    169 parameters refined using      4 restraints
END
WGHT      0.0672      0.0000
REM Instructions for potential hydrogen bonds
EQIV $1 -x+1, y-1/2, -z+1
HTAB C1 O6_$1
HTAB C3 O8
EQIV $2 x-1, y, z
HTAB C3 O4_$2
EQIV $3 -x+2, y+1/2, -z+1
HTAB C7 O6_$3
EQIV $4 -x+2, y+1/2, -z+2
HTAB C7 O7_$4
HTAB C8 O7
HTAB C8 O2_$4
HTAB O5 S1_$1
HTAB O5 O8_$1
EQIV $5 -x+2, y-1/2, -z+1
HTAB O3 O4_$5
HTAB O3 O6_$5
HTAB O4 O8
REM Highest difference peak  0.435,  deepest hole -0.253,  1-sigma level  0.081
Q1    1   1.0796  1.2829  0.8392  11.00000  0.05    0.43
Q2    1   0.9100  1.2661  0.7683  11.00000  0.05    0.43
Q3    1   0.7985  1.2043  0.8233  11.00000  0.05    0.41
Q4    1   0.7756  0.6599  0.6576  11.00000  0.05    0.35
Q5    1   0.7926  1.3185  0.8225  11.00000  0.05    0.33
Q6    1   1.0455  1.2046  0.8731  11.00000  0.05    0.31
Q7    1   0.6664  0.9046  0.4814  11.00000  0.05    0.31
Q8    1   0.5270  0.8729  0.6539  11.00000  0.05    0.31
Q9    1   0.6368  0.7623  0.6419  11.00000  0.05    0.30
Q10   1   0.5828  0.8301  0.5630  11.00000  0.05    0.29
;
_shelx_res_checksum              22120
loop_
_space_group_symop_operation_xyz
'x, y, z'
'-x, y+1/2, -z'
loop_
_atom_site_type_symbol
_atom_site_label
_atom_site_fract_x
_atom_site_fract_y
_atom_site_fract_z
_atom_site_U_iso_or_equiv
_atom_site_adp_type
_atom_site_calc_flag
_atom_site_occupancy
S S1 0.90564(19) 1.26444(16) 0.85370(9) 0.0235(3) Uani d 1
O O1 0.6239(6) 0.7220(4) 0.8066(3) 0.0233(9) Uani d 1
O O2 1.0711(6) 0.6125(5) 0.7467(3) 0.0285(9) Uani d 1
O O3 0.9028(6) 0.5501(5) 0.5682(3) 0.0276(8) Uani d 1
O O4 0.8575(6) 0.9112(5) 0.6333(3) 0.0232(8) Uani d 1
O O5 0.3551(6) 0.7366(5) 0.4714(3) 0.0265(9) Uani d 1
O O6 0.6572(6) 0.8844(5) 0.4153(3) 0.0254(8) Uani d 1
O O7 0.4156(6) 0.8927(5) 0.9015(3) 0.0300(9) Uani d 1
O O8 0.8239(7) 1.1798(5) 0.7411(3) 0.0295(9) Uani d 1
C C1 0.6534(8) 0.6840(7) 0.6856(4) 0.0231(11) Uani d 1
H H1 0.5185 0.6149 0.6557 0.028 Uiso calc 1
C C2 0.6288(8) 0.8370(6) 0.6206(4) 0.0219(11) Uani d 1
C C3 0.4303(8) 0.9097(7) 0.6897(4) 0.0236(11) Uani d 1
H H3A 0.4466 1.0198 0.6901 0.028 Uiso calc 1
H H3B 0.2627 0.8823 0.6567 0.028 Uiso calc 1
C C4 0.4814(8) 0.8461(7) 0.8109(4) 0.0244(11) Uani d 1
C C5 0.9026(8) 0.6125(7) 0.6737(4) 0.0221(11) Uani d 1
C C6 0.5504(8) 0.8209(6) 0.4898(4) 0.0216(10) Uani d 1
C C7 1.2345(8) 1.2784(8) 0.8549(4) 0.0273(12) Uani d 1
H H7A 1.2788 1.3417 0.7897 0.041 Uiso calc 1
H H7B 1.3053 1.1786 0.8465 0.041 Uiso calc 1
H H7C 1.2997 1.3227 0.9292 0.041 Uiso calc 1
C C8 0.8906(10) 1.1285(8) 0.9679(4) 0.0309(13) Uani d 1
H H8A 0.9898 1.0411 0.9498 0.046 Uiso calc 1
H H8B 0.7184 1.0981 0.9739 0.046 Uiso calc 1
H H8C 0.9552 1.1720 1.0425 0.046 Uiso calc 1
H H2H 0.308(11) 0.729(8) 0.396(3) 0.032(17) Uiso d 1
H H1H 1.043(7) 0.509(7) 0.555(5) 0.026(15) Uiso d 1
H H3H 0.865(17) 0.987(7) 0.682(6) 0.07(3) Uiso d 1
loop_
_atom_site_aniso_label
_atom_site_aniso_U_11
_atom_site_aniso_U_22
_atom_site_aniso_U_33
_atom_site_aniso_U_12
_atom_site_aniso_U_13
_atom_site_aniso_U_23
S1 0.0241(5) 0.0207(7) 0.0254(5) 0.0013(5) 0.0002(4) -0.0021(5)
O1 0.0228(14) 0.024(3) 0.0232(15) 0.0022(13) 0.0016(11) 0.0007(13)
O2 0.0237(16) 0.030(3) 0.0320(17) 0.0050(15) 0.0000(13) 0.0007(16)
O3 0.0213(14) 0.032(3) 0.0299(16) 0.0032(15) 0.0023(12) -0.0049(16)
O4 0.0187(14) 0.021(2) 0.0299(17) -0.0025(14) 0.0029(12) -0.0026(15)
O5 0.0248(14) 0.030(3) 0.0243(14) -0.0046(15) -0.0009(11) 0.0008(14)
O6 0.0258(15) 0.024(2) 0.0267(15) -0.0024(15) 0.0046(12) 0.0010(15)
O7 0.0308(16) 0.033(3) 0.0274(17) 0.0032(16) 0.0073(13) -0.0037(17)
O8 0.0329(18) 0.025(3) 0.0296(17) 0.0006(17) -0.0058(14) 0.0030(17)
C1 0.019(2) 0.027(3) 0.024(2) 0.000(2) 0.0022(16) -0.001(2)
C2 0.0178(19) 0.018(3) 0.030(2) -0.0008(19) 0.0023(16) 0.001(2)
C3 0.0184(19) 0.023(3) 0.030(2) -0.0014(19) 0.0027(16) -0.003(2)
C4 0.019(2) 0.024(3) 0.030(2) -0.0040(19) 0.0025(16) -0.002(2)
C5 0.023(2) 0.017(3) 0.028(2) 0.0014(19) 0.0073(18) 0.005(2)
C6 0.019(2) 0.019(3) 0.027(2) 0.0031(18) 0.0028(16) -0.0004(19)
C7 0.0204(18) 0.031(4) 0.030(2) -0.001(2) 0.0012(16) 0.001(2)
C8 0.032(2) 0.033(4) 0.027(2) -0.004(2) 0.0027(18) 0.006(2)
loop_
_atom_type_symbol
_atom_type_description
_atom_type_scat_dispersion_real
_atom_type_scat_dispersion_imag
_atom_type_scat_source
S S 0.3331 0.5567 'International Tables Vol C Tables 4.2.6.8 and 6.1.1.4'
O O 0.0492 0.0322 'International Tables Vol C Tables 4.2.6.8 and 6.1.1.4'
C C 0.0181 0.0091 'International Tables Vol C Tables 4.2.6.8 and 6.1.1.4'
H H 0.0000 0.0000 'International Tables Vol C Tables 4.2.6.8 and 6.1.1.4'
loop_
_geom_angle_atom_site_label_1
_geom_angle_atom_site_label_2
_geom_angle_atom_site_label_3
_geom_angle
O8 S1 C7 105.7(2)
O8 S1 C8 104.6(3)
C7 S1 C8 98.0(3)
C4 O1 C1 109.3(4)
C5 O3 H1H 113(4)
C2 O4 H3H 116(6)
C6 O5 H2H 112(4)
O1 C1 C5 110.3(4)
O1 C1 C2 103.8(4)
C5 C1 C2 112.1(4)
O1 C1 H1 110.2
C5 C1 H1 110.2
C2 C1 H1 110.2
O4 C2 C3 113.3(4)
O4 C2 C6 109.0(4)
C3 C2 C6 112.9(4)
O4 C2 C1 108.7(4)
C3 C2 C1 99.6(4)
C6 C2 C1 113.0(5)
C4 C3 C2 103.0(4)
C4 C3 H3A 111.2
C2 C3 H3A 111.2
C4 C3 H3B 111.2
C2 C3 H3B 111.2
H3A C3 H3B 109.1
O7 C4 O1 121.5(5)
O7 C4 C3 128.3(5)
O1 C4 C3 110.1(4)
O2 C5 O3 125.8(5)
O2 C5 C1 125.6(5)
O3 C5 C1 108.6(4)
O6 C6 O5 125.7(4)
O6 C6 C2 122.1(5)
O5 C6 C2 112.1(4)
S1 C7 H7A 109.5
S1 C7 H7B 109.5
H7A C7 H7B 109.5
S1 C7 H7C 109.5
H7A C7 H7C 109.5
H7B C7 H7C 109.5
S1 C8 H8A 109.5
S1 C8 H8B 109.5
H8A C8 H8B 109.5
S1 C8 H8C 109.5
H8A C8 H8C 109.5
H8B C8 H8C 109.5
loop_
_geom_bond_atom_site_label_1
_geom_bond_atom_site_label_2
_geom_bond_distance
S1 O8 1.532(4)
S1 C7 1.788(5)
S1 C8 1.791(6)
O1 C4 1.356(7)
O1 C1 1.445(6)
O2 C5 1.194(6)
O3 C5 1.329(6)
O3 H1H 0.87(3)
O4 C2 1.406(6)
O4 H3H 0.87(3)
O5 C6 1.306(6)
O5 H2H 0.89(3)
O6 C6 1.206(6)
O7 C4 1.195(6)
C1 C5 1.511(6)
C1 C2 1.559(8)
C1 H1 1.0000
C2 C3 1.525(6)
C2 C6 1.532(6)
C3 C4 1.505(7)
C3 H3A 0.9900
C3 H3B 0.9900
C7 H7A 0.9800
C7 H7B 0.9800
C7 H7C 0.9800
C8 H8A 0.9800
C8 H8B 0.9800
C8 H8C 0.9800
loop_
_geom_hbond_atom_site_label_D
_geom_hbond_atom_site_label_H
_geom_hbond_atom_site_label_A
_geom_hbond_site_symmetry_A
_geom_hbond_distance_DH
_geom_hbond_distance_HA
_geom_hbond_distance_DA
_geom_hbond_angle_DHA
O3 H1H O4 2_746 0.87(2) 2.42(4) 2.996(4) 124(3)
O3 H1H O6 2_746 0.87(2) 1.98(3) 2.805(4) 158(4)
O4 H3H O8 . 0.87(2) 1.87(3) 2.714(5) 160(7)
O5 H2H O8 2_646 0.889(19) 1.73(2) 2.603(4) 167(5)
loop_
_geom_torsion_atom_site_label_1
_geom_torsion_atom_site_label_2
_geom_torsion_atom_site_label_3
_geom_torsion_atom_site_label_4
_geom_torsion
C4 O1 C1 C5 148.2(4)
C4 O1 C1 C2 27.9(5)
O1 C1 C2 O4 82.0(4)
C5 C1 C2 O4 -37.1(5)
O1 C1 C2 C3 -36.8(4)
C5 C1 C2 C3 -155.9(4)
O1 C1 C2 C6 -156.8(3)
C5 C1 C2 C6 84.1(5)
O4 C2 C3 C4 -83.0(5)
C6 C2 C3 C4 152.4(5)
C1 C2 C3 C4 32.3(5)
C1 O1 C4 O7 174.3(5)
C1 O1 C4 C3 -6.6(5)
C2 C3 C4 O7 161.1(5)
C2 C3 C4 O1 -17.9(5)
O1 C1 C5 O2 -13.6(8)
C2 C1 C5 O2 101.5(6)
O1 C1 C5 O3 166.6(4)
C2 C1 C5 O3 -78.3(6)
O4 C2 C6 O6 -10.2(7)
C3 C2 C6 O6 116.7(5)
C1 C2 C6 O6 -131.2(5)
O4 C2 C6 O5 172.0(4)
C3 C2 C6 O5 -61.2(6)
C1 C2 C6 O5 50.9(5)

_cod_database_fobs_code 2242289
