#------------------------------------------------------------------------------
#$Date: 2018-11-10 05:37:14 +0200 (Sat, 10 Nov 2018) $
#$Revision: 211889 $
#$URL: file:///home/coder/svn-repositories/cod/cif/2/24/27/2242721.cif $
#------------------------------------------------------------------------------
#
# This file is available in the Crystallography Open Database (COD),
# http://www.crystallography.net/. The original data for this entry
# were provided by IUCr Journals, http://journals.iucr.org/.
#
# The file may be used within the scientific community so long as
# proper attribution is given to the journal article from which the
# data were obtained.
#
data_2242721
loop_
_publ_author_name
'Hill, Tania N.'
'Lemmerer, Andreas'
_publ_section_title
;
 Binary charge-transfer complexes using pyromellitic acid dianhydride
 featuring C---H&#x00B7;&#x00B7;&#x00B7;O hydrogen bonds
;
_journal_issue                   12
_journal_name_full               'Acta Crystallographica Section E'
_journal_page_first              1772
_journal_page_last               1777
_journal_paper_doi               10.1107/S2056989018015645
_journal_volume                  74
_journal_year                    2018
_chemical_formula_iupac          'C10 H2 O6, C10 H8'
_chemical_formula_moiety         'C10 H2 O6, C10 H8'
_chemical_formula_sum            'C20 H10 O6'
_chemical_formula_weight         346.28
_chemical_name_common
;
Pyromellitic acid dianhydride--naphthalene (1/1)
;
_chemical_name_systematic
;
Pyromellitic acid dianhydride--naphthalene (1/1)
;
_space_group_IT_number           12
_symmetry_cell_setting           monoclinic
_symmetry_space_group_name_Hall  '-C 2y'
_symmetry_space_group_name_H-M   'C 1 2/m 1'
_atom_sites_solution_hydrogens   mixed
_audit_conform_dict_name         cif_core.dic
_audit_conform_dict_version      2.4.3
_audit_creation_method           'WinGX routine CIF_UPDATE'
_cell_angle_alpha                90
_cell_angle_beta                 104.202(3)
_cell_angle_gamma                90
_cell_formula_units_Z            2
_cell_length_a                   9.1478(4)
_cell_length_b                   12.8195(6)
_cell_length_c                   6.7459(3)
_cell_measurement_reflns_used    2019
_cell_measurement_temperature    173(2)
_cell_measurement_theta_max      28.21
_cell_measurement_theta_min      2.79
_cell_volume                     766.91(6)
_computing_cell_refinement
;
SAINT-Plus (Bruker, 2016)
;
_computing_data_collection
;
APEX3 (Bruker, 2016)
;
_computing_data_reduction
;
SAINT-Plus and XPREP (Bruker 2016)
;
_computing_molecular_graphics
;
Ortep-3 for Windows (Farrugia, 2012) and Mercury (Macrae <i>et al.</i>,
2006)
;
_computing_publication_material
;
WinGX publication routines (Farrugia, 2012)
;
_computing_structure_refinement
;
SHELXL-2017/1 (Sheldrick, 2015)
;
_computing_structure_solution
;
SHELXS-97 (Sheldrick, 2008)
;
_diffrn_ambient_temperature      173(2)
_diffrn_measured_fraction_theta_full 1
_diffrn_measured_fraction_theta_max 0.999
_diffrn_measurement_device_type  'Bruker D8 Venture Photon CCD area detector'
_diffrn_measurement_method       '\w scans'
_diffrn_radiation_monochromator  graphite
_diffrn_radiation_probe          x-ray
_diffrn_radiation_type           MoK\a
_diffrn_radiation_wavelength     0.71073
_diffrn_reflns_av_R_equivalents  0.0419
_diffrn_reflns_av_unetI/netI     0.0267
_diffrn_reflns_limit_h_max       12
_diffrn_reflns_limit_h_min       -11
_diffrn_reflns_limit_k_max       16
_diffrn_reflns_limit_k_min       -16
_diffrn_reflns_limit_l_max       8
_diffrn_reflns_limit_l_min       -8
_diffrn_reflns_number            3774
_diffrn_reflns_theta_full        25.242
_diffrn_reflns_theta_max         27.99
_diffrn_reflns_theta_min         2.793
_diffrn_standards_number         0
_exptl_absorpt_coefficient_mu    0.112
_exptl_absorpt_correction_T_max  0.95
_exptl_absorpt_correction_T_min  0.9
_exptl_absorpt_correction_type   multi-scan
_exptl_absorpt_process_details
;
(SADABS; Krause <i>et al.</i>,  2015)
;
_exptl_crystal_colour            yellow
_exptl_crystal_density_diffrn    1.5
_exptl_crystal_density_method    'not measured'
_exptl_crystal_description       plate
_exptl_crystal_F_000             356
_exptl_crystal_size_max          0.403
_exptl_crystal_size_mid          0.075
_exptl_crystal_size_min          0.045
_refine_diff_density_max         0.363
_refine_diff_density_min         -0.3
_refine_ls_extinction_coef       0.011(3)
_refine_ls_extinction_expression Fc^*^=kFc[1+0.001xFc^2^\l^3^/sin(2\q)]^-1/4^
_refine_ls_extinction_method
;
SHELXL-2017/1 (Sheldrick 2015)
;
_refine_ls_goodness_of_fit_ref   1.039
_refine_ls_hydrogen_treatment    constr
_refine_ls_matrix_type           full
_refine_ls_number_constraints    0
_refine_ls_number_parameters     63
_refine_ls_number_reflns         967
_refine_ls_number_restraints     0
_refine_ls_restrained_S_all      1.039
_refine_ls_R_factor_all          0.039
_refine_ls_R_factor_gt           0.034
_refine_ls_shift/su_max          0
_refine_ls_shift/su_mean         0
_refine_ls_structure_factor_coef Fsqd
_refine_ls_weighting_details
'w=1/[\s^2^(Fo^2^)+(0.0541P)^2^+0.2771P] where P=(Fo^2^+2Fc^2^)/3'
_refine_ls_weighting_scheme      calc
_refine_ls_wR_factor_gt          0.0941
_refine_ls_wR_factor_ref         0.0983
_reflns_number_gt                841
_reflns_number_total             967
_reflns_threshold_expression     'I > 2\s(I)'
_cod_data_source_file            eb2013sup1.cif
_cod_data_source_block           I
_cod_original_sg_symbol_H-M      'C 2/m'
_cod_database_code               2242721
_shelx_estimated_absorpt_t_min   0.956
_shelx_estimated_absorpt_t_max   0.995
_shelx_hkl_file
;
  -2   0   0  113.48    4.03
  -2   0   0  112.61    4.18
   2   0   0  105.97    4.35
   2   0   0   98.10    4.02
   2   0   0  111.60    4.20
  -2   0   0  108.26    4.37
   4   0   0   52.67    2.07
   4   0   0   57.47    1.99
  -4   0   0   53.75    2.16
  -4   0   0   52.93    1.99
   4   0   0   51.29    2.15
   6   0   0   38.12    1.51
   6   0   0   38.17    1.57
  -6   0   0   39.00    1.44
  -8   0   0   39.84    1.47
   8   0   0   38.15    1.55
 -10   0   0    0.05    0.04
  10   0   0    0.07    0.05
   1  -1   0   34.88    1.31
  -1  -1   0   36.12    1.35
   1  -1   0   34.63    1.41
   1  -1   0   34.52    1.35
  -1   1   0   34.51    1.31
   1   1   0   35.18    1.36
  -1   1   0   35.06    1.35
   3  -1   0   80.12    3.07
   3  -1   0   81.68    2.95
  -3  -1   0   82.99    3.07
   3  -1   0   77.74    3.19
  -3  -1   0   79.23    2.97
  -3  -1   0   77.62    3.19
   3   1   0   80.29    3.07
   3   1   0   80.32    2.95
  -3   1   0   77.46    2.99
  -3   1   0   83.17    3.07
  -3   1   0   79.79    3.19
   5  -1   0    4.95    0.24
  -5  -1   0    5.16    0.21
   5  -1   0    4.99    0.23
  -5   1   0    5.27    0.24
   5   1   0    5.11    0.23
  -5   1   0    5.14    0.22
   7  -1   0   37.63    1.47
   7  -1   0   37.49    1.53
  -7  -1   0   37.45    1.40
  -7   1   0   37.45    1.41
   7   1   0   36.18    1.47
   9  -1   0    0.52    0.07
  -9  -1   0    0.68    0.06
   9   1   0    0.54    0.07
  -9   1   0    0.64    0.07
  11  -1   0    1.36    0.13
  11   1   0    1.07    0.12
 -11   1   0    1.06    0.09
   0  -2   0  311.24    9.80
   0  -2   0  243.23   10.20
   0   2   0  236.08   10.73
   0   2   0  234.70    9.83
  -2  -2   0    6.76    0.26
   2  -2   0    6.43    0.26
   2  -2   0    6.89    0.26
   2  -2   0    6.51    0.28
  -2   2   0    6.16    0.25
  -2   2   0    5.47    0.27
   2   2   0    6.66    0.26
  -2   2   0    6.97    0.26
   4  -2   0    0.34    0.04
  -4  -2   0    0.37    0.04
  -4  -2   0    0.36    0.03
   4  -2   0    0.30    0.04
  -4   2   0    0.35    0.05
   4   2   0    0.31    0.04
  -4   2   0    0.36    0.04
   6  -2   0    3.92    0.19
  -6  -2   0    3.99    0.17
   6  -2   0    3.80    0.20
   6   2   0    3.79    0.19
  -6   2   0    3.97    0.18
  -8  -2   0   14.05    0.55
   8  -2   0   14.24    0.60
   8  -2   0   14.34    0.62
   8   2   0   14.28    0.60
  -8   2   0   13.87    0.57
  10  -2   0    2.25    0.16
  10   2   0    2.18    0.16
 -10   2   0    2.08    0.13
   1  -3   0    0.71    0.05
  -1  -3   0    0.73    0.04
  -1  -3   0    0.78    0.04
   1  -3   0    0.70    0.05
   1  -3   0    0.90    0.04
   1   3   0    0.72    0.04
  -1   3   0    0.77    0.04
   1   3   0    0.73    0.04
  -1   3   0    0.73    0.05
  -1   3   0    0.63    0.05
   3  -3   0   16.43    0.67
  -3  -3   0   17.05    0.66
  -3  -3   0   16.94    0.63
   3  -3   0   16.29    0.69
  -3   3   0   16.53    0.65
  -3   3   0   17.13    0.70
  -3   3   0   17.80    0.67
   3   3   0   17.15    0.67
   5  -3   0    2.21    0.12
  -5  -3   0    2.26    0.10
   5  -3   0    2.19    0.13
  -5   3   0    2.36    0.13
  -5   3   0    2.12    0.12
   5   3   0    2.20    0.12
   7  -3   0    4.22    0.21
  -7  -3   0    4.27    0.18
   7  -3   0    4.26    0.22
  -7   3   0    4.13    0.20
   7   3   0    4.18    0.21
   9  -3   0    7.37    0.34
   9  -3   0    6.83    0.34
  -9   3   0    6.87    0.32
   9   3   0    7.07    0.34
  11  -3   0    0.13    0.06
  11   3   0    0.01    0.05
 -11   3   0    0.08    0.05
   0  -4   0   66.27    2.52
   0  -4   0   63.80    2.63
   0  -4   0   68.15    2.44
   0  -4   0   62.71    2.54
   0   4   0   67.62    2.45
  -2  -4   0    2.75    0.11
  -2  -4   0    2.68    0.11
   2  -4   0    2.54    0.13
   2  -4   0    2.69    0.12
  -2   4   0    2.42    0.12
   2   4   0    2.70    0.11
  -2   4   0    2.46    0.12
   2   4   0    2.14    0.11
  -2   4   0    2.86    0.12
   4  -4   0    0.73    0.06
   4  -4   0    0.69    0.06
  -4  -4   0    0.83    0.04
  -4   4   0    0.79    0.06
  -4   4   0    0.86    0.06
   4   4   0    0.84    0.06
  -6  -4   0   10.26    0.39
   6  -4   0    9.85    0.43
   6  -4   0   10.38    0.45
  -6   4   0   10.18    0.42
   6   4   0   10.12    0.43
   8  -4   0    0.11    0.05
   8  -4   0    0.00    0.04
  -8  -4   0    0.03    0.03
   8   4   0    0.09    0.05
  -8   4   0    0.04    0.04
  10  -4   0    0.09    0.06
  10  -4   0    0.06    0.06
 -10   4   0    0.10    0.05
  10   4   0    0.18    0.06
  -1  -5   0   86.70    3.13
   1  -5   0   81.40    3.37
  -1  -5   0   84.79    3.26
   1  -5   0   89.11    3.12
   1  -5   0   84.24    3.26
  -1   5   0   83.87    3.36
   1   5   0   79.78    3.24
  -1   5   0   82.47    3.11
   1   5   0   84.47    3.13
  -1   5   0   87.09    3.23
  -3  -5   0   18.41    0.70
  -3  -5   0   18.29    0.67
   3  -5   0   17.94    0.74
   3  -5   0   17.20    0.71
  -3   5   0   16.62    0.74
  -3   5   0   18.97    0.71
  -3   5   0   17.87    0.69
  -5  -5   0    7.66    0.30
   5  -5   0    7.55    0.33
   5  -5   0    7.40    0.34
  -5  -5   0    7.11    0.29
  -5   5   0    8.46    0.35
  -5   5   0    7.49    0.32
   5   5   0    7.84    0.33
  -7  -5   0   37.59    1.40
   7  -5   0   37.00    1.49
   7  -5   0   38.09    1.54
  -7   5   0   38.78    1.44
   7   5   0   36.35    1.48
   9  -5   0    0.31    0.07
   9  -5   0    0.38    0.07
   9   5   0    0.34    0.07
  -9   5   0    0.28    0.06
  11  -5   0    0.01    0.06
 -11   5   0    0.07    0.05
  11   5   0    0.07    0.06
   0  -6   0    5.68    0.26
   0  -6   0    5.85    0.23
   0  -6   0    5.61    0.23
   0  -6   0    5.49    0.23
   0   6   0    5.72    0.23
  -2  -6   0    3.07    0.14
  -2  -6   0    3.33    0.13
   2  -6   0    3.13    0.14
   2  -6   0    3.17    0.16
  -2   6   0    3.21    0.15
  -2   6   0    3.18    0.14
   2   6   0    3.20    0.14
  -2   6   0    3.02    0.15
   2   6   0    2.94    0.14
   4  -6   0   36.82    1.50
  -4  -6   0   39.33    1.37
   4  -6   0   38.34    1.44
  -4   6   0   36.71    1.39
   4   6   0   37.99    1.44
  -4   6   0   31.76    1.49
   6  -6   0    2.15    0.13
   6  -6   0    2.21    0.13
  -6  -6   0    2.16    0.09
  -6   6   0    2.10    0.13
   6   6   0    2.01    0.13
   8  -6   0    0.10    0.05
   8  -6   0    0.01    0.04
   8   6   0   -0.02    0.04
  -8   6   0    0.09    0.04
  10  -6   0    2.53    0.18
  10   6   0    2.69    0.18
 -10   6   0    2.86    0.17
   1  -7   0   19.59    0.83
  -1  -7   0   18.89    0.77
  -1  -7   0   20.14    0.75
   1  -7   0   20.00    0.78
  -1  -7   0   20.13    0.78
  -1  -7   0   19.38    0.83
  -1   7   0   20.55    0.82
  -1   7   0   19.23    0.76
  -1   7   0   22.29    0.79
   1   7   0   19.22    0.76
  -3  -7   0    1.22    0.06
   3  -7   0    1.27    0.08
   3  -7   0    1.18    0.09
  -3  -7   0    1.24    0.07
  -3   7   0    1.28    0.08
   3   7   0    1.30    0.08
  -3   7   0    1.30    0.08
   5  -7   0   15.95    0.67
  -5  -7   0   16.05    0.59
  -5  -7   0   16.69    0.59
   5  -7   0   15.41    0.64
  -5   7   0   14.84    0.63
   5   7   0   15.11    0.64
   7  -7   0   17.41    0.74
   7  -7   0   17.66    0.72
  -7   7   0   16.79    0.70
   7   7   0   16.94    0.71
   9  -7   0   -0.05    0.05
  -9   7   0    0.00    0.04
   9   7   0    0.04    0.05
   0  -8   0   32.46    1.25
   0  -8   0   32.36    1.25
   0  -8   0   31.75    1.32
   0   8   0   32.66    1.22
   2  -8   0   13.25    0.52
  -2  -8   0   13.39    0.50
  -2  -8   0   12.51    0.56
   2  -8   0   12.91    0.57
  -2  -8   0   12.52    0.51
   2   8   0   12.58    0.52
  -2   8   0   13.02    0.52
  -2   8   0   14.07    0.53
   2   8   0   13.54    0.51
  -4  -8   0    0.80    0.05
   4  -8   0    0.90    0.06
   4  -8   0    0.64    0.07
   4   8   0    0.65    0.06
  -4   8   0    0.72    0.07
   6  -8   0    0.85    0.08
   6  -8   0    0.94    0.08
  -6   8   0    1.00    0.09
   6   8   0    0.96    0.08
   8  -8   0    0.08    0.05
   8  -8   0    0.03    0.05
   8   8   0    0.06    0.05
  -8   8   0    0.01    0.05
  10  -8   0    0.50    0.09
  10   8   0    0.61    0.09
 -10   8   0    0.60    0.09
  -1  -9   0    0.13    0.03
  -1  -9   0    0.14    0.04
   1  -9   0    0.08    0.02
  -1  -9   0    0.11    0.02
   1  -9   0    0.08    0.04
   1  -9   0    0.10    0.03
  -1   9   0    0.08    0.03
   1   9   0    0.12    0.03
  -3  -9   0    2.58    0.16
  -3  -9   0    2.66    0.13
   3  -9   0    2.85    0.14
  -3  -9   0    2.92    0.12
   3  -9   0    2.93    0.16
   3   9   0    2.64    0.13
  -3   9   0    2.83    0.15
   3   9   0    2.92    0.13
   5  -9   0    5.17    0.24
   5  -9   0    5.07    0.26
   5   9   0    5.04    0.24
  -5   9   0    5.08    0.25
   7  -9   0    0.16    0.05
   7  -9   0    0.18    0.05
   7   9   0    0.09    0.05
  -7   9   0    0.09    0.05
   9  -9   0    2.43    0.16
   9   9   0    2.10    0.16
  -9   9   0    2.22    0.16
   0 -10   0    1.27    0.07
   0 -10   0    1.24    0.07
   0 -10   0    1.21    0.10
   0  10   0    1.36    0.09
  -2 -10   0    0.08    0.03
   2 -10   0    0.01    0.05
  -2 -10   0    0.04    0.04
   2 -10   0    0.11    0.03
  -2  10   0    0.06    0.03
  -2  10   0    0.03    0.04
   2  10   0    0.08    0.03
   4 -10   0    0.48    0.05
  -4 -10   0    0.44    0.07
   4 -10   0    0.44    0.07
  -4  10   0    0.37    0.06
   4  10   0    0.48    0.05
   6 -10   0    0.20    0.05
   6 -10   0    0.16    0.05
   6  10   0    0.18    0.05
  -6  10   0    0.19    0.05
   8 -10   0    1.03    0.10
   8  10   0    1.01    0.10
  -8  10   0    0.93    0.10
  -1 -11   0   11.26    0.44
  -1 -11   0   11.03    0.51
   1 -11   0   11.31    0.44
   1 -11   0   10.58    0.50
   1  11   0   11.27    0.45
  -1  11   0   11.06    0.46
   3 -11   0   10.75    0.44
  -3 -11   0    9.97    0.49
   3 -11   0   10.69    0.49
  -3 -11   0   10.83    0.44
  -3  11   0   10.41    0.45
   3  11   0   11.00    0.43
   5 -11   0   -0.01    0.04
   5 -11   0    0.09    0.05
  -5 -11   0    0.01    0.05
  -5  11   0    0.05    0.04
   5  11   0    0.05    0.03
   7 -11   0    3.49    0.19
  -7  11   0    3.51    0.21
   9 -11   0    0.64    0.09
  -9  11   0    0.59    0.09
   0 -12   0    2.31    0.16
   0  12   0    2.69    0.14
   2 -12   0    3.86    0.22
  -2 -12   0    3.78    0.22
  -2  12   0    3.64    0.20
   2  12   0    3.81    0.18
  -4 -12   0    1.68    0.13
   4 -12   0    1.58    0.13
  -4  12   0    1.62    0.12
  -6 -12   0    0.06    0.05
  -6  12   0   -0.02    0.04
  -8  12   0    1.34    0.13
   1 -13   0    5.89    0.31
  -1 -13   0    6.13    0.31
   1  13   0    6.14    0.27
  -1  13   0    5.56    0.27
  -3 -13   0    0.87    0.10
   3 -13   0    0.90    0.10
  -3  13   0    0.75    0.08
  -5 -13   0    0.02    0.05
  -5  13   0   -0.04    0.04
  -7  13   0    3.23    0.21
   0 -14   0    3.18    0.21
   0  14   0    3.26    0.18
  -2 -14   0   -0.01    0.04
   2 -14   0    0.01    0.07
  -2  14   0    0.05    0.05
  -4 -14   0    0.49    0.08
  -4  14   0    0.16    0.06
  -6  14   0    3.56    0.22
  -1 -15   0    0.15    0.06
   1 -15   0   -0.10    0.06
  -1  15   0    0.14    0.05
  -3 -15   0    0.34    0.07
  -3  15   0    0.45    0.07
  -5  15   0    0.18    0.07
   0 -16   0    2.60    0.20
  -2 -16   0    0.55    0.09
  -2  16   0    0.43    0.08
  -4  16   0    0.58    0.09
  10   0  -1    0.90    0.10
 -10   0   1    0.90    0.07
   8   0  -1    2.31    0.15
  -8   0   1    2.58    0.13
   6   0  -1   20.86    0.85
  -6   0   1   21.57    0.81
  -4   0   1    0.27    0.03
   4   0  -1    0.33    0.04
  -4   0   1    0.34    0.04
   2   0  -1  122.39    4.92
  -2   0   1  133.84    4.89
  -2   0   1  125.92    4.73
   0   0   1   52.51    2.02
   0   0   1   51.31    2.10
   0   0  -1   52.59    2.00
   0   0  -1   51.49    2.10
  -2   0  -1  129.84    4.78
   2   0   1  124.71    4.97
   2   0   1  122.11    4.79
  -2   0  -1  124.58    4.95
  -2   0  -1  120.22    4.66
  -4   0  -1   83.96    3.36
   4   0   1   82.04    3.36
  -4   0  -1   85.93    3.10
   4   0   1   83.18    3.22
   6   0   1    0.11    0.04
   6   0   1    0.14    0.05
  -6   0  -1    0.16    0.04
   8   0   1    3.07    0.19
  -8   0  -1    3.04    0.16
   8   0   1    3.01    0.18
 -10   0  -1    0.34    0.06
  10   0   1    0.22    0.06
  11  -1  -1    0.04    0.06
  11   1  -1    0.04    0.05
   9  -1  -1    1.04    0.10
  -9  -1   1    0.82    0.07
  -9   1   1    0.88    0.07
   9   1  -1    0.98    0.09
  -7  -1   1    1.46    0.08
   7  -1  -1    1.28    0.10
  -7   1   1    1.31    0.08
   7   1  -1    1.31    0.10
  -5  -1   1   20.30    0.80
  -5  -1   1   22.34    0.88
   5  -1  -1   21.21    0.85
   5   1  -1   22.91    0.81
  -5   1   1   20.88    0.81
   5   1  -1   21.00    0.85
  -3  -1   1   55.38    2.09
   3  -1  -1   57.33    2.02
  -3  -1   1   55.00    2.01
   3  -1  -1   53.38    2.10
  -3   1   1   54.61    2.02
   3   1  -1   55.28    2.01
   3   1  -1   52.08    2.09
  -3   1   1   55.65    2.10
  -3   1   1   51.80    2.17
  -1  -1   1    5.06    0.19
   1  -1  -1    4.81    0.19
  -1  -1   1    4.74    0.20
   1  -1  -1    4.61    0.20
   1   1  -1    4.52    0.20
   1   1  -1    4.31    0.18
  -1   1   1    4.68    0.19
  -1   1   1    4.91    0.20
   1  -1   1   71.62    2.87
  -1  -1  -1   72.67    2.88
  -1  -1  -1   74.15    2.75
   1  -1   1   70.62    2.78
  -1   1  -1   75.13    2.77
  -1   1  -1   74.52    2.87
  -1   1  -1   68.85    2.67
   1   1   1   67.64    2.77
  -3  -1  -1    0.41    0.05
  -3  -1  -1    0.44    0.05
   3  -1   1    0.40    0.05
   3  -1   1    0.37    0.04
  -3  -1  -1    0.36    0.04
   3   1   1    0.40    0.04
  -3   1  -1    0.47    0.05
   3   1   1    0.38    0.05
  -3   1  -1    0.42    0.04
  -3   1  -1    0.53    0.05
   5  -1   1    8.95    0.38
   5  -1   1    8.73    0.40
  -5  -1  -1    9.02    0.36
  -5   1  -1    8.79    0.36
   5   1   1    8.79    0.38
   5   1   1    9.00    0.40
   7  -1   1    1.26    0.10
  -7  -1  -1    1.20    0.08
   7  -1   1    1.32    0.11
  -7   1  -1    1.30    0.09
   7   1   1    1.32    0.11
   7   1   1    1.15    0.10
  -9  -1  -1    0.51    0.06
   9  -1   1    0.33    0.07
   9  -1   1    0.47    0.08
   9   1   1    0.36    0.07
  -9   1  -1    0.57    0.07
  11  -1   1    3.41    0.22
 -11   1  -1    2.87    0.18
  11   1   1    3.10    0.21
  10  -2  -1    0.06    0.06
 -10   2   1   -0.01    0.04
  10   2  -1    0.01    0.05
  -8  -2   1    2.95    0.14
   8  -2  -1    3.06    0.18
   8   2  -1    3.37    0.18
  -8   2   1    3.19    0.16
   6  -2  -1    0.24    0.05
   6  -2  -1    0.24    0.04
  -6  -2   1    0.25    0.03
  -6   2   1    0.18    0.03
   6   2  -1    0.30    0.04
  -6   2   1    0.35    0.04
   6   2  -1    0.31    0.03
  -4  -2   1   76.47    2.86
  -4  -2   1   79.25    2.98
   4  -2  -1   78.05    2.98
   4  -2  -1   79.33    3.09
   4   2  -1   74.97    2.86
  -4   2   1   76.88    2.87
   4   2  -1   75.46    2.98
  -4   2   1   80.01    3.09
   2  -2  -1    7.09    0.30
   2  -2  -1    7.59    0.28
  -2  -2   1    7.40    0.29
  -2   2   1    6.60    0.29
  -2   2   1    7.25    0.28
  -2   2   1    7.22    0.29
   0  -2  -1    0.70    0.04
   0  -2   1    0.67    0.05
   0  -2  -1    0.86    0.05
   0  -2   1    0.95    0.05
   0  -2  -1    0.75    0.05
   0  -2   1    0.79    0.04
   0   2   1    0.77    0.05
   0   2  -1    0.81    0.05
   0   2   1    0.72    0.05
   0   2  -1    0.80    0.04
   0   2  -1    0.76    0.04
  -2  -2  -1    0.81    0.06
   2  -2   1    0.82    0.05
   2  -2   1    0.80    0.06
   2  -2   1    0.76    0.05
  -2  -2  -1    0.76    0.05
  -2   2  -1    0.73    0.05
  -2   2  -1    0.75    0.06
   2   2   1    0.73    0.06
   2   2   1    0.86    0.06
  -2   2  -1    0.84    0.05
   4  -2   1    8.95    0.37
   4  -2   1    8.56    0.39
  -4  -2  -1    9.18    0.35
  -4   2  -1    9.52    0.40
  -4   2  -1    8.69    0.36
   4   2   1    8.73    0.37
   6  -2   1    2.25    0.13
  -6  -2  -1    2.55    0.12
   6  -2   1    2.56    0.15
  -6   2  -1    2.34    0.13
   6   2   1    2.35    0.14
   8  -2   1    0.12    0.05
   8  -2   1    0.25    0.06
  -8  -2  -1    0.20    0.04
   8   2   1    0.15    0.05
  -8   2  -1    0.15    0.05
  10  -2   1    0.40    0.09
  10  -2   1    0.55    0.08
 -10   2  -1    0.41    0.07
  10   2   1    0.41    0.08
  11  -3  -1    0.71    0.10
  11   3  -1    0.62    0.09
 -11   3   1    0.74    0.08
   9  -3  -1    0.97    0.10
  -9   3   1    1.05    0.08
   9   3  -1    1.02    0.10
  -7  -3   1    2.54    0.11
   7  -3  -1    2.37    0.14
   7  -3  -1    2.55    0.14
   7   3  -1    2.44    0.14
  -7   3   1    2.49    0.13
   5  -3  -1   -0.02    0.03
  -5  -3   1   -0.01    0.02
   5  -3  -1   -0.05    0.03
   5   3  -1   -0.01    0.03
  -5   3   1    0.00    0.03
  -5   3   1   -0.02    0.03
  -3  -3   1   50.68    1.91
   3  -3  -1   49.64    1.99
   3  -3  -1   47.93    1.92
  -3   3   1   50.04    1.85
  -3   3   1   49.20    1.99
  -3   3   1   53.53    1.92
   3   3  -1   46.74    1.91
   1  -3  -1    2.79    0.14
   1  -3  -1    3.01    0.13
  -1  -3   1    2.92    0.12
  -1  -3   1    3.07    0.12
  -1  -3   1    2.74    0.14
   1  -3  -1    3.14    0.13
  -1   3   1    2.88    0.13
   1   3  -1    2.98    0.12
  -1   3   1    3.07    0.14
   1   3  -1    2.99    0.14
   1   3  -1    3.05    0.12
  -1  -3  -1   34.57    1.42
  -1  -3  -1   36.08    1.31
   1  -3   1   34.11    1.42
   1  -3   1   37.52    1.31
  -1  -3  -1   35.25    1.36
   1  -3   1   34.40    1.36
   1   3   1   34.58    1.31
  -1   3  -1   37.97    1.36
  -1   3  -1   34.11    1.31
  -1   3  -1   34.42    1.42
   1   3   1   34.26    1.36
  -3  -3  -1  171.63    6.76
   3  -3   1  171.22    6.53
   3  -3   1  160.66    6.72
  -3   3  -1  174.40    6.73
  -3   3  -1  177.40    6.50
   3   3   1  157.85    6.53
  -3   3  -1  169.40    6.31
  -5  -3  -1    1.15    0.07
   5  -3   1    1.19    0.08
   5  -3   1    1.08    0.09
   5   3   1    1.12    0.08
  -5   3  -1    0.94    0.07
   7  -3   1    7.13    0.35
   7  -3   1    6.93    0.33
  -7  -3  -1    7.50    0.30
   7   3   1    6.88    0.33
  -7   3  -1    7.43    0.32
   9  -3   1    1.14    0.12
  -9  -3  -1    1.21    0.09
   9  -3   1    1.40    0.11
   9   3   1    1.06    0.11
  -9   3  -1    1.19    0.10
  11  -3   1   12.86    0.58
 -11   3  -1   11.79    0.53
  11   3   1   12.22    0.57
  10  -4  -1    2.70    0.18
 -10   4   1    2.59    0.16
  10   4  -1    2.66    0.17
   8  -4  -1    2.38    0.13
   8  -4  -1    2.22    0.15
  -8   4   1    2.22    0.13
   8   4  -1    2.07    0.14
   6  -4  -1    0.96    0.07
  -6  -4   1    0.92    0.05
   6  -4  -1    1.04    0.08
   6   4  -1    0.90    0.07
  -6   4   1    1.04    0.07
  -6   4   1    0.88    0.07
   4  -4  -1  115.24    4.62
  -4  -4   1  117.62    4.42
   4  -4  -1  114.12    4.43
   4   4  -1  113.90    4.42
  -4   4   1  118.35    4.62
  -4   4   1  114.29    4.27
  -2  -4   1    0.51    0.05
   2  -4  -1    0.55    0.04
  -2  -4   1    0.55    0.03
   2  -4  -1    0.57    0.05
   2   4  -1    0.56    0.04
  -2   4   1    0.53    0.05
  -2   4   1    0.63    0.05
  -2   4   1    0.62    0.04
   0  -4   1    0.39    0.03
   0  -4  -1    0.41    0.04
   0  -4  -1    0.37    0.04
   0  -4  -1    0.36    0.04
   0  -4   1    0.36    0.05
   0   4   1    0.37    0.04
   0   4  -1    0.39    0.04
   0   4  -1    0.39    0.03
   2  -4   1    3.05    0.16
  -2  -4  -1    3.33    0.16
  -2  -4  -1    3.37    0.15
  -2  -4  -1    3.26    0.14
   2  -4   1    3.15    0.14
   2   4   1    3.16    0.15
  -2   4  -1    3.47    0.14
  -2   4  -1    3.31    0.17
  -2   4  -1    3.21    0.15
   4  -4   1   16.26    0.70
   4  -4   1   16.58    0.66
   4   4   1   16.32    0.67
  -4   4  -1   16.74    0.64
   6  -4   1    4.60    0.22
   6  -4   1    4.44    0.24
  -6  -4  -1    5.06    0.20
  -6   4  -1    4.64    0.22
   6   4   1    4.47    0.23
   8  -4   1    0.84    0.09
  -8  -4  -1    0.83    0.07
   8  -4   1    0.84    0.10
  -8   4  -1    0.82    0.08
   8   4   1    1.00    0.09
  10  -4   1    3.30    0.22
  10  -4   1    3.57    0.21
  10   4   1    3.03    0.21
 -10   4  -1    3.39    0.20
  11  -5  -1    3.69    0.24
 -11   5   1    4.06    0.22
  11   5  -1    3.74    0.23
   9  -5  -1    4.17    0.20
   9  -5  -1    3.65    0.21
   9   5  -1    3.32    0.20
  -9   5   1    3.62    0.20
   7  -5  -1    5.32    0.27
   7  -5  -1    5.96    0.26
   7   5  -1    5.41    0.26
  -7   5   1    5.36    0.25
   5  -5  -1   10.19    0.44
   5  -5  -1   10.27    0.44
  -5   5   1   10.35    0.42
  -5   5   1   10.86    0.44
   5   5  -1   10.48    0.43
   3  -5  -1    8.60    0.37
  -3  -5   1    8.70    0.35
   3  -5  -1    8.72    0.37
   3   5  -1    9.00    0.35
  -3   5   1    8.70    0.36
  -3   5   1    8.99    0.37
   1  -5  -1    3.41    0.15
   1  -5  -1    3.28    0.15
  -1  -5   1    3.19    0.17
  -1  -5   1    3.43    0.14
   1   5  -1    3.25    0.14
  -1   5   1    3.25    0.15
  -1   5   1    3.98    0.16
   1   5  -1    3.39    0.17
   1  -5   1   33.97    1.44
   1  -5   1   35.03    1.36
  -1  -5  -1   38.45    1.32
  -1  -5  -1   36.65    1.37
  -1   5  -1   37.24    1.36
   1   5   1   33.61    1.32
   1   5   1   33.47    1.37
  -1   5  -1   34.89    1.32
  -1   5  -1   35.53    1.43
   3  -5   1   27.70    1.10
   3  -5   1   27.67    1.16
  -3  -5  -1   28.64    1.06
   3   5   1   27.55    1.11
  -3   5  -1   28.83    1.16
  -3   5  -1   28.06    1.07
  -3   5  -1   29.51    1.10
  -5  -5  -1   22.89    0.83
   5  -5   1   20.59    0.92
   5  -5   1   22.21    0.88
   5   5   1   21.55    0.88
  -5   5  -1   22.19    0.85
   7  -5   1    1.49    0.11
  -7  -5  -1    1.61    0.09
   7  -5   1    1.55    0.12
   7   5   1    1.61    0.12
  -7   5  -1    1.52    0.11
   9  -5   1    3.23    0.21
   9  -5   1    3.06    0.19
   9   5   1    3.61    0.21
  -9   5  -1    2.91    0.18
  10  -6  -1    3.99    0.23
  10   6  -1    3.57    0.21
 -10   6   1    3.57    0.21
   8  -6  -1    0.13    0.05
   8  -6  -1    0.24    0.05
   8   6  -1    0.22    0.05
  -8   6   1    0.13    0.05
   6  -6  -1   22.90    0.97
   6  -6  -1   23.90    0.95
  -6   6   1   23.10    0.91
   6   6  -1   23.21    0.94
  -6   6   1   24.28    0.97
   4  -6  -1    6.22    0.27
   4  -6  -1    5.80    0.27
  -4  -6   1    5.96    0.25
  -4   6   1    6.15    0.26
   4   6  -1    6.16    0.26
  -4   6   1    5.90    0.26
   2  -6  -1   35.80    1.40
  -2  -6   1   32.85    1.46
  -2  -6   1   36.04    1.38
   2  -6  -1   36.40    1.45
  -2  -6   1   35.87    1.33
   2   6  -1   35.03    1.38
  -2   6   1   38.01    1.41
   2   6  -1   37.72    1.34
  -2   6   1   36.28    1.36
   0  -6   1   17.51    0.77
   0  -6  -1   18.66    0.77
   0  -6   1   19.24    0.70
   0  -6  -1   18.69    0.74
   0  -6  -1   19.26    0.73
   0   6  -1   17.82    0.70
   0   6  -1   18.67    0.77
   0   6   1   18.79    0.71
  -2  -6  -1   30.83    1.13
   2  -6   1   30.01    1.23
  -2  -6  -1   30.61    1.17
   2  -6   1   29.26    1.16
  -2   6  -1   28.99    1.13
  -2   6  -1   31.70    1.16
   2   6   1   28.77    1.13
  -2   6  -1   31.32    1.23
   2   6   1   28.81    1.17
   4  -6   1   12.05    0.53
   4  -6   1   12.20    0.49
  -4   6  -1   12.19    0.49
   4   6   1   11.91    0.50
  -6  -6  -1    3.67    0.16
   6  -6   1    3.57    0.20
   6  -6   1    3.40    0.18
  -6   6  -1    3.43    0.18
   6   6   1    3.42    0.19
   8  -6   1    8.35    0.41
   8  -6   1    8.26    0.38
   8   6   1    8.30    0.39
  -8   6  -1    8.35    0.38
  10  -6   1    1.69    0.14
  10  -6   1    1.79    0.15
 -10   6  -1    1.66    0.13
  10   6   1    1.57    0.14
  11  -7  -1    3.29    0.22
  11   7  -1    3.45    0.21
 -11   7   1    3.14    0.20
   9  -7  -1    0.28    0.07
  -9   7   1    0.38    0.06
   9   7  -1    0.28    0.06
   7  -7  -1    5.42    0.27
   7  -7  -1    5.67    0.26
   7   7  -1    5.33    0.26
  -7   7   1    5.56    0.26
   5  -7  -1    6.94    0.32
   5  -7  -1    6.91    0.32
   5   7  -1    7.15    0.31
  -5   7   1    7.30    0.31
  -5   7   1    7.39    0.31
  -3  -7   1   27.95    1.07
   3  -7  -1   27.98    1.13
   3  -7  -1   27.07    1.09
  -3  -7   1   27.59    1.03
  -3  -7   1   26.79    1.14
   3   7  -1   27.51    1.07
   3   7  -1   28.37    1.03
  -3   7   1   27.14    1.06
  -3   7   1   28.65    1.12
  -1  -7   1    0.05    0.02
   1  -7  -1    0.03    0.02
  -1  -7   1   -0.03    0.04
   1  -7  -1   -0.03    0.02
  -1   7   1   -0.03    0.03
   1   7  -1    0.01    0.02
   1  -7   1    8.15    0.32
   1  -7   1    8.07    0.37
  -1  -7  -1    8.14    0.33
  -1   7  -1    8.07    0.33
  -1   7  -1    8.39    0.32
   1   7   1    7.81    0.33
   3  -7   1    4.96    0.25
   3  -7   1    4.93    0.21
  -3   7  -1    4.80    0.22
   3   7   1    4.99    0.23
   5  -7   1   13.80    0.60
   5  -7   1   13.53    0.55
   5   7   1   13.15    0.56
  -5   7  -1   13.22    0.55
   7  -7   1    0.03    0.04
   7  -7   1    0.05    0.05
  -7   7  -1    0.01    0.04
   7   7   1    0.08    0.05
   9  -7   1    1.90    0.15
   9  -7   1    1.68    0.13
   9   7   1    1.81    0.14
  -9   7  -1    1.77    0.14
  10  -8  -1    0.08    0.06
  10   8  -1    0.08    0.06
 -10   8   1   -0.01    0.05
   8  -8  -1    3.18    0.19
  -8   8   1    3.27    0.19
   8   8  -1    3.13    0.18
   6  -8  -1    0.00    0.04
   6  -8  -1    0.03    0.04
   6   8  -1    0.03    0.03
  -6   8   1    0.01    0.04
  -4  -8   1   18.75    0.83
  -4  -8   1   19.37    0.76
   4  -8  -1   19.39    0.78
   4  -8  -1   19.75    0.81
   4   8  -1   19.61    0.77
  -4   8   1   19.93    0.80
  -4   8   1   19.14    0.76
  -2  -8   1    1.72    0.08
  -2  -8   1    1.67    0.11
   2  -8  -1    1.73    0.10
   2  -8  -1    1.71    0.10
   2   8  -1    1.96    0.09
  -2   8   1    1.61    0.10
   0  -8  -1    0.99    0.07
   0  -8  -1    1.05    0.07
   0  -8  -1    1.03    0.07
   0  -8   1    0.94    0.08
   0   8  -1    0.95    0.07
   0   8   1    0.96    0.07
   2  -8   1    7.90    0.36
   2  -8   1    7.53    0.31
   2   8   1    7.29    0.33
   2   8   1    7.79    0.32
  -2   8  -1    8.21    0.32
  -2   8  -1    7.85    0.33
   4  -8   1   40.73    1.56
   4  -8   1   40.45    1.65
   4   8   1   39.24    1.58
  -4   8  -1   40.20    1.53
   6  -8   1    3.80    0.22
   6  -8   1    4.06    0.20
  -6   8  -1    3.80    0.20
   6   8   1    3.77    0.21
   8  -8   1    0.92    0.09
   8  -8   1    0.71    0.10
   8   8   1    0.86    0.09
  -8   8  -1    0.73    0.09
  10  -8   1   14.43    0.65
 -10   8  -1   14.90    0.64
  10   8   1   14.48    0.66
   9  -9  -1    4.94    0.27
  -9   9   1    4.67    0.26
   9   9  -1    4.77    0.25
   7  -9  -1    0.32    0.06
   7   9  -1    0.21    0.05
  -7   9   1    0.34    0.06
  -5  -9   1   29.72    1.28
   5  -9  -1   31.21    1.26
   5  -9  -1   31.35    1.22
   5   9  -1   31.77    1.21
  -5   9   1   29.40    1.19
  -3  -9   1   10.41    0.42
   3  -9  -1   10.78    0.46
  -3  -9   1    9.90    0.47
   3  -9  -1   10.91    0.44
  -3  -9   1   10.77    0.40
   3   9  -1   10.25    0.42
   3   9  -1   11.02    0.41
  -3   9   1   10.76    0.44
   1  -9  -1    1.14    0.08
  -1  -9   1    1.08    0.09
   1  -9  -1    1.04    0.08
  -1   9   1    1.26    0.09
   1   9  -1    1.27    0.07
   1  -9   1    0.07    0.05
   1  -9   1    0.08    0.02
  -1  -9  -1    0.09    0.04
  -1  -9  -1    0.08    0.04
   1   9   1    0.08    0.03
  -1   9  -1    0.13    0.04
   3  -9   1   35.95    1.40
   3  -9   1   36.20    1.49
  -3   9  -1   36.06    1.37
   3   9   1   36.10    1.42
   5  -9   1    0.13    0.04
   5  -9   1   -0.01    0.05
   5   9   1    0.01    0.04
  -5   9  -1    0.01    0.04
   7  -9   1    3.54    0.21
   7  -9   1    3.55    0.19
   7   9   1    3.33    0.20
  -7   9  -1    3.50    0.20
   9  -9   1    0.14    0.06
  -9   9  -1   -0.05    0.05
   9   9   1   -0.03    0.06
   8 -10  -1    0.15    0.06
  -8  10   1    0.10    0.05
  -6 -10   1    0.32    0.07
   6 -10  -1    0.32    0.06
   6  10  -1    0.33    0.05
  -6  10   1    0.25    0.06
   4 -10  -1   41.56    1.65
   4 -10  -1   41.99    1.59
  -4 -10   1   38.72    1.67
  -4  10   1   39.43    1.54
   4  10  -1   40.19    1.56
   2 -10  -1    6.58    0.28
  -2 -10   1    6.32    0.32
   2 -10  -1    6.63    0.31
   2  10  -1    6.27    0.27
  -2  10   1    6.36    0.29
   0 -10  -1    0.84    0.08
   0 -10   1    0.99    0.09
   0 -10  -1    0.94    0.07
   0  10   1    0.91    0.08
   0  10  -1    1.02    0.07
  -2 -10  -1    7.80    0.34
   2 -10   1    7.28    0.36
  -2 -10  -1    7.73    0.36
   2 -10   1    7.24    0.30
  -2  10  -1    7.42    0.32
   2  10   1    7.55    0.32
   4 -10   1   11.72    0.54
   4 -10   1   11.90    0.48
   4  10   1   11.99    0.50
  -4  10  -1   11.62    0.49
   6 -10   1    0.08    0.05
   6 -10   1    0.15    0.05
  -6  10  -1    0.20    0.06
   6  10   1    0.09    0.05
   8 -10   1    2.37    0.15
  -8  10  -1    2.16    0.16
   8  10   1    2.22    0.16
   9 -11  -1    0.91    0.10
  -9  11   1    0.70    0.10
  -7 -11   1    0.00    0.05
   7 -11  -1    0.04    0.05
  -7  11   1    0.01    0.04
   5 -11  -1    0.24    0.05
   5 -11  -1    0.11    0.05
  -5 -11   1    0.20    0.06
  -5  11   1    0.29    0.06
  -3 -11   1   14.78    0.68
   3 -11  -1   16.18    0.63
   3 -11  -1   14.89    0.66
   3  11  -1   16.25    0.60
  -3  11   1   14.56    0.62
   1 -11  -1    1.24    0.08
  -1 -11   1    1.03    0.10
   1 -11  -1    1.00    0.09
  -1  11   1    1.24    0.09
   1  11  -1    1.15    0.08
   1 -11   1   26.38    1.12
  -1 -11  -1   26.15    1.04
  -1 -11  -1   25.61    1.10
   1  11   1   26.60    1.02
  -1  11  -1   26.46    1.01
  -3 -11  -1   26.51    1.11
   3 -11   1   26.08    1.02
   3 -11   1   26.26    1.12
  -3  11  -1   25.81    1.02
   5 -11   1    0.05    0.05
   5 -11   1    0.14    0.04
   5  11   1    0.09    0.04
  -5  11  -1    0.13    0.05
   7 -11   1    0.16    0.07
   7  11   1    0.14    0.06
  -7  11  -1    0.13    0.06
   8 -12  -1   -0.04    0.05
  -8  12   1    0.13    0.06
   6 -12  -1    0.13    0.05
  -6 -12   1    0.11    0.06
  -6  12   1    0.07    0.05
   4 -12  -1    1.81    0.13
  -4 -12   1    1.54    0.13
   4 -12  -1    1.97    0.11
  -4  12   1    1.67    0.13
   2 -12  -1   18.96    0.75
  -2 -12   1   17.66    0.82
   2 -12  -1   19.37    0.81
   2  12  -1   19.31    0.73
  -2  12   1   17.69    0.75
   0 -12   1    4.91    0.28
   0 -12  -1    5.18    0.23
   0 -12  -1    5.23    0.27
   0  12   1    5.06    0.24
   0  12  -1    4.92    0.23
  -2 -12  -1    1.09    0.09
   2 -12   1    1.13    0.11
  -2 -12  -1    1.19    0.10
  -2  12  -1    1.14    0.09
   2  12   1    1.08    0.09
   4 -12   1    2.73    0.18
  -4 -12  -1    2.83    0.18
  -4  12  -1    2.61    0.16
   6 -12   1   -0.03    0.06
  -6  12  -1    0.08    0.05
  -8  12  -1    0.24    0.07
  -7  13   1    0.26    0.07
  -5 -13   1    1.20    0.12
  -5  13   1    1.21    0.11
  -3 -13   1    0.05    0.05
   3 -13  -1   -0.03    0.05
  -3  13   1    0.04    0.05
  -1 -13   1    0.06    0.05
   1 -13  -1    0.08    0.05
  -1  13   1    0.02    0.04
   1  13  -1    0.06    0.03
   1 -13   1    3.10    0.22
  -1 -13  -1    3.52    0.20
  -1  13  -1    3.30    0.18
   1  13   1    3.43    0.18
  -3 -13  -1    0.81    0.09
   3 -13   1    0.95    0.11
  -3  13  -1    0.72    0.08
   5 -13   1    0.29    0.08
  -5 -13  -1    0.28    0.07
  -5  13  -1    0.26    0.07
  -7  13  -1    0.56    0.09
  -6  14   1    0.55    0.09
  -4 -14   1    5.87    0.32
  -4  14   1    5.52    0.29
  -2 -14   1    0.06    0.06
   2 -14  -1    0.05    0.06
  -2  14   1    0.02    0.05
   0 -14  -1   -0.02    0.04
   0 -14   1   -0.04    0.06
   0  14   1    0.08    0.05
   0  14  -1    0.02    0.04
   2 -14   1    1.42    0.14
  -2 -14  -1    1.32    0.12
  -2  14  -1    1.57    0.12
  -4 -14  -1    0.29    0.07
   4 -14   1    0.44    0.09
  -4  14  -1    0.49    0.08
  -6  14  -1    0.36    0.08
  -5  15   1    0.00    0.05
  -3 -15   1    1.22    0.13
  -3  15   1    1.27    0.12
  -1 -15   1    0.00    0.06
   1 -15  -1   -0.11    0.05
  -1  15   1   -0.01    0.05
  -1 -15  -1    0.78    0.10
   1 -15   1    0.87    0.12
  -1  15  -1    0.94    0.09
  -3 -15  -1    6.43    0.35
   3 -15   1    6.57    0.36
  -3  15  -1    6.20    0.31
  -5  15  -1    0.00    0.05
  -4  16   1    3.65    0.22
  -2 -16   1    0.31    0.09
  -2  16   1    0.24    0.07
   0 -16   1   -0.05    0.08
   0 -16  -1    0.01    0.06
   2 -16   1    0.12    0.08
  -2 -16  -1    0.26    0.07
  -2  16  -1    0.32    0.07
  12   0  -2    0.21    0.07
 -10   0   2    0.37    0.05
  10   0  -2    0.27    0.06
  -8   0   2   38.49    1.44
   8   0  -2   38.32    1.53
  -6   0   2    0.82    0.06
   6   0  -2    0.91    0.07
  -6   0   2    1.02    0.07
   4   0  -2   77.91    3.03
  -4   0   2   79.79    2.91
   2   0  -2   20.16    0.81
  -2   0   2   19.04    0.76
   2   0  -2   21.18    0.76
  -2   0   2   21.44    0.79
   2   0  -2   19.54    0.79
  -2   0   2   19.59    0.81
   0   0  -2  192.42    7.56
   0   0   2  184.39    7.32
   0   0   2  180.27    7.56
   0   0  -2  201.75    7.30
  -2   0  -2  126.75    4.85
  -2   0  -2  124.90    4.65
   2   0   2  116.45    4.85
   2   0   2  118.20    4.65
   4   0   2   24.43    1.04
   4   0   2   25.16    0.99
  -4   0  -2   24.97    0.95
   6   0   2   28.68    1.22
  -6   0  -2   29.59    1.12
   6   0   2   29.12    1.17
   8   0   2    1.51    0.14
  -8   0  -2    1.61    0.11
   8   0   2    1.72    0.13
  10   0   2    2.60    0.19
 -10   0  -2    2.66    0.16
  11  -1  -2    1.20    0.12
  11   1  -2    1.12    0.12
  -9  -1   2   13.40    0.52
   9  -1  -2   13.38    0.57
  -9   1   2   13.19    0.53
   9   1  -2   12.22    0.56
   7  -1  -2   11.53    0.52
  -7  -1   2   12.33    0.48
  -7   1   2   12.33    0.49
  -7   1   2   13.32    0.53
   7   1  -2   12.20    0.52
   5  -1  -2   18.18    0.76
  -5  -1   2   18.70    0.71
   5   1  -2   20.00    0.72
  -5   1   2   19.40    0.77
  -5   1   2   19.26    0.72
   5   1  -2   17.81    0.75
  -3  -1   2    7.92    0.31
  -3  -1   2    6.98    0.32
  -3  -1   2    7.24    0.29
   3  -1  -2    8.39    0.30
   3  -1  -2    7.05    0.31
  -3   1   2    8.05    0.32
  -3   1   2    7.08    0.31
   3   1  -2    7.83    0.29
  -3   1   2    7.17    0.30
   3   1  -2    7.36    0.31
   1  -1  -2  805.07   32.57
  -1  -1   2 1000.00   34.28
   1  -1  -2  864.09   34.57
   1   1  -2  780.45   33.84
   1   1  -2  795.57   35.01
  -1   1   2  905.50   34.46
  -1   1   2  745.57   34.76
  -1   1   2  954.88   31.69
   1  -1   2   64.14    2.69
  -1  -1  -2   68.24    2.58
  -1  -1  -2   68.76    2.68
   1  -1   2   63.25    2.57
  -1   1  -2   69.62    2.69
   1   1   2   66.88    2.69
  -1   1  -2   72.28    2.58
   1   1   2   63.63    2.58
   3  -1   2    3.94    0.18
   3  -1   2    3.77    0.20
   3   1   2    4.04    0.20
   3   1   2    3.82    0.18
  -3   1  -2    3.82    0.18
  -5  -1  -2    6.89    0.29
   5  -1   2    6.30    0.32
   5  -1   2    6.67    0.30
   5   1   2    6.46    0.32
   5   1   2    6.88    0.30
  -5   1  -2    6.80    0.29
  -7  -1  -2   41.31    1.56
   7  -1   2   39.74    1.63
   7  -1   2   41.97    1.72
  -7   1  -2   41.64    1.57
   7   1   2   41.12    1.64
   7   1   2   41.34    1.71
  -9  -1  -2    0.11    0.05
   9  -1   2    0.24    0.07
   9  -1   2    0.09    0.07
   9   1   2    0.12    0.06
  -9   1  -2    0.16    0.05
  12   2  -2   -0.01    0.05
  10  -2  -2    3.42    0.21
 -10   2   2    3.49    0.18
  10   2  -2    3.67    0.21
  -8  -2   2   27.97    1.03
   8  -2  -2   27.02    1.11
   8   2  -2   27.55    1.10
  -8   2   2   26.93    1.05
   6  -2  -2    0.41    0.06
  -6  -2   2    0.36    0.03
  -6   2   2    0.33    0.04
   6   2  -2    0.33    0.05
   6   2  -2    0.37    0.03
  -6   2   2    0.34    0.04
  -4  -2   2   -0.09    0.03
  -4  -2   2    0.00    0.02
  -4   2   2    0.01    0.03
   4   2  -2   -0.03    0.02
  -4   2   2   -0.02    0.02
   2  -2  -2    0.44    0.05
  -2  -2   2    0.41    0.04
  -2  -2   2    0.39    0.04
   2  -2  -2    0.45    0.04
  -2   2   2    0.44    0.04
  -2   2   2    0.46    0.05
   2   2  -2    0.49    0.05
   2   2  -2    0.41    0.03
   0  -2  -2   55.34    2.01
   0  -2  -2   51.71    1.94
   0  -2  -2   53.47    2.08
   0  -2   2   49.41    2.00
   0  -2   2   51.44    2.09
   0   2  -2   54.54    2.00
   0   2  -2   54.07    2.10
   0   2   2   49.55    2.01
   0   2   2   49.51    2.08
   2  -2   2    0.19    0.05
  -2  -2  -2    0.29    0.04
   2  -2   2    0.25    0.04
   2   2   2    0.21    0.04
  -2   2  -2    0.29    0.04
  -2   2  -2    0.26    0.04
   2   2   2    0.25    0.05
  -2   2  -2    0.30    0.05
   4  -2   2    0.01    0.03
   4  -2   2   -0.01    0.04
  -4  -2  -2    0.01    0.03
  -4   2  -2   -0.02    0.03
   4   2   2   -0.04    0.04
   4   2   2    0.03    0.04
  -6  -2  -2   14.81    0.57
   6  -2   2   14.00    0.59
   6  -2   2   13.81    0.63
  -6   2  -2   14.17    0.57
   6   2   2   13.69    0.63
   6   2   2   14.38    0.60
  -8  -2  -2    3.38    0.17
   8  -2   2    3.14    0.21
   8  -2   2    3.26    0.19
   8   2   2    3.14    0.19
  -8   2  -2    3.28    0.18
  10  -2   2    1.46    0.14
  10  -2   2    1.43    0.15
 -10   2  -2    1.57    0.12
  10   2   2    2.10    0.16
  11  -3  -2    2.93    0.20
 -11   3   2    2.73    0.16
   9  -3  -2    0.35    0.07
  -9   3   2    0.31    0.05
   9   3  -2    0.23    0.06
   7  -3  -2   12.40    0.54
  -7  -3   2   12.19    0.48
   7   3  -2   12.93    0.48
   7   3  -2   12.03    0.53
  -7   3   2   12.22    0.51
  -7   3   2   14.17    0.54
   5  -3  -2    4.23    0.21
  -5  -3   2    4.55    0.18
  -5   3   2    4.32    0.20
   5   3  -2    4.65    0.18
   5   3  -2    4.23    0.20
  -5   3   2    4.66    0.19
  -3  -3   2    0.90    0.07
   3  -3  -2    1.04    0.07
  -3  -3   2    0.96    0.06
   3   3  -2    1.02    0.05
  -3   3   2    0.90    0.07
  -1  -3   2    7.19    0.32
   1  -3  -2    7.23    0.31
   1   3  -2    7.27    0.30
   1   3  -2    8.02    0.33
  -1   3   2    7.03    0.30
   1   3  -2    8.06    0.30
   1   3  -2    7.13    0.29
   1  -3   2    0.61    0.06
  -1  -3  -2    0.69    0.05
   1  -3   2    0.61    0.05
  -1  -3  -2    0.65    0.05
   1   3   2    0.61    0.06
   1   3   2    0.72    0.06
  -1   3  -2    0.68    0.05
  -1   3  -2    0.63    0.05
  -1   3  -2    0.73    0.07
   3  -3   2    1.45    0.09
   3  -3   2    1.61    0.11
   3   3   2    1.51    0.10
  -3   3  -2    1.57    0.09
   5  -3   2   18.29    0.73
  -5  -3  -2   18.81    0.70
   5  -3   2   18.71    0.78
  -5   3  -2   17.73    0.71
   5   3   2   16.76    0.77
   5   3   2   17.33    0.74
   7  -3   2    6.31    0.30
  -7  -3  -2    6.55    0.28
   7  -3   2    6.60    0.33
  -7   3  -2    6.13    0.29
   7   3   2    6.48    0.31
  -9  -3  -2    0.65    0.07
   9  -3   2    0.80    0.09
   9  -3   2    0.86    0.11
  -9   3  -2    0.63    0.08
   9   3   2    0.74    0.09
  10  -4  -2    0.88    0.10
  10   4  -2    0.81    0.09
 -10   4   2    0.83    0.08
   8  -4  -2    2.62    0.16
   8   4  -2    2.53    0.15
  -8   4   2    2.69    0.15
   6  -4  -2    1.86    0.12
   6   4  -2    1.87    0.11
  -6   4   2    1.85    0.11
  -6   4   2    2.06    0.10
  -4  -4   2    1.22    0.09
  -4  -4   2    1.27    0.08
   4  -4  -2    1.31    0.09
  -4   4   2    1.13    0.08
   2  -4  -2    9.50    0.38
   2  -4  -2    9.03    0.38
  -2  -4   2    8.75    0.40
   2  -4  -2    8.76    0.39
  -2  -4   2   10.40    0.38
   2   4  -2    9.93    0.41
   2   4  -2    9.16    0.37
   2   4  -2    9.03    0.36
  -2   4   2    9.57    0.38
   0  -4   2   21.42    0.83
   0  -4  -2   22.35    0.85
   0  -4   2   19.79    0.89
   0  -4  -2   21.72    0.86
   0  -4  -2   20.92    0.87
   0   4  -2   21.65    0.88
   0   4  -2   22.97    0.83
   0   4   2   20.48    0.82
  -2  -4  -2    0.05    0.03
   2  -4   2    0.00    0.03
   2  -4   2   -0.02    0.04
  -2   4  -2   -0.01    0.03
  -2   4  -2    0.00    0.02
   2   4   2   -0.04    0.03
   4  -4   2    4.81    0.25
   4  -4   2    4.70    0.22
  -4   4  -2    5.04    0.23
   4   4   2    4.98    0.23
   6  -4   2    9.14    0.45
  -6  -4  -2   10.17    0.40
   6  -4   2    9.54    0.42
   6   4   2    9.87    0.43
  -6   4  -2    9.70    0.41
   8  -4   2    1.29    0.12
   8  -4   2    1.16    0.10
  -8  -4  -2    1.18    0.09
   8   4   2    1.25    0.11
  -8   4  -2    1.13    0.10
  10  -4   2    0.23    0.08
  10  -4   2    0.15    0.06
 -10   4  -2    0.20    0.06
  10   4   2    0.23    0.07
  11  -5  -2    0.79    0.10
 -11   5   2    0.72    0.08
  11   5  -2    0.80    0.10
   9  -5  -2    0.07    0.05
   9   5  -2    0.03    0.04
  -9   5   2    0.07    0.04
   7  -5  -2    2.56    0.15
  -7   5   2    2.36    0.14
   7   5  -2    2.48    0.14
  -5  -5   2   12.98    0.57
   5  -5  -2   13.85    0.53
   5  -5  -2   12.47    0.55
  -5   5   2   13.16    0.53
  -5   5   2   12.98    0.53
  -3  -5   2    7.31    0.32
  -3  -5   2    7.60    0.29
   3  -5  -2    6.96    0.31
   3   5  -2    7.17    0.29
  -3   5   2    6.65    0.30
   1  -5  -2   10.91    0.46
   1  -5  -2   11.41    0.46
  -1  -5   2   11.27    0.49
  -1   5   2   11.00    0.45
   1   5  -2   11.40    0.48
   1   5  -2   11.08    0.43
  -1  -5  -2    1.48    0.09
   1  -5   2    1.35    0.10
   1  -5   2    1.39    0.07
   1   5   2    1.52    0.09
   1   5   2    1.56    0.09
  -1   5  -2    1.68    0.07
  -1   5  -2    1.38    0.08
   3  -5   2   18.68    0.81
   3  -5   2   18.73    0.75
  -3   5  -2   19.87    0.75
   3   5   2   19.14    0.77
   5  -5   2    2.91    0.18
   5  -5   2    2.71    0.15
  -5   5  -2    2.82    0.16
   5   5   2    2.83    0.16
  -7  -5  -2    1.83    0.11
   7  -5   2    1.79    0.12
   7  -5   2    1.77    0.14
  -7   5  -2    1.70    0.12
   7   5   2    1.87    0.13
   9  -5   2    2.04    0.16
   9  -5   2    1.64    0.14
   9   5   2    1.78    0.15
  -9   5  -2    1.73    0.13
  10  -6  -2    0.14    0.07
 -10   6   2    0.22    0.06
  10   6  -2    0.23    0.06
   8  -6  -2   28.95    1.15
  -8   6   2   27.39    1.09
   8   6  -2   27.97    1.13
  -6  -6   2   14.89    0.67
   6  -6  -2   14.82    0.65
   6  -6  -2   16.58    0.63
  -6   6   2   14.70    0.62
  -6   6   2   16.08    0.63
  -4  -6   2    3.39    0.15
  -4  -6   2    3.07    0.17
   4  -6  -2    3.32    0.14
   4  -6  -2    2.93    0.17
   4   6  -2    3.22    0.15
  -4   6   2    3.11    0.16
  -2  -6   2   38.37    1.62
   2  -6  -2   42.09    1.60
   2  -6  -2   38.36    1.55
   2   6  -2   40.39    1.47
  -2   6   2   39.27    1.50
   0  -6  -2   48.33    1.84
   0  -6  -2   45.54    1.79
   0  -6   2   44.83    1.86
   0   6   2   45.17    1.72
   0   6  -2   44.66    1.70
   2  -6   2   31.24    1.21
   2  -6   2   29.89    1.28
  -2   6  -2   33.86    1.21
   2   6   2   29.56    1.23
  -2   6  -2   30.94    1.18
   4  -6   2    2.41    0.13
   4  -6   2    2.40    0.15
  -4   6  -2    2.29    0.14
   4   6   2    2.54    0.14
   6  -6   2   39.60    1.57
   6  -6   2   39.15    1.66
  -6  -6  -2   41.16    1.50
  -6   6  -2   39.83    1.53
   6   6   2   39.65    1.59
   8  -6   2    2.33    0.16
   8  -6   2    2.55    0.18
   8   6   2    2.34    0.16
  -8   6  -2    2.32    0.16
  10  -6   2    0.04    0.07
  10  -6   2   -0.06    0.05
  10   6   2    0.04    0.06
 -10   6  -2    0.06    0.06
  11  -7  -2    0.13    0.07
 -11   7   2    0.12    0.06
  11   7  -2    0.08    0.06
   9  -7  -2    0.50    0.08
   9   7  -2    0.31    0.06
  -9   7   2    0.37    0.06
  -7  -7   2    1.67    0.12
   7  -7  -2    1.37    0.11
  -7   7   2    1.52    0.11
   5  -7  -2    4.92    0.21
   5  -7  -2    4.95    0.24
  -5  -7   2    4.65    0.25
  -5   7   2    5.25    0.21
  -5   7   2    4.78    0.23
   5   7  -2    5.02    0.22
   3  -7  -2   12.04    0.52
  -3  -7   2   12.33    0.55
   3  -7  -2   12.62    0.52
  -3  -7   2   13.37    0.50
  -3   7   2   11.69    0.51
   3   7  -2   12.74    0.49
   3   7  -2   13.18    0.48
   1  -7  -2   14.52    0.61
   1  -7  -2   14.83    0.62
  -1  -7   2   15.33    0.64
   1   7  -2   14.53    0.57
  -1   7   2   14.90    0.59
   1  -7   2    2.33    0.10
   1  -7   2    2.40    0.15
  -1   7  -2    2.48    0.11
   1   7   2    2.31    0.13
  -1   7  -2    2.36    0.12
   3  -7   2   13.35    0.53
   3  -7   2   13.17    0.59
   3   7   2   12.71    0.55
  -3   7  -2   13.58    0.53
   5  -7   2    3.13    0.19
   5  -7   2    3.27    0.16
   5   7   2    3.14    0.18
  -5   7  -2    3.02    0.17
   7  -7   2    0.22    0.07
   7  -7   2    0.26    0.06
   7   7   2    0.32    0.07
  -7   7  -2    0.27    0.06
   9  -7   2    0.24    0.08
   9  -7   2    0.46    0.08
  -9   7  -2    0.32    0.07
   9   7   2    0.32    0.08
  10  -8  -2    0.96    0.11
 -10   8   2    0.87    0.10
  10   8  -2    0.95    0.10
  -8  -8   2    0.43    0.07
   8  -8  -2    0.52    0.08
   8   8  -2    0.27    0.05
  -8   8   2    0.31    0.06
   6  -8  -2   10.22    0.44
  -6  -8   2    9.76    0.45
  -6   8   2    9.69    0.42
   6   8  -2    9.47    0.41
   4  -8  -2    7.70    0.32
  -4  -8   2    7.15    0.35
  -4  -8   2    7.85    0.31
   4  -8  -2    7.30    0.33
  -4   8   2    6.99    0.32
   4   8  -2    7.46    0.30
  -2  -8   2    0.39    0.04
   2  -8  -2    0.35    0.05
   2  -8  -2    0.36    0.04
  -2  -8   2    0.35    0.06
   2   8  -2    0.38    0.03
  -2   8   2    0.38    0.05
   0  -8   2    1.65    0.13
   0  -8  -2    1.74    0.11
   0   8  -2    1.81    0.10
   0   8   2    1.89    0.11
   2  -8   2    0.49    0.04
   2  -8   2    0.58    0.07
  -2   8  -2    0.34    0.05
  -2   8  -2    0.54    0.04
   2   8   2    0.53    0.06
   4  -8   2    7.85    0.32
   4  -8   2    7.25    0.37
   4   8   2    7.53    0.35
  -4   8  -2    7.60    0.34
   6  -8   2    1.49    0.13
   6  -8   2    1.48    0.11
   6   8   2    1.48    0.12
  -6   8  -2    1.75    0.12
   8  -8   2    1.15    0.12
   8  -8   2    1.14    0.10
   8   8   2    0.97    0.11
  -8   8  -2    1.01    0.11
  -9  -9   2    0.30    0.07
   9  -9  -2    0.32    0.07
  -9   9   2    0.45    0.07
  -7  -9   2    0.96    0.10
   7  -9  -2    1.02    0.10
  -7   9   2    0.99    0.09
   7   9  -2    0.88    0.07
  -5  -9   2    0.77    0.08
   5  -9  -2    0.85    0.06
   5  -9  -2    0.89    0.08
  -5   9   2    0.87    0.08
   5   9  -2    0.87    0.06
   3  -9  -2    2.17    0.12
  -3  -9   2    1.93    0.14
   3  -9  -2    2.10    0.13
   3   9  -2    2.12    0.09
  -3   9   2    1.85    0.12
  -1  -9   2    5.80    0.29
   1  -9  -2    5.61    0.27
   1  -9  -2    5.84    0.27
   1   9  -2    5.79    0.24
  -1   9   2    5.90    0.27
   1  -9   2    3.68    0.22
  -1  -9  -2    4.05    0.21
  -1   9  -2    3.93    0.19
   1   9   2    4.16    0.20
   3  -9   2    0.28    0.04
   3  -9   2    0.33    0.07
   3   9   2    0.23    0.05
  -3   9  -2    0.25    0.05
   5  -9   2    0.08    0.06
   5  -9   2    0.09    0.04
  -5   9  -2    0.00    0.04
   5   9   2    0.09    0.05
   7  -9   2    0.13    0.07
   7  -9   2    0.02    0.04
   7   9   2    0.07    0.05
  -7   9  -2    0.03    0.05
   9  -9   2    1.21    0.12
   9  -9   2    1.21    0.14
  -9   9  -2    1.16    0.12
   9   9   2    1.08    0.12
  -8 -10   2    0.19    0.06
   8 -10  -2    0.20    0.06
  -8  10   2    0.11    0.05
   6 -10  -2    0.59    0.08
  -6 -10   2    0.71    0.08
  -6  10   2    0.58    0.07
  -4 -10   2    0.47    0.07
   4 -10  -2    0.46    0.06
   4 -10  -2    0.42    0.05
  -4  10   2    0.30    0.06
   2 -10  -2    1.89    0.12
  -2 -10   2    1.73    0.13
   2 -10  -2    1.91    0.11
   2  10  -2    2.00    0.10
  -2  10   2    1.73    0.12
   0 -10  -2    1.21    0.09
   0 -10  -2    1.17    0.09
   0 -10   2    1.18    0.11
   0  10   2    1.08    0.09
   0  10  -2    1.12    0.08
  -2 -10  -2    2.19    0.14
   2 -10   2    2.23    0.16
   2 -10   2    2.20    0.10
   2  10   2    2.49    0.14
  -2  10  -2    2.35    0.14
   4 -10   2    0.09    0.03
   4 -10   2    0.02    0.06
   4  10   2    0.10    0.05
  -4  10  -2    0.02    0.04
   6 -10   2    0.19    0.05
   6 -10   2    0.08    0.06
   6  10   2    0.17    0.06
  -6  10  -2    0.03    0.05
   8 -10   2    1.66    0.15
  -8  10  -2    1.70    0.14
   8  10   2    1.74    0.15
   9 -11  -2    1.37    0.13
  -9  11   2    1.29    0.12
   7 -11  -2    0.15    0.05
  -7 -11   2    0.10    0.06
  -7  11   2    0.05    0.05
  -5 -11   2    2.06    0.15
   5 -11  -2    2.08    0.14
  -5  11   2    1.99    0.14
  -3 -11   2    0.42    0.08
   3 -11  -2    0.40    0.06
   3 -11  -2    0.43    0.06
  -3  11   2    0.36    0.06
   1 -11  -2    5.32    0.25
  -1 -11   2    5.24    0.28
   1 -11  -2    5.19    0.26
  -1  11   2    5.00    0.25
   1  11  -2    5.24    0.23
  -1 -11  -2    7.34    0.35
  -1 -11  -2    7.38    0.34
   1 -11   2    7.47    0.38
  -1  11  -2    7.38    0.32
   1  11   2    7.91    0.34
   3 -11   2    0.79    0.10
  -3  11  -2    0.85    0.08
   5 -11   2    1.55    0.14
   5  11   2    1.51    0.12
  -5  11  -2    1.63    0.12
   7 -11   2    2.15    0.17
  -7  11  -2    2.07    0.16
   7  11   2    1.88    0.15
   8 -12  -2    4.44    0.24
  -8  12   2    3.94    0.24
   6 -12  -2    0.16    0.05
  -6 -12   2    0.06    0.05
  -6  12   2   -0.03    0.04
  -4 -12   2    4.48    0.27
   4 -12  -2    4.83    0.24
  -4  12   2    4.65    0.24
   2 -12  -2   15.10    0.63
   2 -12  -2   15.50    0.66
  -2 -12   2   14.89    0.69
   2  12  -2   15.59    0.60
  -2  12   2   14.78    0.63
   0 -12  -2    6.53    0.31
   0 -12   2    6.95    0.36
   0 -12  -2    6.47    0.32
   0  12  -2    7.04    0.30
   0  12   2    6.14    0.31
  -2 -12  -2    6.58    0.32
   2 -12   2    6.72    0.36
  -2 -12  -2    6.85    0.34
   2  12   2    6.99    0.32
  -2  12  -2    6.93    0.31
   4 -12   2    0.65    0.10
  -4  12  -2    0.46    0.07
   6 -12   2    5.08    0.30
  -6  12  -2    4.89    0.27
   7 -13  -2    3.02    0.19
  -7  13   2    2.97    0.20
  -5 -13   2    0.08    0.06
   5 -13  -2    0.14    0.05
  -5  13   2    0.08    0.05
   3 -13  -2    0.00    0.04
  -3 -13   2    0.03    0.05
  -3  13   2    0.06    0.05
  -1 -13   2    0.82    0.11
   1 -13  -2    0.84    0.08
   1 -13  -2    1.02    0.09
  -1  13   2    0.90    0.09
   1  13  -2    0.97    0.08
  -1 -13  -2    2.52    0.17
   1 -13   2    2.58    0.19
  -1  13  -2    2.80    0.16
   1  13   2    2.70    0.17
  -3 -13  -2    0.03    0.05
   3 -13   2   -0.05    0.06
  -3  13  -2   -0.01    0.04
   5 -13   2    1.16    0.13
  -5  13  -2    1.09    0.11
  -6  14   2   -0.07    0.05
  -4 -14   2    0.35    0.08
  -4  14   2    0.25    0.07
  -2 -14   2    0.20    0.08
  -2  14   2    0.41    0.07
   0 -14  -2    0.78    0.09
   0 -14   2    0.71    0.12
   0  14   2    0.62    0.08
   0  14  -2    0.69    0.07
  -2 -14  -2    0.30    0.06
   2 -14   2    0.25    0.08
  -2  14  -2    0.20    0.06
   4 -14   2    0.45    0.10
  -4 -14  -2    0.47    0.08
  -4  14  -2    0.31    0.07
  -5  15   2    0.12    0.06
  -3 -15   2    0.35    0.09
  -3  15   2    0.29    0.07
  -1 -15   2    0.16    0.09
  -1  15   2    0.21    0.06
   1 -15   2    0.31    0.10
  -1 -15  -2    0.51    0.08
   1  15   2    0.42    0.07
  -1  15  -2    0.38    0.06
   3 -15   2   -0.03    0.07
  -3 -15  -2    0.10    0.06
  -3  15  -2    0.01    0.05
  -2  16   2    0.48    0.08
   0  16   2    0.86    0.10
  -2 -16  -2    0.21    0.06
  -2  16  -2    0.12    0.06
  12   0  -3   -0.08    0.05
  10   0  -3    1.98    0.15
  -8   0   3    1.83    0.10
   8   0  -3    1.85    0.13
  -6   0   3    8.49    0.36
   6   0  -3    7.76    0.37
  -6   0   3    8.67    0.36
  -6   0   3    8.35    0.34
  -4   0   3   51.09    1.91
   4   0  -3   49.58    1.99
  -4   0   3   53.18    2.06
  -2   0   3    0.13    0.03
   2   0  -3    0.13    0.03
   2   0  -3    0.10    0.04
   0   0   3   89.45    3.54
   0   0   3   91.04    3.69
   0   0  -3   96.31    3.69
   2   0   3   24.93    0.98
   2   0   3   24.33    1.02
   4   0   3    6.10    0.28
   4   0   3    6.24    0.31
  -4   0  -3    6.23    0.27
   6   0   3    6.37    0.34
   6   0   3    6.62    0.31
  -8   0  -3    0.98    0.09
   8   0   3    1.00    0.12
   8   0   3    1.10    0.11
 -10   0  -3    0.47    0.08
  11  -1  -3    0.44    0.08
  11   1  -3    0.39    0.08
   9  -1  -3    0.03    0.05
  -9  -1   3    0.09    0.04
   9   1  -3    0.02    0.05
  -9   1   3    0.04    0.04
   7  -1  -3    2.25    0.14
  -7  -1   3    2.11    0.11
   7   1  -3    2.07    0.13
  -7   1   3    2.40    0.12
  -7   1   3    2.05    0.12
   5  -1  -3   10.84    0.49
  -5  -1   3   11.96    0.49
  -5  -1   3   11.57    0.45
  -5   1   3   11.83    0.48
  -5   1   3   11.41    0.46
   5   1  -3   11.11    0.48
  -5   1   3   12.28    0.48
   3  -1  -3    7.15    0.29
  -3  -1   3    8.01    0.31
   3  -1  -3    6.27    0.30
  -3   1   3    6.92    0.29
   3   1  -3    6.62    0.30
  -3   1   3    6.40    0.29
   3   1  -3    6.98    0.30
   3   1  -3    6.85    0.28
   1  -1  -3   18.21    0.74
  -1  -1   3   17.33    0.76
   1  -1  -3   19.22    0.76
  -1   1   3   17.92    0.76
   1   1  -3   18.90    0.77
   1   1  -3   19.89    0.74
   1   1  -3   17.82    0.74
  -1  -1  -3    9.73    0.41
   1  -1   3    8.87    0.38
   1  -1   3    9.32    0.41
  -1   1  -3    9.98    0.41
   1   1   3    8.90    0.39
   1   1   3    9.05    0.41
   3  -1   3   35.36    1.46
   3  -1   3   36.13    1.39
   3   1   3   34.97    1.46
  -3   1  -3   35.41    1.34
   3   1   3   35.55    1.40
   5  -1   3    0.61    0.07
   5  -1   3    0.58    0.08
  -5  -1  -3    0.65    0.07
   5   1   3    0.62    0.07
   5   1   3    0.65    0.08
  -5   1  -3    0.60    0.07
   7  -1   3    0.26    0.08
   7  -1   3    0.44    0.07
  -7  -1  -3    0.50    0.06
   7   1   3    0.36    0.07
   7   1   3    0.39    0.08
  -7   1  -3    0.37    0.06
   9  -1   3    0.90    0.10
   9  -1   3    0.93    0.12
  -9  -1  -3    0.76    0.08
   9   1   3    0.67    0.10
  -9   1  -3    0.72    0.08
   9   1   3    0.77    0.12
  12   2  -3    0.28    0.08
  10  -2  -3    0.30    0.07
  10   2  -3    0.30    0.07
 -10   2   3    0.35    0.05
  -8  -2   3    0.56    0.05
   8  -2  -3    0.36    0.07
   8   2  -3    0.40    0.06
  -8   2   3    0.46    0.05
  -6  -2   3    0.00    0.02
   6  -2  -3   -0.04    0.04
  -6  -2   3    0.03    0.03
   6   2  -3   -0.01    0.04
  -6   2   3    0.01    0.03
  -6   2   3    0.02    0.02
  -6   2   3   -0.03    0.02
   6   2  -3    0.02    0.02
  -4  -2   3    7.17    0.32
   4  -2  -3    6.95    0.32
   4   2  -3    8.26    0.29
   4   2  -3    7.02    0.31
  -4   2   3    6.89    0.30
  -2  -2   3    0.11    0.05
   2  -2  -3    0.15    0.03
   2  -2  -3    0.13    0.04
  -2  -2   3    0.15    0.04
  -2   2   3    0.16    0.02
   2   2  -3    0.13    0.04
  -2   2   3    0.12    0.04
   2   2  -3    0.10    0.04
   2   2  -3    0.12    0.03
   0  -2   3    0.26    0.05
   0  -2  -3    0.29    0.04
   0  -2   3    0.32    0.04
   0   2  -3    0.45    0.04
   0   2  -3    0.37    0.06
   0   2   3    0.27    0.04
   2  -2   3   22.29    0.90
   2  -2   3   22.97    0.95
   2   2   3   23.22    0.95
  -2   2  -3   22.33    0.87
   2   2   3   23.17    0.91
   4  -2   3    0.14    0.05
   4  -2   3    0.07    0.04
  -4   2  -3    0.11    0.04
   4   2   3    0.00    0.04
   4   2   3    0.05    0.05
  -6  -2  -3    1.21    0.09
   6  -2   3    1.05    0.11
   6  -2   3    1.08    0.09
  -6   2  -3    1.05    0.09
   6   2   3    0.99    0.10
   6   2   3    1.11    0.11
   8  -2   3    0.18    0.06
   8  -2   3    0.24    0.08
  -8  -2  -3    0.22    0.05
   8   2   3    0.22    0.08
  -8   2  -3    0.21    0.05
   8   2   3    0.25    0.07
 -10   2  -3    6.73    0.33
  11  -3  -3    0.19    0.07
  11   3  -3    0.30    0.07
 -11   3   3    0.37    0.06
   9  -3  -3    3.72    0.21
  -9   3   3    3.32    0.18
   9   3  -3    3.68    0.20
  -7  -3   3    2.30    0.14
  -7  -3   3    2.44    0.11
   7  -3  -3    2.26    0.15
   7   3  -3    2.28    0.14
  -7   3   3    2.24    0.13
  -7   3   3    2.51    0.12
  -5  -3   3   52.54    2.11
   5  -3  -3   50.60    2.04
   5   3  -3   58.01    1.94
  -5   3   3   50.02    1.96
   5   3  -3   50.15    2.03
   3  -3  -3    9.14    0.41
  -3  -3   3   10.63    0.40
  -3  -3   3    8.93    0.41
   3   3  -3    9.87    0.38
   3   3  -3    9.74    0.42
  -3   3   3    9.02    0.39
  -1  -3   3    3.79    0.19
   1  -3  -3    3.54    0.16
   1  -3  -3    3.55    0.18
   1   3  -3    3.72    0.16
   1   3  -3    3.67    0.17
   1   3  -3    3.49    0.19
  -1   3   3    3.64    0.16
  -1   3   3    3.10    0.17
  -1  -3  -3    2.16    0.11
   1  -3   3    1.87    0.12
   1  -3   3    1.92    0.10
   1   3   3    1.79    0.11
  -1   3  -3    2.05    0.11
   1   3   3    1.93    0.12
  -1   3  -3    2.17    0.10
   3  -3   3    9.00    0.38
   3  -3   3    8.98    0.41
   3   3   3    8.93    0.39
  -3   3  -3    8.83    0.37
   3   3   3    8.53    0.40
   5  -3   3    3.70    0.22
   5  -3   3    4.08    0.20
  -5  -3  -3    3.87    0.19
  -5   3  -3    3.96    0.20
   5   3   3    4.10    0.23
   5   3   3    3.87    0.21
   7  -3   3    0.06    0.05
  -7  -3  -3   -0.02    0.04
   7  -3   3    0.12    0.06
   7   3   3    0.00    0.05
  -7   3  -3   -0.03    0.04
   9  -3   3   -0.02    0.07
   9  -3   3    0.04    0.06
  -9  -3  -3    0.00    0.04
  -9   3  -3    0.05    0.05
   9   3   3    0.01    0.05
  10  -4  -3    0.07    0.06
 -10   4   3    0.08    0.04
  10   4  -3    0.02    0.05
   8  -4  -3    1.32    0.12
  -8  -4   3    1.51    0.11
  -8   4   3    1.32    0.10
   8   4  -3    1.42    0.10
  -6  -4   3    0.00    0.03
   6  -4  -3   -0.06    0.04
   6   4  -3   -0.01    0.03
  -6   4   3   -0.01    0.03
   4  -4  -3   13.91    0.59
  -4  -4   3   14.35    0.60
   4   4  -3   15.43    0.54
   4   4  -3   13.16    0.56
  -4   4   3   13.34    0.56
  -2  -4   3    0.20    0.05
   2  -4  -3    0.17    0.05
   2  -4  -3    0.20    0.02
  -2   4   3    0.24    0.05
   2   4  -3    0.20    0.03
   0  -4   3    0.28    0.05
   0  -4  -3    0.25    0.04
   0  -4  -3    0.33    0.05
   0  -4   3    0.24    0.04
   0   4  -3    0.36    0.03
   0   4   3    0.28    0.05
   0   4  -3    0.27    0.04
   0   4   3    0.31    0.04
   2  -4   3   46.90    1.86
   2  -4   3   46.47    1.77
   2   4   3   43.15    1.85
   2   4   3   45.81    1.78
   4  -4   3    0.90    0.07
   4  -4   3    0.89    0.09
  -4   4  -3    0.99    0.08
   4   4   3    0.90    0.08
   4   4   3    0.89    0.09
   6  -4   3    0.08    0.04
   6  -4   3    0.07    0.06
  -6  -4  -3    0.09    0.04
  -6   4  -3    0.06    0.04
   6   4   3   -0.03    0.04
  -8  -4  -3    1.43    0.11
   8  -4   3    1.51    0.14
   8  -4   3    1.29    0.12
   8   4   3    1.50    0.13
  -8   4  -3    1.48    0.12
 -11  -5   3    3.54    0.22
  11  -5  -3    3.82    0.24
 -11   5   3    3.47    0.20
  11   5  -3    4.02    0.23
  -9  -5   3    0.38    0.06
   9  -5  -3    0.30    0.07
  -9   5   3    0.29    0.06
   9   5  -3    0.29    0.06
   7  -5  -3    5.38    0.28
  -7  -5   3    5.66    0.27
  -7   5   3    5.65    0.26
   7   5  -3    5.35    0.26
  -5  -5   3   29.45    1.20
   5  -5  -3   28.99    1.17
  -5   5   3   28.68    1.12
   5   5  -3   29.09    1.14
  -3  -5   3    5.67    0.27
   3  -5  -3    5.74    0.27
   3   5  -3    5.88    0.23
   3   5  -3    5.43    0.23
  -3   5   3    5.67    0.26
   3   5  -3    5.76    0.24
   1  -5  -3   12.15    0.53
  -1  -5   3   11.79    0.55
   1  -5  -3   12.73    0.53
   1   5  -3   12.60    0.49
   1   5  -3   13.54    0.51
   1   5  -3   13.57    0.50
  -1   5   3   12.25    0.51
   1  -5   3    2.56    0.16
   1  -5   3    2.54    0.13
  -1   5  -3    2.99    0.13
   1   5   3    2.59    0.15
   3  -5   3   35.09    1.36
   3  -5   3   34.02    1.44
  -3   5  -3   35.06    1.33
   3   5   3   34.88    1.38
   5  -5   3    0.33    0.07
   5  -5   3    0.39    0.05
   5   5   3    0.23    0.06
  -5   5  -3    0.39    0.06
   7  -5   3    7.27    0.34
  -7  -5  -3    7.18    0.31
   7  -5   3    6.45    0.37
  -7   5  -3    7.14    0.33
   7   5   3    6.81    0.35
   9  -5   3    7.40    0.36
   9  -5   3    6.92    0.39
   9   5   3    7.24    0.37
  -9   5  -3    6.66    0.35
  10  -6  -3    0.92    0.11
 -10  -6   3    1.03    0.10
  10   6  -3    0.90    0.09
 -10   6   3    0.76    0.09
  -8  -6   3    4.70    0.25
   8  -6  -3    5.02    0.26
   8   6  -3    5.01    0.24
  -8   6   3    4.50    0.23
  -6  -6   3    0.21    0.05
   6  -6  -3    0.19    0.06
  -6   6   3    0.21    0.05
   6   6  -3    0.19    0.04
  -4  -6   3   17.18    0.62
   4  -6  -3   14.44    0.65
  -4  -6   3   14.64    0.67
   4   6  -3   16.82    0.58
  -4   6   3   14.93    0.62
   4   6  -3   14.88    0.61
   2  -6  -3    0.71    0.05
   2  -6  -3    0.62    0.07
  -2  -6   3    0.71    0.08
   2   6  -3    0.74    0.04
   2   6  -3    0.67    0.05
   2   6  -3    0.69    0.04
  -2   6   3    0.71    0.07
   0  -6  -3   19.38    0.78
   0  -6   3   17.88    0.80
   0  -6  -3   18.51    0.78
   0   6  -3   18.28    0.73
   0   6  -3   20.56    0.74
   0   6   3   18.28    0.74
   2  -6   3    0.87    0.06
   2  -6   3    0.99    0.09
   2   6   3    1.03    0.08
  -2   6  -3    0.84    0.07
   4  -6   3   18.55    0.79
   4  -6   3   18.20    0.73
   4   6   3   17.16    0.75
  -4   6  -3   17.90    0.72
   6  -6   3    5.12    0.27
   6  -6   3    5.88    0.31
  -6  -6  -3    5.88    0.26
   6   6   3    5.52    0.29
  -6   6  -3    5.80    0.28
   8  -6   3    0.65    0.11
   8  -6   3    0.82    0.09
   8   6   3    0.78    0.10
  -8   6  -3    0.78    0.09
 -11   7   3    0.20    0.06
  11   7  -3    0.25    0.07
  -9  -7   3    0.81    0.09
   9  -7  -3    0.94    0.10
   9   7  -3    0.91    0.09
  -9   7   3    0.90    0.09
  -7  -7   3    1.45    0.11
   7  -7  -3    1.44    0.12
   7   7  -3    1.23    0.09
  -7   7   3    1.21    0.10
   5  -7  -3    0.60    0.08
  -5  -7   3    0.72    0.08
  -5   7   3    0.67    0.07
   5   7  -3    0.78    0.05
  -3  -7   3    0.03    0.04
   3  -7  -3    0.04    0.04
   3   7  -3    0.01    0.02
  -3   7   3    0.09    0.04
   3   7  -3    0.01    0.02
   1  -7  -3    2.40    0.14
  -1  -7   3    2.49    0.16
   1  -7  -3    2.45    0.12
   1   7  -3    2.46    0.12
  -1   7   3    2.43    0.14
   1  -7   3    5.49    0.24
   1  -7   3    5.75    0.30
  -1   7  -3    5.67    0.26
  -1   7  -3    6.33    0.24
   3  -7   3    1.94    0.14
   3  -7   3    2.00    0.11
  -3   7  -3    1.88    0.12
   3   7   3    1.99    0.13
   5  -7   3    1.43    0.10
   5  -7   3    1.49    0.13
   5   7   3    1.47    0.12
  -5   7  -3    1.61    0.12
   7  -7   3    1.98    0.17
  -7  -7  -3    2.39    0.13
   7  -7   3    2.31    0.15
  -7   7  -3    2.12    0.15
   7   7   3    2.34    0.17
   9  -7   3    0.39    0.08
   9   7   3    0.27    0.08
  -9   7  -3    0.34    0.08
  10  -8  -3    1.74    0.15
 -10  -8   3    1.65    0.14
 -10   8   3    1.76    0.14
  -8  -8   3    0.49    0.07
   8  -8  -3    0.60    0.09
   8   8  -3    0.41    0.06
  -8   8   3    0.39    0.07
   6  -8  -3   17.51    0.75
  -6  -8   3   17.92    0.77
   6   8  -3   17.87    0.71
  -6   8   3   17.36    0.71
  -4  -8   3   11.02    0.50
   4  -8  -3   10.69    0.48
   4   8  -3   11.04    0.44
  -4   8   3   11.10    0.47
   2  -8  -3    1.96    0.10
   2  -8  -3    1.71    0.12
   2  -8  -3    1.80    0.10
  -2  -8   3    1.65    0.13
   2   8  -3    1.77    0.09
  -2   8   3    1.64    0.12
   0  -8   3    0.15    0.06
   0  -8  -3    0.14    0.04
   0   8  -3    0.19    0.04
   0   8   3    0.16    0.05
   2  -8   3   13.20    0.53
   2  -8   3   12.38    0.59
   2   8   3   13.88    0.57
  -2   8  -3   13.13    0.54
   4  -8   3    4.18    0.20
   4  -8   3    4.24    0.25
  -4   8  -3    4.10    0.21
   4   8   3    3.96    0.22
   6  -8   3    1.25    0.10
   6  -8   3    1.06    0.12
  -6   8  -3    1.11    0.11
   6   8   3    1.26    0.12
   8  -8   3    1.28    0.14
   8  -8   3    1.43    0.12
   8   8   3    1.40    0.14
  -8   8  -3    1.23    0.12
   9  -9  -3    0.55    0.09
  -9  -9   3    0.76    0.09
  -9   9   3    0.76    0.09
  -7  -9   3    1.67    0.14
   7  -9  -3    1.92    0.14
  -7   9   3    1.93    0.13
   5  -9  -3   30.90    1.20
  -5  -9   3   28.79    1.25
  -5   9   3   28.93    1.15
   3  -9  -3    1.03    0.09
   3  -9  -3    1.04    0.07
  -3  -9   3    0.96    0.10
  -3   9   3    0.95    0.09
   3   9  -3    1.00    0.06
   1  -9  -3    0.25    0.05
  -1  -9   3    0.25    0.07
   1  -9  -3    0.30    0.04
  -1   9   3    0.31    0.06
   1   9  -3    0.25    0.04
   1  -9   3    1.69    0.14
  -1  -9  -3    1.68    0.12
  -1   9  -3    1.58    0.10
   1   9   3    1.74    0.12
   3  -9   3   38.73    1.66
   3  -9   3   39.64    1.54
  -3   9  -3   41.14    1.52
   3   9   3   39.01    1.58
   5  -9   3    1.86    0.12
   5  -9   3    1.90    0.16
   5   9   3    2.01    0.15
  -5   9  -3    1.81    0.13
   7  -9   3    1.22    0.10
   7  -9   3    1.01    0.12
   7   9   3    1.03    0.12
  -7   9  -3    1.21    0.12
   8 -10  -3    0.23    0.07
  -8 -10   3    0.12    0.06
  -8  10   3    0.01    0.05
  -6 -10   3    2.02    0.15
   6 -10  -3    2.22    0.15
  -6  10   3    1.90    0.14
  -4 -10   3   17.82    0.81
   4 -10  -3   18.51    0.77
  -4  10   3   18.83    0.75
   2 -10  -3    0.36    0.04
   2 -10  -3    0.30    0.06
  -2 -10   3    0.20    0.07
   2  10  -3    0.28    0.04
  -2  10   3    0.34    0.06
   0 -10  -3    5.76    0.28
   0 -10   3    5.37    0.30
   0  10  -3    5.44    0.25
   0  10   3    5.87    0.28
   2 -10   3   31.40    1.34
  -2 -10  -3   31.60    1.29
  -2  10  -3   31.77    1.22
   4 -10   3    0.26    0.08
   4  10   3    0.23    0.06
  -4  10  -3    0.32    0.06
   6 -10   3    0.27    0.08
   6  10   3    0.41    0.08
  -6  10  -3    0.32    0.07
   9 -11  -3    0.12    0.07
  -9  11   3    0.20    0.07
   7 -11  -3    0.04    0.05
  -7 -11   3    0.05    0.05
  -7  11   3    0.06    0.05
   5 -11  -3    8.54    0.39
  -5 -11   3    8.13    0.42
  -5  11   3    8.57    0.39
   3 -11  -3   10.36    0.46
  -3 -11   3   10.43    0.49
  -3  11   3    9.96    0.45
   1 -11  -3    7.22    0.35
   1 -11  -3    7.54    0.35
  -1 -11   3    7.39    0.39
   1  11  -3    7.63    0.32
  -1  11   3    7.85    0.35
   1 -11   3    0.50    0.09
  -1 -11  -3    0.39    0.06
   1  11   3    0.33    0.07
  -1  11  -3    0.37    0.06
   3 -11   3    0.30    0.08
  -3  11  -3    0.33    0.06
   5 -11   3   -0.02    0.06
   5  11   3   -0.02    0.05
  -5  11  -3   -0.01    0.05
   7  11   3    0.30    0.08
  -7  11  -3    0.20    0.07
   8 -12  -3    0.11    0.06
  -8  12   3    0.06    0.06
  -6 -12   3    1.33    0.13
   6 -12  -3    1.38    0.12
  -6  12   3    1.39    0.12
  -4 -12   3    5.09    0.29
   4 -12  -3    5.14    0.26
  -4  12   3    4.93    0.27
   2 -12  -3    0.14    0.05
  -2 -12   3    0.16    0.07
  -2  12   3    0.26    0.06
   0 -12  -3   10.72    0.48
   0 -12  -3   10.42    0.48
   0 -12   3   10.80    0.53
   0  12  -3   10.76    0.45
   0  12   3   10.99    0.48
   2 -12   3    5.72    0.33
  -2 -12  -3    5.57    0.30
  -2  12  -3    5.90    0.28
   4 -12   3    0.06    0.07
  -4  12  -3    0.07    0.05
   6 -12   3    0.14    0.08
   6  12   3    0.06    0.06
  -6  12  -3    0.05    0.06
   7 -13  -3    0.22    0.06
  -7  13   3    0.10    0.06
   5 -13  -3    1.53    0.13
  -5 -13   3    1.54    0.14
  -5  13   3    1.44    0.13
  -3 -13   3    1.80    0.16
   3 -13  -3    1.94    0.14
  -3  13   3    2.14    0.15
  -1 -13   3    1.27    0.15
   1 -13  -3    1.45    0.11
  -1  13   3    1.41    0.12
   1 -13   3    0.77    0.11
  -1 -13  -3    0.67    0.08
  -1 -13  -3    0.83    0.09
   1  13   3    0.79    0.09
  -1  13  -3    0.94    0.08
  -3 -13  -3    1.57    0.13
   3 -13   3    1.53    0.15
  -3  13  -3    1.52    0.12
   5 -13   3    0.37    0.10
  -5  13  -3    0.20    0.07
  -6  14   3   -0.04    0.05
  -4 -14   3    1.85    0.17
  -4  14   3    2.13    0.16
  -2 -14   3    0.10    0.08
  -2  14   3    0.08    0.06
   0 -14   3    0.14    0.08
   0  14   3    0.12    0.06
  -2 -14  -3    4.23    0.24
   2 -14   3    3.93    0.27
  -2  14  -3    4.06    0.22
  -4  14  -3    0.36    0.08
  -5  15   3    3.54    0.23
  -3  15   3    0.43    0.08
  -1  15   3    0.09    0.06
   1  15   3   -0.02    0.05
  -3 -15  -3    0.94    0.11
  -3  15  -3    1.07    0.11
  -2  16   3    0.01    0.06
   0  16   3    0.10    0.07
  10   0  -4    4.92    0.27
   8   0  -4   20.39    0.87
  -8   0   4   21.89    0.87
  -8   0   4   20.75    0.82
   6   0  -4   16.65    0.72
  -6   0   4   17.89    0.72
  -6   0   4   17.40    0.68
   4   0  -4    0.03    0.04
  -4   0   4    0.02    0.03
  -4   0   4   -0.01    0.03
  -2   0   4  366.48   14.54
   2   0  -4  377.67   14.55
   2   0  -4  346.95   14.02
   0   0   4   35.10    1.43
   2   0   4    0.02    0.04
   2   0   4    0.00    0.04
   4   0   4    6.80    0.32
  -4   0  -4    6.76    0.31
   4   0   4    6.94    0.35
   6   0   4   38.74    1.52
   6   0   4   37.39    1.59
  -6   0  -4   36.99    1.45
   8   0   4    1.15    0.14
  -8   0  -4    1.34    0.11
   8   0   4    1.21    0.12
  11  -1  -4    0.55    0.09
  11   1  -4    0.62    0.09
  -9  -1   4   27.01    1.05
   9  -1  -4   25.51    1.05
   9   1  -4   24.71    1.04
  -9   1   4   24.33    0.98
   7  -1  -4    0.05    0.08
  -7  -1   4    0.06    0.03
  -7   1   4   -0.15    0.04
   7   1  -4   -0.09    0.06
  -7   1   4    0.09    0.04
  -5  -1   4    6.05    0.27
  -5  -1   4    6.66    0.29
   5  -1  -4    6.20    0.30
   5   1  -4    6.15    0.29
  -5   1   4    6.38    0.28
  -5   1   4    6.46    0.27
  -3  -1   4   11.99    0.52
   3  -1  -4   12.79    0.51
   3  -1  -4   11.28    0.51
   3   1  -4   12.79    0.52
  -3   1   4   12.59    0.51
  -3   1   4   11.75    0.49
   3   1  -4   12.41    0.51
   1  -1  -4  122.22    4.63
   1  -1  -4  112.08    4.46
  -1  -1   4  110.63    4.63
   1   1  -4  116.50    4.46
   1   1  -4  120.14    4.63
  -1   1   4  113.74    4.62
   1  -1   4    8.08    0.37
   1  -1   4    7.88    0.35
   1   1   4    8.10    0.37
   1   1   4    8.23    0.36
   3  -1   4    7.99    0.37
   3  -1   4    7.46    0.34
  -3   1  -4    7.49    0.33
   3   1   4    7.67    0.35
   3   1   4    7.55    0.37
   5  -1   4   13.33    0.59
   5  -1   4   13.31    0.63
  -5  -1  -4   14.02    0.57
   5   1   4   13.92    0.60
   5   1   4   13.87    0.63
  -5   1  -4   14.30    0.57
  -7  -1  -4    1.58    0.12
   7  -1   4    1.58    0.15
   7  -1   4    1.70    0.13
   7   1   4    1.58    0.13
  -7   1  -4    1.64    0.12
   7   1   4    1.49    0.15
  -9  -1  -4    1.95    0.14
   9  -1   4    2.14    0.17
  -9   1  -4    1.71    0.14
  10  -2  -4    0.43    0.08
 -10   2   4    0.31    0.06
  10   2  -4    0.39    0.07
  -8  -2   4    0.34    0.05
   8  -2  -4    0.20    0.07
  -8  -2   4    0.30    0.04
   8   2  -4    0.27    0.06
  -8   2   4    0.30    0.05
   6  -2  -4    0.08    0.06
  -6  -2   4   -0.21    0.04
   6   2  -4    0.03    0.06
  -6   2   4    0.00    0.01
  -6   2   4   -0.04    0.03
   4  -2  -4    0.05    0.04
  -4  -2   4    0.05    0.04
  -4   2   4    0.05    0.04
   4   2  -4    0.00    0.04
  -4   2   4    0.04    0.02
   2  -2  -4   36.21    1.41
   2  -2  -4   33.14    1.38
  -2  -2   4   33.89    1.42
   2   2  -4   33.39    1.36
   2   2  -4   36.76    1.42
  -2   2   4   35.35    1.41
   0  -2  -4    1.45    0.09
   0  -2   4    1.27    0.10
   0   2   4    1.43    0.09
   2  -2   4    0.61    0.06
   2  -2   4    0.68    0.08
  -2   2  -4    0.59    0.06
   2   2   4    0.66    0.07
   2   2   4    0.53    0.07
   4  -2   4    2.63    0.15
   4  -2   4    2.56    0.17
   4   2   4    2.64    0.16
   4   2   4    2.73    0.17
   6  -2   4   21.14    0.90
  -6  -2  -4   21.78    0.86
   6  -2   4   23.35    0.97
  -6   2  -4   21.48    0.87
   6   2   4   21.85    0.91
   6   2   4   20.78    0.96
   8  -2   4    0.02    0.05
  -8  -2  -4    0.01    0.05
   8  -2   4    0.07    0.08
   8   2   4    0.10    0.08
   8   2   4    0.05    0.06
  -8   2  -4    0.01    0.04
  11  -3  -4    1.05    0.12
  11   3  -4    0.97    0.11
  -9  -3   4    4.42    0.22
   9  -3  -4    4.27    0.24
   9   3  -4    4.11    0.23
  -9   3   4    4.03    0.21
  -7  -3   4    0.35    0.05
   7  -3  -4    0.28    0.07
  -7   3   4    0.27    0.05
   7   3  -4    0.30    0.06
  -5  -3   4    2.26    0.13
   5  -3  -4    2.09    0.14
   5   3  -4    2.13    0.13
  -5   3   4    2.32    0.13
   3  -3  -4    0.09    0.05
  -3  -3   4    0.15    0.05
   3  -3  -4    0.25    0.03
  -3   3   4    0.19    0.05
   3   3  -4    0.25    0.04
  -3   3   4    0.17    0.02
  -1  -3   4    0.76    0.07
   1  -3  -4    0.84    0.08
   1  -3  -4    0.83    0.06
   1   3  -4    0.76    0.07
  -1   3   4    0.76    0.06
   1  -3   4    4.12    0.19
   1  -3   4    3.96    0.21
   1   3   4    3.99    0.21
   1   3   4    4.10    0.21
  -1   3  -4    4.05    0.19
   3  -3   4    3.05    0.16
   3  -3   4    3.18    0.19
   3   3   4    2.95    0.17
  -3   3  -4    3.15    0.16
   3   3   4    2.94    0.18
   5  -3   4    0.12    0.05
  -5  -3  -4    0.02    0.04
   5  -3   4    0.11    0.06
  -5   3  -4    0.06    0.04
   5   3   4    0.08    0.05
   5   3   4    0.05    0.05
  -7  -3  -4    2.31    0.15
   7  -3   4    2.47    0.16
   7  -3   4    2.50    0.19
  -7   3  -4    2.53    0.16
   7   3   4    2.63    0.18
   7   3   4    2.26    0.19
  -9  -3  -4    1.22    0.11
   9  -3   4    1.27    0.13
  -9   3  -4    1.21    0.12
  10  -4  -4    0.04    0.06
 -10  -4   4    0.08    0.04
 -10   4   4   -0.04    0.04
  10   4  -4    0.07    0.05
   8  -4  -4    6.48    0.33
  -8  -4   4    7.07    0.32
   8   4  -4    6.53    0.31
  -8   4   4    6.57    0.31
  -6  -4   4   -0.04    0.04
   6  -4  -4   -0.01    0.05
  -6   4   4    0.07    0.04
   6   4  -4   -0.04    0.05
  -4  -4   4    2.20    0.13
   4  -4  -4    2.05    0.14
  -4   4   4    2.07    0.13
   2  -4  -4   11.54    0.50
   2  -4  -4   12.12    0.48
  -2  -4   4   10.82    0.51
  -2   4   4   11.23    0.48
  -2   4   4   11.55    0.48
   2   4  -4   12.14    0.48
   0  -4  -4    0.35    0.06
   0  -4  -4    0.32    0.04
   0  -4   4    0.25    0.05
   0   4  -4    0.30    0.04
   0   4   4    0.29    0.04
   2  -4   4    0.99    0.10
   2  -4   4    1.08    0.08
   2   4   4    1.04    0.09
   2   4   4    1.14    0.09
  -2   4  -4    1.09    0.08
   4  -4   4    0.37    0.06
   4  -4   4    0.24    0.07
  -4   4  -4    0.33    0.06
   4   4   4    0.30    0.06
   4   4   4    0.32    0.07
  -6  -4  -4    0.11    0.05
   6  -4   4    0.09    0.06
   6  -4   4    0.09    0.05
  -6   4  -4    0.15    0.05
   6   4   4    0.05    0.06
   8  -4   4    0.30    0.09
  -8  -4  -4    0.31    0.07
   8  -4   4    0.38    0.07
  -8   4  -4    0.26    0.06
   8   4   4    0.23    0.07
  11  -5  -4   -0.11    0.05
 -11   5   4    0.09    0.05
  11   5  -4   -0.08    0.05
   9  -5  -4   10.11    0.48
  -9  -5   4   10.17    0.47
  -9   5   4   10.18    0.44
   9   5  -4    9.72    0.45
  -7  -5   4    3.60    0.20
   7  -5  -4    3.68    0.21
   7   5  -4    3.60    0.19
  -7   5   4    3.52    0.19
  -5  -5   4   -0.02    0.05
   5  -5  -4   -0.02    0.05
   5   5  -4   -0.03    0.03
  -5   5   4    0.03    0.04
  -3  -5   4   10.12    0.45
   3  -5  -4    9.55    0.43
   3   5  -4    8.97    0.38
   3   5  -4   10.28    0.40
  -3   5   4    9.61    0.41
  -1  -5   4   19.36    0.86
   1  -5  -4   18.86    0.83
   1  -5  -4   21.23    0.84
   1   5  -4   19.05    0.78
  -1   5   4   20.48    0.81
   1   5  -4   20.88    0.81
   1   5  -4   22.02    0.80
   1  -5   4   10.94    0.50
   1  -5   4   11.05    0.45
  -1   5  -4   11.14    0.45
   1   5   4   10.48    0.47
   3  -5   4    0.00    0.03
   3  -5   4   -0.03    0.05
  -3   5  -4    0.03    0.04
   3   5   4    0.03    0.05
   5  -5   4   21.41    0.95
   5  -5   4   21.85    0.88
  -5   5  -4   21.39    0.86
   5   5   4   21.25    0.90
   7  -5   4    0.72    0.09
   7  -5   4    0.92    0.12
  -7  -5  -4    0.75    0.08
   7   5   4    0.72    0.10
  -7   5  -4    0.65    0.08
 -10  -6   4    0.43    0.07
  10  -6  -4    0.49    0.09
  10   6  -4    0.40    0.07
 -10   6   4    0.54    0.08
   8  -6  -4    4.51    0.25
  -8  -6   4    4.31    0.24
   8   6  -4    4.47    0.22
  -8   6   4    4.46    0.23
   6  -6  -4    3.27    0.20
  -6  -6   4    3.28    0.19
  -6   6   4    3.34    0.18
   6   6  -4    3.21    0.16
  -4  -6   4    7.49    0.36
   4  -6  -4    7.16    0.35
   4   6  -4    6.73    0.30
   4   6  -4    8.82    0.31
  -4   6   4    7.46    0.34
   4   6  -4    7.53    0.32
  -2  -6   4    4.71    0.26
   2  -6  -4    5.13    0.22
   2  -6  -4    4.54    0.25
   2   6  -4    5.39    0.22
   2   6  -4    5.22    0.22
  -2   6   4    4.83    0.24
   2   6  -4    4.70    0.21
   0  -6   4    2.87    0.18
   0   6  -4    3.12    0.14
   0   6  -4    3.17    0.15
   2  -6   4    8.59    0.42
   2  -6   4    8.83    0.37
  -2   6  -4    8.20    0.37
   2   6   4    8.83    0.40
   4  -6   4   11.34    0.47
   4  -6   4   10.95    0.52
   4   6   4   10.30    0.49
  -4   6  -4   10.83    0.47
   6  -6   4    5.81    0.33
   6  -6   4    5.82    0.29
   6   6   4    6.14    0.32
  -6   6  -4    5.91    0.30
   8  -6   4    1.57    0.13
  -8   6  -4    1.45    0.13
   8   6   4    1.52    0.15
  -9  -7   4    4.38    0.24
   9  -7  -4    4.42    0.26
  -9   7   4    4.06    0.23
   9   7  -4    4.34    0.23
  -7  -7   4    7.87    0.39
   7  -7  -4    7.83    0.38
   7   7  -4    7.71    0.35
  -7   7   4    8.36    0.37
  -5  -7   4    2.38    0.16
   5  -7  -4    2.55    0.16
  -5   7   4    2.31    0.15
   5   7  -4    2.27    0.12
  -3  -7   4    0.61    0.08
   3  -7  -4    0.67    0.08
  -3   7   4    0.65    0.07
   3   7  -4    0.59    0.05
   3   7  -4    0.67    0.05
   1  -7  -4    8.22    0.37
  -1  -7   4    8.11    0.40
   1  -7  -4    7.96    0.39
   1   7  -4    9.00    0.35
   1   7  -4    9.03    0.34
   1   7  -4    7.95    0.35
  -1   7   4    8.57    0.38
  -1  -7  -4    5.18    0.28
   1  -7   4    5.38    0.23
   1  -7   4    5.01    0.28
  -1   7  -4    5.27    0.24
   3  -7   4    0.74    0.09
   3  -7   4    0.74    0.07
  -3   7  -4    0.61    0.07
   3   7   4    0.58    0.08
   5  -7   4    9.14    0.47
   5  -7   4    9.65    0.42
  -5   7  -4    9.56    0.43
   5   7   4    9.25    0.45
   7  -7   4    0.19    0.06
   7  -7   4    0.25    0.09
  -7  -7  -4    0.31    0.06
   7   7   4    0.27    0.08
  -7   7  -4    0.26    0.07
 -10  -8   4    0.10    0.05
  10  -8  -4    0.13    0.07
 -10   8   4    0.02    0.05
   8  -8  -4    2.55    0.18
  -8  -8   4    2.43    0.17
  -8   8   4    2.27    0.16
  -6  -8   4    1.31    0.12
   6  -8  -4    1.21    0.12
  -6   8   4    1.35    0.11
  -4  -8   4    1.86    0.14
   4  -8  -4    1.89    0.14
   4   8  -4    2.17    0.09
  -4   8   4    1.80    0.13
   2  -8  -4    7.75    0.38
  -2  -8   4    8.28    0.41
   2  -8  -4    8.91    0.36
  -2   8   4    8.23    0.37
   2   8  -4    8.00    0.34
   0  -8   4    3.20    0.20
   0  -8  -4    3.05    0.19
   0   8  -4    3.45    0.15
   0   8   4    3.24    0.19
   0   8  -4    2.88    0.16
   2  -8   4    1.93    0.11
   2  -8   4    1.85    0.15
  -2   8  -4    1.76    0.12
   4  -8   4    0.51    0.06
   4  -8   4    0.43    0.09
   4   8   4    0.61    0.09
  -4   8  -4    0.64    0.08
   6  -8   4    0.11    0.05
   6  -8   4    0.09    0.07
  -6   8  -4    0.05    0.05
   6   8   4    0.04    0.06
  -9  -9   4    0.14    0.06
   9  -9  -4    0.06    0.07
  -9   9   4    0.06    0.05
  -7  -9   4    1.41    0.13
   7  -9  -4    1.43    0.13
  -7   9   4    1.61    0.13
   5  -9  -4    1.97    0.15
  -5  -9   4    1.80    0.15
  -5   9   4    2.13    0.14
   3  -9  -4    0.72    0.08
  -3  -9   4    0.78    0.10
  -3   9   4    0.79    0.09
   3   9  -4    0.74    0.05
  -1  -9   4    0.61    0.09
   1  -9  -4    0.50    0.07
  -1   9   4    0.63    0.08
   1   9  -4    0.48    0.05
   1  -9   4    0.00    0.05
  -1  -9  -4    0.00    0.04
  -1   9  -4    0.11    0.04
   3  -9   4    0.83    0.11
  -3   9  -4    0.99    0.09
   3   9   4    1.16    0.11
   5  -9   4    0.00    0.06
   5   9   4    0.02    0.05
  -5   9  -4   -0.05    0.05
   7   9   4    1.82    0.16
  -7   9  -4    1.65    0.14
   8 -10  -4   -0.03    0.07
  -8 -10   4   -0.05    0.05
  -8  10   4    0.04    0.05
   6 -10  -4   -0.10    0.05
  -6 -10   4   -0.01    0.06
  -6  10   4   -0.06    0.05
   4 -10  -4    0.04    0.05
  -4 -10   4   -0.05    0.06
  -4  10   4   -0.05    0.04
  -2 -10   4    0.04    0.07
   2 -10  -4    0.06    0.05
   2  10  -4    0.07    0.03
  -2  10   4    0.11    0.05
   0 -10   4    0.88    0.11
   0 -10  -4    0.96    0.10
   0  10   4    0.99    0.10
   0  10  -4    0.88    0.08
  -2 -10  -4    0.01    0.05
   2 -10   4    0.07    0.06
  -2  10  -4    0.07    0.05
   4 -10   4    0.50    0.10
  -4  10  -4    0.66    0.08
   4  10   4    0.62    0.09
   6  10   4    0.68    0.10
  -6  10  -4    0.46    0.08
  -7 -11   4    0.06    0.06
   7 -11  -4    0.11    0.07
  -7  11   4    0.01    0.05
  -5 -11   4    1.65    0.16
   5 -11  -4    1.97    0.15
  -5  11   4    2.23    0.15
   3 -11  -4    8.50    0.40
  -3 -11   4    8.51    0.44
  -3  11   4    8.33    0.39
  -1 -11   4    1.26    0.14
   1 -11  -4    1.20    0.11
   1  11  -4    1.36    0.09
  -1  11   4    1.45    0.12
   1 -11   4    4.51    0.28
  -1 -11  -4    4.83    0.27
  -1  11  -4    4.72    0.23
  -3 -11  -4    1.12    0.12
   3 -11   4    1.13    0.13
  -3  11  -4    1.33    0.11
   5 -11   4    0.95    0.13
   5  11   4    0.99    0.12
  -5  11  -4    0.87    0.10
   6 -12  -4    0.71    0.10
  -6 -12   4    0.77    0.11
  -6  12   4    0.73    0.10
  -4 -12   4    0.06    0.07
   4 -12  -4    0.03    0.06
  -4  12   4    0.05    0.05
  -2 -12   4   -0.02    0.08
   2 -12  -4    0.04    0.05
  -2  12   4    0.02    0.05
   0 -12   4    8.18    0.45
   0 -12  -4    8.53    0.42
   0  12   4    8.99    0.41
   0  12  -4    9.11    0.38
   2 -12   4   -0.08    0.06
  -2 -12  -4    0.11    0.06
  -2  12  -4    0.10    0.05
   4 -12   4    0.15    0.09
  -4 -12  -4    0.11    0.07
  -4  12  -4    0.07    0.06
   5 -13  -4    0.03    0.07
  -5  13   4    0.20    0.07
  -3 -13   4    3.31    0.25
   3 -13  -4    3.55    0.21
  -3  13   4    3.53    0.22
  -1 -13   4    1.51    0.16
   1 -13  -4    1.51    0.13
  -1  13   4    1.69    0.14
  -1 -13  -4    0.08    0.05
  -1  13  -4    0.08    0.05
  -3 -13  -4   -0.05    0.05
  -3  13  -4    0.00    0.05
   4 -14  -4    0.09    0.06
  -4  14   4    0.08    0.06
   2 -14  -4    1.63    0.14
  -2  14   4    1.77    0.15
   0  14   4    0.16    0.07
  -2  14  -4    0.08    0.06
  -3  15   4    0.14    0.07
  -1  15   4    0.03    0.06
  10   0  -5    0.03    0.06
  -8   0   5    0.92    0.08
   8   0  -5    0.85    0.10
  -6   0   5    4.65    0.22
  -6   0   5    4.86    0.22
   6   0  -5    4.34    0.24
  -4   0   5    1.79    0.10
   4   0  -5    1.66    0.10
   4   0  -5    1.50    0.12
  -2   0   5   15.12    0.65
   2   0  -5   15.40    0.64
   0   0   5    0.39    0.06
   0   0  -5    0.32    0.06
   2   0   5   19.01    0.80
   2   0   5   17.97    0.77
   4   0   5    4.05    0.25
   4   0   5    4.29    0.23
  -4   0  -5    4.16    0.22
   6   0   5    0.11    0.06
  -6   0  -5    0.12    0.05
   6   0   5    0.11    0.07
  -8   0  -5    0.46    0.08
  11  -1  -5    0.17    0.08
  11   1  -5    0.22    0.07
   9  -1  -5    0.26    0.09
  -9   1   5    0.47    0.06
   9   1  -5    0.32    0.08
   7  -1  -5    0.30    0.08
  -7  -1   5    0.31    0.05
  -7  -1   5    0.41    0.06
  -7   1   5    0.31    0.05
   7   1  -5    0.35    0.08
  -5  -1   5    1.62    0.10
   5  -1  -5    1.49    0.12
  -5   1   5    1.59    0.09
  -5   1   5    1.70    0.11
   5   1  -5    1.51    0.12
   3  -1  -5    0.34    0.04
  -3  -1   5    0.23    0.04
   3  -1  -5    0.20    0.06
   3   1  -5    0.21    0.05
  -3   1   5    0.23    0.04
  -1  -1   5    7.75    0.37
   1  -1  -5    8.20    0.37
   1   1  -5    8.09    0.36
  -1   1   5    7.84    0.36
   1  -1   5    3.69    0.21
   1  -1   5    3.76    0.20
   1   1   5    3.73    0.20
   1   1   5    3.64    0.20
   3  -1   5    0.03    0.05
   3  -1   5    0.02    0.04
  -3   1  -5   -0.03    0.04
   3   1   5    0.03    0.05
   3   1   5   -0.01    0.04
  -5  -1  -5    0.63    0.08
   5  -1   5    0.66    0.09
   5  -1   5    0.60    0.10
   5   1   5    0.83    0.11
  -5   1  -5    0.68    0.08
   5   1   5    0.75    0.09
   7  -1   5    0.09    0.08
   7  -1   5    0.18    0.07
  -7  -1  -5    0.14    0.06
  -7   1  -5    0.09    0.05
   7   1   5    0.06    0.08
   7   1   5    0.12    0.06
  10  -2  -5    0.80    0.11
  10   2  -5    0.75    0.10
   8  -2  -5    0.51    0.09
  -8  -2   5    0.61    0.07
   8   2  -5    0.61    0.08
  -8   2   5    0.63    0.07
   6  -2  -5    8.43    0.40
  -6  -2   5    9.01    0.40
   6   2  -5    9.19    0.40
  -6   2   5    8.38    0.38
  -4  -2   5    0.51    0.06
   4  -2  -5    0.47    0.07
   4  -2  -5    0.61    0.05
  -4   2   5    0.60    0.07
   4   2  -5    0.57    0.07
  -4   2   5    0.59    0.04
  -2  -2   5   -0.01    0.04
   2  -2  -5   -0.09    0.04
   2  -2  -5    0.06    0.05
   2   2  -5    0.06    0.04
  -2   2   5   -0.03    0.02
   0  -2  -5   -0.02    0.04
   0  -2   5    0.04    0.04
   0   2  -5   -0.04    0.04
   0   2   5    0.00    0.04
   2  -2   5    7.76    0.39
   2  -2   5    7.94    0.36
   2   2   5    8.32    0.39
  -2   2  -5    8.06    0.35
   2   2   5    8.08    0.37
   4  -2   5    0.06    0.06
   4  -2   5    0.13    0.05
  -4   2  -5    0.16    0.05
   4   2   5    0.11    0.05
   4   2   5    0.16    0.06
  -6  -2  -5    0.08    0.05
   6  -2   5   -0.01    0.05
   6  -2   5    0.08    0.07
  -6   2  -5    0.01    0.05
   6   2   5    0.06    0.06
   6   2   5   -0.07    0.06
   8  -2   5    0.70    0.10
  -8  -2  -5    0.46    0.08
  -8   2  -5    0.63    0.09
  11  -3  -5    0.60    0.10
  11   3  -5    0.58    0.09
   9  -3  -5    0.06    0.08
  -9   3   5    0.01    0.05
   9   3  -5    0.00    0.05
  -7  -3   5    0.41    0.07
   7  -3  -5    0.28    0.08
  -7   3   5    0.44    0.06
   7   3  -5    0.33    0.07
   5  -3  -5   16.40    0.72
  -5  -3   5   17.71    0.74
   5   3  -5   17.30    0.71
  -5   3   5   17.27    0.69
   3  -3  -5    0.00    0.03
  -3  -3   5    0.00    0.04
   3  -3  -5   -0.04    0.04
   3   3  -5    0.02    0.04
  -3   3   5   -0.02    0.04
  -3   3   5    0.00    0.02
  -1  -3   5    2.02    0.13
   1  -3  -5    1.80    0.13
  -1   3   5    2.04    0.12
   1   3  -5    1.93    0.12
   1  -3   5   19.45    0.76
   1  -3   5   17.88    0.81
   1   3   5   19.11    0.78
   1   3   5   18.83    0.80
  -1   3  -5   17.89    0.74
   3  -3   5    0.47    0.08
   3  -3   5    0.34    0.06
   3   3   5    0.33    0.07
  -3   3  -5    0.49    0.07
   3   3   5    0.43    0.07
  -5  -3  -5    0.76    0.08
   5  -3   5    0.66    0.10
   5  -3   5    0.73    0.08
   5   3   5    0.63    0.09
   5   3   5    0.64    0.10
   7  -3   5    0.89    0.10
  -7  -3  -5    0.82    0.09
   7   3   5    0.68    0.10
  -7   3  -5    0.64    0.09
  10  -4  -5    0.77    0.11
  10   4  -5    0.79    0.10
 -10   4   5    0.77    0.09
  -8  -4   5    0.03    0.05
   8  -4  -5    0.00    0.07
  -8   4   5    0.09    0.05
   8   4  -5    0.02    0.05
  -6  -4   5   16.42    0.69
   6  -4  -5   15.38    0.68
  -6   4   5   15.84    0.65
   6   4  -5   15.83    0.66
   4  -4  -5    0.02    0.05
  -4  -4   5    0.13    0.06
   4   4  -5    0.04    0.04
  -4   4   5    0.02    0.04
  -2  -4   5   -0.02    0.04
   2  -4  -5    0.02    0.05
   2  -4  -5    0.04    0.03
   2   4  -5    0.00    0.02
  -2   4   5    0.04    0.02
   0  -4  -5    0.04    0.05
   0  -4   5    0.01    0.04
   0   4   5   -0.01    0.03
   0   4  -5   -0.03    0.03
   0   4  -5    0.01    0.03
   2  -4   5   17.05    0.68
   2  -4   5   16.53    0.73
   2   4   5   16.08    0.70
   2   4   5   15.84    0.72
  -2   4  -5   16.71    0.66
   4  -4   5    0.65    0.09
   4  -4   5    0.51    0.07
   4   4   5    0.57    0.08
   4   4   5    0.38    0.08
  -4   4  -5    0.40    0.07
   6  -4   5    1.35    0.15
  -6  -4  -5    1.58    0.12
   6  -4   5    1.38    0.12
  -6   4  -5    1.49    0.12
   6   4   5    1.29    0.14
   6   4   5    1.30    0.13
  -9  -5   5    1.62    0.12
   9  -5  -5    1.35    0.14
  -9   5   5    1.38    0.11
   9   5  -5    1.23    0.11
  -7  -5   5    0.17    0.06
   7  -5  -5    0.25    0.08
   7   5  -5    0.20    0.05
  -7   5   5    0.18    0.06
   5  -5  -5    0.30    0.07
  -5  -5   5    0.33    0.07
   5   5  -5    0.27    0.06
  -5   5   5    0.32    0.06
  -3  -5   5    0.73    0.09
   3  -5  -5    0.67    0.08
  -3   5   5    0.66    0.08
   3   5  -5    0.89    0.07
  -1  -5   5    1.27    0.11
   1  -5  -5    1.35    0.12
  -1   5   5    1.47    0.09
   1   5  -5    1.42    0.10
   1   5  -5    1.70    0.10
   1  -5   5    1.16    0.11
   1  -5   5    1.30    0.09
  -1   5  -5    1.07    0.09
   1   5   5    1.17    0.09
   3  -5   5    2.18    0.13
   3  -5   5    2.08    0.16
   3   5   5    2.32    0.16
   3   5   5    1.89    0.15
   5  -5   5    4.40    0.22
   5  -5   5    3.53    0.25
  -5   5  -5    3.81    0.22
   5   5   5    3.85    0.24
   7  -5   5    0.03    0.06
  -7  -5  -5   -0.03    0.05
  -7   5  -5    0.06    0.05
   7   5   5    0.00    0.06
  10  -6  -5    0.45    0.10
 -10   6   5    0.31    0.07
  -8  -6   5    1.31    0.12
   8  -6  -5    1.11    0.13
  -8   6   5    1.38    0.11
   8   6  -5    1.15    0.10
   6  -6  -5    2.91    0.18
  -6  -6   5    2.71    0.18
  -6   6   5    2.56    0.16
   6   6  -5    2.39    0.15
  -4  -6   5    0.11    0.06
   4  -6  -5    0.13    0.06
   4   6  -5    0.23    0.05
  -4   6   5    0.13    0.05
   4   6  -5    0.16    0.03
  -2  -6   5    4.49    0.24
   2  -6  -5    4.02    0.23
   2   6  -5    4.41    0.20
   2   6  -5    3.69    0.19
  -2   6   5    3.97    0.22
   0  -6   5    0.66    0.09
   0  -6  -5    0.63    0.09
   0   6  -5    0.67    0.06
   0   6  -5    0.63    0.07
   2  -6   5    6.10    0.28
   2  -6   5    5.29    0.31
   2   6   5    6.32    0.31
   4  -6   5    0.13    0.05
   4  -6   5    0.13    0.07
  -4   6  -5    0.09    0.05
   4   6   5    0.18    0.07
  -6  -6  -5    3.70    0.21
   6  -6   5    3.65    0.22
   6  -6   5    4.12    0.27
  -6   6  -5    3.60    0.22
   6   6   5    3.93    0.24
  -9  -7   5    0.85    0.11
   9  -7  -5    0.90    0.12
  -9   7   5    0.74    0.09
  -7  -7   5    4.72    0.26
   7  -7  -5    4.29    0.26
  -7   7   5    4.89    0.25
   5  -7  -5    5.33    0.30
  -5  -7   5    6.39    0.32
   5   7  -5    5.94    0.27
  -5   7   5    6.09    0.30
  -3  -7   5    1.43    0.13
   3  -7  -5    1.25    0.12
  -3   7   5    1.39    0.12
   3   7  -5    1.72    0.10
  -1  -7   5    0.37    0.07
   1  -7  -5    0.43    0.08
   1   7  -5    0.52    0.05
  -1  -7  -5    4.28    0.25
   1  -7   5    4.32    0.26
  -1   7  -5    4.37    0.22
   3  -7   5    7.17    0.39
   3  -7   5    7.40    0.33
   3   7   5    7.34    0.37
  -3   7  -5    7.22    0.34
   5  -7   5    1.23    0.10
   5  -7   5    1.12    0.13
   5   7   5    1.34    0.13
  -5   7  -5    1.12    0.11
   8  -8  -5    0.58    0.10
  -8  -8   5    0.44    0.08
  -8   8   5    0.63    0.09
  -6  -8   5    9.78    0.46
   6  -8  -5    9.21    0.45
  -6   8   5    9.07    0.43
   4  -8  -5    2.47    0.18
  -4  -8   5    2.95    0.20
  -4   8   5    2.96    0.18
   2  -8  -5    0.14    0.06
  -2  -8   5    0.28    0.07
   2   8  -5    0.19    0.04
  -2   8   5    0.17    0.06
   0  -8   5    0.59    0.09
   0  -8  -5    0.68    0.09
   0   8  -5    0.46    0.06
   2  -8   5   17.70    0.81
  -2  -8  -5   17.56    0.79
  -2   8  -5   18.28    0.73
   4  -8   5    0.75    0.11
   4   8   5    0.81    0.11
  -4   8  -5    0.99    0.10
  -6   8  -5    0.05    0.05
   6   8   5    0.15    0.07
  -9  -9   5   -0.02    0.07
   9  -9  -5    0.27    0.09
  -9   9   5    0.18    0.06
   7  -9  -5    3.72    0.23
  -7  -9   5    3.55    0.23
  -7   9   5    3.58    0.22
   5  -9  -5   10.90    0.50
  -5  -9   5   10.33    0.51
  -5   9   5   10.34    0.47
  -3  -9   5    0.56    0.10
   3  -9  -5    0.63    0.09
  -3   9   5    0.73    0.09
   1  -9  -5    0.06    0.05
  -1  -9   5    0.01    0.06
  -1   9   5    0.02    0.05
   1   9  -5    0.01    0.03
  -1  -9  -5   11.13    0.53
   1  -9   5   11.54    0.55
  -1   9  -5   11.25    0.48
   3  -9   5    2.80    0.21
  -3   9  -5    2.55    0.17
   5   9   5    0.51    0.10
  -5   9  -5    0.47    0.08
   8 -10  -5    0.21    0.09
  -8  10   5    0.14    0.06
   6 -10  -5   11.88    0.55
  -6 -10   5   11.50    0.56
  -6  10   5   11.77    0.53
   4 -10  -5    0.15    0.07
  -4 -10   5    0.27    0.09
  -4  10   5    0.22    0.07
   2 -10  -5    1.17    0.12
  -2 -10   5    1.25    0.13
   2  10  -5    1.20    0.09
  -2  10   5    1.23    0.12
   0 -10   5    0.02    0.06
   0 -10  -5   -0.04    0.05
   0  10  -5    0.03    0.04
   2 -10   5   12.05    0.59
  -2 -10  -5   11.10    0.56
  -2  10  -5   12.48    0.52
  -4  10  -5    0.06    0.05
   7 -11  -5    0.09    0.08
  -7  11   5    0.17    0.07
   5 -11  -5   10.86    0.52
  -5 -11   5   10.92    0.55
  -5  11   5   11.21    0.51
  -3 -11   5    1.14    0.14
   3 -11  -5    1.12    0.12
  -3  11   5    1.42    0.13
   1 -11  -5    4.76    0.27
  -1 -11   5    4.68    0.29
  -1  11   5    4.84    0.27
   1  11  -5    4.76    0.23
   1 -11   5   13.64    0.64
  -1 -11  -5   12.76    0.60
  -1  11  -5   12.89    0.55
  -3 -11  -5   -0.01    0.05
  -3  11  -5    0.07    0.06
   6 -12  -5   -0.07    0.07
  -6  12   5    0.02    0.05
  -4 -12   5    2.38    0.21
   4 -12  -5    2.66    0.19
  -4  12   5    2.50    0.18
   2 -12  -5    3.46    0.23
  -2 -12   5    3.73    0.26
  -2  12   5    4.00    0.23
   0 -12   5    1.19    0.14
   0 -12  -5    1.09    0.12
   0  12  -5    1.10    0.10
  -2 -12  -5    0.11    0.06
  -2  12  -5    0.08    0.05
   5 -13  -5   -0.09    0.06
  -5  13   5    0.12    0.07
   3 -13  -5    0.75    0.10
  -3  13   5    0.87    0.11
   1 -13  -5    0.38    0.08
  -1  13   5    0.35    0.08
  -1 -13  -5    0.00    0.05
  -1  13  -5    0.00    0.05
   2 -14  -5    0.09    0.06
  -2  14   5    0.15    0.07
   0 -14  -5    0.33    0.08
  10   0  -6   14.05    0.64
   8   0  -6    0.45    0.11
   6   0  -6    1.96    0.15
   4   0  -6    8.56    0.41
  -4   0   6    8.86    0.39
   2   0  -6   73.15    2.97
  -2   0   6   79.02    3.07
   0   0  -6    1.37    0.12
   0   0   6    1.60    0.12
   2   0   6    6.19    0.33
   2   0   6    6.31    0.31
  -4   0  -6    8.15    0.37
   4   0   6    7.68    0.41
   4   0   6    7.88    0.39
  -6   0  -6    6.73    0.34
   6   0   6    7.02    0.36
   9  -1  -6    8.74    0.43
   9   1  -6    8.66    0.42
   7  -1  -6    2.68    0.18
  -7   1   6    2.54    0.16
   7   1  -6    2.58    0.18
  -5  -1   6    0.50    0.06
   5  -1  -6    0.47    0.08
   5   1  -6    0.43    0.08
  -3  -1   6   37.66    1.55
   3  -1  -6   36.85    1.52
  -3   1   6   39.88    1.54
   3   1  -6   36.71    1.51
  -1  -1   6    1.62    0.12
   1  -1  -6    1.25    0.12
   1   1  -6    1.49    0.12
  -1   1   6    1.66    0.11
   1  -1   6    0.92    0.10
   1   1   6    1.07    0.10
   3  -1   6   -0.05    0.05
   3  -1   6    0.02    0.06
   3   1   6    0.01    0.05
   3   1   6   -0.07    0.05
  -3   1  -6    0.02    0.04
   5  -1   6   20.80    0.88
   5  -1   6   21.05    0.94
  -5  -1  -6   20.54    0.84
  -5   1  -6   20.02    0.84
   5   1   6   21.01    0.89
   5   1   6   20.56    0.93
  10  -2  -6    7.85    0.40
  10   2  -6    7.30    0.38
   8  -2  -6    0.41    0.10
  -8   2   6    0.26    0.06
   8   2  -6    0.15    0.09
   6  -2  -6   -0.06    0.06
  -6  -2   6    0.08    0.04
  -6   2   6   -0.07    0.04
   6   2  -6    0.19    0.07
   4  -2  -6    0.28    0.07
  -4  -2   6    0.36    0.05
   4   2  -6    0.29    0.06
  -4   2   6    0.34    0.04
  -2  -2   6   17.77    0.77
   2  -2  -6   16.82    0.76
   2   2  -6   17.56    0.75
  -2   2   6   19.55    0.76
   0  -2   6    0.71    0.08
   0  -2  -6    0.53    0.08
   0   2  -6    0.65    0.08
   0   2   6    0.54    0.07
   2  -2   6    0.05    0.05
   2  -2   6   -0.05    0.05
  -2   2  -6    0.00    0.04
   2   2   6   -0.04    0.05
   2   2   6    0.03    0.05
   4  -2   6    1.21    0.11
   4  -2   6    1.16    0.13
  -4   2  -6    1.18    0.11
   4   2   6    1.14    0.12
   4   2   6    1.15    0.12
   6  -2   6    0.24    0.07
  -6  -2  -6    0.10    0.06
   6   2   6    0.14    0.07
  -6   2  -6    0.11    0.06
   9  -3  -6    0.41    0.10
  -9   3   6    0.50    0.07
   9   3  -6    0.21    0.07
  -7  -3   6    0.37    0.07
   7  -3  -6    0.17    0.07
  -7   3   6    0.26    0.06
   7   3  -6    0.26    0.08
  -5  -3   6    0.17    0.05
   5  -3  -6    0.12    0.06
   5   3  -6    0.20    0.06
  -5   3   6    0.07    0.05
   3  -3  -6    0.28    0.07
  -3  -3   6    0.31    0.06
   3   3  -6    0.38    0.06
  -3   3   6    0.34    0.04
   1  -3  -6    0.06    0.05
  -1  -3   6    0.05    0.05
  -1   3   6    0.06    0.03
   1   3  -6    0.07    0.04
   1  -3   6    0.03    0.05
   1   3   6    0.01    0.04
  -1   3  -6   -0.04    0.04
   3  -3   6    1.30    0.13
   3  -3   6    1.17    0.11
   3   3   6    1.39    0.12
  -3   3  -6    1.33    0.11
   3   3   6    1.14    0.12
   5  -3   6    2.95    0.22
   5  -3   6    2.59    0.18
  -5  -3  -6    2.92    0.18
   5   3   6    2.84    0.20
   5   3   6    2.56    0.20
  10  -4  -6    0.35    0.10
 -10   4   6    0.31    0.07
  10   4  -6    0.22    0.07
   8  -4  -6    0.13    0.08
   8   4  -6   -0.14    0.05
  -8   4   6   -0.01    0.05
   6  -4  -6    0.63    0.09
  -6  -4   6    0.63    0.08
  -6   4   6    0.44    0.07
   6   4  -6    0.62    0.09
   4  -4  -6   -0.01    0.05
  -4  -4   6    0.04    0.04
   4   4  -6    0.07    0.05
   2  -4  -6    2.57    0.18
  -2  -4   6    2.86    0.18
   2   4  -6    3.00    0.17
  -2   4   6    2.74    0.15
   0  -4   6    0.07    0.05
   0  -4  -6    0.00    0.04
   0   4   6   -0.04    0.03
   0   4  -6   -0.02    0.04
   0   4  -6    0.00    0.04
   2  -4   6    0.26    0.07
   2  -4   6    0.48    0.07
  -2   4  -6    0.30    0.06
   2   4   6    0.36    0.07
   4  -4   6    4.60    0.25
   4  -4   6    4.55    0.28
   4   4   6    4.41    0.26
   4   4   6    4.25    0.27
  -6  -4  -6    0.00    0.05
   6  -4   6    0.05    0.06
  -6   4  -6    0.13    0.06
   6   4   6    0.08    0.07
   9  -5  -6    4.70    0.29
  -9   5   6    4.55    0.26
   9   5  -6    5.11    0.26
   7  -5  -6    0.16    0.08
  -7  -5   6    0.36    0.09
  -7   5   6    0.08    0.05
   7   5  -6   -0.01    0.08
   5  -5  -6    1.87    0.15
  -5  -5   6    1.85    0.14
  -5   5   6    1.94    0.14
  -3  -5   6    4.05    0.24
   3   5  -6    4.32    0.21
   1  -5  -6    3.00    0.19
  -1  -5   6    3.06    0.19
  -1   5   6    2.78    0.16
   1   5  -6    2.76    0.16
  -1  -5  -6    0.92    0.11
   1  -5   6    1.35    0.12
  -1   5  -6    1.32    0.10
   1   5   6    1.26    0.11
   3  -5   6    3.20    0.23
   3  -5   6    3.57    0.20
   3   5   6    3.14    0.21
   3   5   6    3.82    0.23
   5  -5   6    5.70    0.29
   5   5   6    5.80    0.33
  -5   5  -6    5.43    0.29
   8  -6  -6    1.98    0.17
  -8  -6   6    2.22    0.17
  -8   6   6    2.24    0.16
  -6  -6   6    1.05    0.12
   6  -6  -6    0.83    0.11
   6   6  -6    0.90    0.09
  -6   6   6    1.01    0.10
   4  -6  -6    0.72    0.10
  -4  -6   6    0.81    0.10
  -4   6   6    0.77    0.09
   4   6  -6    0.80    0.08
   4   6  -6    0.71    0.06
   2  -6  -6    6.76    0.35
  -2  -6   6    6.65    0.35
   2   6  -6    7.64    0.32
   2   6  -6    6.83    0.31
   0  -6  -6    5.08    0.28
   0  -6   6    4.79    0.28
   0   6  -6    5.10    0.25
   0   6  -6    4.73    0.24
   2  -6   6    0.55    0.07
   2  -6   6    0.59    0.10
   4  -6   6    7.14    0.34
   4  -6   6    6.95    0.39
  -4   6  -6    6.36    0.33
   4   6   6    7.30    0.38
   9  -7  -6    4.10    0.27
  -9   7   6    3.82    0.23
   7  -7  -6    0.23    0.08
  -7  -7   6    0.31    0.09
  -7   7   6    0.29    0.07
  -5  -7   6    1.18    0.13
   5  -7  -6    1.25    0.13
  -5   7   6    1.17    0.11
   3  -7  -6    3.46    0.21
  -3  -7   6    3.39    0.21
   3   7  -6    3.13    0.16
  -3   7   6    3.04    0.20
   1  -7  -6    0.04    0.06
  -1  -7   6    0.07    0.05
   1   7  -6    0.06    0.04
   1  -7   6    1.13    0.12
  -1  -7  -6    1.12    0.12
  -1   7  -6    1.20    0.10
   3  -7   6    3.24    0.24
  -3   7  -6    3.59    0.20
   5   7   6    3.25    0.23
  -5   7  -6    3.04    0.20
   8  -8  -6    1.12    0.14
  -8  -8   6    1.14    0.13
  -8   8   6    1.11    0.12
  -6  -8   6    2.00    0.17
   6  -8  -6    1.80    0.16
  -6   8   6    1.86    0.15
   4  -8  -6    0.86    0.11
  -4  -8   6    1.04    0.12
  -4   8   6    0.94    0.10
  -2  -8   6    1.64    0.15
   2  -8  -6    1.68    0.15
   2   8  -6    1.80    0.11
   0  -8  -6    0.52    0.09
   0  -8   6    0.60    0.10
   0   8  -6    0.55    0.07
  -2  -8  -6    0.21    0.07
   2  -8   6    0.07    0.07
  -2   8  -6    0.23    0.06
  -4   8  -6    0.35    0.07
   4   8   6    0.52    0.10
  -7  -9   6    1.28    0.15
   7  -9  -6    1.36    0.15
  -7   9   6    1.48    0.13
  -5  -9   6   -0.08    0.07
   5  -9  -6    0.00    0.06
  -5   9   6    0.00    0.05
   3  -9  -6    0.52    0.09
  -3  -9   6    0.72    0.10
  -3   9   6    0.50    0.09
  -1  -9   6    0.17    0.07
   1  -9  -6    0.18    0.07
   1   9  -6    0.21    0.05
  -1  -9  -6    0.05    0.06
   1  -9   6    0.01    0.07
  -1   9  -6    0.07    0.05
  -3  -9  -6    0.21    0.08
  -3   9  -6    0.13    0.06
   6 -10  -6   -0.02    0.07
  -6 -10   6    0.17    0.11
  -6  10   6    0.06    0.06
   4 -10  -6    0.72    0.11
  -4 -10   6    0.66    0.11
  -4  10   6    0.68    0.10
   2 -10  -6    0.23    0.07
  -2 -10   6    0.19    0.08
   0 -10  -6    0.76    0.11
   0 -10   6    0.74    0.11
   0  10  -6    0.74    0.08
  -2 -10  -6    0.25    0.08
  -2  10  -6    0.23    0.06
   5 -11  -6    0.03    0.08
  -5  11   6    0.15    0.07
   3 -11  -6   -0.13    0.06
  -3 -11   6    0.02    0.08
  -3  11   6    0.08    0.06
   1 -11  -6    5.09    0.30
  -1 -11  -6    0.34    0.09
  -1  11  -6    0.30    0.07
   4 -12  -6    3.80    0.25
  -4  12   6    3.43    0.23
   2 -12  -6    0.42    0.09
  -2  12   6    0.53    0.10
   0 -12  -6    0.35    0.08
   8   0  -7    0.23    0.10
   6   0  -7    0.69    0.10
   4   0  -7    0.26    0.07
  -2   0   7    2.94    0.17
   2   0  -7    2.68    0.18
   0   0   7    5.35    0.28
   0   0  -7    4.58    0.27
   2   0   7    0.73    0.10
  -4   0  -7    0.29    0.07
   4   0   7    0.26    0.08
   4   0   7    0.39    0.08
   9  -1  -7    0.14    0.10
   9   1  -7    0.05    0.10
   7  -1  -7    2.01    0.16
   7   1  -7    1.85    0.16
   5  -1  -7   -0.08    0.05
   5   1  -7   -0.09    0.05
  -3  -1   7    1.88    0.13
   3  -1  -7    2.04    0.15
   3   1  -7    1.67    0.14
  -3   1   7    2.19    0.13
  -1  -1   7    0.35    0.07
   1  -1  -7    0.16    0.06
   1   1  -7    0.23    0.06
  -1   1   7    0.22    0.06
  -1  -1  -7    3.57    0.23
   1  -1   7    3.96    0.23
  -1   1  -7    3.46    0.23
   1   1   7    3.97    0.23
   3  -1   7    1.04    0.12
   3  -1   7    1.01    0.11
   3   1   7    0.93    0.11
   3   1   7    1.05    0.12
  -3   1  -7    0.84    0.10
   5  -1   7    0.02    0.06
  -5  -1  -7    0.00    0.06
  -5   1  -7    0.04    0.06
   8  -2  -7    0.02    0.09
   8   2  -7    0.24    0.11
   6  -2  -7    3.17    0.21
   6   2  -7    3.01    0.20
   4  -2  -7    0.02    0.06
  -4  -2   7   -0.01    0.04
   4   2  -7   -0.02    0.05
  -2  -2   7   -0.01    0.04
   2  -2  -7   -0.03    0.05
   2   2  -7   -0.11    0.04
  -2   2   7   -0.04    0.03
   0  -2  -7    0.46    0.08
   0  -2   7    0.46    0.08
   0   2   7    0.52    0.08
   0   2  -7    0.45    0.08
   2  -2   7    0.96    0.11
   2   2   7    0.94    0.11
  -2   2  -7    1.00    0.10
   4  -2   7    0.04    0.06
  -4  -2  -7    0.14    0.06
   4   2   7    0.05    0.07
  -4   2  -7    0.13    0.06
   4   2   7    0.09    0.07
   9  -3  -7    0.42    0.11
  -9   3   7    0.46    0.08
   9   3  -7    0.36    0.10
   7  -3  -7    3.01    0.21
   7   3  -7    3.58    0.21
  -5  -3   7    0.06    0.04
   5  -3  -7   -0.03    0.05
   5   3  -7   -0.03    0.06
  -3  -3   7    0.15    0.05
   3  -3  -7    0.22    0.07
   3   3  -7    0.18    0.06
   1  -3  -7    0.08    0.06
  -1  -3   7   -0.05    0.05
   1   3  -7    0.03    0.05
  -1   3   7    0.00    0.04
  -1  -3  -7    5.39    0.31
   1  -3   7    5.44    0.31
   1   3   7    5.66    0.30
  -1   3  -7    5.25    0.29
  -1   3  -7    5.57    0.28
   3  -3   7    0.28    0.07
   3  -3   7    0.37    0.09
   3   3   7    0.43    0.09
   3   3   7    0.16    0.07
  -3   3  -7    0.42    0.07
   8  -4  -7    0.20    0.09
  -8   4   7    0.19    0.06
   8   4  -7    0.16    0.09
  -6  -4   7    6.33    0.32
   6  -4  -7    5.60    0.33
   6   4  -7    6.27    0.31
   4  -4  -7    0.00    0.06
  -4  -4   7    0.06    0.05
   4   4  -7    0.00    0.05
   2  -4  -7    0.04    0.06
  -2  -4   7    0.09    0.05
   2   4  -7    0.11    0.05
   0  -4  -7    2.78    0.20
   0  -4   7    3.19    0.21
   0   4  -7    2.98    0.19
   0   4  -7    2.79    0.17
   0   4   7    3.19    0.19
  -2  -4  -7    0.17    0.07
   2  -4   7    0.20    0.08
  -2   4  -7    0.03    0.05
   2   4   7    0.21    0.07
   4  -4   7    0.45    0.08
  -4   4  -7    0.24    0.07
   4   4   7    0.47    0.10
   7  -5  -7    2.86    0.21
  -7   5   7    3.13    0.20
  -5  -5   7    0.03    0.05
   5  -5  -7   -0.01    0.06
   5   5  -7   -0.09    0.04
  -3  -5   7    0.41    0.08
   3  -5  -7    0.26    0.08
   1  -5  -7    0.07    0.06
  -1  -5   7    0.04    0.06
   1   5  -7    0.03    0.04
   1   5  -7    0.04    0.04
   1  -5   7    7.45    0.40
  -1  -5  -7    7.24    0.40
   1   5   7    8.10    0.38
  -1   5  -7    7.12    0.36
   3  -5   7    0.29    0.07
  -3   5  -7    0.16    0.06
   3   5   7    0.32    0.08
   8  -6  -7    0.98    0.14
  -8   6   7    1.14    0.12
   6  -6  -7    0.15    0.08
  -6  -6   7    0.12    0.07
  -6   6   7    0.16    0.06
  -4  -6   7    0.70    0.09
   4  -6  -7    0.56    0.10
  -2  -6   7    0.12    0.06
   2  -6  -7    0.26    0.07
   2   6  -7    0.16    0.05
   0  -6   7    0.47    0.09
   0  -6  -7    0.48    0.09
  -2  -6  -7    1.21    0.14
   2  -6   7    1.51    0.15
   7  -7  -7    0.62    0.11
  -7  -7   7    0.76    0.11
  -7   7   7    0.64    0.09
   5  -7  -7    1.00    0.12
  -5  -7   7    1.12    0.12
  -5   7   7    1.10    0.12
  -3  -7   7   -0.03    0.05
   3  -7  -7   -0.02    0.06
   3   7  -7    0.05    0.04
  -1  -7   7    0.16    0.07
   1  -7  -7    0.12    0.07
   1   7  -7    0.09    0.05
  -1  -7  -7    0.84    0.12
   1  -7   7    0.96    0.13
  -3   7  -7    0.04    0.05
   6  -8  -7    4.17    0.27
  -6  -8   7    3.96    0.26
  -6   8   7    4.21    0.25
   4  -8  -7    0.22    0.08
  -4  -8   7    0.21    0.07
   2  -8  -7    0.07    0.07
  -2  -8   7    0.10    0.07
   2   8  -7   -0.01    0.04
   0  -8   7    3.02    0.22
   0  -8  -7    2.55    0.21
   0   8  -7    2.75    0.17
  -2  -8  -7    4.36    0.29
  -2   8  -7    4.52    0.25
  -5  -9   7    1.41    0.15
   5  -9  -7    1.25    0.14
  -5   9   7    1.31    0.14
   3  -9  -7    0.00    0.07
  -3  -9   7    0.14    0.07
   1  -9  -7    0.04    0.07
   1   9  -7    0.01    0.05
  -1  -9  -7   12.54    0.61
  -1   9  -7   12.29    0.54
   4 -10  -7    0.50    0.10
  -4  10   7    0.72    0.11
   2 -10  -7    0.22    0.08
   0 -10  -7    5.64    0.35
   0  10  -7    6.30    0.30
   8   0  -8    1.64    0.18
   6   0  -8    0.63    0.11
   4   0  -8    9.69    0.47
   2   0  -8    0.02    0.06
   0   0   8    0.83    0.10
   0   0  -8    0.71    0.10
  -2   0  -8    0.04    0.06
   2   0   8    0.06    0.07
   7  -1  -8    0.10    0.09
   7   1  -8    0.22    0.10
   5  -1  -8    1.07    0.12
   5   1  -8    1.18    0.13
   3  -1  -8   24.40    1.03
   3   1  -8   24.14    1.02
  -1  -1   8    0.04    0.05
   1  -1  -8   -0.02    0.05
  -1   1   8    0.06    0.05
   1   1  -8    0.14    0.06
   1  -1   8    0.55    0.09
  -1  -1  -8    0.45    0.09
  -1   1  -8    0.60    0.09
   1   1   8    0.39    0.08
   6  -2  -8    0.02    0.07
   6   2  -8    0.15    0.09
   4  -2  -8    1.23    0.13
   4   2  -8    1.20    0.12
   2  -2  -8    0.40    0.08
  -2  -2   8    0.34    0.07
   2   2  -8    0.48    0.08
   0  -2  -8    0.14    0.06
   0  -2   8    0.09    0.06
   0   2  -8    0.13    0.06
   0   2   8    0.05    0.05
  -2  -2  -8    0.23    0.08
   2   2   8    0.36    0.08
  -2   2  -8    0.34    0.08
  -2   2  -8    0.36    0.08
   7  -3  -8    0.19    0.09
   7   3  -8    0.20    0.10
   5  -3  -8    0.08    0.07
   5   3  -8    0.11    0.08
   3  -3  -8    0.39    0.09
  -3  -3   8    0.33    0.07
   3   3  -8    0.28    0.07
  -1  -3   8    0.51    0.09
   1  -3  -8    0.39    0.09
   1   3  -8    0.32    0.07
   1  -3   8    0.21    0.08
  -1  -3  -8    0.20    0.07
  -1   3  -8    0.28    0.07
  -1   3  -8    0.19    0.07
   1   3   8    0.23    0.07
   6  -4  -8    0.31    0.09
   4  -4  -8    1.00    0.12
  -4  -4   8    1.23    0.12
   4   4  -8    1.24    0.12
  -2  -4   8    0.53    0.09
   2  -4  -8    0.40    0.09
   2   4  -8    0.27    0.07
   0  -4   8    0.15    0.07
   0  -4  -8    0.13    0.07
   0   4  -8    0.10    0.06
   0   4  -8    0.07    0.06
   2   4   8    0.15    0.07
  -2   4  -8    0.15    0.06
  -2   4  -8    0.20    0.06
   5  -5  -8   -0.02    0.06
   3  -5  -8    3.17    0.22
  -3  -5   8    2.92    0.20
   3   5  -8    2.99    0.18
   1  -5  -8    0.45    0.09
  -1  -5   8    0.53    0.10
   1   5  -8    0.59    0.08
  -1   5  -8    0.13    0.06
   4  -6  -8    1.56    0.16
  -4  -6   8    1.49    0.14
  -2  -6   8    1.35    0.13
   2  -6  -8    1.18    0.14
   2   6  -8    1.12    0.10
   0   6  -8    0.07    0.06
  -5  -7   8    0.18    0.07
   3  -7  -8    2.14    0.18
  -3  -7   8    1.99    0.17
   3  -1  -9    0.23    0.08
   3   1  -9    0.13    0.08
   0   0   0    0.00    0.00
;
_shelx_hkl_checksum              4282
_shelx_res_file
;
TITL shelx     C m          R = 0.03  New: C2/m
    shelx.res
    created by SHELXL-2017/1 at 09:01:00 on 03-Sep-2018
CELL  0.71073   9.1478  12.8195   6.7459   90.000  104.202   90.000
ZERR     2.00   0.0004   0.0006   0.0003    0.000    0.003    0.000
LATT   7
SYMM  - X,   Y, - Z
SFAC  C    H    O
UNIT  40 20 12
MERG   2
OMIT    -2.00  56.00
EQIV $1 1-X,Y,1-Z
HTAB C4 O2_$1
EQIV $2 1/2-X,1/2-Y,1-Z
HTAB C3 O1_$2
HTAB C5 O1_$2
FMAP   2
PLAN   2
SIZE     0.045   0.075   0.403
ACTA
BOND   $H
CONF
L.S.   5
TEMP  -100.00
WGHT    0.054100    0.277100
EXTI    0.010948
FVAR       0.18157
MOLE 1
C1    1    0.290334    0.410705    0.621127    11.00000    0.02026    0.03074 =
         0.02727   -0.00268    0.00232    0.00193
C2    1    0.130737    0.445648    0.553352    11.00000    0.01865    0.02478 =
         0.02190    0.00017    0.00324    0.00248
C3    1    0.000000    0.386517    0.500000    10.50000    0.02252    0.02087 =
         0.02629    0.00000    0.00296    0.00000
AFIX   3
H3    2    0.000000    0.312417    0.500000    10.50000   -1.20000
AFIX   0
O1    3    0.344658    0.326272    0.650407    11.00000    0.02832    0.03287 =
         0.04763   -0.00259    0.00002    0.01073
O2    3    0.379633    0.500000    0.653640    10.50000    0.01809    0.03366 =
         0.03815    0.00000    0.00169    0.00000
MOLE 4
C4    1    0.272818    0.444931    0.104394    11.00000    0.02213    0.05447 =
         0.02894    0.00207    0.00288    0.00727
AFIX   3
H4    2    0.365478    0.407881    0.140233    11.00000   -1.20000
AFIX   0
C5    1    0.139981    0.391132    0.053219    11.00000    0.02942    0.03766 =
         0.02948    0.00200    0.00587    0.00603
AFIX  43
H5    2    0.141317    0.317033    0.053253    11.00000   -1.20000
AFIX   0
C6    1    0.000000    0.444648    0.000000    10.50000    0.02239    0.03533 =
         0.02041    0.00000    0.00424    0.00000
HKLF 4
REM  shelx     C m          R = 0.03  New: C2/m
REM R1 =  0.0340 for     841 Fo > 4sig(Fo)  and  0.0390 for all     967 data
REM     63 parameters refined using      0 restraints
END
WGHT      0.0558      0.2678
REM Highest difference peak  0.363,  deepest hole -0.300,  1-sigma level  0.043
Q1    1   0.2041  0.4236  0.5845  11.00000  0.05    0.36
Q2    1   0.0690  0.4211  0.0401  11.00000  0.05    0.29
;
_shelx_res_checksum              79825
loop_
_symmetry_equiv_pos_as_xyz
'x, y, z'
'-x, y, -z'
'x+1/2, y+1/2, z'
'-x+1/2, y+1/2, -z'
'-x, -y, -z'
'x, -y, z'
'-x+1/2, -y+1/2, -z'
'x+1/2, -y+1/2, z'
loop_
_atom_site_type_symbol
_atom_site_label
_atom_site_fract_x
_atom_site_fract_y
_atom_site_fract_z
_atom_site_U_iso_or_equiv
_atom_site_adp_type
_atom_site_calc_flag
_atom_site_occupancy
C C1 0.29033(11) 0.41071(8) 0.62113(16) 0.0267(3) Uani d 1
C C2 0.13074(10) 0.44565(8) 0.55335(13) 0.0221(3) Uani d 1
C C3 0 0.38652(11) 0.5 0.0238(3) Uani d 1
H H3 0 0.312417 0.5 0.029 Uiso d 1
O O1 0.34466(8) 0.32627(6) 0.65041(12) 0.0379(3) Uani d 1
O O2 0.37963(11) 0.5 0.65364(16) 0.0309(3) Uani d 1
C C4 0.27282(12) 0.44493(10) 0.10439(16) 0.0358(3) Uani d 1
H H4 0.365478 0.407881 0.140233 0.043 Uiso d 1
C C5 0.13998(12) 0.39113(10) 0.05322(16) 0.0324(3) Uani d 1
H H5 0.141317 0.317033 0.053253 0.039 Uiso calc 1
C C6 0 0.44465(12) 0 0.0262(3) Uani d 1
loop_
_atom_site_aniso_label
_atom_site_aniso_U_11
_atom_site_aniso_U_22
_atom_site_aniso_U_33
_atom_site_aniso_U_12
_atom_site_aniso_U_13
_atom_site_aniso_U_23
C1 0.0203(5) 0.0307(6) 0.0273(5) 0.0019(4) 0.0023(4) -0.0027(4)
C2 0.0187(5) 0.0248(5) 0.0219(5) 0.0025(3) 0.0032(3) 0.0002(3)
C3 0.0225(6) 0.0209(6) 0.0263(7) 0 0.0030(5) 0
O1 0.0283(4) 0.0329(5) 0.0476(5) 0.0107(3) 0.0000(3) -0.0026(3)
O2 0.0181(5) 0.0337(6) 0.0382(6) 0 0.0017(4) 0
C4 0.0221(5) 0.0545(7) 0.0289(6) 0.0073(5) 0.0029(4) 0.0021(5)
C5 0.0294(6) 0.0377(6) 0.0295(5) 0.0060(4) 0.0059(4) 0.0020(4)
C6 0.0224(6) 0.0353(8) 0.0204(6) 0 0.0042(5) 0
loop_
_atom_type_symbol
_atom_type_description
_atom_type_scat_dispersion_real
_atom_type_scat_dispersion_imag
_atom_type_scat_source
C C 0.0033 0.0016 'International Tables Vol C Tables 4.2.6.8 and 6.1.1.4'
H H 0 0 'International Tables Vol C Tables 4.2.6.8 and 6.1.1.4'
O O 0.0106 0.006 'International Tables Vol C Tables 4.2.6.8 and 6.1.1.4'
loop_
_geom_angle_atom_site_label_1
_geom_angle_atom_site_label_2
_geom_angle_atom_site_label_3
_geom_angle_site_symmetry_1
_geom_angle_site_symmetry_3
_geom_angle
O1 C1 O2 . . 121.20(9)
O1 C1 C2 . . 131.66(10)
O2 C1 C2 . . 107.13(8)
C3 C2 C2 . 6_565 123.13(6)
C3 C2 C1 . . 129.34(9)
C2 C2 C1 6_565 . 107.52(6)
C2 C3 C2 . 2_556 113.73(12)
C2 C3 H3 . . 123.1
C2 C3 H3 2_556 . 123.1
C1 O2 C1 6_565 . 110.63(11)
C5 C4 C4 . 6_565 120.33(7)
C5 C4 H4 . . 119.7
C4 C4 H4 6_565 . 120
C4 C5 C6 . . 120.76(12)
C4 C5 H5 . . 119.6
C6 C5 H5 . . 119.6
C5 C6 C5 . 2 122.18(15)
C5 C6 C6 . 5_565 118.91(7)
C5 C6 C6 2 5_565 118.91(7)
loop_
_geom_bond_atom_site_label_1
_geom_bond_atom_site_label_2
_geom_bond_site_symmetry_2
_geom_bond_distance
C1 O1 . 1.1872(12)
C1 O2 . 1.3921(12)
C1 C2 . 1.4878(12)
C2 C3 . 1.3868(12)
C2 C2 6_565 1.394(2)
C3 H3 . 0.9499
C4 C5 . 1.3659(16)
C4 C4 6_565 1.412(3)
C4 H4 . 0.9497
C5 C6 . 1.4190(13)
C5 H5 . 0.95
C6 C6 5_565 1.419(3)
loop_
_geom_hbond_atom_site_label_D
_geom_hbond_atom_site_label_H
_geom_hbond_atom_site_label_A
_geom_hbond_site_symmetry_A
_geom_hbond_distance_DH
_geom_hbond_distance_HA
_geom_hbond_distance_DA
_geom_hbond_angle_DHA
_geom_hbond_publ_flag
C4 H4 O2 2_656 0.95 2.68 3.2748(14) 121 yes
C3 H3 O1 7_556 0.95 2.63 3.3463(13) 133 yes
C5 H5 O1 7_556 0.95 2.69 3.4127(14) 133 yes
loop_
_geom_torsion_atom_site_label_1
_geom_torsion_atom_site_label_2
_geom_torsion_atom_site_label_3
_geom_torsion_atom_site_label_4
_geom_torsion_site_symmetry_1
_geom_torsion_site_symmetry_4
_geom_torsion
O1 C1 C2 C3 . . -1.92(18)
O2 C1 C2 C3 . . 179.21(8)
O1 C1 C2 C2 . 6_565 177.30(11)
O2 C1 C2 C2 . 6_565 -1.57(9)
C2 C2 C3 C2 6_565 2_556 0
C1 C2 C3 C2 . 2_556 179.11(11)
O1 C1 O2 C1 . 6_565 -176.38(6)
C2 C1 O2 C1 . 6_565 2.63(15)
C4 C4 C5 C6 6_565 . -0.22(11)
C4 C5 C6 C5 . 2 -179.78(11)
C4 C5 C6 C6 . 5_565 0.22(11)

_cod_database_fobs_code 2242721
