#------------------------------------------------------------------------------
#$Date: 2020-08-26 07:58:58 +0300 (Wed, 26 Aug 2020) $
#$Revision: 255656 $
#$URL: file:///home/coder/svn-repositories/cod/cif/2/24/35/2243553.cif $
#------------------------------------------------------------------------------
#
# This file is available in the Crystallography Open Database (COD),
# http://www.crystallography.net/. The original data for this entry
# were provided by IUCr Journals, http://journals.iucr.org/.
#
# The file may be used within the scientific community so long as
# proper attribution is given to the journal article from which the
# data were obtained.
#
data_2243553
loop_
_publ_author_name
'Battaglia, Zachary O.'
'Kersten, Jordan T.'
'Nicol, Elise M.'
'Whitworth, Paloma'
'Wheeler, Kraig A.'
'Hall, Charlie L.'
'Potticary, Jason'
'Hamilton, Victoria'
'Hall, Simon R.'
'D'Ambruoso, Gemma D.'
'Matsumoto, Masaomi'
'Warren, Stephen D.'
'Cremeens, Matthew E.'
_publ_section_title
;
 Crystal structure and Hirshfeld analysis of 3'-bromo-4-methylchalcone and
 3'-cyano-4-methylchalcone
;
_journal_issue                   9
_journal_name_full               'Acta Crystallographica Section E'
_journal_page_first              1496
_journal_page_last               1502
_journal_paper_doi               10.1107/S2056989020011135
_journal_volume                  76
_journal_year                    2020
_chemical_formula_iupac          'C16 H13 Br O'
_chemical_formula_moiety         'C16 H13 Br O'
_chemical_formula_sum            'C16 H13 Br O'
_chemical_formula_weight         301.17
_chemical_name_common
;
3'-Bromo-4-methylchalcone
;
_chemical_name_systematic
;
1-(2-Bromophenyl)-3-(4-methylphenyl)prop-2-en-1-one
;
_space_group_crystal_system      triclinic
_space_group_IT_number           2
_space_group_name_Hall           '-P 1'
_space_group_name_H-M_alt        'P -1'
_atom_sites_solution_hydrogens   geom
_atom_sites_solution_primary     direct
_audit_creation_method           SHELXL-2018/3
_cell_angle_alpha                88.532(3)
_cell_angle_beta                 82.199(3)
_cell_angle_gamma                87.457(3)
_cell_formula_units_Z            2
_cell_length_a                   5.9282(6)
_cell_length_b                   7.3614(8)
_cell_length_c                   14.6747(16)
_cell_measurement_reflns_used    1318
_cell_measurement_temperature    100(2)
_cell_measurement_theta_max      71.65
_cell_measurement_theta_min      6.02
_cell_volume                     633.73(12)
_computing_cell_refinement
;
SAINT (Bruker, 2017)
;
_computing_data_collection
;
APEX3 (Bruker, 2018)
;
_computing_data_reduction
;
SAINT (Bruker, 2017)
;
_computing_molecular_graphics
;
XSEED (Barbour, 2001)
;
_computing_publication_material
;
XSEED (Barbour, 2001)
;
_computing_structure_refinement
;
<i>SHELXL2018/3</i> (Sheldrick, 2015b)
;
_computing_structure_solution
;
<i>SHELXT2018/2</i> (Sheldrick, 2015a)
;
_diffrn_ambient_temperature      100(2)
_diffrn_detector                 'Bruker Photon II CPAD'
_diffrn_detector_area_resol_mean 7.9
_diffrn_measured_fraction_theta_full 0.989
_diffrn_measured_fraction_theta_max 0.986
_diffrn_measurement_device       'Kappa Four-Circle Diffractometer'
_diffrn_measurement_device_type  'Bruker D8 Venture'
_diffrn_measurement_method       '\f and \w scans'
_diffrn_radiation_monochromator  'Double Bounce Multilayer Mirrors'
_diffrn_radiation_probe          x-ray
_diffrn_radiation_type           CuK\a
_diffrn_radiation_wavelength     1.54178
_diffrn_reflns_av_R_equivalents  0.0225
_diffrn_reflns_av_unetI/netI     0.0228
_diffrn_reflns_limit_h_max       7
_diffrn_reflns_limit_h_min       -6
_diffrn_reflns_limit_k_max       9
_diffrn_reflns_limit_k_min       -9
_diffrn_reflns_limit_l_max       18
_diffrn_reflns_limit_l_min       -18
_diffrn_reflns_number            8397
_diffrn_reflns_theta_full        67.679
_diffrn_reflns_theta_max         72.181
_diffrn_reflns_theta_min         3.040
_diffrn_source                   'Microsource IuS Incoatec 3.0'
_exptl_absorpt_coefficient_mu    4.277
_exptl_absorpt_correction_T_max  0.7536
_exptl_absorpt_correction_T_min  0.5311
_exptl_absorpt_correction_type   multi-scan
_exptl_absorpt_process_details
;
(SADABS; Krause <i>et al.</i>,  2015)
;
_exptl_crystal_colour            colorless
_exptl_crystal_density_diffrn    1.578
_exptl_crystal_description       'transparent plate'
_exptl_crystal_F_000             304
_exptl_crystal_size_max          0.388
_exptl_crystal_size_mid          0.249
_exptl_crystal_size_min          0.112
_refine_diff_density_max         0.633
_refine_diff_density_min         -0.400
_refine_ls_extinction_method     none
_refine_ls_goodness_of_fit_ref   1.094
_refine_ls_hydrogen_treatment    constr
_refine_ls_matrix_type           full
_refine_ls_number_parameters     164
_refine_ls_number_reflns         2461
_refine_ls_number_restraints     0
_refine_ls_restrained_S_all      1.094
_refine_ls_R_factor_all          0.0256
_refine_ls_R_factor_gt           0.0255
_refine_ls_shift/su_max          0.001
_refine_ls_shift/su_mean         0.000
_refine_ls_structure_factor_coef Fsqd
_refine_ls_weighting_details
'w=1/[\s^2^(Fo^2^)+(0.0313P)^2^+0.5783P] where P=(Fo^2^+2Fc^2^)/3'
_refine_ls_weighting_scheme      calc
_refine_ls_wR_factor_gt          0.0650
_refine_ls_wR_factor_ref         0.0651
_reflns_number_gt                2440
_reflns_number_total             2461
_reflns_threshold_expression     'I > 2\s(I)'
_cod_data_source_file            tx2030sup1.cif
_cod_data_source_block           II
_cod_database_code               2243553
_shelx_space_group_comment
;
The symmetry employed for this shelxl refinement is uniquely defined
by the following loop, which should always be used as a source of
symmetry information in preference to the above space-group names.
They are only intended as comments.
;
_shelx_hkl_file
;
  -1   0   0   25.00    1.10
  -1   0   0   25.80    1.10
   1   0   0   26.80    1.40
  -3   0   0 1508.05   48.00
   3   0   0 1535.05   49.40
  -4   0   0  373.06   13.50
   4   0   0  375.56   15.10
   4   0   0  348.37   16.70
   5   0   0 1322.47   45.50
   5   0   0 1342.77   42.20
   5   0   0 1248.08   46.50
   5   0   0 1307.17   42.70
   6   0   0   13.70    2.00
   7   0   0  368.06   12.40
   7   0   0  372.36   12.70
   7  -1   0  109.99    4.20
   7  -1   0  107.09    4.50
   6  -1   0  239.18    9.00
   5  -1   0 1416.96   48.70
   5  -1   0 1374.66   43.90
  -5   1   0 1308.47   47.20
   4  -1   0  189.48    6.80
   4  -1   0  200.68   11.20
   4  -1   0  203.98    9.60
  -4   1   0  198.48    8.60
   3  -1   0 2564.64   80.89
  -3   1   0 2552.14   80.39
   2  -1   0  464.95   15.50
  -2   1   0  446.76   15.30
   1  -1   0  197.18    6.60
  -1   1   0  182.58    6.70
   0  -1   0 1909.91   59.69
   0   1   0 1946.81   59.69
  -1  -1   0 4257.57  130.99
   2   1   0 3706.83  118.99
   2   1   0 3930.41  119.49
   3   1   0  160.68    7.40
   4   1   0 1515.75   48.00
   4   1   0 1537.15   53.19
   6   1   0   29.90    3.10
   6   1   0   28.30    5.00
   6   1   0   30.80    2.60
   7   1   0  764.52   26.60
   7   1   0  861.01   26.00
   6  -2   0  950.20   30.60
   5  -2   0  113.89    5.30
  -5   2   0  107.69    8.50
  -5   2   0  109.29    4.60
   4  -2   0 1463.45   48.60
   4  -2   0 1456.05   45.90
   4  -2   0 1438.86   44.90
  -4   2   0 1493.45   47.80
  -4   2   0 1362.16   45.00
   3  -2   0 1407.36   46.00
  -3   2   0 1421.26   46.00
   2  -2   0   80.49    3.80
   2  -2   0   78.19    3.90
  -2   2   0   81.99    4.20
   0  -2   0 1788.42   58.29
   0   2   0 1995.20   73.29
   0   2   0 1806.42   58.29
  -1  -2   0 4150.68  123.79
   1   2   0 3857.81  123.49
  -2  -2   0 1239.98   38.10
   2   2   0 1171.88   39.50
   2   2   0 1225.68   40.00
   3   2   0  192.08    9.00
   3   2   0  206.48   10.10
   4   2   0 1238.88   43.40
   4   2   0 1304.37   40.40
   5   2   0   34.60    2.70
   5   2   0   37.90    5.90
   5   2   0   32.70    3.90
   6   2   0  885.61   28.80
   6   2   0  901.51   28.70
   6   2   0  846.02   33.00
   7   2   0   22.50    1.80
   6  -3   0  259.47    9.60
  -6   3   0  263.17    8.70
   5  -3   0  239.18    7.80
   5  -3   0  230.28    8.80
  -5   3   0  229.78    8.30
  -5   3   0  235.48    8.10
   4  -3   0 1470.25   45.60
  -4   3   0 1433.36   45.70
  -4   3   0 1469.75   49.10
   3  -3   0  255.67   10.20
   3  -3   0  246.58    8.40
  -3   3   0  231.48    8.30
   2  -3   0  224.68    8.90
   2  -3   0  234.58    9.20
  -2   3   0  232.68    9.60
   1  -3   0  599.74   20.60
  -1   3   0  608.44   20.80
   0  -3   0 1439.86   46.50
   0   3   0 1384.56   45.20
  -1  -3   0 1649.13   71.19
   1   3   0 1512.05   49.80
  -2  -3   0  239.68   23.30
  -2  -3   0  241.18    9.00
   2   3   0  248.98   10.80
  -3  -3   0  762.62   51.39
   3   3   0  769.42   25.20
   3   3   0  764.22   28.70
  -4  -3   0  639.44   57.49
   4   3   0  666.13   23.10
   4   3   0  660.73   22.10
   5   3   0  204.28    7.90
   5   3   0  216.68   13.20
   5   3   0  217.48    8.50
   6   3   0 1305.17   41.40
   6   3   0 1310.37   46.00
   6  -4   0   16.20    2.00
  -6   4   0   19.60    1.20
  -6   4   0   20.00    1.80
   5  -4   0  616.64   19.10
   5  -4   0  588.34   20.10
  -5   4   0  611.34   19.30
  -5   4   0  596.14   19.50
   4  -4   0  653.53   20.20
  -4   4   0  620.54   24.20
  -4   4   0  629.24   20.50
  -4   4   0  605.04   20.00
   3  -4   0  886.51   28.20
   3  -4   0  890.21   30.40
   3  -4   0  897.21   28.40
  -3   4   0  912.91   31.90
  -3   4   0  872.91   28.10
   2  -4   0 1428.76   48.00
   2  -4   0 1533.15   50.09
   2  -4   0 1555.84   49.30
  -2   4   0 1606.74   50.89
   1  -4   0  400.06   15.20
  -1   4   0  408.96   15.40
   0  -4   0 1046.70   34.70
   0   4   0 1037.10   34.60
  -1  -4   0    8.70    1.80
   1   4   0    5.10    2.10
  -2  -4   0   16.50   10.10
  -2  -4   0   21.90    2.50
  -3  -4   0 1347.17   80.19
  -3  -4   0 1364.06   44.40
   3   4   0 1376.26   43.70
   3   4   0 1412.96   45.20
   3   4   0 1387.46   49.10
   4   4   0    7.70    4.80
   4   4   0    3.50    1.30
   4   4   0    3.30    2.40
   5   4   0  859.71   33.20
   5   4   0  817.32   26.90
   5   4   0  825.32   27.20
   6   4   0   37.40    4.70
   6   4   0   36.50    3.10
   5  -5   0  171.08    6.00
  -5   5   0  198.58    6.90
  -5   5   0  170.18    6.30
   4  -5   0    2.50    0.90
  -4   5   0    2.60    0.90
  -4   5   0    0.80    4.10
  -4   5   0    2.80    0.70
   3  -5   0  768.32   24.40
   3  -5   0  753.02   24.20
  -3   5   0  771.32   24.50
  -3   5   0  760.42   24.10
  -3   5   0  739.93   24.60
  -3   5   0  766.62   28.60
   2  -5   0  942.11   30.00
   2  -5   0  953.80   33.00
   2  -5   0  947.61   30.10
   2  -5   0  913.81   29.50
  -2   5   0  971.10   30.70
  -2   5   0  944.31   29.70
  -2   5   0  924.11   30.20
  -2   5   0  976.10   33.90
   1  -5   0  270.37    9.30
   1  -5   0  276.87    9.70
   1  -5   0  319.77   12.50
   1  -5   0  271.37    9.80
  -1   5   0  287.87   13.80
  -1   5   0  270.37    9.20
  -1   5   0  264.17    9.50
  -1   5   0  280.77    9.80
   0  -5   0 1345.77   44.50
   0  -5   0 1260.67   41.70
   0  -5   0 1259.37   41.40
   0   5   0 1392.96   44.30
   0   5   0 1335.67   44.30
   0   5   0 1372.46   41.70
  -1  -5   0    5.30    1.40
  -1  -5   0    5.70    2.10
  -1  -5   0    8.60    2.40
   1   5   0    9.00    1.20
   1   5   0    4.90    2.30
  -2  -5   0  362.66   12.80
  -2  -5   0  398.26   15.10
  -2  -5   0  368.16   13.00
   2   5   0  383.26   13.20
   2   5   0  408.06   14.90
   2   5   0  367.06   12.40
   2   5   0  397.86   17.80
  -3  -5   0  342.67   14.00
   3   5   0  366.06   14.40
   3   5   0  367.96   12.80
   3   5   0  384.66   18.90
   4   5   0    6.80    2.50
   4   5   0    7.80    1.50
   4   5   0    5.50    6.00
   5   5   0 1037.00   33.00
   6   5   0   35.00    4.90
   5  -6   0   19.10    1.10
  -5   6   0   18.70    1.20
  -5   6   0   20.40    1.30
   4  -6   0  148.79    5.20
  -4   6   0  143.39    5.30
  -4   6   0  141.89    5.00
   3  -6   0  341.07   11.30
   3  -6   0  340.77   11.50
  -3   6   0  327.27   16.40
  -3   6   0  350.76   11.10
  -3   6   0  335.17   11.60
  -3   6   0  341.17   11.50
   2  -6   0  528.85   17.40
   2  -6   0  537.15   17.40
   2  -6   0  528.65   21.00
  -2   6   0  522.45   17.30
  -2   6   0  531.15   21.80
  -2   6   0  529.65   17.50
  -2   6   0  532.35   16.90
   1  -6   0 1327.07   41.30
   1  -6   0 1326.77   41.80
   1  -6   0 1332.27   45.30
   1  -6   0 1327.37   41.80
  -1   6   0 1313.47   41.70
  -1   6   0 1318.57   41.60
  -1   6   0 1324.57   45.80
   0  -6   0   43.70    3.80
   0  -6   0   45.50    4.80
   0  -6   0   43.80    2.40
   0  -6   0   45.10    2.80
   0   6   0   45.60    2.50
  -1  -6   0  401.76   16.30
  -1  -6   0  391.26   13.30
  -1  -6   0  388.66   13.00
   1   6   0  384.36   12.90
   1   6   0  402.46   15.80
  -2  -6   0 1093.29   35.00
  -2  -6   0 1107.39   34.90
  -2  -6   0 1090.59   38.00
   2   6   0 1114.29   42.00
   2   6   0 1100.99   35.40
   2   6   0 1119.39   34.60
   2   6   0 1130.39   37.50
  -3  -6   0   39.20    8.10
  -3  -6   0   39.10    4.20
   3   6   0   30.50    5.20
  -4  -6   0  750.82   24.40
   4   6   0  724.03   25.70
   4   6   0  763.22   24.20
   5   6   0  196.18   10.30
   4  -7   0  120.99    4.20
  -4   7   0  121.29    4.30
   3  -7   0  527.45   16.70
   3  -7   0  528.35   16.90
  -3   7   0  531.95   16.90
  -3   7   0  516.85   17.00
   2  -7   0   17.90    1.70
   2  -7   0   18.20    1.70
  -2   7   0   16.40    1.60
  -2   7   0   18.70    1.80
   1  -7   0  695.63   22.40
   1  -7   0  712.93   22.50
   1  -7   0  701.13   21.90
   1  -7   0  663.43   26.30
  -1   7   0  706.53   22.20
  -1   7   0  699.73   22.40
   0  -7   0    2.60    3.30
   0  -7   0   -1.50    1.90
  -1  -7   0  458.55   14.40
  -1  -7   0  471.75   14.70
   1   7   0  371.96   24.10
   1   7   0  457.65   14.40
  -2  -7   0  212.68    7.30
  -2  -7   0  216.28    7.60
   2   7   0  201.68    7.60
   2   7   0  214.88    7.20
  -3  -7   0  112.59    4.80
  -3  -7   0  118.79    4.30
   3   7   0  109.29    4.60
  -4  -7   0  955.00   29.80
   3  -8   0  435.56   13.60
  -3   8   0  425.46   13.50
  -3   8   0  426.46   13.70
   2  -8   0  518.45   16.40
   2  -8   0  511.35   16.50
  -2   8   0  519.05   16.50
   1  -8   0  146.59    7.70
   1  -8   0  140.89    5.40
  -1   8   0  147.39    5.30
   0  -8   0  436.26   14.30
   0  -8   0  434.96   13.90
   0   8   0  440.56   14.10
  -1  -8   0  561.84   18.10
  -1  -8   0  546.15   17.80
   1   8   0  572.64   18.20
  -2  -8   0   86.59    3.30
  -2  -8   0   84.89    3.50
  -3  -8   0  184.18    6.10
   0  -9   0  280.47    9.10
   0   9   0  277.97    8.90
  -1  -9   0   74.49    2.60
  -1  -9   0   76.49    2.90
  -1  -9   1   -1.50    0.90
  -1  -9   1    1.20    0.70
   0   9  -1  260.07    8.30
   0  -9   1  260.17    8.40
  -3  -8   1   39.20    1.80
  -2  -8   1   40.60    2.20
  -2  -8   1   39.50    1.90
  -1  -8   1   86.39    3.90
  -1  -8   1   82.49    3.20
   0   8  -1  434.06   14.10
   0  -8   1  440.56   13.90
   0  -8   1  437.16   14.20
  -1   8  -1    6.90    1.30
   1  -8   1    5.10    1.20
   1  -8   1    5.50    1.20
  -2   8  -1  304.57   10.20
  -2   8  -1  303.97   10.00
   2  -8   1  309.57   10.00
   2  -8   1  304.27    9.90
  -3   8  -1  231.58    7.60
  -3   8  -1  227.58    7.40
   3  -8   1  225.88    7.40
  -4  -7   1  240.18    8.00
  -3  -7   1 1256.77   39.00
  -3  -7   1 1246.48   39.10
   2   7  -1   65.49    2.90
  -2  -7   1   70.59    3.00
  -2  -7   1   66.29    3.20
   1   7  -1  994.40   45.40
   1   7  -1 1068.89   33.50
  -1  -7   1 1106.29   33.80
  -1  -7   1 1057.29   33.40
  -1  -7   1 1098.49   43.30
   0   7  -1  306.77   10.30
   0  -7   1  281.17   10.30
   0  -7   1  288.77   14.30
   0  -7   1  296.87   10.40
   0  -7   1  302.37   10.20
  -1   7  -1  330.17   10.90
  -1   7  -1  327.27   10.70
   1  -7   1  330.87   10.90
   1  -7   1  296.97   15.00
   1  -7   1  318.77   10.40
   1  -7   1  320.77   10.90
  -2   7  -1  278.27    9.40
  -2   7  -1  269.97    9.50
   2  -7   1  276.17    9.40
   2  -7   1  281.87    9.50
  -3   7  -1    2.00    1.00
  -3   7  -1    1.10    0.70
   3  -7   1   -0.70    1.20
   3  -7   1    1.90    0.70
  -4   7  -1  751.92   23.50
   4  -7   1  746.43   23.40
   5   6  -1   25.10    4.00
   4   6  -1  615.84   19.90
  -4  -6   1  597.44   19.40
   3   6  -1   13.60    2.80
   3   6  -1   10.30    5.30
   3   6  -1    9.60    2.70
  -3  -6   1   10.90    1.50
  -3  -6   1   10.40    2.20
  -3  -6   1   10.30    8.40
   2   6  -1  163.68    6.40
   2   6  -1  160.18   11.80
   2   6  -1  163.28    5.70
   2   6  -1  166.28    8.30
  -2  -6   1  156.28    5.90
  -2  -6   1  155.58    8.90
  -2  -6   1  163.98    6.20
   1   6  -1 1503.15   49.10
   1   6  -1 1608.04   48.80
  -1  -6   1 1597.04   49.10
  -1  -6   1 1556.74   52.59
  -1  -6   1 1562.44   48.80
   0   6  -1    0.70    1.30
   0   6  -1    1.00    0.90
   0   6  -1    1.00    5.20
   0  -6   1    1.90    0.80
   0  -6   1    1.10    1.00
   0  -6   1    1.70    2.20
   0  -6   1    0.50    2.30
  -1   6  -1 1923.21   61.29
  -1   6  -1 1993.20   65.89
  -1   6  -1 2019.20   61.59
   1  -6   1 1928.81   65.19
   1  -6   1 1974.40   61.09
   1  -6   1 1959.10   61.49
   1  -6   1 2002.60   61.59
  -2   6  -1  606.04   19.00
  -2   6  -1  606.54   19.60
  -2   6  -1  599.54   24.00
  -2   6  -1  589.84   19.40
   2  -6   1  605.14   19.50
   2  -6   1  585.34   23.20
   2  -6   1  597.54   19.40
  -3   6  -1    6.60    1.40
  -3   6  -1    9.70    1.20
  -3   6  -1    8.60    5.00
  -3   6  -1    8.60    1.20
   3  -6   1    7.70    1.10
   3  -6   1    6.60    1.30
  -4   6  -1  897.41   27.90
  -4   6  -1  890.31   28.20
   4  -6   1  890.21   28.10
  -5   6  -1    0.80    0.90
  -5   6  -1    1.80    0.60
   5  -6   1    1.20    0.60
   6   5  -1  780.12   27.60
   5   5  -1  152.88    9.90
   4   5  -1 2679.33  100.09
   4   5  -1 2696.53   85.99
   3   5  -1   99.19    4.70
   3   5  -1  101.09    6.30
   3   5  -1  124.29   10.50
  -3  -5   1   96.79    6.60
   2   5  -1 1689.63   53.59
   2   5  -1 1729.23   54.39
   2   5  -1 1842.12   56.29
  -2  -5   1 1673.13   53.89
  -2  -5   1 1665.23   53.79
  -2  -5   1 1768.42   56.59
   1   5  -1  308.87   10.40
   1   5  -1  316.37   12.70
  -1  -5   1  320.37   13.00
  -1  -5   1  304.67   10.50
  -1  -5   1  311.97   10.70
   0   5  -1 1090.89   37.60
   0   5  -1 1158.78   35.00
   0  -5   1 1049.40   34.70
   0  -5   1 1173.08   38.00
   0  -5   1 1084.29   35.10
  -1   5  -1  712.63   25.30
  -1   5  -1  660.73   21.80
  -1   5  -1  693.03   22.00
  -1   5  -1  664.63   21.50
   1  -5   1  665.23   21.50
   1  -5   1  676.93   22.00
   1  -5   1  707.03   24.90
   1  -5   1  680.53   21.90
  -2   5  -1 1580.74   48.60
  -2   5  -1 1616.64   52.89
   2  -5   1 1562.24   48.40
   2  -5   1 1462.55   50.49
   2  -5   1 1595.94   52.19
   2  -5   1 1548.65   48.90
   2  -5   1 1580.74   49.00
  -3   5  -1 1366.66   43.00
  -3   5  -1 1329.57   42.50
  -3   5  -1 1348.07   42.90
  -3   5  -1 1368.06   47.20
   3  -5   1 1353.96   42.60
   3  -5   1 1407.36   42.80
  -4   5  -1   15.40    1.70
  -4   5  -1   12.60    4.70
  -4   5  -1   15.20    1.30
   4  -5   1   17.60    1.50
  -5   5  -1  225.08    7.80
  -5   5  -1  230.48    7.60
   5  -5   1  227.48    7.50
   6   4  -1   23.90    3.20
   6   4  -1   31.00    4.00
   5   4  -1 1467.55   51.39
   5   4  -1 1402.96   45.30
   3   4  -1  975.20   37.30
   3   4  -1  963.60   33.20
   3   4  -1 1006.70   31.90
  -3  -4   1  978.40   73.59
  -3  -4   1 1038.90   34.80
  -2  -4   1 2373.06  113.39
  -2  -4   1 2560.24   78.49
   1   4  -1  139.09    6.50
  -1  -4   1  127.19    6.40
   0   4  -1 3240.08  101.49
   0  -4   1 3186.28  101.49
  -1   4  -1 2663.13   83.09
   1  -4   1 2524.95   82.59
  -2   4  -1   54.39    4.50
  -2   4  -1   46.00    2.50
   2  -4   1   55.29    4.00
   2  -4   1   51.39    2.90
   2  -4   1   58.09    4.40
  -3   4  -1  670.43   22.30
  -3   4  -1  709.33   25.60
   3  -4   1  695.03   22.20
   3  -4   1  704.33   24.60
   3  -4   1  684.53   22.10
  -4   4  -1    0.90    2.90
  -4   4  -1    2.20    1.10
   4  -4   1    1.20    0.80
  -5   4  -1  282.87    9.60
  -5   4  -1  282.37    9.40
   5  -4   1  274.37   10.20
   5  -4   1  286.67    9.20
  -6   4  -1  172.78    5.60
  -6   4  -1  170.68    5.70
   6  -4   1  153.58    6.00
   6   3  -1    4.00    1.80
   6   3  -1    3.30    1.80
   6   3  -1    1.40    2.00
   5   3  -1 2328.77   77.69
   5   3  -1 2219.78   72.39
   4   3  -1  734.03   24.40
   3   3  -1 2055.19   69.19
  -3  -3   1 2089.79   65.29
  -2  -3   1  137.19    5.80
  -2  -3   1  136.39   18.70
   1   3  -1  959.10   31.80
  -1  -3   1  996.30   32.00
  -1  -3   1 1000.80   51.79
   0   3  -1 1776.02   58.19
   0  -3   1 1889.01   61.19
  -1   3  -1 2809.72   86.89
   1  -3   1 2696.13   86.59
  -2   3  -1 6628.54  204.68
   2  -3   1 6516.05  204.08
  -3   3  -1   12.90    1.60
   3  -3   1   16.50    1.70
   3  -3   1   18.10    2.70
   3  -3   1   14.60    2.40
  -4   3  -1  602.84   22.50
   4  -3   1  591.14   22.10
   4  -3   1  599.64   19.10
  -5   3  -1  268.47    9.40
  -5   3  -1  274.67    9.10
  -5   3  -1  244.88   17.50
   5  -3   1  273.57    8.80
   5  -3   1  277.47   10.00
  -6   3  -1   33.70    1.80
   6  -3   1   32.80    2.40
   6  -3   1   33.10    5.60
   7   2  -1   87.09    3.60
   6   2  -1  303.27   14.80
   6   2  -1  306.57   11.20
   6   2  -1  304.97   11.20
   5   2  -1  635.44   21.70
   5   2  -1  701.13   27.70
   4   2  -1  709.53   23.30
   4   2  -1  722.83   27.10
   3   2  -1 1666.63   55.19
  -3  -2   1 1623.04   52.09
   2   2  -1 1225.28   38.60
   2   2  -1 1126.79   38.30
  -2  -2   1 1146.49   36.80
   1   2  -1  556.84   18.10
  -1  -2   1  560.54   18.20
   0   2  -1 2576.74   82.09
   0   2  -1 2764.62   97.89
   0  -2   1 2521.35   81.99
   0  -2   1 2682.13   97.39
  -1   2  -1  750.02   44.10
  -1   2  -1  825.42   26.10
   1  -2   1  816.22   25.90
  -2   2  -1 1932.51   60.19
   2  -2   1 1852.41   59.59
  -3   2  -1    2.80    1.40
  -4   2  -1 1703.73   56.09
  -4   2  -1 1821.52   58.29
   4  -2   1 1844.72   58.69
   4  -2   1 1799.42   56.39
   4  -2   1 1761.42   55.39
  -5   2  -1  159.58    6.80
  -5   2  -1  163.38    6.10
  -5   2  -1  158.38    9.60
   5  -2   1  172.58    6.80
   6  -2   1  330.67   11.30
   6  -2   1  302.27   11.90
   6  -2   1  328.27   11.70
   7  -2   1  388.66   12.70
   7  -2   1  376.46   12.40
   7   1  -1  458.85   14.50
   7   1  -1  415.76   14.40
   6   1  -1  319.97   10.80
   6   1  -1  311.27   11.30
   6   1  -1  287.57   14.70
   5   1  -1 1869.91   65.29
   5   1  -1 1975.00   66.79
   4   1  -1 1424.16   47.10
   4   1  -1 1304.97   43.20
   4   1  -1 1383.56   48.40
   3   1  -1   10.50    2.00
  -3  -1   1    7.80    1.90
   2   1  -1 1468.45   44.30
   2   1  -1 1342.57   44.00
  -2  -1   1 1295.77   43.30
   1   1  -1  167.48    6.30
   1   1  -1  169.88    5.60
   0   1  -1  113.19    4.20
   0  -1   1  113.99    4.20
   0  -1   1  124.99    9.10
  -2   1  -1  132.09    5.30
   2  -1   1  130.89    4.90
   2  -1   1  129.39    5.50
  -3   1  -1  120.39    5.40
   3  -1   1  127.29    5.90
   3  -1   1  113.09    6.10
  -4   1  -1 1598.44   52.19
   4  -1   1 1625.54   51.39
   4  -1   1 1662.43   53.29
   4  -1   1 1582.44   54.99
   4  -1   1 1645.64   53.29
  -5   1  -1   66.49    7.50
   5  -1   1   70.79    4.00
   7  -1   1   20.40    1.70
   7  -1   1   19.00    1.90
   7   0  -1  178.38    6.70
   7   0  -1  181.08    6.60
   6   0  -1  278.17   10.50
   5   0  -1  450.55   20.10
   4   0  -1  348.57   16.40
  -4   0   1  344.77   13.60
   3   0  -1  822.62   28.10
  -3   0   1  812.62   26.70
  -2   0   1 1849.81   57.69
   1   0  -1  171.98    5.80
  -1   0   1  160.58    5.60
   0   0  -1  307.97    9.80
   0   0   1  317.37    9.80
   0   0   1  313.37   10.20
  -2   0  -1 2143.39   68.99
   2   0   1 2258.37   69.79
   2   0   1 2284.47   69.79
  -3   0  -1 2361.86   74.99
   3   0   1 2381.16   76.09
   3   0   1 2476.15   76.39
   4   0   1  532.75   19.90
   4   0   1  538.05   24.30
   5   0   1 1049.30   34.30
   5   0   1 1029.80   33.20
   5   0   1  975.90   37.30
   7   0   1  104.29    4.30
   7   0   1   97.99    4.20
   7   0   1  108.79    4.50
   7  -1  -1  172.38    6.40
   7  -1  -1  190.58    7.30
   6  -1  -1 1358.06   44.80
  -6   1   1 1450.75   44.60
   5  -1  -1 1612.04   55.99
   5  -1  -1 1678.43   52.49
  -5   1   1 1613.04   55.39
  -5   1   1 1661.53   51.99
   4  -1  -1    4.10    2.50
  -3   1   1 1945.91   61.79
   2  -1  -1 1175.08   37.30
  -2   1   1 1159.18   37.20
   1  -1  -1  449.06   14.70
   1  -1  -1  482.35   14.20
   1  -1  -1  430.56   14.80
  -1   1   1  450.45   14.80
   0  -1  -1 3197.78   98.59
  -1  -1  -1 1309.27   41.60
  -1  -1  -1 1371.76   41.60
   1   1   1 1393.96   42.60
   1   1   1 1309.47   41.90
   2   1   1  742.83   24.50
   2   1   1  748.13   25.10
   2   1   1  724.03   24.00
   3   1   1  597.44   21.10
   4   1   1  329.57   12.60
   4   1   1  335.17   13.70
   4   1   1  303.17   15.60
   4   1   1  318.87   11.60
   5   1   1 2071.49   70.89
   5   1   1 2088.49   65.59
   5   1   1 2059.19   66.49
   6   1   1   43.10    3.30
   6   1   1   46.50    3.10
   6   1   1   44.30    5.70
   6   1   1   44.80    3.20
   7   1   1  389.36   12.90
   7   1   1  382.66   13.00
   6  -2  -1  210.48    8.20
  -6   2   1  229.18    7.60
   5  -2  -1  284.27   10.40
  -5   2   1  268.37    9.50
  -5   2   1  269.87   13.70
   4  -2  -1  467.05   14.80
   4  -2  -1  463.65   15.80
  -4   2   1  440.06   14.90
  -4   2   1  454.65   17.50
   3  -2  -1 1826.62   58.29
  -3   2   1 1812.92   58.59
   2  -2  -1   83.09    4.00
   2  -2  -1   77.49    3.90
  -2   2   1   90.29    4.30
   1  -2  -1 4935.31  149.88
   1  -2  -1 4788.62  149.39
  -1   2   1 4803.62  149.99
  -2  -2  -1 6266.97  193.08
   3   2   1   15.20    3.20
   4   2   1 1462.85   46.40
   4   2   1 1476.15   47.80
   5   2   1  463.05   15.80
   5   2   1  429.36   20.30
   5   2   1  443.46   15.40
   5   2   1  458.65   16.80
   5   2   1  446.36   15.10
   6   2   1  344.67   12.20
   6   2   1  331.37   15.90
   6   2   1  340.37   12.10
   6   2   1  337.67   12.00
   7   2   1  335.67   12.40
   7   2   1  394.16   12.10
   6  -3  -1  593.74   19.90
  -6   3   1  603.34   18.90
  -6   3   1  593.34   19.10
   5  -3  -1   57.49    2.50
   5  -3  -1   53.99    3.40
  -5   3   1   54.19    2.80
  -5   3   1   50.29    8.10
   4  -3  -1 1186.28   37.00
   4  -3  -1 1140.79   37.90
  -4   3   1 1191.88   40.60
  -4   3   1 1190.88   37.00
   3  -3  -1 1048.70   33.50
  -3   3   1 1042.60   34.30
  -3   3   1 1099.89   36.30
   2  -3  -1  363.66   13.10
   2  -3  -1  349.96   13.10
  -2   3   1  354.86   13.50
   1  -3  -1  383.86   13.00
   1  -3  -1  404.66   14.00
  -1   3   1  388.86   14.10
   0   3   1   13.80    1.70
   1   3   1 7661.23  236.38
  -2  -3  -1   76.09   12.20
  -2  -3  -1   74.79    3.70
   2   3   1   78.79    5.10
  -3  -3  -1 1180.68   63.79
   3   3   1 1191.38   41.90
  -4  -3  -1 2105.89  146.09
   4   3   1 2088.49   66.09
   4   3   1 2151.48   67.59
   4   3   1 2130.79   65.89
   4   3   1 2013.30   65.89
   5   3   1   69.09    4.00
   5   3   1   65.39    7.80
   5   3   1   63.99    3.90
   5   3   1   68.29    3.60
   5   3   1   62.29    5.40
   5   3   1   54.89    4.90
   6   3   1  784.02   30.10
   6   3   1  825.32   26.10
   6  -4  -1  167.18    6.70
  -6   4   1  191.98    6.40
  -6   4   1  200.28    6.20
   5  -4  -1  249.18    8.20
  -5   4   1  245.58    8.30
  -5   4   1  240.78    8.60
   4  -4  -1  940.81   29.40
  -4   4   1  945.21   29.30
  -4   4   1  891.31   33.40
   3  -4  -1   10.50    1.70
   3  -4  -1   14.80    1.80
  -3   4   1   12.10    1.50
  -3   4   1   11.40    3.20
  -3   4   1   10.80    2.80
   2  -4  -1 2090.09   67.09
   2  -4  -1 2150.08   66.09
   2  -4  -1 2016.70   65.09
  -2   4   1 2197.78   68.49
  -2   4   1 1987.30   64.69
   1  -4  -1 9083.79  283.97
  -1   4   1 9232.38  284.27
   0  -4  -1 1402.26   46.40
   0   4   1 1446.86   46.30
  -1  -4  -1 7161.68  222.48
   1   4   1 7175.68  221.98
  -2  -4  -1  159.78    7.10
   2   4   1  168.48    7.90
   2   4   1  160.58    9.00
  -3  -4  -1 1403.06   45.10
  -3  -4  -1 1418.16   80.19
   3   4   1 1461.05   46.40
   3   4   1 1355.66   49.60
   4   4   1  500.95   18.60
   4   4   1  499.45   17.00
   5   4   1  275.07   11.10
   5   4   1  270.27    9.70
   5   4   1  261.37    9.80
   6   4   1  651.93   20.20
   6   4   1  610.64   24.10
   5  -5  -1  505.55   15.90
  -5   5   1  512.15   16.30
  -5   5   1  489.95   16.30
   4  -5  -1  295.77    9.80
  -4   5   1  270.77   14.60
  -4   5   1  290.17    9.60
  -4   5   1  293.87   10.00
   3  -5  -1  729.33   22.70
   3  -5  -1  701.13   22.80
  -3   5   1  684.33   23.00
  -3   5   1  716.53   22.50
  -3   5   1  704.53   22.90
  -3   5   1  707.53   27.00
   2  -5  -1   24.60    2.80
   2  -5  -1   28.20    2.30
   2  -5  -1   26.70    2.50
   2  -5  -1   23.50    4.00
  -2   5   1   25.00    2.70
  -2   5   1   24.90    4.10
   1  -5  -1   50.59    2.90
   1  -5  -1   52.99    4.40
   1  -5  -1   51.79    3.30
   1  -5  -1   50.29    2.60
  -1   5   1   52.19    3.10
  -1   5   1   53.79    5.00
  -1   5   1   48.30    2.50
  -1   5   1   45.20    2.70
   0  -5  -1 1870.11   60.99
   0  -5  -1 2032.50   63.79
   0  -5  -1 1857.71   60.59
   0   5   1 1959.20   63.49
   0   5   1 2004.70   61.29
   0   5   1 1887.91   60.89
   0   5   1 2071.79   63.79
  -1  -5  -1  385.36   12.80
  -1  -5  -1  378.26   14.60
  -1  -5  -1  357.76   13.90
   1   5   1  356.96   12.10
   1   5   1  393.16   14.70
   1   5   1  333.87   12.90
  -2  -5  -1  586.54   19.30
  -2  -5  -1  610.94   21.40
  -2  -5  -1  596.34   19.90
   2   5   1  570.94   18.90
   2   5   1  635.94   21.70
   2   5   1  566.54   19.70
   2   5   1  604.44   24.30
  -3  -5  -1  931.91   32.50
   3   5   1  993.20   31.80
   3   5   1  962.80   37.80
   3   5   1 1031.80   33.60
   4   5   1   29.00    4.40
   4   5   1   34.10    2.50
   4   5   1   21.10    6.40
   5   5   1  221.28    7.50
   5   5   1  175.88    8.60
   6   5   1  683.03   25.90
  -5   6   1  358.96   11.30
   4  -6  -1    0.50    0.70
  -4   6   1    0.90    0.70
  -4   6   1    1.70    0.70
   3  -6  -1 1255.57   38.60
   3  -6  -1 1234.78   38.40
  -3   6   1 1278.77   38.20
  -3   6   1 1181.58   38.60
  -3   6   1 1160.68   43.50
  -3   6   1 1229.78   38.60
   2  -6  -1  451.95   18.50
   2  -6  -1  457.55   15.20
   2  -6  -1  449.46   15.30
  -2   6   1  450.65   15.30
  -2   6   1  473.75   14.70
  -2   6   1  463.05   15.20
  -2   6   1  466.45   19.70
   1  -6  -1  440.36   14.70
   1  -6  -1  444.46   17.80
   1  -6  -1  437.56   14.70
   1  -6  -1  437.66   14.20
  -1   6   1  429.76   14.40
  -1   6   1  442.16   18.60
  -1   6   1  433.46   14.60
   0  -6  -1  619.44   20.70
   0  -6  -1  637.44   20.60
   0  -6  -1  623.54   23.60
   0  -6  -1  637.44   20.20
   0   6   1  634.74   20.40
  -1  -6  -1  140.89    8.00
  -1  -6  -1  143.89    5.80
  -1  -6  -1  144.69    5.40
   1   6   1  151.68    8.10
   1   6   1  140.69    9.80
   1   6   1  140.39    5.40
  -2  -6  -1  323.27   11.10
  -2  -6  -1  323.07   13.70
  -2  -6  -1  326.87   11.30
   2   6   1  327.37   11.60
   2   6   1  345.97   13.90
   2   6   1  328.17   10.80
   2   6   1  325.87   17.30
  -3  -6  -1  433.56   18.20
   3   6   1  487.75   16.20
   3   6   1  452.05   23.30
   3   6   1  522.35   19.20
  -4  -6  -1  203.98    7.80
   4   6   1  186.28    8.60
   4   6   1  194.78    7.30
   5   6   1  270.37    9.10
   5   6   1  255.17   12.70
   4  -7  -1  151.98    5.20
  -4   7   1  151.38    5.20
   3  -7  -1  230.18    7.80
   3  -7  -1  210.38    7.50
  -3   7   1  242.78    7.90
  -3   7   1  212.38    7.80
   2  -7  -1  103.99    4.20
   2  -7  -1  107.69    4.30
  -2   7   1  101.49    4.10
  -2   7   1  102.29    4.30
   1  -7  -1  624.34   19.40
   1  -7  -1  614.54   19.90
   1  -7  -1  615.84   19.90
   1  -7  -1  578.84   23.50
  -1   7   1  623.34   19.90
  -1   7   1  622.94   19.70
   0  -7  -1  120.49    5.60
   0  -7  -1  125.39    8.50
   0   7   1  114.69   11.80
  -1  -7  -1  328.77   17.40
  -1  -7  -1  337.37   11.50
  -1  -7  -1  335.37   11.20
   1   7   1  338.87   11.10
  -2  -7  -1  106.69    4.10
  -2  -7  -1  101.39    4.40
   2   7   1  107.89    4.00
   2   7   1   97.89    4.40
  -3  -7  -1   27.30    2.00
  -3  -7  -1   24.80    3.30
   3   7   1   27.50    2.10
  -4  -7  -1   98.89    3.90
   4   7   1   93.49    3.90
   3  -8  -1   75.49    2.80
  -3   8   1   71.09    3.20
   2  -8  -1  576.34   18.30
   2  -8  -1  584.84   18.20
  -2   8   1  589.64   18.30
  -2   8   1  545.25   18.20
   1  -8  -1   92.79    4.30
   1  -8  -1   89.99    3.90
  -1   8   1   90.19    3.80
   0  -8  -1  255.97    8.40
   0  -8  -1  254.37    8.80
   0   8   1  258.07    8.60
  -1  -8  -1  254.97    8.60
  -1  -8  -1  252.37    9.00
   1   8   1  275.47    8.90
  -2  -8  -1  154.78    5.40
  -2  -8  -1  155.48    5.60
  -3  -8  -1  178.48    6.00
   0  -9  -1  126.59    4.30
   0   9   1  120.29    4.20
  -1  -9  -1   40.30    1.60
  -1  -9  -1   37.50    1.80
  -3  -8   2  336.27   10.70
  -2  -8   2  378.06   12.10
  -2  -8   2  376.76   12.20
   1   8  -2   75.29    3.10
  -1  -8   2   73.79    3.00
  -1  -8   2   76.39    3.40
   0   8  -2  204.38    7.00
   0  -8   2  208.28    7.10
  -1   8  -2   17.10    1.70
   1  -8   2   19.30    1.80
   1  -8   2   18.70    1.70
  -2   8  -2    8.60    1.20
   2  -8   2   10.00    1.20
   2  -8   2    9.00    1.20
  -3   8  -2    5.80    0.80
  -3   8  -2    7.70    1.90
   3  -8   2    5.60    0.70
  -3  -7   2  654.53   21.30
  -3  -7   2  681.73   21.10
   2   7  -2  271.17    8.90
  -2  -7   2  264.17    8.90
  -2  -7   2  261.17    9.10
   1   7  -2  491.05   15.60
  -1  -7   2  492.45   15.80
  -1  -7   2  483.85   15.50
  -1  -7   2  459.55   19.90
   0   7  -2  418.46   13.30
   0  -7   2  421.96   13.10
   0  -7   2  417.56   13.50
   0  -7   2  342.57   22.00
   0  -7   2  411.96   13.50
  -1   7  -2    1.60    1.00
  -1   7  -2    3.00    1.00
   1  -7   2    2.00    4.60
   1  -7   2    2.20    0.90
   1  -7   2    1.90    1.10
   1  -7   2    2.10    0.90
  -2   7  -2  839.82   27.00
  -2   7  -2  857.31   27.00
   2  -7   2  855.01   27.00
   2  -7   2  854.31   26.90
  -3   7  -2  443.56   14.10
  -3   7  -2  428.66   14.10
   3  -7   2  421.26   13.80
   3  -7   2  442.36   14.00
  -4   7  -2   35.00    1.70
   4  -7   2   35.00    1.60
   5   6  -2   30.40    3.80
  -4  -6   2   94.79    3.90
   3   6  -2  168.18    6.30
   3   6  -2  131.99   14.60
  -3  -6   2  160.68   10.40
  -3  -6   2  164.48    5.80
  -3  -6   2  160.28    6.20
   2   6  -2  201.18    7.00
   2   6  -2  197.08   13.50
   2   6  -2  203.08    7.50
  -2  -6   2  200.58   10.50
  -2  -6   2  202.68    7.10
  -2  -6   2  203.78    7.30
   1   6  -2  715.23   22.40
   1   6  -2  670.73   22.80
  -1  -6   2  701.13   22.40
  -1  -6   2  722.93   22.70
  -1  -6   2  710.53   27.00
   0   6  -2  103.09    4.10
   0   6  -2   93.29    4.20
   0  -6   2  103.19    4.30
   0  -6   2  100.89    7.10
   0  -6   2  102.29    3.90
  -1   6  -2  254.07    8.80
  -1   6  -2  259.37   13.40
  -1   6  -2  254.17    9.00
   1  -6   2  254.07    8.60
   1  -6   2  252.77    9.10
   1  -6   2  255.37    9.00
   1  -6   2  277.57   15.40
  -2   6  -2  319.67   10.30
  -2   6  -2  305.07   10.70
  -2   6  -2  313.67   15.30
  -2   6  -2  320.67   10.70
   2  -6   2  310.17   10.60
   2  -6   2  308.17   14.90
   2  -6   2  318.07   10.70
  -3   6  -2   77.69    3.10
  -3   6  -2   77.89    3.40
  -3   6  -2   70.89    8.70
  -3   6  -2   72.89    3.70
   3  -6   2   75.99    3.40
   3  -6   2   81.99    3.40
  -4   6  -2  738.83   23.40
  -4   6  -2  735.73   23.10
   4  -6   2  732.83   23.20
  -5   6  -2   72.59    2.80
   5  -6   2   72.59    2.50
   6   5  -2   22.60    3.00
   5   5  -2   28.10    4.60
   4   5  -2 1246.38   36.40
   4   5  -2 1022.60   45.70
   3   5  -2  910.11   28.40
   3   5  -2  865.91   29.70
  -3  -5   2  859.11   27.70
  -3  -5   2  867.31   30.80
   2   5  -2  417.06   15.70
   2   5  -2  414.46   14.00
   2   5  -2  409.96   13.40
  -2  -5   2  428.36   16.50
  -2  -5   2  398.26   13.50
  -2  -5   2  409.36   13.70
   1   5  -2 1931.11   59.19
   1   5  -2 1804.62   59.59
   1   5  -2 1977.30   61.69
  -1  -5   2 1870.81   59.39
  -1  -5   2 1984.80   62.59
  -1  -5   2 1872.91   59.19
   0   5  -2  109.19    4.40
   0   5  -2  119.69    4.40
   0   5  -2  108.59    6.90
   0  -5   2  109.39    6.60
   0  -5   2  105.49    4.40
   0  -5   2  102.39    5.40
   0  -5   2  105.69    4.20
  -1   5  -2 1861.21   58.59
  -1   5  -2 1951.00   62.39
  -1   5  -2 1872.41   58.29
  -1   5  -2 1878.81   58.69
   1  -5   2 1830.92   58.69
   1  -5   2 1908.21   62.09
   1  -5   2 1889.91   58.69
   1  -5   2 1875.51   58.29
  -2   5  -2  384.76   13.30
  -2   5  -2  404.86   16.80
   2  -5   2  381.26   15.30
   2  -5   2  446.16   14.00
   2  -5   2  357.86   12.60
   2  -5   2  396.96   16.40
   2  -5   2  389.16   13.40
  -3   5  -2  306.17   14.50
  -3   5  -2  316.87   10.50
  -3   5  -2  310.27   10.10
  -3   5  -2  305.97   10.70
   3  -5   2  302.47   10.30
   3  -5   2  309.07   10.40
   3  -5   2  291.57   13.80
  -4   5  -2 1010.10   31.40
  -4   5  -2 1017.90   31.80
  -4   5  -2  951.40   36.30
   4  -5   2 1026.80   31.50
  -5   5  -2  244.38    8.30
  -5   5  -2  249.58    8.10
   5  -5   2  242.68    8.00
   6   4  -2   17.30    3.40
   6   4  -2   13.80    1.90
   5   4  -2  290.27   14.80
   4   4  -2   88.99   12.60
   4   4  -2   86.19    4.10
   3   4  -2 1614.74   51.49
   3   4  -2 1598.44   50.09
   3   4  -2 1559.64   55.89
  -3  -4   2 1497.25  103.09
  -3  -4   2 1664.03   51.79
   2   4  -2  567.24   19.00
  -2  -4   2  590.34   49.20
  -2  -4   2  647.14   21.50
   1   4  -2  781.82   26.70
  -1  -4   2  768.02   53.59
  -1  -4   2  810.42   27.10
   0   4  -2 1553.14   50.29
   0  -4   2 1525.75   50.19
  -1   4  -2 2754.92   86.89
   1  -4   2 2675.83   86.49
  -2   4  -2  220.48    7.90
  -2   4  -2  256.97   11.40
  -2   4  -2  223.18    7.50
   2  -4   2  218.18    7.80
   2  -4   2  193.58    8.80
   2  -4   2  232.18   10.10
  -3   4  -2 1375.86   43.30
  -3   4  -2 1400.16   43.70
  -3   4  -2 1430.66   47.40
   3  -4   2 1348.07   43.30
   3  -4   2 1417.86   43.50
   3  -4   2 1365.16   46.10
  -4   4  -2  567.44   18.20
  -4   4  -2  548.55   22.10
  -4   4  -2  569.14   17.90
   4  -4   2  568.74   17.90
   4  -4   2  537.75   18.80
   4  -4   2  554.14   21.30
  -5   4  -2  761.02   24.40
  -5   4  -2  754.62   24.20
   5  -4   2  783.82   24.00
   5  -4   2  761.62   25.00
  -6   4  -2   93.59    3.30
  -6   4  -2   89.79    3.50
   6  -4   2   82.79    3.90
   6   3  -2    5.40    1.50
   5   3  -2 1608.24   56.49
   4   3  -2 2183.88   68.29
   3   3  -2 2022.20   67.99
   3   3  -2 1961.90   63.39
  -3  -3   2 2101.99   64.49
  -2  -3   2 1949.30   59.49
  -2  -3   2 1787.82   89.79
   1   3  -2  490.95   17.30
  -1  -3   2  512.95   36.40
  -1  -3   2  512.85   17.50
   0   3  -2 4800.22  147.09
   0  -3   2 4648.83  146.99
  -1   3  -2    4.70    1.40
   1  -3   2    6.30    1.70
  -2   3  -2 4889.41  150.58
   2  -3   2 4715.53  149.88
  -3   3  -2  413.96   14.10
   3  -3   2  456.05   16.60
   3  -3   2  434.76   14.80
   3  -3   2  439.56   14.20
  -4   3  -2  750.42   27.00
  -4   3  -2  753.42   24.50
   4  -3   2  739.53   23.40
   4  -3   2  701.43   24.40
   4  -3   2  759.92   26.90
  -5   3  -2 1221.68   39.70
  -5   3  -2 1218.68   39.50
   5  -3   2 1272.27   39.20
   5  -3   2 1342.37   41.40
   5  -3   2 1264.27   40.80
  -6   3  -2   27.70    1.60
   6  -3   2   27.60    2.20
   6   2  -2  243.38   12.40
   6   2  -2  230.58   10.20
   6   2  -2  253.37    9.30
   5   2  -2  763.42   30.10
   4   2  -2 1395.46   45.20
   4   2  -2 1473.65   49.99
   3   2  -2 3298.47  106.79
   3   2  -2 3358.46  107.19
  -3  -2   2 3363.06  104.19
   2   2  -2  245.58   10.30
  -2  -2   2  267.57    9.30
   1   2  -2 4370.96  138.19
   1   2  -2 4440.56  138.89
  -1  -2   2 4585.84  138.29
  -1   2  -2   34.00    2.30
  -1   2  -2   30.50    7.20
   1  -2   2   28.70    2.20
  -2   2  -2 3515.45  109.39
   2  -2   2 3471.45  108.89
  -3   2  -2   76.79    4.60
   3  -2   2   78.29    4.70
   3  -2   2   71.59    4.00
  -4   2  -2  389.36   15.30
   4  -2   2  405.86   15.90
   4  -2   2  386.16   12.70
   4  -2   2  399.36   13.70
  -5   2  -2  275.37    9.50
  -5   2  -2  268.77   12.60
   5  -2   2  289.57   10.30
   6  -2   2   66.99    3.50
   6  -2   2   66.89    3.70
   6  -2   2   70.39    6.50
   7  -2   2  328.47   10.90
   7  -2   2  334.87   11.10
   7   1  -2    3.20    0.90
   7   1  -2    3.50    1.10
   5   1  -2 2482.15   81.79
   5   1  -2 2371.36   81.39
   4   1  -2 2757.32   85.49
   4   1  -2 2726.93   84.59
   4   1  -2 2560.54   80.09
  -4  -1   2 2252.27   81.19
   3   1  -2 1917.11   60.79
  -3  -1   2 1789.62   59.39
   2   1  -2 1452.25   43.60
   2   1  -2 1299.97   43.90
  -2  -1   2 1286.57   43.10
   1   1  -2 4849.71  150.08
   0   1  -2   15.30    1.00
   0  -1   2   15.90    1.20
   0  -1   2   14.90    3.60
  -2   1  -2 3562.44  110.99
   2  -1   2 3563.04  110.69
   2  -1   2 3591.84  110.49
  -3   1  -2 4947.60  153.48
   3  -1   2 4914.01  154.28
   3  -1   2 4953.20  153.58
  -4   1  -2 1484.95   48.10
   4  -1   2 1461.35   47.20
   4  -1   2 1482.45   48.70
   4  -1   2 1521.35   49.40
  -5   1  -2    4.50    4.20
   5  -1   2    1.90    1.00
   6  -1   2  111.49    5.30
   6  -1   2  114.79    5.00
   6  -1   2  113.99    6.30
   7  -1   2  336.97   11.30
   7  -1   2  320.97   11.00
   7   0  -2  257.67    9.20
   7   0  -2  259.37    9.00
   6   0  -2  111.69    5.30
  -6   0   2  111.29    5.50
   5   0  -2    6.10    3.70
   5   0  -2    3.70    2.50
   4   0  -2 3147.98  101.39
   4   0  -2 3070.59  100.29
  -4   0   2 3066.39   98.79
  -3   0   2  130.19    6.00
  -1   0   2 1847.52   57.59
   0   0  -2  318.67   10.30
   0   0   2  325.37   11.00
   0   0   2  328.47   10.30
  -1   0  -2  469.85   14.40
   1   0   2  453.65   14.60
  -2   0  -2 1013.00   32.10
   2   0   2 1044.20   33.00
   2   0   2 1008.40   32.60
  -3   0  -2 1053.79   33.40
   3   0   2 1037.90   34.60
   3   0   2 1062.19   34.50
   4   0   2  689.53   22.80
   4   0   2  703.93   24.50
   4   0   2  698.43   24.60
   4   0   2  669.13   26.40
   5   0   2  185.18    9.00
   5   0   2  179.88   10.70
   5   0   2  182.98    7.50
   6   0   2  534.75   19.20
   6   0   2  540.65   18.30
   6   0   2  544.45   18.70
   7   0   2   37.10    2.30
   7   0   2   40.10    3.70
   7  -1  -2  180.88    6.60
   7  -1  -2  179.78    6.30
   6  -1  -2    5.30    1.60
  -6   1   2    5.70    1.50
   5  -1  -2 1842.42   56.69
   5  -1  -2 1789.62   60.89
  -5   1   2 1699.53   59.89
  -5   1   2 1758.62   55.39
   4  -1  -2  441.66   19.30
   4  -1  -2  451.45   18.40
   4  -1  -2  425.66   14.30
  -4   1   2  455.35   17.10
  -3   1   2 1434.46   46.40
  -2   1   2 1947.91   61.39
   1  -1  -2  318.67   10.40
  -1   1   2  324.27   11.00
   0  -1  -2 2850.91   88.79
   0   1   2 2925.61   88.99
   0   1   2 2853.11   88.99
   2   1   2 2405.06   75.69
   2   1   2 2348.17   74.29
   3   1   2 1532.65   49.30
   4   1   2  127.49   11.80
   4   1   2  116.39    8.60
   5   1   2  908.41   29.60
   5   1   2  915.51   30.90
   5   1   2  885.51   34.10
   6   1   2  534.85   18.40
   6   1   2  549.35   19.60
   6   1   2  554.54   18.60
   6   1   2  563.74   19.00
   7   1   2   25.30    1.80
   7   1   2   28.20    2.60
   7   1   2   27.20    2.00
  -6   2   2    4.00    1.00
   5  -2  -2  420.96   19.60
   5  -2  -2  446.36   15.10
   5  -2  -2  407.86   13.80
  -5   2   2  430.06   14.10
  -5   2   2  412.86   19.00
   4  -2  -2   27.70    3.10
   4  -2  -2   25.60    2.10
  -4   2   2   29.00    2.60
  -4   2   2   25.60    4.00
  -4   2   2   19.80    3.00
   3  -2  -2 1633.24   52.69
  -3   2   2 1744.73   54.79
  -2   2   2  221.68    8.80
   1  -2  -2 1338.97   40.40
   1  -2  -2 1294.27   41.30
  -1   2   2 1272.17   41.50
   0  -2  -2  794.22   26.30
   0   2   2  857.31   39.50
   0   2   2  809.62   26.40
  -1  -2  -2  984.90   31.90
   1   2   2 1027.80   33.00
   1   2   2 1014.90   31.90
  -2  -2  -2 2242.28   70.19
  -2  -2  -2 2286.67   84.99
   2   2   2 2268.77   72.59
   3   2   2  754.22   27.90
   4   2   2   29.30    3.90
   5   2   2  956.60   31.20
   5   2   2  919.21   35.80
   5   2   2  972.80   32.40
   5   2   2  950.60   30.70
   5   2   2  924.91   30.50
   5   2   2  978.60   31.00
   6   2   2    2.80    2.00
   6   2   2    0.20    0.90
   6   2   2    1.10    1.20
   6   2   2    1.10    2.40
   7   2   2  450.85   14.80
  -6   3   2 1944.71   60.29
   5  -3  -2  101.19    4.90
   5  -3  -2  102.59    3.90
  -5   3   2   85.59   12.20
  -5   3   2  102.39    4.10
   4  -3  -2 1223.38   39.90
   4  -3  -2 1256.67   39.10
  -4   3   2 1240.98   42.80
  -4   3   2 1251.67   39.10
   3  -3  -2  872.21   27.90
  -3   3   2  860.21   28.10
  -3   3   2  935.31   30.80
  -3   3   2  849.52   27.80
   2  -3  -2  180.38    6.80
   2  -3  -2  188.28    7.80
  -2   3   2  189.48    8.30
   1  -3  -2 2533.15   79.19
  -1   3   2 2493.15   79.39
   0  -3  -2  431.36   15.20
   0   3   2  444.96   15.30
  -1  -3  -2 1177.08   37.30
   1   3   2 1124.39   36.70
  -2  -3  -2  248.08    9.40
  -2  -3  -2  272.07   22.20
   2   3   2  271.97   11.70
  -3  -3  -2   61.59   13.30
   3   3   2   61.69    5.60
   3   3   2   59.59    4.90
   4   3   2  863.41   28.30
   4   3   2  800.22   26.60
   4   3   2  772.72   26.60
   5   3   2 1050.29   35.20
   5   3   2 1069.49   40.90
   5   3   2 1097.59   35.30
   5   3   2 1128.59   37.00
   5   3   2 1115.89   35.50
   5   3   2 1120.69   35.20
   6  -4  -2   41.00    3.10
  -6   4   2   53.09    2.00
  -6   4   2   49.20    2.50
   5  -4  -2   68.29    2.80
  -5   4   2   65.29    3.30
   4  -4  -2  875.01   28.30
  -4   4   2  913.71   28.20
  -4   4   2  878.41   32.70
   3  -4  -2   61.69    3.50
   3  -4  -2   64.99    3.40
  -3   4   2   56.09    4.90
  -3   4   2   63.29    5.50
  -3   4   2   58.79    3.40
   2  -4  -2  934.51   30.50
   2  -4  -2  966.40   32.50
   2  -4  -2  909.51   30.40
  -2   4   2  920.31   30.10
  -2   4   2 1072.59   35.00
   1  -4  -2  674.83   23.50
  -1   4   2  678.93   23.80
   0  -4  -2  413.56   15.00
   0   4   2  403.56   15.00
  -1  -4  -2 8237.38  254.27
   1   4   2 8169.58  253.77
  -2  -4  -2  223.08    8.90
   2   4   2  220.78   11.10
  -3  -4  -2  561.84   19.30
   3   4   2  564.14   24.00
   3   4   2  609.84   21.20
   4   4   2  423.76   14.90
   4   4   2  437.56   16.60
   4   4   2  423.36   14.80
   5   4   2   52.49    4.70
   5   4   2   58.69    3.30
   6   4   2  601.74   18.70
   6   4   2  551.74   22.00
   5  -5  -2  328.37   10.80
  -5   5   2  345.17   11.20
  -5   5   2  339.87   10.90
   4  -5  -2  527.25   17.40
  -4   5   2  531.95   17.60
  -4   5   2  547.55   17.30
   3  -5  -2   18.10    1.90
   3  -5  -2   16.00    1.80
  -3   5   2   17.20    2.30
  -3   5   2   19.00    1.60
  -3   5   2   25.40    5.20
   2  -5  -2 1514.25   45.00
   2  -5  -2 1432.16   47.00
   2  -5  -2 1218.98   45.40
   2  -5  -2 1413.16   43.70
  -2   5   2 1424.46   44.50
  -2   5   2 1438.06   48.10
  -2   5   2 1404.76   44.00
   1  -5  -2   36.70    3.70
   1  -5  -2   33.50    2.50
   1  -5  -2   33.70    3.00
   1  -5  -2   33.50    2.20
  -1   5   2   31.60    2.20
  -1   5   2   31.70    2.60
  -1   5   2   30.00    4.20
   0  -5  -2  569.14   20.30
   0  -5  -2  531.75   17.70
   0  -5  -2  522.85   18.00
   0   5   2  538.55   17.90
   0   5   2  542.65   20.40
   0   5   2  596.24   20.80
  -1  -5  -2 1553.64   49.80
  -1  -5  -2 1640.04   51.99
  -1  -5  -2 1499.65   49.30
   1   5   2 1546.95   49.40
   1   5   2 1673.03   52.19
  -2  -5  -2 1503.65   48.30
  -2  -5  -2 1364.96   46.10
  -2  -5  -2 1408.36   46.50
   2   5   2 1604.74   49.10
   2   5   2 1532.25   52.09
   2   5   2 1448.06   45.90
  -3  -5  -2 1071.09   36.90
   3   5   2 1143.89   36.40
   3   5   2 1203.78   38.50
   3   5   2 1106.29   42.60
   4   5   2  513.95   17.80
   4   5   2  531.35   19.80
   5   5   2  709.33   25.80
   5   5   2  725.53   23.40
   6   5   2  243.48   10.50
  -5   6   2  344.47   11.10
   4  -6  -2   20.80    1.60
  -4   6   2   21.80    1.50
  -4   6   2   22.60    1.70
   3  -6  -2  294.57   10.10
   3  -6  -2  300.17   10.30
  -3   6   2  302.57    9.80
  -3   6   2  289.57   10.40
  -3   6   2  298.17   10.30
   2  -6  -2  760.32   23.80
   2  -6  -2  738.83   23.90
   2  -6  -2  722.93   27.00
  -2   6   2  734.43   23.20
  -2   6   2  744.13   28.50
  -2   6   2  733.13   23.80
  -2   6   2  726.93   23.90
   1  -6  -2  336.07   13.30
   1  -6  -2  366.56   12.50
   1  -6  -2  368.56   11.90
   1  -6  -2  352.66   19.70
   1  -6  -2  359.76   12.30
  -1   6   2  378.76   16.60
  -1   6   2  363.16   12.30
  -1   6   2  362.76   12.20
   0  -6  -2 3426.06  106.39
   0  -6  -2 3348.17  103.09
   0  -6  -2 3343.97  103.09
   0  -6  -2 3280.87  102.69
   0   6   2 3165.18  102.79
   0   6   2 3362.46  102.89
  -1  -6  -2 1302.57   42.40
  -1  -6  -2 1333.47   45.30
  -1  -6  -2 1312.37   42.10
   1   6   2 1321.27   47.70
   1   6   2 1337.27   42.80
   1   6   2 1424.36   45.50
   1   6   2 1368.76   42.10
  -2  -6  -2 1787.42   57.29
  -2  -6  -2 1834.42   57.49
  -2  -6  -2 1805.82   59.99
   2   6   2 1823.92   56.99
   2   6   2 1801.42   64.29
   2   6   2 1824.62   57.89
   2   6   2 1993.60   60.69
  -3  -6  -2  209.48   11.30
   3   6   2  218.98   15.30
   3   6   2  248.98    9.10
   3   6   2  248.18   11.40
  -4  -6  -2   68.49    5.70
   4   6   2   85.79    4.00
   4   6   2   85.39    5.40
   5   6   2  536.05   21.70
   5   6   2  571.24   18.00
   4  -7  -2   20.50    1.30
  -4   7   2   21.50    1.40
   3  -7  -2  527.55   17.80
   3  -7  -2  517.95   16.90
  -3   7   2  551.34   17.30
  -3   7   2  536.75   17.80
   2  -7  -2   44.60    2.50
   2  -7  -2   38.90    2.40
  -2   7   2   39.20    2.30
  -2   7   2   47.60    2.60
   1  -7  -2  219.28   11.90
   1  -7  -2  238.08    7.90
   1  -7  -2  233.88    8.40
   1  -7  -2  240.98    8.40
  -1   7   2  239.18    8.10
  -1   7   2  231.08    8.30
   0  -7  -2  438.16   15.90
   0  -7  -2  476.65   15.50
   0  -7  -2  494.25   21.10
   0  -7  -2  464.15   15.80
   0   7   2  502.55   28.10
   0   7   2  474.45   15.60
  -1  -7  -2  178.18    6.20
  -1  -7  -2  142.39   12.60
  -1  -7  -2  177.88    6.50
   1   7   2  159.78   14.80
   1   7   2  178.18    6.10
  -2  -7  -2 1220.38   37.80
  -2  -7  -2 1232.28   38.00
   2   7   2 1211.58   40.90
   2   7   2 1224.38   37.50
   2   7   2 1138.59   38.10
  -3  -7  -2   78.49    3.30
   3   7   2   73.19    5.10
   3   7   2   73.79    3.50
   4   7   2  500.65   16.30
  -3   8   2  293.67    9.60
   2  -8  -2    2.20    0.80
   2  -8  -2    1.60    0.90
  -2   8   2    1.40    0.80
  -2   8   2    1.10    1.10
   1  -8  -2  483.55   15.20
  -1   8   2  445.86   15.60
   0  -8  -2  215.98    7.60
   0  -8  -2  214.58    7.20
   0   8   2  212.78    7.40
  -1  -8  -2  445.46   14.40
  -1  -8  -2  454.55   16.00
  -2  -8  -2  138.49    5.10
  -2  -8  -2  137.39    4.90
  -3  -8  -2    2.10    0.70
   0  -9  -2   39.70    1.80
   0   9   2   37.20    1.70
  -1  -9  -2  266.67    8.40
  -1  -9  -2  265.87    8.70
  -3  -8   3  170.38    5.60
  -2  -8   3  843.52   26.70
  -2  -8   3  861.91   26.60
   1   8  -3  598.34   18.80
  -1  -8   3  592.84   18.90
  -1  -8   3  588.54   18.70
   0   8  -3  550.94   17.10
   0  -8   3  469.35   15.90
   0  -8   3  497.65   16.80
  -1   8  -3  499.65   16.00
   1  -8   3  502.15   16.00
   1  -8   3  499.75   16.00
  -2   8  -3    5.80    0.80
  -2   8  -3    3.20    1.10
   2  -8   3    8.30    1.10
   2  -8   3    5.60    0.80
  -3   8  -3  291.67    9.70
   3  -8   3  303.67    9.50
  -4  -7   3  184.98    6.10
  -3  -7   3   66.79    3.40
  -3  -7   3   63.89    3.30
   2   7  -3    7.20    1.10
  -2  -7   3    9.00    1.30
  -2  -7   3   12.60    1.70
   1   7  -3    0.50    0.80
  -1  -7   3   -0.10    4.50
  -1  -7   3    1.60    0.80
  -1  -7   3    2.60    1.00
   0   7  -3  691.13   21.50
   0  -7   3  626.44   26.20
   0  -7   3  680.03   21.20
   0  -7   3  666.83   21.60
   0  -7   3  691.23   21.60
  -1   7  -3   47.30    2.50
  -1   7  -3   43.20    2.60
   1  -7   3   44.30    2.20
   1  -7   3   47.10    2.70
   1  -7   3   54.59    2.60
  -2   7  -3  151.88    5.70
  -2   7  -3  154.78    5.60
   2  -7   3  154.78    5.60
   2  -7   3  153.78    5.60
  -3   7  -3  570.04   19.40
  -3   7  -3  682.13   20.40
   3  -7   3  574.54   19.40
  -4   7  -3    2.50    0.60
   4  -7   3    2.70    0.50
   5   6  -3  342.27   13.80
  -4  -6   3   59.09    2.80
   3   6  -3 2121.59   86.39
  -3  -6   3 2417.26   71.99
  -3  -6   3 2435.86   72.19
   2   6  -3  220.48   14.90
   2   6  -3  227.08    7.80
  -2  -6   3  228.88   11.80
  -2  -6   3  233.38    8.10
  -2  -6   3  232.38    7.80
   1   6  -3  951.20   30.10
  -1  -6   3  963.30   30.30
  -1  -6   3  968.70   30.10
  -1  -6   3  936.61   34.30
   0   6  -3  417.96   14.20
   0   6  -3  439.36   14.30
   0  -6   3  438.06   14.40
   0  -6   3  424.36   14.00
   0  -6   3  460.95   20.50
   0  -6   3  425.96   14.40
  -1   6  -3  150.68    5.60
  -1   6  -3  143.29   12.80
  -1   6  -3  149.19    5.70
   1  -6   3  157.08    5.80
   1  -6   3  151.28    5.30
   1  -6   3  151.88    5.80
   1  -6   3  155.38    9.70
  -2   6  -3  240.68   13.30
  -2   6  -3  245.18    8.50
  -2   6  -3  242.98    8.60
  -2   6  -3  242.98    8.10
   2  -6   3  240.88    8.50
   2  -6   3  247.98   13.40
   2  -6   3  245.68    8.40
  -3   6  -3    1.00    1.40
  -3   6  -3    3.50    0.80
  -3   6  -3    2.80    0.80
  -3   6  -3    1.50    5.60
   3  -6   3    4.00    0.90
   3  -6   3    2.30    1.20
  -4   6  -3   26.40    1.70
  -4   6  -3   26.50    1.50
   4  -6   3   28.60    1.60
  -5   6  -3   54.49    2.50
  -5   6  -3   51.09    2.20
   5   5  -3   32.30    4.80
  -5  -5   3   32.20    4.60
  -4  -5   3  190.28    6.80
   3   5  -3  489.85   15.00
   3   5  -3  487.75   15.90
   3   5  -3  435.46   22.80
  -3  -5   3  472.35   18.50
  -3  -5   3  462.95   15.50
  -3  -5   3  476.05   15.30
  -2  -5   3  450.75   14.70
  -2  -5   3  447.46   14.90
  -2  -5   3  460.95   18.00
   1   5  -3 1306.87   41.60
   1   5  -3 1326.67   41.20
  -1  -5   3 1292.97   41.30
  -1  -5   3 1356.16   44.80
  -1  -5   3 1307.77   41.10
   0   5  -3   11.30    3.50
   0   5  -3    8.50    1.30
   0   5  -3    6.80    1.10
   0  -5   3    6.80    1.20
   0  -5   3    8.40    2.50
   0  -5   3    9.10    1.10
   0  -5   3    9.20    2.00
  -1   5  -3  587.94   18.80
  -1   5  -3  580.44   18.90
  -1   5  -3  582.44   18.60
  -1   5  -3  593.04   22.50
   1  -5   3  586.04   18.90
   1  -5   3  589.24   22.20
   1  -5   3  580.64   18.60
   1  -5   3  592.44   19.00
  -2   5  -3 1125.69   36.60
  -2   5  -3 1171.88   37.00
  -2   5  -3 1170.98   41.20
  -2   5  -3 1121.89   37.00
   2  -5   3 1259.37   38.20
   2  -5   3 1162.18   40.70
   2  -5   3 1212.58   37.20
  -3   5  -3    5.10    0.80
  -3   5  -3    5.70    1.10
  -3   5  -3    4.90    1.70
   3  -5   3    2.50    0.80
   3  -5   3    4.60    1.30
  -4   5  -3  571.84   24.20
  -4   5  -3  600.84   19.10
  -4   5  -3  617.54   19.40
   4  -5   3  608.14   19.20
  -5   5  -3  373.46   12.60
  -5   5  -3  405.66   12.80
   5  -5   3  380.56   12.30
   6   4  -3   99.99    4.40
   6   4  -3  106.99    6.30
   5   4  -3  102.89    7.70
   4   4  -3  830.62   26.90
   4   4  -3  829.42   35.80
   3   4  -3  184.58   12.50
   3   4  -3  199.18    6.80
  -3  -4   3  207.78    9.30
   2   4  -3 2053.79   62.59
   2   4  -3 1867.01   62.09
  -2  -4   3 2149.69   65.89
  -2  -4   3 1941.61  108.39
   1   4  -3  282.97   11.40
   1   4  -3  254.17    9.20
  -1  -4   3  273.47   32.70
  -1  -4   3  292.47   11.50
   0   4  -3  857.61   29.40
   0  -4   3  847.82   29.40
  -1   4  -3  571.04   19.90
  -1   4  -3  662.63   22.90
   1  -4   3  631.04   20.10
   1  -4   3  626.34   22.40
  -2   4  -3    5.10    1.10
  -2   4  -3    0.60    1.70
  -2   4  -3    1.80    1.90
  -2   4  -3    2.10    0.80
   2  -4   3    2.60    1.20
   2  -4   3    2.70    2.00
   2  -4   3    2.40    1.00
  -3   4  -3  767.12   24.80
  -3   4  -3  777.52   24.50
  -3   4  -3  793.52   28.60
   3  -4   3  756.42   24.80
   3  -4   3  750.82   24.50
   3  -4   3  808.72   28.00
  -4   4  -3  271.17    9.10
  -4   4  -3  280.07    9.50
  -4   4  -3  272.67   13.30
   4  -4   3  265.67   10.00
   4  -4   3  280.57    9.20
   4  -4   3  266.47   12.80
  -5   4  -3  123.79    4.80
  -5   4  -3  126.39    4.60
   5  -4   3  126.49    5.40
   5  -4   3  126.89    4.40
  -6   4  -3  641.44   19.00
  -6   4  -3  609.14   19.00
   6  -4   3  558.54   19.80
   6   3  -3  146.19    6.10
   6   3  -3  151.78    8.50
   4   3  -3  537.15   17.80
   3   3  -3   40.30    2.80
   3   3  -3   46.00    6.10
   3   3  -3   46.60    2.80
  -3  -3   3   47.70    3.80
  -2  -3   3 2259.07  114.79
  -2  -3   3 2458.65   74.89
   1   3  -3  416.56   14.70
  -1  -3   3  419.96   14.80
  -1  -3   3  389.46   33.70
   0   3  -3 2637.84   82.19
   0  -3   3 2565.04   82.09
  -1   3  -3 1835.72   58.59
   1  -3   3 1808.32   58.39
  -2   3  -3   40.00    3.60
   2  -3   3   51.09    3.70
  -3   3  -3 1576.74   53.59
   3  -3   3 1833.62   56.49
   3  -3   3 1462.15   50.39
  -4   3  -3  408.26   16.70
   4  -3   3  398.06   13.90
   4  -3   3  404.96   16.60
   4  -3   3  405.96   13.10
  -5   3  -3 1065.79   33.10
  -5   3  -3 1029.80   40.80
  -5   3  -3 1021.30   32.90
   5  -3   3 1055.99   32.50
   5  -3   3 1067.59   34.10
  -6   3  -3  281.47    9.20
   6  -3   3  278.17    9.90
   6   2  -3  720.63   24.40
   6   2  -3  752.62   27.80
   6   2  -3  747.53   24.60
   5   2  -3  146.39    9.60
   4   2  -3  189.98   11.10
   4   2  -3  185.08    7.00
  -4  -2   3  184.98    8.40
   3   2  -3 2857.31   90.29
   3   2  -3 3014.40   94.19
   3   2  -3 2971.90   93.99
  -3  -2   3 2802.92   91.49
   2   2  -3  143.49    7.20
  -2  -2   3  155.78    6.40
   1   2  -3  217.58    8.10
   1   2  -3  217.38    8.50
  -1  -2   3  216.38    8.20
   0   2  -3 2932.71   89.29
   0  -2   3 2756.32   89.09
   0  -2   3 2879.21  109.39
  -1   2  -3  190.18   17.40
  -1   2  -3  193.08    7.50
   1  -2   3  180.78    7.30
  -2   2  -3 2998.30   93.39
   2  -2   3 2932.11   92.89
  -3   2  -3 1422.26   46.40
   3  -2   3 1405.56   46.60
  -4   2  -3  138.09    5.70
  -4   2  -3  155.48    6.50
  -4   2  -3  151.48    7.80
   4  -2   3  142.29    5.20
   4  -2   3  151.18    8.10
   4  -2   3  153.38    6.20
  -5   2  -3 1657.23   57.69
   5  -2   3 1804.42   55.69
   5  -2   3 1817.72   56.19
  -6   2  -3  154.38    5.60
   6  -2   3  156.28    6.40
   7  -2   3  491.85   16.20
   7  -2   3  505.15   16.00
   6   1  -3 1022.90   33.40
   5   1  -3  547.65   24.50
   5   1  -3  587.64   24.00
   4   1  -3   41.50    4.90
   4   1  -3   42.50    5.40
  -4  -1   3   36.90    4.60
   3   1  -3 3445.56  109.89
  -3  -1   3 3433.86  108.49
   2   1  -3   87.19    4.60
   2   1  -3   90.29    3.90
  -2  -1   3   86.49    4.70
  -1  -1   3 3062.99   95.59
   0  -1   3 3013.20   93.49
  -1   1  -3 2317.67   82.09
   1  -1   3 2315.97   70.79
   1  -1   3 2245.38   71.49
  -2   1  -3 3743.83  112.79
   2  -1   3 3505.35  112.29
  -3   1  -3  140.19    6.30
   3  -1   3  139.89    5.90
   3  -1   3  153.58    7.10
  -4   1  -3 2321.17   75.49
   4  -1   3 2337.47   74.49
   4  -1   3 2480.75   77.29
   5  -1   3  882.91   28.80
   6  -1   3  316.57   12.50
   6  -1   3  315.77   11.20
   6  -1   3  312.67   11.60
   7  -1   3  172.28    6.40
   7  -1   3  169.68    6.20
   6   0  -3  355.56   12.90
  -6   0   3  353.06   11.90
   5   0  -3  213.48   11.70
   5   0  -3  194.28   12.10
  -5   0   3  158.68   15.60
   4   0  -3 3785.02  120.49
   4   0  -3 4016.20  126.29
   4   0  -3 3943.81  126.19
  -4   0   3 3908.01  124.59
  -3   0   3  284.87   11.60
  -2   0   3 2583.94   81.29
  -1   0   3 3726.53  115.89
   0   0   3  412.26   13.40
   0   0   3  366.06   13.40
   1   0   3 6258.77  198.48
  -2   0  -3 2912.21   89.69
  -3   0  -3 1086.99   34.60
   3   0   3 1083.29   35.90
   4   0   3  552.64   22.60
   4   0   3  612.54   21.60
   4   0   3  585.24   19.40
   5   0   3   49.70    3.20
   5   0   3   40.90    5.70
   6   0   3 1197.98   38.90
   6   0   3 1191.18   38.50
   6   0   3 1219.28   40.00
   7   0   3  183.48    6.80
   7   0   3  189.38    6.90
   6  -1  -3  364.56   13.20
  -6   1   3  377.26   12.30
   5  -1  -3  410.16   19.60
  -5   1   3  427.66   19.80
  -5   1   3  427.46   14.10
   4  -1  -3 3714.53  115.29
   4  -1  -3 3962.20  121.19
  -4   1   3 3850.91  119.19
  -4   1   3 3577.54  115.69
  -4   1   3 3577.24  115.49
  -3   1   3    4.50    1.70
  -2   1   3 4584.74  142.69
   1  -1  -3 2028.90   63.19
  -1   1   3 2043.00   63.89
   0  -1  -3 3513.45  108.39
   0   1   3 3553.84  109.09
   0   1   3 3488.45  108.99
   1   1   3 7816.52  240.48
   2   1   3  636.54   21.00
   4   1   3   86.39    4.40
   4   1   3   79.29    8.10
   4   1   3   89.39    5.70
   5   1   3  378.36   14.90
   5   1   3  462.65   15.40
   5   1   3  456.75   17.00
   5   1   3  441.96   19.10
   5   1   3  461.75   15.70
   6   1   3  143.89    5.90
   6   1   3  143.29    6.00
   6   1   3  140.29    7.30
   6   1   3  139.79    6.10
   7   1   3    3.00    0.90
   7   1   3    2.60    1.40
   6  -2  -3  111.09    5.00
  -6   2   3  125.59    4.50
   5  -2  -3  670.23   20.40
   5  -2  -3  663.63   22.30
  -5   2   3  658.13   20.90
  -5   2   3  587.34   28.30
  -4   2   3 1559.44   49.30
  -4   2   3 1554.84   49.00
  -4   2   3 1587.34   52.69
   3  -2  -3 1249.38   41.70
  -3   2   3 1413.06   44.30
  -2   2   3 3936.81  123.19
   1  -2  -3   28.80    2.00
   1  -2  -3   30.90    1.60
  -1   2   3   28.10    2.20
   0  -2  -3 5096.69  159.08
   0   2   3 5248.88  159.48
   0   2   3 5104.09  159.38
  -1  -2  -3 2213.88   71.69
   1   2   3 2406.36   73.09
   1   2   3 2293.77   72.19
  -2  -2  -3  586.24   27.50
  -2  -2  -3  538.65   18.10
   2   2   3  572.24   20.60
   4   2   3  292.07   12.20
   4   2   3  298.17   10.50
   4   2   3  302.97   10.90
   4   2   3  286.47   10.70
   5   2   3 1030.50   32.90
   5   2   3  990.20   32.70
   5   2   3 1036.80   33.20
   5   2   3 1032.80   32.70
   5   2   3  960.00   37.10
   5   2   3 1045.20   34.80
   6   2   3  165.68    8.00
   6   2   3  164.48    6.90
   6   2   3  172.48    6.60
   6   2   3  171.18    6.80
   6   2   3  152.18    9.30
   7   2   3   89.19    3.90
  -6   3   3    4.00    1.40
   5  -3  -3  828.12   25.60
   5  -3  -3  752.72   26.40
  -5   3   3  856.81   26.00
   4  -3  -3    6.40    1.20
   4  -3  -3    6.60    2.30
  -4   3   3    4.20    1.20
   3  -3  -3 2571.24   80.99
   3  -3  -3 2531.15   79.99
   3  -3  -3 2639.84   80.19
  -3   3   3 2654.73   83.29
  -3   3   3 2529.35   79.99
  -3   3   3 2561.24   80.29
  -2   3   3  341.17   13.30
   1  -3  -3 1487.95   47.90
   1  -3  -3 1515.25   46.70
  -1   3   3 1487.05   48.30
   0  -3  -3 1971.80   62.89
   0   3   3 2009.40   63.09
  -1  -3  -3  198.58    7.70
   1   3   3  207.08    8.90
   1   3   3  205.48    8.20
  -2  -3  -3 8381.36  261.37
   2   3   3 8562.04  264.27
  -3  -3  -3  448.56   31.40
   3   3   3  421.96   16.30
   3   3   3  423.76   18.40
   4   3   3  704.73   24.20
   4   3   3  726.03   24.00
   4   3   3  754.42   26.10
   4   3   3  742.73   24.20
   5   3   3  467.85   15.60
   5   3   3  462.95   15.60
   5   3   3  447.56   15.70
   5   3   3  443.06   15.70
   5   3   3  448.36   20.40
   5   3   3  458.95   17.60
   6   3   3    3.70    2.80
   6   3   3    3.70    1.80
   6   3   3    1.90    2.20
   6   3   3    2.40    1.40
   6   3   3    0.90    1.30
  -6   4   3   75.29    3.20
   5  -4  -3  110.19    4.20
  -5   4   3  113.89    4.30
   4  -4  -3  220.38    7.80
  -4   4   3  202.88   12.00
  -4   4   3  222.18    7.70
   3  -4  -3  919.11   29.40
   3  -4  -3  934.41   29.30
  -3   4   3  880.51   29.70
  -3   4   3  952.10   33.10
  -3   4   3  909.51   29.10
   2  -4  -3  223.48    8.10
   2  -4  -3  225.58    7.60
   2  -4  -3  213.18    8.00
   2  -4  -3  227.08    9.60
  -2   4   3  219.08    7.60
  -2   4   3  226.68   10.40
   1  -4  -3 2110.39   66.79
   1  -4  -3 2170.28   67.19
   1  -4  -3 2012.60   67.09
   1  -4  -3 2314.47   69.29
  -1   4   3 2178.78   69.49
   0  -4  -3  137.59    6.40
   0   4   3  135.49    6.70
  -1  -4  -3  100.79    5.10
   1   4   3  104.69    6.30
  -2  -4  -3 1389.06   45.60
   2   4   3 1430.16   48.80
   2   4   3 1439.46   48.00
   3   4   3   74.19    4.70
   3   4   3   86.19    7.40
   3   4   3   84.09    5.90
   4   4   3  500.25   17.60
   4   4   3  541.65   19.90
   5   4   3  192.98    9.20
   5   4   3  194.08    7.50
   5   4   3  186.08    7.60
   6   4   3  245.48    9.60
   6   4   3  248.58    8.50
   6   4   3  241.18   11.30
   5  -5  -3  237.28    7.90
  -5   5   3  238.28    8.00
  -5   5   3  250.37    8.30
   4  -5  -3 1118.39   35.30
  -4   5   3 1111.29   35.00
   3  -5  -3    1.40    1.40
  -3   5   3    4.50    3.60
  -3   5   3    1.10    1.90
  -3   5   3    1.80    0.80
   2  -5  -3  614.64   20.30
   2  -5  -3  622.94   19.70
   2  -5  -3  619.64   20.30
  -2   5   3  626.44   24.00
  -2   5   3  625.44   19.80
  -2   5   3  623.74   20.50
   1  -5  -3  577.44   20.30
   1  -5  -3  538.65   18.00
   1  -5  -3  533.65   18.20
   1  -5  -3  541.75   17.60
   1  -5  -3  553.94   18.10
  -1   5   3  528.75   17.90
  -1   5   3  524.95   17.30
  -1   5   3  570.04   21.10
   0  -5  -3  236.58   10.10
   0  -5  -3  226.58    8.00
   0  -5  -3  224.28    8.30
   0  -5  -3  202.68   11.20
   0   5   3  240.28   10.90
   0   5   3  216.58    8.10
   0   5   3  244.18    8.20
   0   5   3  224.38   10.60
  -1  -5  -3  905.11   30.00
  -1  -5  -3  849.61   27.90
  -1  -5  -3  848.52   27.60
   1   5   3  885.81   32.00
   1   5   3  867.81   27.70
  -2  -5  -3   91.29    5.40
  -2  -5  -3   89.69    4.90
  -2  -5  -3   96.29    5.50
   2   5   3   95.39    7.70
   2   5   3   89.89    3.80
   2   5   3  104.09    6.40
  -3  -5  -3  411.26   15.10
   3   5   3  426.56   20.20
   4   5   3  403.96   14.60
   4   5   3  432.06   17.60
   5   5   3  144.49    7.20
   5   5   3  145.59    5.90
   6   5   3  480.85   17.30
   4  -6  -3  170.88    6.50
  -4   6   3  138.39    5.70
  -4   6   3  139.69    5.00
   3  -6  -3  280.17    9.50
   3  -6  -3  266.37    9.20
  -3   6   3  264.07    9.60
  -3   6   3  265.17    8.90
  -3   6   3  271.97    9.50
   2  -6  -3  772.72   24.90
   2  -6  -3  792.52   24.90
  -2   6   3  762.42   24.90
  -2   6   3  737.93   24.10
  -2   6   3  749.92   29.70
  -2   6   3  795.72   24.80
   1  -6  -3   84.79    4.00
   1  -6  -3   85.69    6.30
   1  -6  -3   85.09    3.60
   1  -6  -3   85.09    4.20
  -1   6   3   81.09   11.00
  -1   6   3   83.69    3.80
  -1   6   3   81.19    9.20
  -1   6   3   82.79    4.00
   0  -6  -3  131.89    5.20
   0  -6  -3  145.39    8.00
   0  -6  -3  136.49    5.60
   0   6   3  137.29    5.40
   0   6   3  126.29    9.40
   0   6   3  134.59    5.40
  -1  -6  -3  937.41   30.60
  -1  -6  -3  939.11   30.20
  -1  -6  -3 1000.20   33.60
   1   6   3  997.30   33.80
   1   6   3  979.10   30.30
   1   6   3  966.60   36.20
   1   6   3  866.01   30.60
  -2  -6  -3  251.17    8.80
  -2  -6  -3  238.88    9.10
  -2  -6  -3  251.17   11.10
   2   6   3  272.07   11.80
   2   6   3  245.38   14.50
   2   6   3  251.47    9.40
   2   6   3  253.87    8.50
  -3  -6  -3  239.68    8.50
   3   6   3  238.58   12.80
   3   6   3  232.78   15.60
   4   6   3   17.40    2.00
   4   6   3   15.50    3.10
   5   6   3  222.48   11.20
   5   6   3  230.58   10.20
   5   6   3  231.28    8.10
  -4   7   3    2.80    0.60
   3  -7  -3  275.07    9.40
   3  -7  -3  266.37   10.00
  -3   7   3  295.07    9.40
  -3   7   3  280.77    9.50
   2  -7  -3  352.76   11.60
   2  -7  -3  342.97   11.70
  -2   7   3  334.97   11.60
  -2   7   3  343.27   11.50
   1  -7  -3  315.07   10.80
   1  -7  -3  315.87   10.30
   1  -7  -3  317.57   10.90
  -1   7   3  310.97   10.80
  -1   7   3  307.67   10.50
   0  -7  -3  353.86   15.80
   0  -7  -3  370.96   11.90
   0  -7  -3  360.76   12.60
   0  -7  -3  368.46   12.40
   0   7   3  324.67   19.40
   0   7   3  376.96   12.20
  -1  -7  -3    1.80    1.00
  -1  -7  -3    3.20    3.30
  -1  -7  -3   -0.10    1.10
   1   7   3    0.20    4.40
   1   7   3    3.30    1.00
  -2  -7  -3 1208.38   38.20
  -2  -7  -3 1213.78   38.00
   2   7   3 1158.58   38.30
   2   7   3 1242.28   37.60
   2   7   3 1227.78   41.30
  -3  -7  -3   93.59    3.90
   3   7   3   93.19    4.20
   3   7   3   97.79    6.00
  -4  -7  -3   46.20    3.40
   4   7   3   40.80    3.60
   4   7   3   40.90    2.30
   2  -8  -3    0.70    0.80
   2  -8  -3   -0.10    0.90
  -2   8   3    1.30    0.70
   1  -8  -3   99.69    3.90
   1  -8  -3   95.69    4.10
  -1   8   3   96.19    3.80
   0  -8  -3  961.00   29.90
   0   8   3  925.71   29.70
  -1  -8  -3   15.90    1.40
  -1  -8  -3   15.80    2.10
   1   8   3   14.40    1.40
  -2  -8  -3 1051.99   32.10
  -2  -8  -3 1000.80   32.20
  -3  -8  -3  321.37   10.40
  -2  -8   4  314.87   10.30
  -2  -8   4  321.37   10.20
   1   8  -4  205.68    6.90
  -1  -8   4  209.78    7.00
  -1  -8   4  203.98    6.80
   0   8  -4   21.20    1.50
   0  -8   4   24.10    1.60
   0  -8   4   22.80    1.40
  -1   8  -4 1053.19   33.00
   1  -8   4 1054.89   33.00
   1  -8   4 1060.69   33.00
  -2   8  -4   19.70    1.50
  -2   8  -4   20.80    1.80
   2  -8   4   19.80    1.40
   2  -8   4   19.50    1.80
   4   7  -4  138.89    8.20
  -4  -7   4  135.19    4.60
  -3  -7   4   12.10    1.30
  -3  -7   4   13.40    2.10
   2   7  -4  225.58    7.60
  -2  -7   4  232.38    7.90
  -2  -7   4  225.38    7.60
   1   7  -4  242.98    8.30
  -1  -7   4  242.58    8.20
  -1  -7   4  246.28    8.50
   0   7  -4  193.08    6.90
   0  -7   4  192.88    7.20
   0  -7   4  198.48    7.00
   0  -7   4  200.28    6.70
  -1   7  -4 1033.30   32.80
  -1   7  -4 1037.20   32.90
   1  -7   4 1053.29   32.90
   1  -7   4 1076.19   32.90
   1  -7   4 1019.60   32.40
  -2   7  -4  507.25   16.70
  -2   7  -4  518.75   16.70
   2  -7   4  525.95   16.60
   2  -7   4  509.65   16.50
  -3   7  -4  319.17   10.60
  -3   7  -4  312.67   10.60
   3  -7   4  331.17   10.50
  -4   7  -4   21.60    1.30
   4  -7   4   21.90    1.20
   5   6  -4  449.06   16.70
  -4  -6   4   20.60    1.70
  -3  -6   4 1068.69   33.60
  -3  -6   4 1063.19   33.40
   2   6  -4  913.81   28.20
  -2  -6   4  902.11   28.10
  -2  -6   4  894.01   28.30
  -2  -6   4  864.11   32.50
   1   6  -4   11.80    1.50
  -1  -6   4   13.00    1.40
  -1  -6   4   10.70    3.60
   0   6  -4 2777.02   87.49
   0  -6   4 2796.32   92.29
   0  -6   4 2897.51   87.69
   0  -6   4 2786.42   87.59
   0  -6   4 2875.11   87.29
  -1   6  -4  190.08   12.10
  -1   6  -4  179.38    6.80
  -1   6  -4  194.38    6.90
   1  -6   4  194.08    6.90
   1  -6   4  193.18    6.90
   1  -6   4  196.28   11.30
   1  -6   4  190.58    6.50
  -2   6  -4  970.90   30.10
  -2   6  -4  946.11   29.60
  -2   6  -4  950.10   29.90
  -2   6  -4  902.61   35.10
   2  -6   4  943.21   29.80
   2  -6   4  933.31   35.10
   2  -6   4  962.50   29.90
  -3   6  -4  490.45   15.70
  -3   6  -4  487.55   16.00
  -3   6  -4  490.05   16.10
   3  -6   4  510.25   16.00
   3  -6   4  480.25   15.80
  -4   6  -4  138.69    5.10
  -4   6  -4  148.69    5.30
   4  -6   4  138.49    5.00
  -5   6  -4  309.17   10.00
  -5   6  -4  301.47    9.70
   5   5  -4  348.57   12.70
   5   5  -4  385.66   15.50
  -5  -5   4  371.56   11.90
  -4  -5   4   24.00    2.40
   3   5  -4  404.96   12.40
   3   5  -4  359.16   20.70
  -3  -5   4  380.96   16.40
  -3  -5   4  379.36   12.80
  -3  -5   4  389.96   12.50
   2   5  -4   13.80    1.70
  -2  -5   4   11.20    1.90
  -2  -5   4   10.10    1.30
  -2  -5   4   14.20    4.10
   1   5  -4  191.68    6.80
  -1  -5   4  187.88    6.90
  -1  -5   4  188.58    6.70
  -1  -5   4  204.08   10.20
   0   5  -4 1245.58   39.30
   0   5  -4 1254.37   39.30
   0   5  -4 1241.38   45.80
   0  -5   4 1262.67   39.10
   0  -5   4 1203.88   39.30
   0  -5   4 1330.07   43.40
   0  -5   4 1245.48   39.40
  -1   5  -4  506.95   16.60
  -1   5  -4  517.95   20.50
  -1   5  -4  509.55   16.50
  -1   5  -4  513.05   16.20
   1  -5   4  499.25   16.50
   1  -5   4  511.35   16.20
   1  -5   4  509.35   20.10
   1  -5   4  504.25   16.50
  -2   5  -4 1325.87   41.50
  -2   5  -4 1315.37   45.90
  -2   5  -4 1309.57   41.20
   2  -5   4 1322.87   41.50
   2  -5   4 1348.17   45.70
   2  -5   4 1312.47   41.40
  -3   5  -4   70.19    4.10
  -3   5  -4   85.29    3.50
  -3   5  -4   78.39    3.10
  -3   5  -4   76.59    7.30
   3  -5   4   82.09    3.40
   3  -5   4   72.39    7.00
   3  -5   4   75.79    3.50
  -4   5  -4  716.63   22.90
  -4   5  -4  719.03   23.10
   4  -5   4  735.53   22.90
  -5   5  -4  486.25   15.50
  -5   5  -4  470.75   15.40
   5  -5   4  487.15   15.10
   6   4  -4  569.54   19.70
   6   4  -4  515.55   17.40
   5   4  -4   17.60    3.70
  -5  -4   4   21.20    2.10
  -4  -4   4 1490.35   46.50
   3   4  -4 2566.04   90.49
   3   4  -4 2756.12   83.89
   3   4  -4 2849.51   84.59
  -3  -4   4 2684.23   83.89
  -3  -4   4 2823.92   87.19
  -3  -4   4 2605.04   84.19
   2   4  -4  440.46   14.60
   2   4  -4  447.86   15.10
  -2  -4   4  487.25   17.70
  -2  -4   4  433.46   61.69
   1   4  -4 3738.93  110.99
   1   4  -4 3582.04  111.19
  -1  -4   4 3333.57  159.78
  -1  -4   4 3460.35  110.69
  -1  -4   4 3826.62  114.09
  -1  -4   4 3603.14  111.09
   0   4  -4  127.59    4.90
   0   4  -4  143.09    7.30
   0  -4   4  127.79    5.20
   0  -4   4  141.39    7.30
   0  -4   4  125.49    4.80
  -1   4  -4 2206.88   69.29
  -1   4  -4 2038.70   65.59
  -1   4  -4 2041.30   65.89
  -1   4  -4 2390.06   66.39
   1  -4   4 2011.60   65.89
   1  -4   4 2060.19   65.59
   1  -4   4 2063.99   65.89
   1  -4   4 2186.38   69.09
  -2   4  -4  397.66   13.20
  -2   4  -4  424.86   16.60
  -2   4  -4  384.06   13.30
  -2   4  -4  385.86   12.90
   2  -4   4  412.26   16.10
   2  -4   4  392.96   13.10
   2  -4   4  404.76   13.10
  -3   4  -4  296.87   10.10
  -3   4  -4  303.87   13.80
   3  -4   4  304.17   10.10
   3  -4   4  302.47   13.40
   3  -4   4  298.27   10.10
  -4   4  -4  264.97   13.30
  -4   4  -4  268.37    8.90
  -4   4  -4  271.77    9.20
   4  -4   4  260.27   12.80
   4  -4   4  273.27    8.90
   4  -4   4  257.07    9.80
  -5   4  -4    1.00    0.60
  -5   4  -4    1.80    0.90
   5  -4   4    0.70    1.20
   5  -4   4    1.00    0.70
  -6   4  -4  162.38    5.40
   6   3  -4  484.35   18.30
   6   3  -4  459.45   15.90
   5   3  -4   78.89    6.50
  -4  -3   4  627.74   22.80
   3   3  -4    5.60    2.90
   3   3  -4    5.40    2.50
   3   3  -4    7.40    1.40
   3   3  -4    4.30    1.20
  -3  -3   4    5.50    2.10
   2   3  -4 3414.46  105.49
   2   3  -4 3181.88  101.89
  -2  -3   4 3510.25  104.29
  -2  -3   4 3063.19  144.79
   1   3  -4  193.48    8.20
  -1  -3   4  192.68    8.10
  -1  -3   4  166.88   23.30
   0   3  -4 1249.68   41.80
   0  -3   4 1338.57   42.10
   0  -3   4 1255.47   68.79
  -1   3  -4 1116.79   37.80
   1  -3   4 1166.48   37.90
  -2   3  -4    7.90    2.20
   2  -3   4    9.10    2.60
  -3   3  -4 1393.86   44.50
  -3   3  -4 1416.86   44.70
  -3   3  -4 1504.85   48.10
   3  -3   4 1401.46   45.40
   3  -3   4 1428.56   44.50
  -4   3  -4  681.53   21.90
  -4   3  -4  691.23   25.80
  -4   3  -4  699.03   22.20
   4  -3   4  683.43   23.00
   4  -3   4  693.93   21.80
   4  -3   4  693.23   25.90
  -5   3  -4    3.50    0.90
  -5   3  -4    3.30    1.30
  -5   3  -4   11.10    5.10
   5  -3   4    2.50    1.10
   5  -3   4    3.60    2.80
  -6   3  -4  407.66   12.90
   6  -3   4  398.16   13.60
   6   2  -4    7.40    1.60
   6   2  -4    9.50    1.90
   6   2  -4   11.50    3.50
   5   2  -4 1089.29   39.80
   4   2  -4 1290.37   43.40
   4   2  -4 1221.68   43.90
  -4  -2   4 1093.09   39.70
   3   2  -4   64.09    4.70
  -3  -2   4   70.79    4.60
   2   2  -4 6012.60  179.08
   2   2  -4 5901.01  181.28
  -2  -2   4 5436.06  179.78
   1   2  -4  589.34   19.20
   1   2  -4  562.34   19.60
  -1  -2   4  542.85   19.30
   0   2  -4 4487.55  135.09
   0  -2   4 4393.56  135.19
   0  -2   4 4140.99  158.68
   1  -2   4  204.18    8.20
  -2   2  -4  530.85   18.70
   2  -2   4  530.65   18.40
  -3   2  -4  798.62   26.90
   3  -2   4  751.92   25.00
  -4   2  -4  122.19    5.40
  -4   2  -4  125.19    7.10
   4  -2   4  124.49    5.70
   4  -2   4  125.79    5.30
   4  -2   4  124.79    4.50
   4  -2   4  128.19    7.50
  -5   2  -4  545.25   21.80
  -5   2  -4  581.24   18.60
   5  -2   4  584.84   19.40
   5  -2   4  580.24   22.90
   5  -2   4  607.44   19.90
  -6   2  -4  471.95   15.20
   6  -2   4  476.65   16.20
   7  -2   4  111.29    4.10
   7  -2   4  106.19    4.20
   6   1  -4  470.75   15.70
  -6  -1   4  419.16   14.50
   5   1  -4  264.57   15.70
   5   1  -4  292.97   14.20
   4   1  -4   61.59    8.40
   4   1  -4   49.00    3.10
   4   1  -4   54.19    6.00
  -4  -1   4   51.99    5.30
   3   1  -4 1777.12   60.29
   3   1  -4 1813.02   60.39
  -3  -1   4 1824.42   58.69
   2   1  -4 1764.92   56.19
  -2  -1   4 1775.12   56.99
  -1  -1   4 1755.22   55.89
   0  -1   4 1667.13   52.69
   1  -1   4  671.63   22.10
  -2   1  -4 2081.29   78.69
  -2   1  -4 1995.50   66.49
   2  -1   4 2062.39   64.29
  -3   1  -4 1271.97   42.00
   3  -1   4 1321.07   43.00
  -4   1  -4   35.00    3.70
   4  -1   4   40.80    4.00
   4  -1   4   36.40    2.40
   4  -1   4   39.00    2.70
   5  -1   4  988.30   32.30
   5  -1   4  966.70   35.10
   5  -1   4  990.60   31.80
   6  -1   4    3.90    1.10
   6  -1   4    6.40    2.10
   6  -1   4    6.20    1.30
   7  -1   4  324.77   11.20
   7  -1   4  336.17   11.00
   6   0  -4 1117.09   36.10
  -6   0   4 1113.29   35.10
   5   0  -4   24.20    4.30
   5   0  -4   14.70    4.90
  -5   0   4   20.40    2.30
  -5   0   4   20.50    5.80
   4   0  -4  426.26   18.20
   4   0  -4  422.26   18.80
   4   0  -4  422.66   13.50
  -4   0   4  362.36   15.20
  -4   0   4  431.46   17.60
   3   0  -4 1428.16   49.00
  -3   0   4 1442.16   47.90
  -2   0   4 2484.95   79.09
  -1   0   4 1563.94   50.29
   0   0   4  960.80   31.30
  -1   0  -4  251.47    8.40
   1   0   4  254.37    8.80
  -2   0  -4 1691.83   52.39
   4   0   4 1835.02   59.29
   4   0   4 1936.61   62.09
   5   0   4  763.42   25.50
   5   0   4  760.82   25.10
   6   0   4 1150.88   36.80
   6   0   4 1121.79   36.40
   6   0   4 1134.39   38.10
   7   0   4  280.97    9.70
   7   0   4  279.87    9.80
   6  -1  -4  535.55   18.50
  -6   1   4  536.95   17.30
   5  -1  -4  365.86   19.00
  -5   1   4  404.96   18.90
  -5   1   4  398.26   13.80
   4  -1  -4  314.17   10.50
  -4   1   4  324.97   14.70
  -4   1   4  309.47   11.20
  -4   1   4  297.67   10.70
   3  -1  -4 1344.27   45.50
   3  -1  -4 1240.98   41.20
  -3   1   4 1373.16   44.20
  -2   1   4  915.91   30.60
  -1   1   4 1090.59   35.40
   0  -1  -4  463.65   15.10
   0   1   4  477.85   16.30
   1   1   4 4025.10  124.79
   2   1   4  579.44   19.50
  -3  -1  -4  638.64   20.70
   3   1   4  670.63   22.70
   4   1   4 1405.06   44.90
   4   1   4 1367.36   42.60
   4   1   4 1263.37   44.30
   4   1   4 1376.76   43.00
   4   1   4 1292.27   46.10
   5   1   4   20.00    3.50
   5   1   4   19.40    3.70
   5   1   4   18.10    5.40
   5   1   4   25.10    2.40
   5   1   4   21.50    2.30
   6   1   4  900.41   29.80
   6   1   4  952.20   30.40
   6   1   4  932.11   31.70
   6   1   4  918.91   29.90
   7   1   4    9.60    1.70
   7   1   4    9.60    1.40
   6  -2  -4    4.10    1.40
  -6   2   4    0.80    0.80
   5  -2  -4 1294.07   51.79
   5  -2  -4 1502.65   43.80
   5  -2  -4 1402.06   45.30
  -5   2   4 1342.37   50.39
  -5   2   4 1502.85   44.40
   4  -2  -4  838.52   25.80
  -4   2   4  800.82   30.00
  -4   2   4  786.42   25.80
  -4   2   4  805.42   26.20
   3  -2  -4 1627.84   52.09
  -3   2   4 1723.83   55.19
  -3   2   4 1649.04   53.09
  -2   2   4 2640.84   83.89
   1  -2  -4   51.09    2.50
  -1   2   4   58.39    3.50
   0  -2  -4  260.97    8.80
   0  -2  -4  265.27    9.40
   0   2   4  265.17    9.90
   0   2   4  269.57    9.80
  -1  -2  -4 3285.57  101.49
   1   2   4 3194.38  102.29
   1   2   4 3332.37  102.99
   2   2   4   65.79    4.80
   2   2   4   72.69    3.50
   4   2   4   71.89    3.90
   4   2   4   73.29    5.40
   4   2   4   77.49    4.10
   4   2   4   77.29    4.00
   5   2   4  942.91   30.50
   5   2   4  941.61   30.50
   5   2   4  974.50   31.00
   5   2   4  934.51   32.70
   5   2   4  915.21   34.40
   5   2   4  949.51   30.50
   6   2   4 1135.29   36.30
   6   2   4 1102.69   36.10
   6   2   4 1138.39   37.70
   6   2   4 1124.09   35.80
   7   2   4  113.99    4.60
  -6   3   4   25.00    2.30
   5  -3  -4   48.90    2.50
   5  -3  -4   45.60    3.70
  -5   3   4   50.29    2.70
   4  -3  -4 1213.78   40.90
   4  -3  -4 1325.17   40.30
  -4   3   4 1272.77   44.90
  -4   3   4 1314.37   40.20
  -4   3   4 1249.68   40.50
   3  -3  -4 1043.00   32.90
   3  -3  -4 1030.70   32.80
  -3   3   4 1037.20   36.10
  -3   3   4 1033.30   33.10
  -3   3   4 1032.80   32.70
   2  -3  -4 1276.27   40.50
  -2   3   4 1259.57   40.60
  -2   3   4 1254.07   40.30
  -2   3   4 1364.86   43.00
   1  -3  -4  474.25   15.40
   1  -3  -4  481.95   16.50
  -1   3   4  464.55   17.00
  -1   3   4  459.15   16.10
   0  -3  -4 3927.41  122.69
   0   3   4 3922.21  123.19
   0   3   4 3960.70  123.29
  -1  -3  -4  351.06   12.60
   1   3   4  374.26   14.20
   1   3   4  355.96   13.40
  -2  -3  -4 3036.10   94.69
   2   3   4 3038.10   97.79
   3   3   4 2944.01   94.29
   3   3   4 2986.70   93.09
   4   3   4  680.93   22.30
   4   3   4  678.73   22.60
   5   3   4  380.06   13.60
   5   3   4  363.66   17.10
   5   3   4  365.46   13.00
   5   3   4  357.16   13.00
   5   3   4  379.56   15.20
   5   3   4  356.46   13.00
   6   3   4    3.00    1.40
   6   3   4    2.30    1.30
   6   3   4    1.80    2.70
   6   3   4    3.60    1.60
   6   3   4    2.40    2.00
  -5   4   4  382.96   12.50
   4  -4  -4   25.30    2.40
  -4   4   4   23.40    2.20
  -4   4   4   19.30    5.30
   3  -4  -4 2676.03   82.79
   3  -4  -4 2607.94   82.49
  -3   4   4 2624.64   86.79
  -3   4   4 2725.03   82.49
   2  -4  -4  144.79    5.80
   2  -4  -4  142.89    5.40
   2  -4  -4  148.49    5.80
  -2   4   4  138.89    5.70
  -2   4   4  144.49    5.30
  -2   4   4  150.88    8.10
  -2   4   4  139.09    6.10
   1  -4  -4 1359.86   43.20
   1  -4  -4 1432.76   44.80
   1  -4  -4 1248.08   42.90
   1  -4  -4 1390.06   43.20
  -1   4   4 1447.26   44.90
  -1   4   4 1365.16   43.00
  -1   4   4 1307.57   42.50
  -1   4   4 1369.36   45.40
   0  -4  -4 2940.71   91.39
   0   4   4 2824.92   91.79
   0   4   4 2909.21   92.19
  -1  -4  -4  187.38    7.90
   1   4   4  182.78    9.10
   1   4   4  188.18    9.40
  -2  -4  -4 2440.36   77.49
   2   4   4 2320.77   75.99
   2   4   4 2588.74   85.19
   2   4   4 2473.35   78.89
   3   4   4   24.80    3.30
   3   4   4   27.60    4.20
   3   4   4   30.90    5.30
   4   4   4 2044.10   65.29
   4   4   4 1929.31   62.39
   5   4   4  491.85   16.80
   5   4   4  523.45   17.20
   5   4   4  484.45   21.10
   5   4   4  506.35   19.00
   6   4   4   41.40    8.80
   6   4   4   44.40    2.50
   6   4   4   43.10    3.80
   5  -5  -4  192.18    6.60
  -5   5   4  203.18    6.70
  -5   5   4  211.98    7.10
   4  -5  -4  176.08    6.40
  -4   5   4  171.48    6.10
   3  -5  -4 1332.07   41.40
   3  -5  -4 1316.27   41.10
  -3   5   4 1338.87   40.80
  -3   5   4 1288.27   41.50
  -3   5   4 1240.48   45.90
   2  -5  -4  261.37    9.30
   2  -5  -4  250.47    8.70
   2  -5  -4  266.17    9.40
  -2   5   4  260.77   12.90
  -2   5   4  252.07    9.40
  -2   5   4  259.57    8.70
   1  -5  -4 1096.39   35.20
   1  -5  -4 1168.58   37.70
   1  -5  -4 1149.08   34.90
   1  -5  -4 1110.99   35.30
   1  -5  -4 1044.00   36.40
  -1   5   4 1132.09   35.30
  -1   5   4 1119.39   38.70
  -1   5   4 1031.70   34.40
  -1   5   4 1112.99   38.10
   0  -5  -4   90.99    4.40
   0  -5  -4   84.89    5.70
   0  -5  -4   98.29    5.80
   0  -5  -4   90.19    4.10
   0   5   4  102.39    7.40
   0   5   4   95.59    4.40
   0   5   4   99.49    4.30
   0   5   4   98.99    7.00
   0   5   4  102.39    6.90
  -1  -5  -4 1095.79   36.00
  -1  -5  -4 1023.80   33.70
  -1  -5  -4 1001.30   34.00
   1   5   4 1119.49   38.70
   1   5   4 1054.29   33.80
   1   5   4 1126.99   37.00
  -2  -5  -4 3334.37  108.19
  -2  -5  -4 3453.95  108.49
  -2  -5  -4 3606.24  110.29
   2   5   4 3463.35  112.89
   2   5   4 3610.14  114.29
   2   5   4 3534.35  107.99
   3   5   4  637.24   23.70
   4   5   4  984.10   34.90
   5   5   4   84.09    5.30
   5   5   4   85.49    4.00
   5   5   4   71.59    7.80
   6   5   4  177.88    6.80
   4  -6  -4  286.47    9.60
  -4   6   4  278.17    9.10
  -4   6   4  293.37    9.70
   3  -6  -4  122.49    5.00
   3  -6  -4  120.59    5.00
  -3   6   4  126.29    5.00
  -3   6   4  120.19    5.30
  -3   6   4  126.09    4.40
  -2   6   4  918.61   35.00
   1  -6  -4 1086.19   34.20
   1  -6  -4 1131.09   33.80
   1  -6  -4 1081.19   34.30
   1  -6  -4  979.60   35.60
   1  -6  -4 1087.99   37.10
  -1   6   4 1081.69   34.00
  -1   6   4 1065.99   34.20
  -1   6   4 1048.20   39.10
   0  -6  -4  496.65   19.00
   0  -6  -4  458.45   16.10
   0  -6  -4  465.15   15.90
   0  -6  -4  461.05   15.40
   0  -6  -4  473.95   18.60
   0   6   4  476.75   20.80
   0   6   4  468.55   15.40
   0   6   4  467.55   15.70
  -1  -6  -4   99.49    4.30
  -1  -6  -4  103.59    6.90
  -1  -6  -4   97.09    4.60
   1   6   4  105.09    7.10
   1   6   4   98.09    4.20
  -2  -6  -4  290.67   10.60
  -2  -6  -4  300.47   10.30
  -2  -6  -4  287.97   12.50
   2   6   4  307.17   10.00
   2   6   4  313.87   13.40
   2   6   4  294.17   16.40
  -3  -6  -4 1077.39   35.10
   3   6   4 1126.59   46.20
   3   6   4 1113.09   36.10
   3   6   4 1143.39   38.50
  -4  -6  -4  307.77   11.70
   4   6   4  320.57   11.30
   4   6   4  320.57   13.10
   5   6   4   27.70    1.90
   5   6   4   20.20    4.50
   5   6   4   26.10    3.10
   3  -7  -4  150.28    5.50
  -3   7   4  154.38    5.50
  -3   7   4  155.78    5.70
   2  -7  -4  126.29    5.00
   2  -7  -4  124.39    5.00
  -2   7   4  126.89    4.80
  -2   7   4  121.89    5.00
   1  -7  -4    5.50    1.20
   1  -7  -4    5.60    1.50
   1  -7  -4    5.50    1.10
  -1   7   4    6.40    1.30
  -1   7   4    5.30    1.20
   0  -7  -4  493.35   17.80
   0  -7  -4  505.55   16.30
   0  -7  -4  497.25   16.70
   0   7   4  510.25   16.50
  -1  -7  -4  344.57   11.00
  -1  -7  -4  312.27   11.30
   1   7   4  321.27   10.90
  -2  -7  -4   12.30    1.80
  -2  -7  -4   15.00    1.80
   2   7   4   11.10    1.20
   2   7   4   13.20    2.20
   2   7   4   14.10    3.30
  -3  -7  -4  589.04   19.10
   3   7   4  575.24   19.20
   3   7   4  583.34   21.30
  -4  -7  -4    2.80    1.30
   4   7   4    1.60    1.60
   4   7   4    0.80    0.80
   2  -8  -4  171.28    6.00
   2  -8  -4  170.28    6.10
  -2   8   4  176.08    6.00
   1  -8  -4  328.77   10.90
  -1   8   4  326.57   10.80
   0  -8  -4   23.20    2.80
   0  -8  -4   19.70    1.60
   0   8   4   21.20    2.10
  -1  -8  -4    3.50    1.00
   1   8   4    4.10    0.80
  -2  -8  -4  203.78    6.80
  -2  -8  -4  192.28    6.90
  -3  -8  -4   35.60    1.90
  -2  -8   5    1.60    0.60
  -2  -8   5    2.40    0.80
   1   8  -5   77.19    3.00
  -1  -8   5   77.99    2.90
  -1  -8   5   81.79    3.10
   0   8  -5   35.80    1.90
   0  -8   5   36.30    1.90
  -1   8  -5    6.40    0.90
   1  -8   5    7.10    1.10
   1  -8   5    8.80    1.90
  -2   8  -5  239.68    7.90
   2  -8   5  213.88    7.70
   2  -8   5  214.08    7.20
   4   7  -5  283.37   11.00
  -4  -7   5  295.77    9.20
  -3  -7   5   28.00    3.40
  -3  -7   5   29.80    1.60
   2   7  -5 1180.18   37.00
  -2  -7   5 1193.38   36.80
  -2  -7   5 1168.58   37.00
   1   7  -5   58.59    2.80
  -1  -7   5   61.69    2.60
  -1  -7   5   61.99    2.90
   0   7  -5  139.49    5.20
   0  -7   5  138.69    5.50
   0  -7   5  134.79    5.10
   0  -7   5  141.59    4.90
  -1   7  -5  356.36   11.80
  -1   7  -5  355.06   11.70
   1  -7   5  347.37   11.70
   1  -7   5  356.36   11.70
  -2   7  -5   15.60    1.60
  -2   7  -5   14.40    1.60
   2  -7   5   14.90    1.50
   2  -7   5   15.30    1.40
  -3   7  -5  204.08    7.00
  -3   7  -5  199.88    7.10
   3  -7   5  205.28    6.80
  -4   7  -5  107.19    3.90
   4  -7   5  106.09    3.60
   4   6  -5  201.18   10.00
  -4  -6   5  195.98    6.70
  -3  -6   5   74.39    3.60
  -3  -6   5   74.09    3.10
   2   6  -5  559.94   18.10
  -2  -6   5  566.94   18.10
  -2  -6   5  572.84   18.30
   1   6  -5   71.59    3.10
  -1  -6   5   69.39    2.90
  -1  -6   5   69.59    3.20
  -1  -6   5   59.89    7.00
   0   6  -5  416.86   13.50
   0   6  -5  396.36   13.50
   0  -6   5  395.96   18.10
   0  -6   5  414.86   13.50
   0  -6   5  429.46   13.30
   0  -6   5  402.66   13.60
  -1   6  -5  515.25   16.70
  -1   6  -5  503.45   16.60
  -1   6  -5  502.55   22.50
   1  -6   5  523.05   16.60
   1  -6   5  504.15   16.20
   1  -6   5  508.55   21.80
   1  -6   5  516.05   16.60
  -2   6  -5  450.35   14.10
  -2   6  -5  428.86   20.40
  -2   6  -5  438.86   16.00
   2  -6   5  386.96   28.20
   2  -6   5  479.05   15.60
  -3   6  -5   17.10    1.50
  -3   6  -5   15.90    1.50
  -3   6  -5   19.10    2.30
   3  -6   5   18.00    1.40
   3  -6   5   17.50    2.20
  -4   6  -5   59.59    2.40
   4  -6   5   54.29    3.10
  -5   6  -5  303.07    9.70
  -5   6  -5  297.57    9.50
   5   5  -5  396.76   14.40
   5   5  -5  460.65   17.10
  -5  -5   5  455.25   13.90
  -4  -5   5   82.29    3.50
   3   5  -5  784.42   33.30
   3   5  -5  767.72   24.30
  -3  -5   5  732.03   28.40
  -3  -5   5  753.02   24.50
  -3  -5   5  775.42   24.10
   2   5  -5  381.76   12.80
  -2  -5   5  409.16   20.00
  -2  -5   5  380.26   12.90
  -2  -5   5  381.16   12.60
   1   5  -5  142.09    5.40
  -1  -5   5  150.68    5.50
  -1  -5   5  153.38    9.10
   0   5  -5  878.51   27.90
   0   5  -5  865.21   27.90
   0   5  -5  894.71   32.20
   0  -5   5  876.01   27.90
   0  -5   5  860.01   27.90
   0  -5   5  894.21   32.20
   0  -5   5  892.11   27.60
  -1   5  -5  104.09    7.80
  -1   5  -5   96.69    4.00
  -1   5  -5   99.49    4.40
   1  -5   5   99.59    7.30
   1  -5   5   99.59    5.20
   1  -5   5  106.19    4.10
   1  -5   5   99.39    4.10
  -2   5  -5 2934.51   97.39
  -2   5  -5 2900.41   92.09
  -2   5  -5 2994.70   92.49
   2  -5   5 3029.80   92.29
   2  -5   5 3020.10   92.39
   2  -5   5 3022.40   97.19
  -3   5  -5  152.08    5.60
  -3   5  -5  145.19    5.30
  -3   5  -5  147.49    6.00
  -3   5  -5  147.09   10.20
   3  -5   5  138.39    5.50
   3  -5   5  149.99    5.40
   3  -5   5  151.58   10.10
  -4   5  -5   91.79    3.80
  -4   5  -5   91.59    3.50
   4  -5   5   93.49    3.60
  -5   5  -5  284.37    9.30
  -5   5  -5  278.87    9.20
   5  -5   5  280.87    9.00
   6   4  -5  235.08    9.50
   5   4  -5  242.58   11.50
  -5  -4   5  231.38    8.00
  -4  -4   5  346.57   11.50
   3   4  -5  937.51   35.60
   3   4  -5  945.41   28.60
  -3  -4   5  864.91   28.80
  -3  -4   5  891.41   32.30
  -3  -4   5  909.61   28.60
   2   4  -5    7.50    1.20
  -2  -4   5    4.00    1.50
  -2  -4   5    5.50    2.50
  -2  -4   5    3.00    1.10
   1   4  -5 1812.52   55.09
  -1  -4   5 1812.72   55.39
  -1  -4   5 1726.73   54.89
  -1  -4   5 1909.01   58.89
  -1  -4   5 1604.14  100.59
   0   4  -5 2521.15   80.99
   0   4  -5 2726.93   84.59
   0  -4   5 2604.84   84.39
  -1   4  -5  502.75   16.50
  -1   4  -5  576.14   17.80
  -1   4  -5  533.05   20.10
  -1   4  -5  501.75   16.70
   1  -4   5  499.75   16.70
   1  -4   5  505.05   16.70
   1  -4   5  521.55   20.00
  -2   4  -5 1418.46   45.10
  -2   4  -5 1390.46   45.20
  -2   4  -5 1414.16   44.90
  -2   4  -5 1545.95   49.60
   2  -4   5 1414.56   45.00
   2  -4   5 1434.46   45.00
   2  -4   5 1489.15   48.90
  -3   4  -5   83.49    3.60
  -3   4  -5   79.49    6.80
  -3   4  -5   84.59    3.30
   3  -4   5   82.69    3.40
   3  -4   5   81.29    3.90
  -4   4  -5 1100.49   34.20
  -4   4  -5 1105.39   34.00
  -4   4  -5 1077.79   39.00
   4  -4   5 1099.69   33.90
   4  -4   5 1053.29   34.70
   4  -4   5 1062.39   38.60
  -5   4  -5  299.17    9.90
  -5   4  -5  299.77    9.80
   5  -4   5  286.37   10.90
   5  -4   5  298.97    9.50
  -6   4  -5  167.08    7.10
  -6   4  -5  199.38    6.10
   6   3  -5  287.37   10.50
   6   3  -5  315.67   12.50
   5   3  -5   21.90    3.90
  -5  -3   5   21.20    2.70
   4   3  -5  922.81   32.50
  -4  -3   5  824.42   26.70
  -4  -3   5  783.02   29.70
   3   3  -5  210.68   11.50
   3   3  -5  219.08    7.10
  -3  -3   5  204.58    9.90
  -3  -3   5  201.98    7.30
  -3  -3   5  190.98    7.60
   2   3  -5  345.27   14.80
   2   3  -5  339.47   11.40
  -2  -3   5  342.17   38.70
  -2  -3   5  349.77   13.90
   1   3  -5  411.16   14.60
  -1  -3   5  316.77   44.50
  -1  -3   5  395.46   14.60
   0   3  -5  361.06   13.50
   0  -3   5  313.37   32.60
   0  -3   5  353.26   13.50
  -1   3  -5 6114.59  189.48
   1  -3   5 6015.10  189.28
  -2   3  -5 1601.34   49.99
  -2   3  -5 1443.16   46.40
  -2   3  -5 1441.96   46.90
   2  -3   5 1441.66   46.50
   2  -3   5 1560.24   49.50
  -3   3  -5  719.33   23.10
  -3   3  -5  722.33   22.90
  -3   3  -5  776.62   26.90
   3  -3   5  688.03   24.00
   3  -3   5  719.73   22.90
  -4   3  -5 1370.26   44.20
  -4   3  -5 1389.46   44.40
  -4   3  -5 1421.16   48.50
   4  -3   5 1461.55   49.10
   4  -3   5 1462.15   45.30
   4  -3   5 1399.76   44.10
  -5   3  -5   12.20    1.30
  -5   3  -5   13.90    1.90
   5  -3   5   10.10    1.80
   5  -3   5    7.00    3.50
   5  -3   5   10.60    1.00
  -6   3  -5  572.64   17.90
   6  -3   5  558.04   18.50
   6   2  -5  127.89    5.60
   6   2  -5  130.49    5.90
  -6  -2   5  132.39    5.00
   5   2  -5  450.65   19.10
  -5  -2   5  439.56   14.60
   4   2  -5 1408.06   50.99
   4   2  -5 1545.95   49.80
  -4  -2   5 1288.97   46.80
   3   2  -5   43.20    2.50
   3   2  -5   38.50    4.70
  -3  -2   5   46.20    4.40
   2   2  -5 4528.45  139.39
  -2  -2   5 4272.37  137.99
   1   2  -5 4094.39  118.99
  -1  -2   5 3497.65  118.89
   0   2  -5  549.95   18.80
   0   2  -5  559.84   18.20
   0  -2   5  552.74   19.00
   0  -2   5  500.35   35.80
  -1   2  -5 4573.84  141.29
   1  -2   5 4472.65  141.29
  -2   2  -5  272.67   11.10
   2  -2   5  281.87   11.00
  -3   2  -5 2562.04   77.59
   3  -2   5 2326.17   75.29
   3  -2   5 2337.47   74.39
  -4   2  -5  155.68    5.80
  -4   2  -5  152.08    6.10
  -4   2  -5  162.28    8.60
   4  -2   5  157.58    6.60
   4  -2   5  150.68    5.40
   4  -2   5  163.68    9.10
  -5   2  -5  414.46   17.90
  -5   2  -5  420.36   14.10
   5  -2   5  465.35   15.40
   5  -2   5  438.76   18.70
  -6   2  -5  465.95   14.70
   6  -2   5  452.05   15.60
   6   1  -5    8.00    1.60
  -6  -1   5    8.00    1.50
   5   1  -5  928.11   33.70
  -5  -1   5  890.31   28.80
   4   1  -5  293.27   10.00
   4   1  -5  311.07   14.50
   4   1  -5  291.47   15.30
  -4  -1   5  293.47   10.20
  -4  -1   5  302.47   13.20
   3   1  -5 1058.09   33.90
   3   1  -5 1063.79   38.80
  -3  -1   5 1116.99   36.90
  -2  -1   5 2583.04   82.39
  -1  -1   5 2034.90   64.79
   0  -1   5 3665.23  114.49
   1  -1   5  636.34   21.40
  -2   1  -5 1507.95   49.90
  -2   1  -5 1638.64   63.59
   2  -1   5 1532.25   49.60
  -3   1  -5 2062.99   65.89
  -4   1  -5   52.89    4.40
   4  -1   5   45.50    2.80
   4  -1   5   47.40    3.00
   4  -1   5   56.19    4.80
   4  -1   5   45.90    3.10
   5  -1   5  626.84   24.70
   5  -1   5  631.04   21.50
   5  -1   5  641.54   21.10
   6  -1   5  145.79    7.50
   6  -1   5  152.18    6.30
   7  -1   5  463.55   15.30
   7  -1   5  465.65   15.10
   6   0  -5  327.57   12.10
  -6   0   5  346.67   11.20
  -5   0   5 1040.70   32.20
  -5   0   5  991.40   36.00
   4   0  -5   37.00    4.80
   4   0  -5   23.40    5.10
  -4   0   5   31.40    2.80
  -4   0   5   29.50    4.00
  -4   0   5   26.80    5.60
   3   0  -5 2196.58   69.49
   3   0  -5 2203.18   74.79
  -3   0   5 2322.17   73.59
  -2   0   5 5803.22  181.68
  -1   0   5 5643.04  176.28
   0   0   5 3700.83  115.69
  -1   0  -5  667.73   20.30
   1   0   5  602.74   20.90
  -2   0  -5 2255.37   71.39
   2   0   5 2355.76   71.89
  -3   0  -5   71.59    3.90
   3   0   5   73.29    4.70
  -4   0  -5 1309.47   42.60
   4   0   5 1313.27   42.30
   4   0   5 1338.17   44.90
   4   0   5 1323.27   42.00
   5   0   5  324.47   11.60
   5   0   5  324.07   12.00
   6   0   5   97.29    4.50
   6   0   5  103.99    4.80
   6   0   5  100.49    4.50
   6   0   5   99.59    6.10
   7   0   5  256.57    8.60
   7   0   5  203.78    9.30
   7   0   5  255.67    8.40
   6  -1  -5  513.15   17.70
  -6   1   5  547.95   17.10
   5  -1  -5   31.40    8.40
  -5   1   5   41.10    2.80
  -5   1   5   45.30    3.70
  -5   1   5   34.80    9.50
   4  -1  -5  801.02   25.10
  -4   1   5  768.52   25.10
  -4   1   5  786.42   30.20
   3  -1  -5 1324.97   44.60
   3  -1  -5 1320.97   40.60
  -3   1   5 1244.98   40.40
  -3   1   5 1273.47   40.80
  -2   1   5  192.88    8.80
  -1   1   5 7159.98  222.48
   0  -1  -5  211.48    7.30
   0   1   5  206.98    8.70
  -1  -1  -5 4135.09  122.49
   1   1   5 3805.02  123.59
  -2  -1  -5  957.90   30.10
  -3  -1  -5   61.69    2.80
   3   1   5   64.79    4.20
   4   1   5  920.31   31.20
   4   1   5  858.81   30.40
   4   1   5  896.51   28.90
   4   1   5  858.41   28.50
   5   1   5   80.79    4.10
   5   1   5   84.69    4.80
   5   1   5   83.39    4.40
   5   1   5   82.69    4.10
   5   1   5   76.39    5.70
   6   1   5  419.16   16.40
   6   1   5  422.66   14.50
   6   1   5  424.16   14.40
   6   1   5  434.66   14.90
   7   1   5  253.57    9.80
   7   1   5  249.08    8.90
   6  -2  -5  342.77   13.00
  -6   2   5  367.36   11.60
   5  -2  -5  283.07    9.00
   5  -2  -5  251.27   10.20
  -5   2   5  272.47    9.40
   4  -2  -5  324.77   10.80
  -4   2   5  303.77   10.80
  -4   2   5  312.17   11.20
   3  -2  -5  505.65   16.70
  -3   2   5  545.35   20.20
  -3   2   5  487.15   16.50
  -3   2   5  492.85   16.90
  -2   2   5 2834.92   90.39
   1  -2  -5 1612.84   51.19
  -1   2   5 1646.84   52.79
   0  -2  -5   80.39    3.30
   0   2   5   82.49    4.70
   0   2   5   82.49    4.40
   1   2   5  895.71   30.00
   1   2   5  905.21   30.70
   2   2   5   57.19    3.20
   3   2   5  839.42   26.90
   3   2   5  763.32   27.10
   3   2   5  766.72   25.40
  -4  -2  -5 1034.60   33.20
   4   2   5 1014.60   35.50
   4   2   5 1085.79   33.70
   4   2   5 1041.60   33.30
   4   2   5 1025.20   33.30
   5   2   5    7.90    1.70
   5   2   5    7.10    2.30
   5   2   5    8.40    1.60
   5   2   5    6.80    3.90
   5   2   5    5.90    1.30
   6   2   5  899.51   30.90
   6   2   5  890.71   29.00
   6   2   5  895.81   29.30
   6   2   5  905.31   28.70
   7   2   5    0.60    1.00
   5  -3  -5 1277.47   39.50
   5  -3  -5 1213.98   40.00
  -5   3   5 1303.87   39.80
   4  -3  -5    6.20    1.30
   4  -3  -5    7.20    2.70
  -4   3   5    9.50    1.40
  -4   3   5    5.80    4.30
  -4   3   5    6.20    1.70
   3  -3  -5    8.00    2.10
  -3   3   5    7.80    2.90
  -3   3   5   11.60    1.90
   2  -3  -5 1590.04   49.60
  -2   3   5 1609.94   53.39
  -2   3   5 1547.35   49.30
  -2   3   5 1577.64   49.70
   1  -3  -5  156.08    6.00
  -1   3   5  155.38    6.90
  -1   3   5  154.48    7.50
   0  -3  -5 2725.43   83.09
   0   3   5 2622.74   84.59
   0   3   5 2661.03   84.79
  -1  -3  -5 1122.19   36.10
   1   3   5 1083.19   37.20
   1   3   5 1148.09   38.00
   2   3   5  277.57   12.70
   3   3   5  590.34   19.60
   3   3   5  576.84   21.40
   4   3   5  175.28    7.10
   4   3   5  179.28    9.10
   4   3   5  162.08    9.20
   4   3   5  178.48    7.20
   5   3   5  304.37   10.90
   5   3   5  305.57   11.60
   5   3   5  312.17   14.70
   6   3   5  564.34   19.30
   6   3   5  586.84   19.00
   6   3   5  599.74   20.90
   6   3   5  574.24   19.00
   5  -4  -5  653.63   22.00
  -5   4   5  746.33   22.70
   4  -4  -5  153.28    5.90
  -4   4   5  150.58    5.60
  -4   4   5  141.49   11.70
   3  -4  -5 1780.52   55.59
   3  -4  -5 1755.72   55.29
  -3   4   5 1722.63   55.79
  -3   4   5 1800.42   60.59
  -3   4   5 1776.42   55.19
   2  -4  -5  300.07   10.30
   2  -4  -5  315.57   10.90
   2  -4  -5  317.07   10.90
  -2   4   5  303.67   11.10
  -2   4   5  312.57   13.80
  -2   4   5  316.77   10.90
  -2   4   5  304.17   10.40
   1  -4  -5  231.58    8.60
   1  -4  -5  227.58    8.00
   1  -4  -5  224.18    8.30
  -1   4   5  225.78    8.40
  -1   4   5  236.18   10.70
  -1   4   5  229.98   10.20
  -1   4   5  224.68    8.30
   0  -4  -5   63.39    3.20
   0  -4  -5   60.79    3.50
   0  -4  -5   60.09    3.20
   0  -4  -5   61.59    3.90
   0   4   5   64.89    5.00
   0   4   5   61.59    3.40
   0   4   5   62.69    5.10
   0   4   5   55.09    5.90
  -1  -4  -5   80.29    4.50
   1   4   5   87.79    6.00
   1   4   5   72.49    6.00
   1   4   5   81.99    3.90
   2   4   5  821.72   29.10
   2   4   5  828.52   30.80
   3   4   5  794.52   28.50
   3   4   5  780.72   25.70
   4   4   5  144.79    6.30
   4   4   5  140.59    8.10
   5   4   5  985.30   30.90
   5   4   5  950.60   30.40
   5   4   5  888.81   33.80
   5   4   5  964.90   33.10
   6   4   5   68.69    4.50
   6   4   5   71.19    3.30
   5  -5  -5    7.30    1.00
  -5   5   5    7.60    1.00
  -5   5   5    8.80    0.90
   4  -5  -5    3.20    1.00
  -4   5   5    2.60    0.80
   3  -5  -5  725.13   23.20
  -3   5   5  744.03   23.70
  -3   5   5  699.93   28.70
  -3   5   5  707.73   23.10
   2  -5  -5   46.40    3.10
   2  -5  -5   46.50    3.20
  -2   5   5   49.20    2.50
  -2   5   5   43.60    3.40
   1  -5  -5 1900.51   57.49
   1  -5  -5 1814.02   58.49
   1  -5  -5 1875.51   57.89
   1  -5  -5 1874.41   57.89
  -1   5   5 1714.13   57.99
  -1   5   5 1863.61   61.69
   0  -5  -5  583.14   19.90
   0  -5  -5  603.44   21.50
   0  -5  -5  592.54   19.20
   0  -5  -5  582.34   20.00
   0   5   5  583.54   22.40
   0   5   5  598.04   19.40
   0   5   5  604.94   22.90
  -1  -5  -5  427.06   14.60
  -1  -5  -5  444.86   16.30
  -1  -5  -5  417.46   14.20
   1   5   5  432.06   14.30
   1   5   5  416.56   18.30
   1   5   5  442.06   17.30
  -2  -5  -5  892.71   29.60
  -2  -5  -5  876.61   29.30
   2   5   5  955.50   32.70
   2   5   5  975.70   29.60
   2   5   5  908.71   34.90
   3   5   5   31.70    4.20
   4   5   5  834.42   29.80
   5   5   5   29.00    3.50
   5   5   5   28.20    2.30
   5   5   5   20.60    5.40
   6   5   5   36.20    5.30
   6   5   5   37.90    2.10
   4  -6  -5  634.84   20.40
  -4   6   5  650.03   20.50
   3  -6  -5  617.14   20.40
  -3   6   5  635.24   20.40
  -3   6   5  626.14   20.50
   2  -6  -5  487.85   16.00
   2  -6  -5  487.35   15.90
  -2   6   5  424.96   21.70
  -2   6   5  479.55   16.00
  -2   6   5  480.35   15.80
   1  -6  -5  351.76   12.20
   1  -6  -5  358.36   11.70
   1  -6  -5  348.77   12.30
  -1   6   5  327.67   18.40
  -1   6   5  339.27   11.90
  -1   6   5  357.66   12.20
   0  -6  -5   32.00    4.50
   0  -6  -5   30.10    2.60
   0  -6  -5   26.70    4.30
   0  -6  -5   31.80    2.20
   0   6   5   30.70    8.50
   0   6   5   32.10    2.50
   0   6   5   32.00    3.10
  -1  -6  -5 1238.58   39.50
  -1  -6  -5 1267.17   39.20
   1   6   5 1198.98   45.20
   1   6   5 1229.88   39.10
   1   6   5 1271.37   43.00
  -2  -6  -5  437.56   14.90
  -2  -6  -5  439.06   14.60
   2   6   5  443.96   17.80
   2   6   5  439.26   14.30
   2   6   5  437.16   21.20
  -3  -6  -5  393.86   13.30
   3   6   5  392.76   14.00
   3   6   5  405.56   16.30
  -4  -6  -5 1170.98   37.50
   4   6   5 1193.38   40.40
   4   6   5 1222.68   38.30
   5   6   5    6.60    1.80
   5   6   5    8.40    1.40
   5   6   5    4.90    2.90
   3  -7  -5   77.49    3.30
  -3   7   5   80.39    3.50
  -3   7   5   82.59    3.20
   2  -7  -5 1016.60   32.50
   2  -7  -5 1026.20   32.30
  -2   7   5 1015.60   32.40
   1  -7  -5  139.49    5.20
   1  -7  -5  153.88    5.90
   1  -7  -5  147.79    6.00
  -1   7   5  142.59    5.40
  -1   7   5  147.69    5.80
   0  -7  -5  185.98    7.20
   0  -7  -5  195.28    6.90
   0   7   5  192.38    7.10
  -1  -7  -5  629.04   20.90
  -1  -7  -5  632.64   20.60
   1   7   5  660.33   20.60
  -2  -7  -5  110.79    4.50
  -2  -7  -5  114.79    4.90
   2   7   5  113.19    4.10
   2   7   5  107.09    4.90
   2   7   5  111.89    7.00
  -3  -7  -5 1303.57   39.80
   3   7   5 1264.27   41.10
   3   7   5 1232.88   42.40
  -4  -7  -5   16.90    2.20
   4   7   5   23.50    3.00
   4   7   5   20.00    1.80
   2  -8  -5  502.55   16.10
   2  -8  -5  496.75   16.30
  -2   8   5  542.65   17.30
   1  -8  -5   26.70    2.60
   1  -8  -5   26.60    1.80
  -1   8   5   25.20    1.70
   0  -8  -5  746.83   24.30
   0  -8  -5  799.62   24.80
   0   8   5  783.32   24.50
  -1  -8  -5   50.99    2.30
  -1  -8  -5   51.79    2.70
   1   8   5   51.19    2.30
  -2  -8  -5   16.40    2.10
  -2  -8  -5   21.40    1.50
  -3  -8  -5  975.10   30.40
  -2  -8   6    2.50    0.50
  -2  -8   6    3.00    0.70
   1   8  -6  273.77    8.80
  -1  -8   6  278.07    9.00
  -1  -8   6  272.77    8.70
   0   8  -6  291.47    9.70
   0  -8   6  301.47    9.70
  -1   8  -6   32.70    1.70
   1  -8   6   31.90    1.90
   1  -8   6   34.00    1.70
  -2   8  -6  674.53   21.20
   2  -8   6  673.53   21.10
  -3  -7   6  461.55   14.60
  -3  -7   6  462.95   14.70
   2   7  -6  124.99    4.30
  -2  -7   6  122.19    4.40
  -2  -7   6  120.29    4.60
   1   7  -6  949.01   30.60
  -1  -7   6  965.50   30.40
  -1  -7   6 1008.40   30.80
   0   7  -6   84.59    3.60
   0  -7   6   91.19    3.60
   0  -7   6   82.89    5.80
   0  -7   6   85.49    3.30
  -1   7  -6  511.25   16.40
  -1   7  -6  492.45   16.20
   1  -7   6  512.25   16.30
   1  -7   6  502.35   16.30
  -2   7  -6  831.02   25.90
   2  -7   6  786.12   25.30
   2  -7   6  789.62   25.30
  -3   7  -6   80.69    4.90
  -3   7  -6   66.19    2.80
   3  -7   6   67.29    2.70
   4   6  -6  518.25   19.50
  -4  -6   6  552.14   16.90
  -3  -6   6    1.60    0.80
   2   6  -6  509.75   16.20
  -2  -6   6  497.15   16.40
  -2  -6   6  502.15   16.10
   1   6  -6  343.17   11.50
  -1  -6   6  350.66   11.20
  -1  -6   6  327.77   16.50
   0   6  -6    8.00    1.40
   0   6  -6    7.20    1.10
   0  -6   6    7.40    1.50
   0  -6   6   10.10    1.50
   0  -6   6    7.00    4.60
  -1   6  -6  201.38    7.20
  -1   6  -6  200.48   14.70
  -1   6  -6  199.68    7.20
   1  -6   6  199.48    6.80
   1  -6   6  201.58    7.10
   1  -6   6  202.18    7.10
   1  -6   6  192.38   12.50
  -2   6  -6  136.29    5.20
  -2   6  -6  137.19    4.80
  -2   6  -6  139.89    5.30
  -2   6  -6  132.39   12.40
   2  -6   6  105.29   19.80
   2  -6   6  136.39    5.10
   2  -6   6  139.99    5.10
  -3   6  -6 1334.27   42.00
  -3   6  -6 1361.16   42.10
  -3   6  -6 1318.67   41.60
   3  -6   6 1345.77   41.80
  -4   6  -6   34.60    1.80
  -4   6  -6   34.80    1.90
   4  -6   6   38.30    1.70
   5   5  -6  452.25   16.80
  -5  -5   6  459.85   14.40
   4   5  -6  250.17   11.90
  -4  -5   6  237.98    8.20
   3   5  -6  433.16   13.60
  -3  -5   6  426.56   13.90
  -3  -5   6  393.16   19.00
  -3  -5   6  439.76   13.70
   2   5  -6 1340.57   40.90
  -2  -5   6 1313.97   41.10
  -2  -5   6 1298.57   40.80
  -2  -5   6 1275.87   45.90
   1   5  -6  468.85   15.20
  -1  -5   6  462.05   14.90
  -1  -5   6  462.05   19.80
  -1  -5   6  460.35   15.10
   0   5  -6 1313.87   41.40
   0   5  -6 1350.56   46.50
   0   5  -6 1272.97   41.70
   0  -5   6 1329.87   41.40
   0  -5   6 1303.57   46.30
   0  -5   6 1361.76   41.20
   0  -5   6 1319.07   41.50
  -1   5  -6  180.88   10.80
  -1   5  -6  173.08    6.00
  -1   5  -6  169.68    6.30
  -1   5  -6  171.28    6.30
   1  -5   6  167.68    6.20
   1  -5   6  169.48    5.90
   1  -5   6  170.58   10.30
   1  -5   6  173.28    6.20
  -2   5  -6   48.00    2.50
  -2   5  -6   49.10    2.90
  -2   5  -6   48.00    7.50
  -2   5  -6   47.50    2.40
   2  -5   6   40.50    7.90
   2  -5   6   47.90    2.50
   2  -5   6   49.60    2.60
  -3   5  -6  562.04   17.80
  -3   5  -6  537.65   23.60
  -3   5  -6  564.64   18.10
   3  -5   6  578.04   18.00
   3  -5   6  546.35   22.90
  -4   5  -6    2.80    0.70
   4  -5   6    2.50    0.70
  -5   5  -6  147.49    5.20
  -5   5  -6  147.89    5.10
   5   4  -6  620.24   22.90
  -5  -4   6  601.34   19.30
   4   4  -6   66.59    6.40
  -4  -4   6   66.89    3.10
  -4  -4   6   49.40    5.50
   3   4  -6 1046.70   31.70
  -3  -4   6  977.00   36.10
  -3  -4   6 1016.30   31.70
  -3  -4   6  999.50   31.90
  -2  -4   6  251.27   12.30
  -2  -4   6  241.78    8.40
  -2  -4   6  256.17    8.70
   1   4  -6  939.01   29.20
  -1  -4   6  951.20   33.40
  -1  -4   6  919.11   29.00
  -1  -4   6  920.91   29.20
  -1  -4   6  899.71   73.39
   0   4  -6  108.49    4.40
   0   4  -6  119.49    7.50
   0   4  -6  113.39    4.60
   0  -4   6  112.59    4.60
   0  -4   6  113.59    4.40
   0  -4   6  116.19    7.20
   0  -4   6  110.59    4.20
  -1   4  -6   25.40    1.90
  -1   4  -6   29.10    4.20
  -1   4  -6   29.10    2.00
  -1   4  -6   28.20    2.20
   1  -4   6   29.60    4.40
   1  -4   6   25.30    2.00
   1  -4   6   30.60    1.80
   1  -4   6   25.80    2.00
  -2   4  -6  982.90   35.40
  -2   4  -6  965.90   31.00
  -2   4  -6  970.90   31.20
  -2   4  -6 1000.60   30.80
   2  -4   6  980.10   30.90
   2  -4   6 1023.30   35.30
   2  -4   6  963.60   30.90
  -3   4  -6   23.50    1.60
  -3   4  -6   22.20    5.00
  -3   4  -6   23.70    1.80
   3  -4   6   23.60    1.70
  -4   4  -6    6.50    1.40
  -4   4  -6    8.40    4.60
   4  -4   6    3.20    3.10
   4  -4   6    4.80    1.80
  -5   4  -6  355.76   11.10
  -5   4  -6  348.47   11.30
   5  -4   6  330.67   11.80
   5  -4   6  321.87   11.20
  -6   4  -6   20.10    1.20
   6  -4   6   18.80    1.60
   6   3  -6 1187.58   37.70
   5   3  -6   69.29    5.70
  -5  -3   6   71.59    3.20
   4   3  -6  919.91   32.30
  -4  -3   6  827.02   27.70
  -4  -3   6  777.32   30.80
  -4  -3   6  901.81   27.10
   3   3  -6  599.34   24.80
  -3  -3   6  625.14   19.70
  -3  -3   6  634.84   19.50
  -3  -3   6  581.14   22.90
   2   3  -6  164.78    6.00
  -2  -3   6  162.18    8.70
  -2  -3   6  176.08   29.60
  -2  -3   6  170.98    6.40
   1   3  -6 2271.17   69.29
   1   3  -6 2043.70   66.09
  -1  -3   6 2153.78  108.79
  -1  -3   6 2069.49   69.29
   0   3  -6   86.39    5.50
   0  -3   6   78.69   18.20
   0  -3   6   87.79    5.60
  -1   3  -6  557.64   20.30
   1  -3   6  519.35   19.90
  -2   3  -6 3623.44  108.69
  -2   3  -6 3275.57  102.29
   2  -3   6 3377.46  105.69
   2  -3   6 3189.58  102.09
   2  -3   6 3093.39  102.09
  -3   3  -6  275.77   12.60
  -3   3  -6  267.67    8.90
  -3   3  -6  261.87    9.10
   3  -3   6  266.07    8.90
   3  -3   6  261.27    9.80
  -4   3  -6  388.76   12.70
  -4   3  -6  384.06   12.90
  -4   3  -6  385.26   17.10
   4  -3   6  391.96   12.60
   4  -3   6  392.36   13.70
   4  -3   6  400.86   17.50
  -5   3  -6  179.78    6.20
  -5   3  -6  175.38    6.40
   5  -3   6  176.08    7.00
  -6   3  -6  119.29    4.10
   6  -3   6  112.69    4.70
   6   2  -6  279.97   10.30
   6   2  -6  289.57   10.30
  -6  -2   6  294.47    9.40
   5   2  -6   87.79    6.70
  -5  -2   6   94.69    4.00
   4   2  -6 1172.68   44.70
   4   2  -6 1248.78   37.80
   4   2  -6 1230.08   42.90
  -4  -2   6 1213.58   38.40
  -4  -2   6 1218.88   37.90
  -4  -2   6 1183.68   41.40
   3   2  -6   49.10    5.50
   3   2  -6   53.79    2.80
   3   2  -6   51.79    6.40
  -3  -2   6   49.60    3.40
  -3  -2   6   55.49    4.80
  -3  -2   6   56.09    3.10
   2   2  -6 1149.48   40.30
   2   2  -6 1181.88   36.50
  -2  -2   6 1176.48   39.20
   1   2  -6 1465.85   47.30
  -1  -2   6 1412.96   47.10
   0   2  -6   94.89    4.60
   0  -2   6   95.99   15.80
   0  -2   6   85.69    5.10
  -1   2  -6 1836.22   59.69
   1  -2   6 1872.21   59.89
  -2   2  -6    5.90    1.80
   2  -2   6    4.80    2.10
  -3   2  -6 1381.76   44.10
  -3   2  -6 1504.95   48.20
  -3   2  -6 1352.56   43.90
   3  -2   6 1403.46   43.90
   3  -2   6 1428.56   46.60
  -4   2  -6  460.95   16.00
  -4   2  -6  475.25   15.80
  -4   2  -6  510.15   19.60
   4  -2   6  495.65   16.90
   4  -2   6  515.65   20.50
  -5   2  -6   17.80    8.00
  -5   2  -6   21.40    2.20
  -5   2  -6   21.10    3.10
   5  -2   6   23.80    2.80
   5  -2   6   21.80    5.40
  -6   2  -6  755.02   23.40
   6  -2   6  731.23   24.30
   6   1  -6    2.00    1.20
   5   1  -6  856.31   31.40
  -5  -1   6  840.82   26.90
   4   1  -6  387.36   25.40
   4   1  -6  473.65   14.80
   4   1  -6  480.15   19.40
  -4  -1   6  479.05   18.40
  -4  -1   6  439.26   15.40
  -4  -1   6  452.45   14.80
   3   1  -6  365.96   15.70
   3   1  -6  361.66   16.30
   3   1  -6  363.56   12.00
  -3  -1   6  388.46   14.90
  -3  -1   6  309.67   13.50
  -2  -1   6  773.62   27.00
  -1  -1   6   53.19    3.80
   0  -1   6  502.15   18.60
  -1   1  -6 9999.00  321.87
   2  -1   6   22.40    3.00
  -3   1  -6 3114.99   95.99
   3  -1   6 2938.71   94.19
  -4   1  -6  304.37   12.60
   4  -1   6  313.67   14.00
   4  -1   6  293.97    9.70
   4  -1   6  291.27   11.00
   4  -1   6  303.17   10.70
   5  -1   6  767.52   29.80
   5  -1   6  812.42   26.30
  -6   1  -6  551.14   18.00
   6  -1   6  569.54   20.50
   6  -1   6  576.94   18.60
   6  -1   6  564.04   19.00
   7  -1   6   42.90    2.20
   7  -1   6   36.60    3.40
   7  -1   6   46.90    2.70
   6   0  -6  157.38    6.40
  -6   0   6  160.78    5.60
  -5   0   6  872.21   27.20
  -5   0   6  839.32   27.70
   4   0  -6   48.90    5.20
   4   0  -6   43.00    2.80
   4   0  -6   39.50    6.40
  -4   0   6   44.10    6.00
  -4   0   6   42.00    2.80
  -4   0   6   39.80    3.80
   3   0  -6 1466.75   50.49
   3   0  -6 1472.05   46.70
  -3   0   6 1530.25   50.79
  -2   0   6 2470.55   79.89
  -1   0   6    2.60    1.50
   0   0   6 2395.76   75.99
   1   0   6  339.97   12.30
   2   0   6 4589.24  142.29
  -3   0  -6 1825.12   58.29
   3   0   6 1737.13   57.39
   3   0   6 1911.51   59.79
  -4   0  -6  421.36   16.10
   4   0   6  412.06   17.10
   4   0   6  412.56   14.20
   4   0   6  418.16   14.60
   5   0   6 1295.67   41.00
   5   0   6 1317.27   41.50
   5   0   6 1243.98   44.80
   6   0   6   36.00    2.50
   6   0   6   39.60    3.90
   6   0   6   38.10    2.70
   7   0   6  130.79    6.00
   7   0   6  138.89    5.40
   7   0   6  150.28    5.30
   6  -1  -6  478.75   16.00
  -6   1   6  492.75   15.60
  -5   1   6  596.94   19.90
  -5   1   6  601.14   19.40
   4  -1  -6  203.28    7.30
  -4   1   6  193.08    7.80
  -4   1   6  199.38    7.20
   3  -1  -6 1372.26   42.00
  -3   1   6 1265.47   42.20
  -3   1   6 1294.77   41.70
  -3   1   6 1398.66   46.70
  -2   1   6   17.90    3.20
  -1   1   6 4593.24  144.49
   0  -1  -6 3754.92  115.59
   0   1   6 3706.13  117.49
   1   1   6   13.80    2.20
  -2  -1  -6 3573.24  110.59
  -3  -1  -6  246.48    8.70
   3   1   6  262.67   10.70
   3   1   6  239.08    8.80
   3   1   6  245.58    9.10
   4   1   6 1591.94   51.99
   4   1   6 1553.54   48.80
   4   1   6 1510.55   48.80
   4   1   6 1525.15   50.99
   4   1   6 1568.64   49.40
   5   1   6  634.14   21.20
   5   1   6  631.94   21.30
   5   1   6  662.03   21.80
   5   1   6  650.63   23.70
   6   1   6  158.38    6.30
   6   1   6  161.28    6.50
   6   1   6  151.48    7.90
   7   1   6  798.22   27.00
   7   1   6  808.02   26.40
   7   1   6  825.82   25.70
  -6   2   6  482.45   15.30
   5  -2  -6   45.80    2.50
   5  -2  -6   50.29    3.60
  -5   2   6   49.40    2.70
  -5   2   6   54.09    3.40
   4  -2  -6  950.40   29.80
  -4   2   6  917.61   35.60
  -4   2   6  925.01   29.60
  -4   2   6  921.71   30.10
   3  -2  -6 1709.23   53.29
   3  -2  -6 1722.53   53.29
  -3   2   6 1637.64   53.49
  -3   2   6 1685.73   52.99
  -3   2   6 1738.33   57.89
   2  -2  -6  113.19    5.00
  -2   2   6  126.69    4.70
  -2   2   6  124.89    7.20
  -2   2   6  108.09    5.00
   1  -2  -6 6209.98  203.38
  -1   2   6 6913.71  205.28
   0  -2  -6   42.60    2.30
  -1  -2  -6 4075.59  124.69
   1   2   6 3989.20  126.29
  -2  -2  -6 1558.14   48.50
   2   2   6 1532.65   49.20
  -3  -2  -6  568.24   18.20
   3   2   6  529.15   19.90
   3   2   6  558.04   18.60
   3   2   6  558.54   19.70
   4   2   6 1350.86   41.90
   4   2   6 1324.17   41.30
   4   2   6 1236.98   45.00
   5   2   6   21.50    2.50
   5   2   6   21.80    3.50
   5   2   6   20.60    2.30
   5   2   6   24.70    2.40
   6   2   6   27.00    2.50
   6   2   6   25.80    3.50
   6   2   6   24.80    2.30
   7   2   6  359.96   11.90
  -6   3   6  296.77    9.50
   5  -3  -6   28.20    1.90
  -5   3   6   28.50    1.90
   4  -3  -6  907.91   30.40
   4  -3  -6  839.62   30.50
  -4   3   6  900.81   35.70
  -4   3   6 1022.40   30.10
   3  -3  -6   16.70    2.30
  -3   3   6   21.50    3.50
  -3   3   6   19.40    4.90
  -3   3   6   21.10    2.50
  -3   3   6   21.10    2.00
   2  -3  -6 1915.91   60.49
   2  -3  -6 1957.40   60.59
  -2   3   6 1895.81   60.09
  -2   3   6 1929.51   60.59
  -2   3   6 1969.80   64.09
   1  -3  -6 2724.03   84.59
   1  -3  -6 2789.22   84.99
   1  -3  -6 2906.21   85.59
  -1   3   6 2407.76   84.59
  -1   3   6 2911.71   88.09
  -1   3   6 2665.53   84.89
   0  -3  -6 2061.09   63.99
   0   3   6 2061.89   66.49
   0   3   6 2015.70   66.99
  -1  -3  -6 1899.51   59.59
   1   3   6 1955.00   62.69
   1   3   6 1865.71   61.79
   2   3   6   16.80    3.00
   3   3   6 1471.75   47.70
   3   3   6 1520.75   50.09
   3   3   6 1536.55   48.10
  -4  -3  -6  554.34   19.60
   4   3   6  583.94   19.30
   4   3   6  573.64   21.70
   4   3   6  583.74   19.60
   5   3   6  410.36   14.30
   5   3   6  386.46   16.30
   5   3   6  412.56   14.00
   6   3   6  514.05   16.80
   6   3   6  519.05   18.70
   6   3   6  492.55   17.10
   6   3   6  502.05   16.70
   5  -4  -6  448.76   14.20
   4  -4  -6  122.99    5.00
  -4   4   6  121.79    4.70
   3  -4  -6   48.40    3.10
   3  -4  -6   42.60    3.40
  -3   4   6   44.10    3.10
  -3   4   6   40.60    4.40
  -3   4   6   48.00    2.60
  -3   4   6   46.30    6.90
   2  -4  -6 2188.08   72.79
   2  -4  -6 2418.06   74.39
   2  -4  -6 2650.33   75.59
  -2   4   6 2379.06   73.79
  -2   4   6 2238.18   77.49
  -2   4   6 2262.67   73.19
  -2   4   6 2374.16   73.89
   1  -4  -6   71.39    3.80
   1  -4  -6   72.09    4.30
   1  -4  -6   73.49    4.10
   1  -4  -6   70.09    3.40
  -1   4   6   65.19    3.80
  -1   4   6   72.89    4.00
  -1   4   6   78.39    6.30
  -1   4   6   70.39    3.30
   0  -4  -6 1983.90   62.19
   0  -4  -6 2047.00   62.89
   0   4   6 1981.30   64.89
   0   4   6 1964.70   62.39
   0   4   6 1977.50   65.09
   0   4   6 2039.50   65.89
  -1  -4  -6  386.46   13.30
  -1  -4  -6  365.66   12.90
   1   4   6  397.16   15.60
   1   4   6  394.16   16.40
   1   4   6  384.66   12.90
  -2  -4  -6  234.78    9.50
  -2  -4  -6  226.28    9.10
   2   4   6  252.07   12.90
   2   4   6  246.18    8.40
   2   4   6  241.18   11.20
   3   4   6  571.34   18.90
   3   4   6  550.34   21.40
   4   4   6    7.50    1.70
   4   4   6   10.00    2.80
   5   4   6  298.67   10.60
   5   4   6  289.87   13.00
   5   4   6  313.37   11.10
   6   4   6  154.48    7.10
   6   4   6  156.48    5.80
  -5   5   6  447.96   14.30
   4  -5  -6  232.58    8.30
  -4   5   6  243.58    8.10
   3  -5  -6   89.49    4.30
   3  -5  -6   91.99    4.20
  -3   5   6   91.19    4.90
  -3   5   6   87.39    3.50
  -3   5   6   81.29   10.50
   2  -5  -6  650.03   21.20
   2  -5  -6  645.84   21.20
  -2   5   6  640.14   20.30
  -2   5   6  635.94   26.10
  -2   5   6  628.64   21.30
   1  -5  -6 1015.50   35.40
   1  -5  -6 1091.19   34.00
   1  -5  -6 1107.39   34.60
   1  -5  -6 1083.19   34.60
  -1   5   6 1054.09   38.80
  -1   5   6 1103.09   34.50
   0  -5  -6 1257.47   42.40
   0  -5  -6 1287.97   42.10
   0  -5  -6 1447.26   41.90
   0   5   6 1346.17   45.10
   0   5   6 1332.27   41.80
   0   5   6 1248.48   45.20
  -1  -5  -6   59.39    3.40
  -1  -5  -6   56.39    3.60
  -1  -5  -6   57.59    3.70
   1   5   6   52.29    6.00
   1   5   6   54.89    3.60
   1   5   6   53.09    6.40
  -2  -5  -6 1158.98   38.40
   2   5   6 1241.68   38.10
   2   5   6 1209.98   41.60
   2   5   6 1241.28   44.70
  -3  -5  -6  219.58    8.50
   3   5   6  230.98   11.10
   4   5   6   82.09    6.00
   5   5   6  531.35   19.80
   5   5   6  546.45   18.10
   6   5   6   11.90    2.50
   6   5   6   17.20    1.50
   4  -6  -6  351.86   11.80
  -4   6   6  376.76   11.90
   3  -6  -6  216.78    7.90
   3  -6  -6  234.28    8.20
  -3   6   6  233.98    8.20
  -3   6   6  229.68    8.40
   2  -6  -6    1.60    1.20
   2  -6  -6    2.60    1.30
  -2   6   6    0.20    1.30
   1  -6  -6  377.26   13.00
   1  -6  -6  341.97   11.90
   1  -6  -6  341.77   12.30
  -1   6   6  364.76   13.60
  -1   6   6  351.96   12.30
  -1   6   6  325.67   21.50
   0  -6  -6   13.20    2.90
   0  -6  -6   12.00    1.70
   0  -6  -6   13.20    1.90
   0   6   6   15.30    2.10
  -1  -6  -6   16.00    2.40
  -1  -6  -6   13.90    2.00
   1   6   6   15.30    3.30
   1   6   6   11.80    5.00
   1   6   6   14.80    2.00
  -2  -6  -6  172.08    6.70
  -2  -6  -6  182.78    7.50
   2   6   6  174.38   13.70
   2   6   6  177.28    9.40
   2   6   6  184.08    6.60
  -3  -6  -6    0.60    1.60
   3   6   6    1.40    1.60
  -4  -6  -6  237.48    8.60
   4   6   6  249.97    9.10
   4   6   6  240.28   10.80
   5   6   6  180.08    7.90
   5   6   6  191.38    6.80
   3  -7  -6    7.40    0.90
  -3   7   6    6.90    1.20
  -3   7   6    7.80    1.10
   2  -7  -6  501.25   16.40
   2  -7  -6  494.25   16.30
  -2   7   6  496.95   16.10
  -2   7   6  513.55   16.50
   1  -7  -6  757.82   23.80
   1  -7  -6  733.43   23.40
   1  -7  -6  693.13   22.70
  -1   7   6  693.23   22.70
  -1   7   6  727.73   23.30
   0  -7  -6   71.09    3.20
   0  -7  -6   73.79    3.70
   0   7   6   69.69    3.40
  -1  -7  -6  703.93   22.80
  -1  -7  -6  685.03   22.50
   1   7   6  713.23   22.40
  -2  -7  -6   37.50    2.30
  -2  -7  -6   34.70    2.90
   2   7   6   35.60    4.20
   2   7   6   34.00    2.90
  -3  -7  -6   75.99    3.30
   3   7   6   72.99    3.70
   3   7   6   71.39    5.10
  -4  -7  -6  222.88    7.50
   4   7   6  215.38    9.20
   4   7   6  225.98    7.80
  -2   8   6  266.77    8.70
   1  -8  -6   73.29    3.00
   1  -8  -6   69.19    4.30
  -1   8   6   72.89    3.00
   0  -8  -6   69.29    3.10
   0  -8  -6   65.09    2.60
   0   8   6   68.19    2.90
  -1  -8  -6  222.48    7.70
  -1  -8  -6  219.98    7.40
   1   8   6  217.48    7.20
  -2  -8  -6   36.60    2.40
  -2  -8  -6   43.40    2.00
  -3  -8  -6  257.47    8.40
   1   8  -7  122.89    4.10
   0   8  -7  197.48    6.60
   0  -8   7  202.58    6.70
  -1   8  -7   67.59    2.60
   1  -8   7   65.39    2.70
   1  -8   7   63.79    2.50
  -3  -7   7  607.94   18.00
  -3  -7   7  541.15   18.10
   2   7  -7  162.38    5.50
  -2  -7   7  169.18    5.70
  -2  -7   7  168.68    5.80
   1   7  -7  331.67   10.90
  -1  -7   7  336.37   10.80
  -1  -7   7  332.57   11.00
   0   7  -7  282.07    9.70
   0  -7   7  295.47    9.70
   0  -7   7  290.47    9.40
   0  -7   7  290.17    9.80
  -1   7  -7  205.48    7.00
  -1   7  -7  206.48    7.20
   1  -7   7  203.78    7.70
   1  -7   7  208.08    7.10
  -2   7  -7  454.05   14.70
  -2   7  -7  442.86   14.60
   2  -7   7  464.55   14.50
   2  -7   7  445.16   14.40
  -3   7  -7    1.00    0.70
  -3   7  -7    1.10    1.20
   3  -7   7    1.10    0.60
   4   6  -7  321.97   12.40
  -4  -6   7  331.87   10.40
  -3  -6   7  579.74   18.50
  -3  -6   7  587.34   18.60
   2   6  -7  586.64   18.50
  -2  -6   7  579.74   18.80
  -2  -6   7  581.04   18.50
   1   6  -7  628.14   20.00
  -1  -6   7  574.94   25.80
  -1  -6   7  642.34   20.00
  -1  -6   7  632.44   19.70
   0   6  -7    0.30    1.20
   0   6  -7    1.40    0.90
   0  -6   7    1.00    1.10
   0  -6   7    0.00    1.40
   0  -6   7   -0.60    5.30
   0  -6   7    2.00    0.80
  -1   6  -7  603.94   19.00
  -1   6  -7  550.74   27.00
  -1   6  -7  588.74   18.90
   1  -6   7  546.75   25.30
   1  -6   7  594.44   18.80
   1  -6   7  592.94   18.30
   1  -6   7  603.64   18.80
  -2   6  -7  499.05   16.20
  -2   6  -7  482.85   16.20
   2  -6   7  501.15   16.00
   2  -6   7  491.55   15.90
  -3   6  -7  902.71   28.30
  -3   6  -7  895.01   28.20
  -3   6  -7  869.41   27.80
   3  -6   7  896.51   28.00
  -4   6  -7 1126.39   35.00
  -4   6  -7 1108.79   34.60
   4  -6   7 1116.59   34.70
   5   5  -7    5.30    1.60
  -5  -5   7    8.40    1.10
   4   5  -7  550.34   20.40
  -4  -5   7  562.24   17.10
  -4  -5   7  501.05   18.00
   3   5  -7   15.30    1.60
  -3  -5   7   15.50    2.00
  -3  -5   7   21.10    1.60
   2   5  -7 1320.87   39.10
  -2  -5   7 1237.78   39.00
  -2  -5   7 1288.47   39.30
  -2  -5   7 1148.99   44.30
   1   5  -7  568.64   18.90
  -1  -5   7  564.84   24.00
  -1  -5   7  593.74   18.90
  -1  -5   7  604.94   18.60
   0   5  -7 1217.08   44.50
   0   5  -7 1236.68   38.70
   0   5  -7 1216.58   38.60
   0  -5   7 1253.97   38.30
   0  -5   7 1228.08   38.60
   0  -5   7 1213.68   44.20
  -1   5  -7 1188.68   37.60
  -1   5  -7 1163.18   37.50
  -1   5  -7 1225.48   37.10
  -1   5  -7 1199.58   43.50
   1  -5   7 1187.58   37.40
   1  -5   7 1205.88   37.50
   1  -5   7 1161.58   43.20
   1  -5   7 1202.98   37.10
  -2   5  -7   73.09    3.30
  -2   5  -7   69.89    3.10
  -2   5  -7   67.99    8.20
  -2   5  -7   70.19    3.50
   2  -5   7   62.69   10.10
   2  -5   7   76.89    3.20
   2  -5   7   70.89    3.30
  -3   5  -7  917.61   29.40
  -3   5  -7  940.71   29.00
  -3   5  -7  947.01   29.30
   3  -5   7  855.81   34.40
   3  -5   7  936.11   29.00
  -4   5  -7   21.70    1.50
  -4   5  -7   22.30    1.70
   4  -5   7   21.20    1.40
  -5   5  -7  111.89    3.90
  -5   5  -7  107.69    4.10
   5   4  -7  390.36   15.30
  -5  -4   7  403.36   12.70
   4   4  -7  340.97   15.20
  -4  -4   7  360.36   11.90
  -4  -4   7  345.17   11.40
   3   4  -7  640.74   19.50
  -3  -4   7  559.14   24.30
  -3  -4   7  623.44   19.60
  -3  -4   7  629.54   19.80
   2   4  -7 1252.47   38.20
  -2  -4   7 1170.38   42.90
  -2  -4   7 1230.18   38.40
  -2  -4   7 1224.38   38.10
   1   4  -7   -1.40    5.00
   1   4  -7    3.40    1.00
  -1  -4   7    1.90    2.60
  -1  -4   7    3.20    0.90
  -1  -4   7    2.60    1.10
   0   4  -7  921.51   32.90
   0   4  -7  889.21   28.50
   0   4  -7  902.61   28.40
   0  -4   7  900.51   28.40
   0  -4   7  879.71   28.30
   0  -4   7  877.31   32.60
   0  -4   7  907.21   28.10
  -1   4  -7  336.97   11.30
  -1   4  -7  357.16   15.70
  -1   4  -7  340.87   11.10
  -1   4  -7  330.37   11.30
   1  -4   7  345.37   15.60
   1  -4   7  334.57   10.90
   1  -4   7  327.57   11.20
   1  -4   7  334.27   11.20
  -2   4  -7  603.14   24.40
  -2   4  -7  619.14   19.60
  -2   4  -7  608.24   19.80
  -2   4  -7  629.14   19.90
   2  -4   7  610.54   19.60
   2  -4   7  604.64   20.10
   2  -4   7  619.94   24.50
  -3   4  -7 4006.80  120.39
  -3   4  -7 3829.92  120.59
  -3   4  -7 3927.61  126.39
   3  -4   7 3844.02  120.39
  -4   4  -7  488.45   15.20
  -4   4  -7  479.65   14.90
  -4   4  -7  450.85   20.80
   4  -4   7  479.05   14.80
   4  -4   7  431.66   20.30
   4  -4   7  436.16   16.20
  -5   4  -7  526.95   16.60
  -5   4  -7  516.25   16.80
  -6   4  -7   63.09    2.40
   6  -4   7   58.79    3.00
   6  -4   7   65.29    3.50
  -5  -3   7  376.96   12.20
   4   3  -7    2.70    2.30
  -4  -3   7   -0.30    6.10
  -4  -3   7    0.90    1.70
  -4  -3   7    0.50    1.00
   3   3  -7 1246.68   37.90
   3   3  -7 1257.37   43.10
   3   3  -7 1188.48   43.80
  -3  -3   7 1191.48   42.50
  -3  -3   7 1209.28   37.90
  -3  -3   7 1172.68   38.10
   2   3  -7  457.35   14.60
   2   3  -7  455.05   18.80
  -2  -3   7  435.16   14.50
  -2  -3   7  453.75   52.79
  -2  -3   7  446.26   14.70
  -2  -3   7  456.55   18.30
   1   3  -7 2772.02   86.59
   1   3  -7 2769.22   86.49
   1   3  -7 2846.52   90.19
  -1  -3   7 2631.64   90.09
  -1  -3   7 2929.91  135.99
  -1  -3   7 2825.22   86.59
  -1  -3   7 2804.22   86.29
   0   3  -7 1475.95   47.20
   0   3  -7 1478.65   47.20
   0   3  -7 1575.34   50.79
   0  -3   7 1593.74   88.29
   0  -3   7 1512.75   46.90
   0  -3   7 1507.15   47.20
   0  -3   7 1437.16   50.59
  -1   3  -7  126.39    7.40
  -1   3  -7  107.69    5.60
   1  -3   7  125.99    4.60
   1  -3   7  123.39    5.10
   1  -3   7  120.69    7.50
   1  -3   7  120.49    4.40
  -2   3  -7  251.97    8.50
  -2   3  -7  255.27   12.00
  -2   3  -7  248.28    8.70
  -2   3  -7  278.17   10.30
   2  -3   7  262.27   12.30
   2  -3   7  256.37    8.70
   2  -3   7  250.27    8.60
  -3   3  -7  307.17   10.90
  -3   3  -7  326.77   15.00
   3  -3   7  345.07   11.30
   3  -3   7  316.87   11.70
  -4   3  -7  626.64   20.40
  -4   3  -7  625.54   20.20
  -4   3  -7  635.94   25.20
   4  -3   7  628.44   20.10
   4  -3   7  640.04   21.20
   4  -3   7  646.04   25.90
  -5   3  -7  302.57   10.20
  -5   3  -7  298.17    9.80
   5  -3   7  291.47   10.80
  -6   3  -7    1.20    0.60
   6  -3   7    1.20    0.90
   6  -3   7    2.20    0.90
   6   2  -7  775.92   24.50
  -6  -2   7  737.23   23.60
   5   2  -7   73.99    5.70
  -5  -2   7   71.89    3.20
   4   2  -7 1178.58   44.20
   4   2  -7 1176.58   37.10
   4   2  -7 1253.37   42.40
  -4  -2   7 1147.99   37.50
  -4  -2   7 1165.78   41.00
  -4  -2   7 1203.08   37.20
   3   2  -7 1393.56   49.40
   3   2  -7 1404.26   48.40
  -3  -2   7 1387.36   43.70
  -3  -2   7 1367.56   44.00
  -3  -2   7 1465.45   47.40
   2   2  -7  149.79    8.60
   2   2  -7  149.39    5.40
  -2  -2   7  146.89    7.80
   1   2  -7 2028.00   65.79
  -1  -2   7 2038.00   65.89
   0   2  -7  119.29    5.70
   0  -2   7  125.49   18.90
   0  -2   7   98.39    6.10
  -1   2  -7 1090.59   36.90
   1  -2   7 1098.19   37.20
  -2   2  -7 1463.35   48.80
   2  -2   7 1407.96   45.40
   2  -2   7 1517.45   48.70
  -3   2  -7  294.47    9.80
  -3   2  -7  304.67   13.10
  -3   2  -7  295.57   10.10
   3  -2   7  301.67   10.70
   3  -2   7  294.37    9.80
  -4   2  -7  191.18    7.20
  -4   2  -7  209.28   11.00
  -4   2  -7  198.28    7.00
   4  -2   7  204.98   11.60
   4  -2   7  206.68    8.00
   4  -2   7  191.58    6.80
  -5   2  -7   78.99    4.10
  -5   2  -7   67.69   12.30
  -5   2  -7   80.49    3.30
   5  -2   7   71.69    8.20
   5  -2   7   79.29    4.00
  -6   2  -7   94.39    3.60
   6  -2   7   92.89    4.30
   6  -2   7   95.09    5.40
   6  -2   7   99.29    4.30
   6   1  -7  905.21   28.50
  -6  -1   7  870.01   27.70
  -5  -1   7  179.28    6.30
  -5  -1   7  170.58    7.40
   4   1  -7 1066.59   37.50
   4   1  -7 1041.70   39.60
   4   1  -7 1011.30   32.80
  -4  -1   7 1057.89   32.70
  -4  -1   7 1050.09   36.40
  -4  -1   7 1015.70   33.20
   3   1  -7    0.90    2.40
   3   1  -7    3.90    1.20
   3   1  -7    0.40    2.20
  -3  -1   7    1.40    2.10
  -3  -1   7    2.70    1.50
  -3  -1   7    0.20    1.00
   2   1  -7 2041.50   61.69
  -2  -1   7 2160.88   64.89
  -2  -1   7 1898.21   61.49
  -2  -1   7 1833.72   61.89
  -1  -1   7 1865.41   78.79
   0  -1   7 1500.75   67.99
   0  -1   7 1409.06   47.40
  -1   1  -7  379.86   24.50
   2  -1   7  338.37   13.10
  -3   1  -7 1984.50   62.29
   3  -1   7 1823.02   59.79
  -4   1  -7  318.57   13.40
  -4   1  -7  275.27   10.20
   4  -1   7  306.47    9.80
   4  -1   7  308.17   14.40
   4  -1   7  309.17   11.10
   5  -1   7   10.00    1.70
   5  -1   7    7.20    3.20
  -6   1  -7  250.87    8.70
   6  -1   7  266.97   10.90
   6  -1   7  256.07    9.50
   6  -1   7  261.87    9.20
   6   0  -7   61.79    3.10
  -5   0   7 1212.28   37.10
  -5   0   7 1145.89   37.50
   4   0  -7  937.21   36.60
   4   0  -7  958.30   34.50
   4   0  -7  950.40   30.20
  -4   0   7  970.80   34.40
  -4   0   7  925.51   30.60
  -4   0   7  956.80   30.00
   3   0  -7  451.85   15.10
   3   0  -7  453.75   18.50
  -3   0   7  477.85   18.90
  -3   0   7  442.06   15.20
  -3   0   7  443.26   14.70
   2   0  -7 1622.54   53.09
  -2   0   7 1789.12   56.99
  -1   0   7    9.10    2.40
   0   0   7 3167.58   99.99
   1   0   7  223.58    9.10
   2   0   7 1256.17   50.49
   2   0   7 1137.69   57.19
   3   0   7  603.74   20.30
  -4   0  -7  173.18    8.50
   4   0   7  169.38    9.50
   5   0   7  353.96   12.50
   5   0   7  347.17   14.10
   5   0   7  315.87   15.90
   5   0   7  349.47   12.00
   6   0   7  429.46   15.00
   6   0   7  453.95   16.60
   6   0   7  418.86   14.60
   7   0   7  124.69    4.80
   7   0   7  114.59    5.40
   7   0   7  130.89    4.60
   6  -1  -7  221.58    7.60
  -5   1   7  594.74   20.40
  -5   1   7  647.94   20.00
   4  -1  -7  125.39    5.10
  -4   1   7  117.19    9.70
  -4   1   7  109.99    5.40
  -4   1   7  118.49    4.80
   3  -1  -7 1519.85   47.50
  -3   1   7 1554.84   52.79
  -3   1   7 1485.25   47.70
  -3   1   7 1473.15   47.10
   2  -1  -7  154.78    6.50
  -2   1   7  150.68    6.10
  -2   1   7  152.48    5.70
  -2   1   7  172.28    9.40
  -1   1   7  270.57   12.10
   0   1   7 1750.22   56.99
  -1  -1  -7 1913.61   60.19
   1   1   7 1932.61   61.39
  -2  -1  -7 2796.12   86.99
  -3  -1  -7 1850.31   58.79
   3   1   7 1888.81   59.09
   3   1   7 1821.72   58.59
   3   1   7 1859.91   60.29
   3   1   7 1954.70   61.39
   4   1   7   95.59    6.90
   4   1   7  102.69    5.20
   4   1   7   93.49    5.90
   4   1   7   86.19    5.00
   5   1   7  602.34   20.10
   5   1   7  597.74   22.20
   5   1   7  610.54   20.50
   6   1   7   35.00    3.70
   6   1   7   38.00    2.60
   6   1   7   37.70    2.70
   7   1   7  245.68    8.50
   7   1   7  227.28    9.50
   7   1   7  255.97    8.20
  -6   2   7  613.14   19.20
   5  -2  -7  239.28    8.90
   5  -2  -7  227.18    7.80
  -5   2   7  242.18    8.10
   4  -2  -7  480.45   16.10
  -4   2   7  491.75   15.80
  -4   2   7  474.35   16.40
  -4   2   7  477.45   22.10
   3  -2  -7 1112.69   34.90
   3  -2  -7 1049.89   34.60
  -3   2   7 1129.99   40.30
  -3   2   7 1107.79   34.40
  -3   2   7 1054.39   35.00
   2  -2  -7   48.50    3.60
   2  -2  -7   52.89    3.20
  -2   2   7   49.20    3.30
  -2   2   7   56.09    5.50
  -2   2   7   54.39    2.80
  -2   2   7   50.69    5.10
  -1   2   7 1162.48   40.20
   0  -2  -7  209.98    7.80
   0   2   7  206.58    9.90
  -1  -2  -7 1063.19   33.80
   1   2   7 1054.89   35.20
  -2  -2  -7 2831.92   86.59
   2   2   7 2728.43   87.29
  -3  -2  -7  185.98    7.00
   3   2   7  168.48    6.90
   3   2   7  177.48    7.20
   3   2   7  165.78    8.20
   3   2   7  173.88    8.40
   4   2   7 1788.82   56.29
   4   2   7 1784.02   58.59
   4   2   7 1777.72   56.59
   5   2   7  509.65   20.40
   5   2   7  476.35   17.90
   6   2   7  340.17   11.60
   6   2   7  325.07   13.40
   6   2   7  337.77   12.00
   5  -3  -7   49.30    2.30
  -5   3   7   55.39    2.50
   4  -3  -7  957.10   30.20
  -4   3   7  986.40   29.90
  -4   3   7  950.00   30.50
  -4   3   7  868.21   36.60
   3  -3  -7  119.29    5.30
   3  -3  -7  116.09    5.50
  -3   3   7  122.09    5.50
  -3   3   7  124.59    4.80
   2  -3  -7  654.13   21.00
   2  -3  -7  629.94   21.00
  -2   3   7  641.84   21.40
  -2   3   7  645.84   20.50
  -2   3   7  617.84   21.00
   1  -3  -7 1608.04   49.10
   1  -3  -7 1654.43   49.80
   1  -3  -7 1574.24   48.70
   1  -3  -7 1547.45   49.50
  -1   3   7 1353.16   50.09
  -1   3   7 1603.24   49.10
  -1   3   7 1426.56   48.70
  -1   3   7 1695.13   53.09
   0  -3  -7  424.26   14.40
   0  -3  -7  410.26   13.70
   0  -3  -7  406.06   14.10
   0   3   7  407.06   14.00
   0   3   7  426.86   17.20
  -1  -3  -7  781.22   25.30
   1   3   7  774.62   24.90
  -2  -3  -7 2187.58   66.79
   2   3   7 2156.98   66.59
   2   3   7 2097.39   68.59
   2   3   7 2078.59   66.09
  -3  -3  -7  190.78    7.60
   3   3   7  183.88    7.10
   3   3   7  176.68    7.70
   3   3   7  175.98    9.00
   4   3   7 1178.48   37.70
   4   3   7 1179.38   38.30
   6   3   7  613.84   22.20
   6   3   7  610.84   20.20
   6   3   7  648.94   20.30
   5  -4  -7  266.07    8.70
  -5   4   7  277.77    8.80
   4  -4  -7  778.62   25.40
  -4   4   7  799.32   25.00
   3  -4  -7   17.90    2.40
   3  -4  -7   16.40    2.20
  -3   4   7   23.10    3.10
  -3   4   7   17.30    1.70
  -3   4   7   14.30    2.20
  -3   4   7   13.80    5.30
   2  -4  -7  570.64   19.00
   2  -4  -7  579.04   19.10
  -2   4   7  546.25   23.40
  -2   4   7  585.04   19.30
  -2   4   7  559.34   18.30
  -2   4   7  570.34   19.00
   1  -4  -7  773.02   24.70
   1  -4  -7  708.13   24.00
   1  -4  -7  760.32   25.40
   1  -4  -7  752.02   24.60
  -1   4   7  768.12   28.80
  -1   4   7  748.93   24.60
  -1   4   7  754.42   23.70
  -1   4   7  750.52   24.50
   0  -4  -7 2277.67   70.89
   0  -4  -7 2248.28   70.49
   0  -4  -7 2286.47   71.69
   0  -4  -7 2183.78   70.99
   0   4   7 2261.47   70.69
   0   4   7 2290.77   75.09
   0   4   7 2306.67   73.19
  -1  -4  -7 1642.54   51.79
  -1  -4  -7 1689.33   53.69
  -1  -4  -7 1576.94   51.39
   1   4   7 1632.64   51.49
   1   4   7 1683.73   54.29
  -2  -4  -7   25.80    3.10
  -2  -4  -7   25.70    3.50
   2   4   7   26.10    4.20
   2   4   7   20.80    2.50
  -3  -4  -7 1844.82   59.59
   3   4   7 1890.81   61.99
   3   4   7 1891.31   58.99
   4   4   7  293.77   10.50
   4   4   7  292.67   13.20
   5   4   7  513.35   19.80
   5   4   7  524.65   17.20
   6   4   7   84.59    4.90
   6   4   7   83.89    4.10
   4  -5  -7  269.37    9.20
  -4   5   7  270.47    8.70
   3  -5  -7  397.66   13.40
   3  -5  -7  410.66   13.80
  -3   5   7  398.96   12.90
  -3   5   7  399.96   14.00
   2  -5  -7 1198.38   37.50
  -2   5   7 1193.08   37.60
  -2   5   7 1130.79   43.20
  -2   5   7 1156.98   36.40
   1  -5  -7  110.39    5.10
   1  -5  -7  106.39    5.30
   1  -5  -7  108.59    8.00
   1  -5  -7  102.99    4.50
  -1   5   7  108.79    5.00
  -1   5   7  104.69   10.70
   0  -5  -7 1817.62   61.39
   0  -5  -7 1958.00   60.69
   0  -5  -7 1923.71   60.29
   0  -5  -7 1966.30   61.09
   0   5   7 1967.80   60.59
   0   5   7 1932.71   63.19
  -1  -5  -7  102.49    4.90
  -1  -5  -7  102.29    4.50
  -1  -5  -7   95.39    5.30
   1   5   7  103.09    7.00
   1   5   7   99.79    4.50
  -2  -5  -7  445.96   15.20
  -2  -5  -7  441.96   16.30
  -2  -5  -7  455.25   15.60
   2   5   7  467.55   18.30
   2   5   7  466.65   15.00
  -3  -5  -7  951.40   30.90
   3   5   7  988.40   34.30
   4   5   7    3.90    2.10
   5   5   7  855.71   30.00
   5   5   7  894.21   29.40
   3  -6  -7   70.39    4.10
  -3   6   7   72.19    3.40
  -3   6   7   68.89    3.70
   2  -6  -7  583.34   19.60
   2  -6  -7  604.14   19.80
  -2   6   7  608.34   19.90
   1  -6  -7  529.05   17.20
   1  -6  -7  553.24   17.90
   1  -6  -7  529.35   17.90
  -1   6   7  509.75   17.40
  -1   6   7  536.95   17.80
   0  -6  -7 1592.74   50.29
   0  -6  -7 1570.64   49.80
   0   6   7 1599.54   50.09
  -1  -6  -7   83.89    4.30
  -1  -6  -7   85.19    3.90
   1   6   7   85.29    3.90
   1   6   7   79.79    6.20
  -2  -6  -7  508.95   16.80
  -2  -6  -7  505.55   16.50
   2   6   7  474.65   19.30
   2   6   7  500.35   16.10
  -3  -6  -7   51.19    3.20
   3   6   7   46.60    4.50
  -4  -6  -7  264.27    9.00
   4   6   7  261.47    9.50
   4   6   7  240.88   11.00
   5   6   7  156.18    5.70
   5   6   7  145.09    6.70
   3  -7  -7   40.10    2.00
  -3   7   7   44.00    1.80
  -3   7   7   39.70    2.30
   2  -7  -7   88.29    3.70
   2  -7  -7   86.29    3.80
  -2   7   7   92.89    3.50
  -2   7   7   91.89    3.90
   1  -7  -7  943.71   30.10
   1  -7  -7  936.91   30.20
  -1   7   7  947.11   30.10
   0  -7  -7   62.89    3.00
   0  -7  -7   68.69    3.50
   0   7   7   64.09    3.20
  -1  -7  -7  763.62   24.60
  -1  -7  -7  767.92   24.90
   1   7   7  777.22   24.50
  -2  -7  -7  710.33   22.30
  -2  -7  -7  670.43   21.30
   2   7   7  620.14   21.60
   2   7   7  658.73   24.10
  -3  -7  -7   11.60    1.70
   3   7   7   10.30    1.80
   3   7   7    8.30    2.00
   4   7   7  304.77   11.70
   4   7   7  308.47   10.40
   1  -8  -7  238.88    8.10
  -1   8   7  237.28    7.90
   0  -8  -7   54.99    2.60
   0   8   7   51.69    2.30
  -1  -8  -7    1.50    0.90
  -1  -8  -7    2.50    0.70
  -2  -8  -7    3.90    1.20
  -2  -8  -7    1.70    0.70
   0   8  -8  236.58    7.70
   0  -8   8  244.58    7.80
  -2  -7   8  140.89    4.90
  -2  -7   8  137.69    4.70
   1   7  -8  722.13   22.50
  -1  -7   8  707.03   22.30
  -1  -7   8  713.53   22.60
   0   7  -8  117.69    4.50
   0  -7   8  106.49    4.30
   0  -7   8  108.79    4.30
   0  -7   8  101.89    3.70
  -1   7  -8    0.00    0.90
  -1   7  -8    2.50    0.80
   1  -7   8    0.20    0.70
   1  -7   8    1.90    0.90
  -2   7  -8   72.39    2.90
  -2   7  -8   76.09    3.20
   2  -7   8   70.99    2.90
   2  -7   8   72.89    2.90
  -3   7  -8   82.89    3.60
   3  -7   8   85.09    3.00
  -4  -6   8  344.57   10.90
   3   6  -8  187.18   11.20
  -3  -6   8  198.98    6.70
  -3  -6   8  197.18    6.50
   2   6  -8    6.80    0.90
  -2  -6   8    9.00    1.20
  -2  -6   8   11.40    1.20
   1   6  -8  541.95   17.40
  -1  -6   8  529.95   17.40
  -1  -6   8  542.75   17.20
   0   6  -8   31.30    2.00
   0   6  -8   26.30    2.20
   0  -6   8   30.20    1.80
   0  -6   8   26.20    2.30
   0  -6   8   28.70    2.00
  -1   6  -8  548.25   17.80
  -1   6  -8  542.25   17.90
   1  -6   8  545.75   17.70
   1  -6   8  564.24   17.80
  -2   6  -8  123.89    4.80
  -2   6  -8  117.89    4.80
   2  -6   8  122.39    4.60
   2  -6   8  120.79    4.60
  -3   6  -8   13.70    1.50
  -3   6  -8   10.70    1.30
  -3   6  -8   13.10    1.80
   3  -6   8   11.60    1.20
  -4   6  -8  103.39    3.80
   4  -6   8   99.69    3.50
   4   5  -8  534.75   19.40
  -4  -5   8  539.85   16.90
  -4  -5   8  534.15   17.10
   3   5  -8    7.40    1.00
   3   5  -8    6.60    3.00
  -3  -5   8    7.70    1.30
  -3  -5   8    7.00    1.00
   2   5  -8 1935.41   59.29
  -2  -5   8 1867.01   59.29
  -2  -5   8 1928.81   59.49
   1   5  -8  167.08    6.00
  -1  -5   8  148.69   11.00
  -1  -5   8  164.38    5.70
  -1  -5   8  166.88    6.00
  -1  -5   8  159.88    6.40
   0   5  -8   46.00    2.60
   0   5  -8   47.10   11.70
   0   5  -8   44.00    2.60
   0  -5   8   44.30    2.20
   0  -5   8   44.10    2.40
   0  -5   8   41.80    7.20
   0  -5   8   41.80    2.80
  -1   5  -8  643.54   20.20
  -1   5  -8  602.84   26.50
  -1   5  -8  632.24   20.20
  -1   5  -8  635.14   19.60
   1  -5   8  589.74   26.10
   1  -5   8  620.34   19.60
   1  -5   8  636.54   20.10
  -2   5  -8   34.90    1.90
  -2   5  -8   33.30    2.60
  -2   5  -8   32.00    8.00
  -2   5  -8   32.80    2.20
   2  -5   8   31.20    2.00
   2  -5   8   36.90    9.10
   2  -5   8   32.90    2.20
  -3   5  -8  264.67    9.10
  -3   5  -8  262.07    8.80
  -3   5  -8  260.17    9.50
   3  -5   8  261.27    8.80
  -4   5  -8  287.67    9.40
  -4   5  -8  283.77    9.70
   4  -5   8  282.77    9.30
  -5   5  -8    8.10    0.90
  -5  -4   8  743.43   23.20
   4   4  -8  386.66   15.90
  -4  -4   8  382.36   12.50
  -4  -4   8  391.26   12.80
   3   4  -8    3.70    1.00
   3   4  -8    4.40    3.10
  -3  -4   8    3.30    9.30
  -3  -4   8    7.10    1.30
  -3  -4   8    7.30    1.10
   2   4  -8 1442.66   44.60
  -2  -4   8 1456.75   44.80
  -2  -4   8 1409.36   44.50
  -2  -4   8 1409.06   49.99
   1   4  -8    3.80    1.10
   1   4  -8    0.70    6.60
  -1  -4   8    4.60    2.10
  -1  -4   8    6.50    1.20
  -1  -4   8    3.60    0.90
  -1  -4   8    9.20    3.50
   0   4  -8 1077.29   31.90
   0   4  -8  997.10   36.70
   0  -4   8 1000.60   31.60
   0  -4   8  923.11   36.20
  -1   4  -8  862.41   24.90
  -1   4  -8  752.42   24.20
  -1   4  -8  727.53   29.10
   1  -4   8  704.83   28.90
   1  -4   8  752.42   23.60
   1  -4   8  724.13   24.20
  -2   4  -8  102.59    4.10
  -2   4  -8   89.59    4.40
  -2   4  -8   97.99    3.80
  -2   4  -8   89.99    8.20
   2  -4   8   94.79    4.00
   2  -4   8   87.19    9.70
   2  -4   8   97.09    3.80
  -3   4  -8 1497.15   46.50
  -3   4  -8 1462.25   52.69
  -3   4  -8 1485.85   46.20
   3  -4   8 1478.75   46.20
  -4   4  -8  127.99    4.80
  -4   4  -8  129.59    5.10
   4  -4   8  131.39    4.70
  -5   4  -8 1562.74   48.20
  -5   4  -8 1547.65   48.30
   5  -4   8 1535.65   48.20
   5   3  -8  320.87   13.10
  -5  -3   8  337.87   10.70
   4   3  -8   40.50    5.00
  -4  -3   8   37.70    2.20
  -4  -3   8   42.80    3.10
   3   3  -8 1256.57   44.70
   3   3  -8 1256.67   38.70
   3   3  -8 1211.98   42.90
  -3  -3   8 1221.28   43.30
  -3  -3   8 1226.88   38.60
  -3  -3   8 1237.58   38.90
   2   3  -8 1432.96   49.00
   2   3  -8 1407.36   44.40
  -2  -3   8 1439.56   48.90
  -2  -3   8 1410.86   44.50
   1   3  -8  174.28    6.30
   1   3  -8  160.58    9.90
   1   3  -8  171.48    6.20
  -1  -3   8  173.18    6.00
  -1  -3   8  171.98    6.30
  -1  -3   8  180.48   39.70
  -1  -3   8  165.08    6.80
  -1  -3   8  173.38    9.50
   0   3  -8 2379.56   77.89
   0   3  -8 2431.46   78.09
   0   3  -8 2534.05   82.39
   0  -3   8 2480.45   77.99
   0  -3   8 2310.47   81.99
   0  -3   8 2658.03  126.39
   0  -3   8 2850.61   79.29
   0  -3   8 2492.35   77.69
  -1   3  -8  172.48    6.00
  -1   3  -8  165.18    6.50
  -1   3  -8  174.78    9.50
  -1   3  -8  172.88    6.30
   1  -3   8  173.68    6.20
   1  -3   8  172.68   11.60
   1  -3   8  173.98    5.90
   1  -3   8  168.38    6.10
  -2   3  -8  780.22   24.60
  -2   3  -8  769.92   29.20
  -2   3  -8  765.42   25.10
  -2   3  -8  785.72   24.90
   2  -3   8  783.82   29.20
   2  -3   8  787.42   24.60
  -3   3  -8  914.91   28.80
  -3   3  -8  879.11   28.50
  -3   3  -8  890.61   33.60
   3  -3   8  935.31   30.70
   3  -3   8  904.21   28.50
  -4   3  -8  275.87    9.00
  -4   3  -8  286.57    9.30
  -4   3  -8  248.28   14.10
   4  -3   8  263.07    8.80
   4  -3   8  255.77   14.60
   4  -3   8  267.07   10.10
  -5   3  -8  111.29    4.70
  -5   3  -8  116.09    4.20
   5  -3   8  113.79    4.60
   5  -3   8  108.79    5.00
  -6   3  -8   13.40    1.20
   6  -3   8   14.30    2.10
   6  -3   8   13.70    2.10
  -5  -2   8  311.07   10.20
   4   2  -8    9.10    6.60
   4   2  -8    9.60    1.40
   4   2  -8    7.10    2.50
  -4  -2   8    9.00    5.00
  -4  -2   8    7.90    1.70
  -4  -2   8    7.90    1.10
   3   2  -8 1334.37   47.10
   3   2  -8 1293.97   45.80
   3   2  -8 1388.56   41.70
  -3  -2   8 1314.57   41.50
  -3  -2   8 1357.36   45.50
  -3  -2   8 1289.57   41.80
   2   2  -8   83.79    8.50
   2   2  -8   91.19    3.80
   2   2  -8  108.19    7.30
  -2  -2   8   93.39    4.00
  -2  -2   8   90.29    3.80
  -2  -2   8  103.19    6.40
   1   2  -8 1532.45   49.50
   1   2  -8 1548.95   52.69
   1   2  -8 1538.55   49.60
   1   2  -8 1631.34   52.59
  -1  -2   8 1577.94   49.40
  -1  -2   8 1689.73   54.99
  -1  -2   8 1623.24   85.89
   0   2  -8 1443.56   48.10
   0   2  -8 1671.73   49.80
   0  -2   8 1530.45   51.39
   0  -2   8 1492.15   47.80
   0  -2   8 1646.94   81.29
   0  -2   8 1476.85   48.00
  -1   2  -8  202.38    6.80
  -1   2  -8  200.48    7.10
  -1   2  -8  196.98    9.50
   1  -2   8  194.98    6.90
   1  -2   8  198.78    9.90
   1  -2   8  203.08    7.10
  -2   2  -8 3249.67  102.89
  -2   2  -8 3320.27  106.99
  -2   2  -8 3238.68  103.19
   2  -2   8 3272.67  103.09
   2  -2   8 3519.25  106.89
   2  -2   8 3372.86  102.89
   2  -2   8 3374.76  104.19
  -3   2  -8 1495.05   49.80
  -3   2  -8 1448.66   45.40
  -3   2  -8 1378.56   45.10
   3  -2   8 1453.75   45.10
   3  -2   8 1473.85   46.30
  -4   2  -8 4859.71  158.78
  -4   2  -8 5089.69  154.38
  -4   2  -8 4935.81  153.98
   4  -2   8 5198.08  155.28
   4  -2   8 4742.83  160.28
   4  -2   8 5183.08  153.88
  -5   2  -8  585.34   19.70
  -5   2  -8  608.14   19.40
   5  -2   8  617.94   20.60
   5  -2   8  621.84   19.90
  -6   2  -8  141.19    5.00
   6  -2   8  143.89    5.40
   6  -2   8  139.69    5.80
   6  -2   8  153.58    6.80
   6   1  -8  172.18    6.10
  -6  -1   8  167.68    5.60
  -5  -1   8    4.10    2.10
  -5  -1   8    6.50    1.00
   4   1  -8  490.15   20.40
   4   1  -8  503.85   22.80
  -4  -1   8  524.85   20.40
  -4  -1   8  509.35   16.70
   3   1  -8 1113.99   34.60
   3   1  -8 1126.49   40.10
   3   1  -8 1121.19   42.50
  -3  -1   8 1128.49   38.20
  -3  -1   8 1063.89   34.30
  -3  -1   8 1007.70   35.00
   2   1  -8  108.19    4.10
   2   1  -8   99.99    5.10
   2   1  -8   85.09    8.50
  -2  -1   8   95.99    3.80
  -2  -1   8   93.49    4.10
  -2  -1   8  104.19    6.30
   1   1  -8 3553.34  112.59
  -1  -1   8 3511.35  112.69
  -1  -1   8 3883.11  115.79
   0  -1   8  161.78    7.80
   0  -1   8  164.98   19.30
   1  -1   8 1640.24   53.79
   2  -1   8  206.38    8.00
   2  -1   8  190.98    6.70
  -3   1  -8   40.60    4.40
   3  -1   8   39.50    2.80
   3  -1   8   41.40    2.10
  -4   1  -8 1329.97   41.30
  -4   1  -8 1103.89   42.10
  -4   1  -8 1369.16   44.50
   4  -1   8 1365.56   41.60
   4  -1   8 1290.97   46.00
  -5   1  -8   76.69    3.60
   5  -1   8   81.29    3.90
   5  -1   8   85.79    4.30
  -6   1  -8  384.66   13.30
   6  -1   8  406.86   14.50
   6  -1   8  442.66   16.00
   6  -1   8  421.46   14.20
   6   0  -8  416.66   13.70
  -6   0   8  427.86   13.40
  -5   0   8  253.17    8.50
  -5   0   8  249.18    9.10
   4   0  -8 1359.06   49.10
   4   0  -8 1315.17   42.50
  -4   0   8 1370.16   46.70
  -4   0   8 1371.56   43.00
  -4   0   8 1338.97   42.30
   3   0  -8   48.90    6.60
   3   0  -8   49.00    2.90
  -3   0   8   41.90    2.50
  -3   0   8   49.99    5.50
   2   0  -8 1834.32   67.49
   2   0  -8 2053.69   61.59
   2   0  -8 1909.81   61.69
  -2   0   8 2101.49   65.59
  -2   0   8 1978.40   61.29
  -2   0   8 1989.20   61.59
  -1   0   8 1627.74   53.69
   0   0   8 1279.57   42.40
   1   0   8 2623.34   83.49
   3   0   8 2047.20   67.49
   3   0   8 2261.97   68.69
   3   0   8 2244.88   68.19
  -4   0  -8  577.14   21.80
   4   0   8  576.14   23.50
   4   0   8  606.64   20.10
   4   0   8  611.44   19.60
   5   0   8  153.88    9.00
   5   0   8  192.38    8.60
   5   0   8  173.78    7.60
   5   0   8  146.59   10.70
   6   0   8  302.27   12.00
   6   0   8  284.57   10.20
   6   0   8  286.67   10.60
  -5   1   8  739.53   23.10
  -5   1   8  711.63   23.50
   4  -1  -8  244.48   13.90
   4  -1  -8  219.18    9.50
  -4   1   8  237.48   13.20
  -4   1   8  227.88    9.00
   3  -1  -8  469.85   15.90
  -3   1   8  489.55   20.70
  -3   1   8  464.05   16.00
  -3   1   8  466.35   15.40
   2  -1  -8 1757.22   56.79
   2  -1  -8 1875.41   56.79
  -2   1   8 1864.51   56.29
  -2   1   8 1602.34   57.09
  -2   1   8 1943.61   61.69
  -2   1   8 1838.02   56.79
   1  -1  -8   14.10    2.30
  -1   1   8   10.10    1.60
  -1   1   8   15.40    3.40
  -1   1   8    9.10    1.50
   0   1   8 3485.45  110.49
  -1  -1  -8   63.59    3.30
   1   1   8   61.39    4.40
  -2  -1  -8  273.27    9.90
   2   1   8  272.27   10.20
   3   1   8 1463.55   46.10
   3   1   8 1508.45   47.20
   3   1   8 1509.35   49.80
   3   1   8 1446.56   48.10
   3   1   8 1463.55   46.70
  -4  -1  -8   30.50    5.30
   4   1   8   26.40    2.40
   4   1   8   24.90    4.90
   4   1   8   23.30    3.40
   5   1   8  194.18    9.30
   5   1   8  209.78   11.30
   6   1   8  183.78    8.40
   6   1   8  173.08    7.00
   6   1   8  173.88    6.70
   5  -2  -8 1414.46   43.90
  -5   2   8 1382.26   44.60
   4  -2  -8   11.20    1.60
  -4   2   8   13.30    5.90
  -4   2   8   13.80    2.00
   3  -2  -8 1370.26   47.50
   3  -2  -8 1545.55   47.90
  -3   2   8 1557.64   48.00
  -3   2   8 1579.24   47.40
   2  -2  -8  645.14   21.80
   2  -2  -8  654.53   21.80
  -2   2   8  627.74   22.20
  -2   2   8  663.53   21.80
  -2   2   8  691.23   21.20
  -2   2   8  702.03   26.70
   1  -2  -8  727.03   26.80
   1  -2  -8  869.11   27.20
   1  -2  -8  922.61   27.70
  -1   2   8  787.62   27.20
  -1   2   8  892.31   31.40
  -1   2   8  869.41   27.30
   0  -2  -8 2890.51   87.39
   0  -2  -8 2800.62   86.79
   0   2   8 2926.81   90.19
   0   2   8 2537.35   86.99
  -1  -2  -8  256.17    9.20
   1   2   8  262.17   10.60
   1   2   8  214.68    9.00
  -2  -2  -8 1285.47   39.20
   2   2   8 1149.08   38.30
   2   2   8 1228.18   40.30
  -3  -2  -8    6.60    1.80
   3   2   8    1.80    1.20
   3   2   8    3.80    1.90
   3   2   8    2.80    1.40
   4   2   8  918.61   31.60
   4   2   8  903.11   29.90
   4   2   8  897.01   29.40
   5   2   8  118.39    6.90
   5   2   8  120.39    5.60
   5   2   8  119.39    5.30
   6   2   8   57.89    4.70
   6   2   8   44.50    3.00
  -5   3   8   38.60    1.80
   4  -3  -8  767.12   25.40
  -4   3   8  790.72   25.70
  -4   3   8  806.32   25.10
   3  -3  -8  525.35   18.00
   3  -3  -8  556.24   18.30
  -3   3   8  560.34   18.40
  -3   3   8  560.84   17.70
  -3   3   8  513.35   18.90
  -3   3   8  548.15   24.20
   2  -3  -8  176.38    7.30
   2  -3  -8  181.78    7.20
  -2   3   8  185.58    7.30
  -2   3   8  178.98   11.30
  -2   3   8  187.38    6.60
  -2   3   8  190.38    8.30
   1  -3  -8  883.41   28.10
   1  -3  -8  892.51   28.70
   1  -3  -8  879.81   28.70
  -1   3   8  860.41   28.60
  -1   3   8  919.41   33.20
  -1   3   8  870.61   28.70
  -1   3   8  900.31   27.90
   0  -3  -8  290.07   10.80
   0  -3  -8  290.27    9.90
   0  -3  -8  292.87   10.30
   0   3   8  280.27   10.20
   0   3   8  281.27   13.70
  -1  -3  -8  446.56   15.30
  -1  -3  -8  449.86   15.50
   1   3   8  429.36   14.60
   1   3   8  431.06   16.80
  -2  -3  -8 2036.30   64.39
  -2  -3  -8 2102.79   65.39
  -2  -3  -8 2017.10   64.99
   2   3   8 2029.60   64.39
   2   3   8 2151.88   67.09
   2   3   8 2087.89   64.79
  -3  -3  -8   34.20    3.70
   3   3   8   35.30    4.20
   3   3   8   36.80    2.90
   4   3   8  381.56   13.50
   4   3   8  389.56   14.20
   4   3   8  400.56   16.00
   5   3   8   44.40    4.40
   5   3   8   42.60    2.90
   6   3   8   41.90    2.40
   6   3   8   36.70    3.60
  -5   4   8    2.90    0.50
   4  -4  -8  592.54   20.10
  -4   4   8  646.04   19.70
   3  -4  -8   98.29    4.70
   3  -4  -8   98.59    4.70
  -3   4   8   89.59    5.60
  -3   4   8   97.89    3.80
  -3   4   8   97.09    4.60
  -3   4   8   94.69   11.50
   2  -4  -8  754.72   25.10
   2  -4  -8  785.62   25.30
  -2   4   8  763.12   25.40
  -2   4   8  772.82   24.30
  -2   4   8  745.83   30.70
  -2   4   8  782.02   25.20
   1  -4  -8  422.26   14.40
   1  -4  -8  400.96   13.70
  -1   4   8  417.06   14.40
  -1   4   8  414.56   19.30
  -1   4   8  411.86   14.20
   0  -4  -8  132.99    5.80
   0  -4  -8  123.79    6.30
   0  -4  -8  127.29    5.20
   0  -4  -8  127.89    6.80
   0   4   8  128.79    8.10
   0   4   8  138.79   11.70
   0   4   8  131.09    5.70
  -1  -4  -8 1113.59   36.30
  -1  -4  -8 1126.19   37.30
  -1  -4  -8 1150.38   36.70
   1   4   8 1166.48   36.50
   1   4   8 1182.88   39.00
  -2  -4  -8    5.10    1.90
  -2  -4  -8    3.20    1.70
  -2  -4  -8    2.20    2.30
   2   4   8    4.40    2.20
  -3  -4  -8 1831.32   60.79
  -3  -4  -8 1905.11   62.19
   3   4   8 2047.40   61.29
   3   4   8 2015.10   64.29
   4   4   8  664.83   21.80
   4   4   8  655.13   24.60
   5   4   8   14.10    1.90
   5   4   8   10.80    2.50
   6   4   8  502.15   17.40
   6   4   8  488.95   16.00
   4  -5  -8  202.98    7.00
   3  -5  -8  240.38    8.80
   3  -5  -8  237.38    9.80
  -3   5   8  255.17    8.10
  -3   5   8  240.78    9.20
   2  -5  -8  497.05   16.60
   2  -5  -8  487.45   16.40
  -2   5   8  501.35   16.70
  -2   5   8  451.75   23.70
   1  -5  -8   50.99    3.40
   1  -5  -8   42.80    3.80
   1  -5  -8   47.80    2.70
  -1   5   8   46.90    3.40
  -1   5   8   41.50    9.40
   0  -5  -8   78.39    6.20
   0  -5  -8   84.19    4.00
   0  -5  -8   88.09    4.50
   0  -5  -8   99.39    5.80
   0   5   8   84.79    4.40
   0   5   8   84.59    6.60
  -1  -5  -8  883.21   27.90
  -1  -5  -8  850.11   27.40
  -1  -5  -8  811.82   28.80
   1   5   8  861.51   30.20
   1   5   8  865.31   27.60
  -2  -5  -8  307.07   11.30
  -2  -5  -8  305.77   10.90
   2   5   8  324.07   10.70
   2   5   8  316.67   13.50
  -3  -5  -8  331.47   10.90
   3   5   8  286.17   15.70
  -4  -5  -8   56.19    5.20
   4   5   8   65.49    5.20
   5   5   8  166.48    7.80
   5   5   8  165.68    6.50
   3  -6  -8  621.14   20.40
  -3   6   8  633.14   20.50
  -3   6   8  655.53   20.40
   2  -6  -8   84.29    4.00
   2  -6  -8   89.29    4.10
  -2   6   8   83.59    4.20
  -2   6   8   87.79    3.80
   1  -6  -8  107.09    4.10
   1  -6  -8  102.69    4.80
   1  -6  -8  104.69    5.10
  -1   6   8  103.09    4.70
  -1   6   8  103.39    4.50
   0  -6  -8 1119.09   35.20
   0  -6  -8 1064.69   35.80
   0  -6  -8 1136.59   35.80
   0   6   8 1126.89   35.50
  -1  -6  -8   11.60    1.90
  -1  -6  -8   12.00    1.80
   1   6   8   10.50    2.80
   1   6   8    9.30    1.50
  -2  -6  -8 1039.40   33.70
  -2  -6  -8 1070.59   33.40
   2   6   8 1018.00   36.10
   2   6   8 1073.59   33.00
  -3  -6  -8  903.01   28.60
   3   6   8  895.01   31.40
  -4  -6  -8   54.79    3.40
   4   6   8   56.69    3.20
   4   6   8   53.09    4.20
   5   6   8  485.95   16.30
   5   6   8  442.76   15.70
   2  -7  -8   26.50    2.00
   2  -7  -8   28.00    1.80
  -2   7   8   27.40    1.90
   1  -7  -8  102.39    4.90
   1  -7  -8  123.99    5.20
  -1   7   8  120.99    5.00
   0  -7  -8  558.64   17.70
   0  -7  -8  552.54   18.30
   0   7   8  552.14   18.10
  -1  -7  -8   50.09    3.00
  -1  -7  -8   44.00    2.40
   1   7   8   48.20    2.50
  -2  -7  -8  107.69    4.40
  -2  -7  -8  100.79    5.10
   2   7   8   99.29    6.40
   2   7   8   92.79    4.50
  -3  -7  -8   41.20    2.20
   3   7   8   36.80    3.50
   3   7   8   36.50    2.50
   4   7   8  197.78    6.90
   4   7   8  202.28    8.10
   0  -8  -8   74.99    3.10
   0   8   8   79.59    3.30
  -1  -8  -8  762.72   23.80
  -2  -8  -8  162.48    6.00
  -2  -8  -8  160.08    5.40
  -2  -7   9  785.62   24.60
   1   7  -9   71.49    2.70
  -1  -7   9   70.49    2.60
  -1  -7   9   72.09    2.80
   0   7  -9 1207.28   37.70
   0  -7   9 1230.98   37.70
   0  -7   9 1187.78   37.70
  -1   7  -9   22.50    1.60
  -1   7  -9   21.00    1.80
   1  -7   9   24.10    1.60
   1  -7   9   24.80    1.50
  -2   7  -9  246.68    8.50
  -2   7  -9  250.47    8.40
   2  -7   9  240.08    8.00
  -3  -6   9  122.09    4.20
   2   6  -9  294.87    9.60
  -2  -6   9  289.87    9.50
   1   6  -9  665.23   20.90
  -1  -6   9  652.83   20.60
  -1  -6   9  646.14   20.90
   0   6  -9  642.84   20.50
   0   6  -9  639.54   20.80
   0  -6   9  661.33   20.80
   0  -6   9  645.44   20.40
   0  -6   9  657.93   20.80
  -1   6  -9   45.00    2.40
  -1   6  -9   43.10    2.50
   1  -6   9   46.50    2.40
   1  -6   9   46.50    2.40
  -2   6  -9  616.24   19.70
  -2   6  -9  612.74   19.80
   2  -6   9  612.34   19.60
  -3   6  -9  102.99    4.00
   3  -6   9  100.99    3.70
  -4   6  -9   88.09    3.40
   4  -6   9   93.39    3.20
  -4  -5   9  453.15   14.30
   3   5  -9  169.58    5.90
   3   5  -9  168.68    9.10
  -3  -5   9  174.68    6.00
  -3  -5   9  194.18    6.80
   2   5  -9   53.09    9.10
   2   5  -9   54.69    2.50
  -2  -5   9   54.99    2.70
  -2  -5   9   53.39    2.40
   1   5  -9 2089.39   63.09
  -1  -5   9 1885.21   68.89
  -1  -5   9 1988.90   62.89
  -1  -5   9 2106.89   64.19
  -1  -5   9 2033.90   63.19
   0   5  -9   27.80    2.10
   0   5  -9   28.80    2.10
   0   5  -9   11.40   10.70
   0  -5   9   26.00    1.70
   0  -5   9   16.80    6.10
   0  -5   9   24.10    1.90
   0  -5   9   28.20    2.20
  -1   5  -9  596.04   19.00
  -1   5  -9  548.25   26.10
  -1   5  -9  595.04   19.10
   1  -5   9  599.74   18.80
   1  -5   9  546.75   25.50
   1  -5   9  611.44   18.90
  -2   5  -9  207.18   14.80
  -2   5  -9  228.18    7.40
  -2   5  -9  222.18    8.10
  -2   5  -9  221.28    7.90
   2  -5   9  222.78    7.60
   2  -5   9  225.78    7.70
  -3   5  -9   31.00    3.70
  -3   5  -9   32.10    1.80
  -3   5  -9   34.40    2.20
   3  -5   9   32.80    1.80
  -4   5  -9  628.34   20.20
  -4   5  -9  636.14   20.10
   4  -5   9  632.74   19.90
  -5   5  -9    9.90    0.90
  -5   5  -9    9.70    1.10
   4   4  -9  479.65   18.50
  -4  -4   9  522.65   16.00
  -4  -4   9  501.85   16.10
   3   4  -9    5.00    3.10
   3   4  -9    4.10    0.90
  -3  -4   9    6.30    1.20
  -3  -4   9    6.80    1.00
   2   4  -9  175.58    6.10
   2   4  -9  163.78   10.80
  -2  -4   9  173.18    6.00
  -2  -4   9  167.48   11.20
  -2  -4   9  172.88    6.30
   1   4  -9 1067.29   33.40
   1   4  -9 1062.69   33.30
  -1  -4   9 1064.09   39.10
  -1  -4   9 1048.80   33.40
  -1  -4   9 1053.69   33.40
  -1  -4   9 1053.99   33.20
   0   4  -9  133.39   10.80
   0   4  -9  149.59    5.50
   0   4  -9  148.69    5.60
   0  -4   9  133.59    9.70
   0  -4   9  148.19    5.50
   0  -4   9  148.09    5.10
   0  -4   9  140.59    5.40
  -1   4  -9  894.81   27.60
  -1   4  -9  904.01   28.20
  -1   4  -9  871.11   28.10
  -1   4  -9  858.91   33.70
   1  -4   9  898.91   27.90
   1  -4   9  830.42   33.50
   1  -4   9  908.71   27.50
   1  -4   9  880.01   27.90
  -2   4  -9    2.20    1.60
  -2   4  -9    1.50    0.80
  -2   4  -9    2.00    0.90
  -2   4  -9    2.30    3.80
   2  -4   9    2.50    1.10
  -3   4  -9   72.09    3.20
  -3   4  -9   68.39    3.80
  -3   4  -9   57.79    8.90
   3  -4   9   71.99    3.00
  -4   4  -9  176.58    6.50
  -4   4  -9  177.18    6.20
   4  -4   9  173.58    6.00
  -5   4  -9   55.79    2.70
  -5   4  -9   61.79    2.50
  -5  -3   9  922.21   28.70
   4   3  -9  229.48   11.00
  -4  -3   9  241.08    8.00
  -4  -3   9  244.68    8.90
   3   3  -9  676.43   30.70
  -3  -3   9  659.43   25.90
   2   3  -9 1983.40   67.99
   2   3  -9 2115.19   64.49
  -2  -3   9 2086.59   64.29
  -2  -3   9 2116.89   64.59
   1   3  -9  500.45   15.70
   1   3  -9  462.35   20.20
   1   3  -9  457.15   16.80
  -1  -3   9  506.25   20.00
   0   3  -9 1430.06   43.40
   0   3  -9 1370.26   43.90
   0   3  -9 1405.86   43.80
   0   3  -9 1408.76   48.60
   0  -3   9 1377.86   43.70
   0  -3   9 1417.76   48.60
   0  -3   9 1392.96   43.50
   0  -3   9 1389.76   43.80
  -1   3  -9  237.98    8.40
  -1   3  -9  233.18   12.20
  -1   3  -9  238.48    8.60
  -1   3  -9  240.58    8.00
   1  -3   9  246.48    7.90
   1  -3   9  245.58    8.30
   1  -3   9  233.18    8.20
   1  -3   9  239.48   12.60
  -2   3  -9  392.66   12.60
  -2   3  -9  384.26   13.30
  -2   3  -9  359.76   17.30
  -2   3  -9  400.06   13.00
   2  -3   9  390.26   12.60
   2  -3   9  384.46   12.60
  -3   3  -9  471.05   21.10
  -3   3  -9  478.95   15.60
  -3   3  -9  489.65   16.00
   3  -3   9  476.05   16.20
   3  -3   9  501.05   15.60
  -4   3  -9   61.49    3.10
  -4   3  -9   58.49    2.70
  -4   3  -9   56.09   10.70
   4  -3   9   42.20    9.90
   4  -3   9   59.29    2.50
   4  -3   9   56.89    3.50
   4  -3   9   57.09    3.80
  -5   3  -9  298.67    9.60
  -5   3  -9  281.57    9.80
   5  -3   9  289.07   10.10
  -6   3  -9   30.80    1.60
   6  -3   9   31.70    2.30
   6  -3   9   33.90    2.50
  -5  -2   9  895.21   29.90
  -5  -2   9  995.90   29.60
   4   2  -9   24.00    4.30
   4   2  -9   22.30    2.10
  -4  -2   9   26.50    1.80
  -4  -2   9   27.10    2.50
   3   2  -9  470.35   19.50
   3   2  -9  481.65   21.00
   3   2  -9  486.15   15.70
  -3  -2   9  476.65   15.80
  -3  -2   9  481.75   15.50
  -3  -2   9  487.75   19.60
   2   2  -9  616.24   23.80
   2   2  -9  601.24   19.50
   2   2  -9  569.34   20.10
   2   2  -9  605.24   23.70
  -2  -2   9  613.84   19.40
  -2  -2   9  634.74   21.00
  -2  -2   9  616.64   23.10
   1   2  -9  622.44   20.40
   1   2  -9  630.44   20.40
   1   2  -9  663.43   23.50
   1   2  -9  652.83   24.00
  -1  -2   9  650.13   23.80
  -1  -2   9  616.24   20.40
  -1  -2   9  613.94   21.00
  -1  -2   9  647.24   51.79
  -1  -2   9  634.94   20.20
   0   2  -9  841.12   27.20
   0   2  -9  868.11   27.00
   0   2  -9  848.92   27.30
   0  -2   9  847.12   27.20
   0  -2   9  827.12   27.40
   0  -2   9  865.81   27.00
   0  -2   9  930.31   58.49
  -1   2  -9   35.40    3.00
  -1   2  -9   39.90    4.20
  -1   2  -9   37.00    2.40
  -1   2  -9   38.50    2.10
   1  -2   9   37.40    2.40
   1  -2   9   35.10    2.10
   1  -2   9   44.30    5.10
  -2   2  -9  839.02   26.50
  -2   2  -9  819.72   26.20
  -2   2  -9  801.22   30.30
   2  -2   9  841.62   26.10
   2  -2   9  842.32   26.20
  -3   2  -9  164.28   10.00
  -3   2  -9  167.58    6.90
  -3   2  -9  162.38    5.80
   3  -2   9  166.18    7.10
   3  -2   9  154.98    6.50
   3  -2   9  164.68    5.80
  -4   2  -9  101.49    4.40
  -4   2  -9   85.69    8.60
  -4   2  -9   96.09    3.80
   4  -2   9   94.89    3.50
   4  -2   9   76.09    8.40
   4  -2   9   93.89    4.80
   4  -2   9   95.59    4.30
  -5   2  -9 1456.85   44.80
  -5   2  -9 1424.76   44.90
   5  -2   9 1418.06   45.20
   5  -2   9 1444.46   46.00
  -6   2  -9    2.70    0.80
   6  -2   9    1.20    0.90
   6  -2   9    2.50    1.20
  -5  -1   9  235.48    7.80
  -5  -1   9  227.38    8.20
   4   1  -9  821.02   26.40
   4   1  -9  857.91   34.50
  -4  -1   9  826.42   26.30
  -4  -1   9  819.42   26.70
   3   1  -9 2212.88   67.09
   3   1  -9 2187.98   72.69
   3   1  -9 2143.19   70.79
  -3  -1   9 2140.09   66.69
  -3  -1   9 2138.69   70.69
  -3  -1   9 2087.79   67.09
   2   1  -9   78.59    6.20
   2   1  -9   70.29    3.30
   2   1  -9   72.69    8.00
   2   1  -9   68.39    4.30
  -2  -1   9   77.29    5.70
  -2  -1   9   74.89    3.40
  -2  -1   9   76.49    3.20
   1   1  -9 2984.90   93.29
   1   1  -9 3043.10   93.39
  -1  -1   9 2976.60   93.29
  -1  -1   9 3129.59   96.59
  -1  -1   9 2915.81   93.49
  -1  -1   9 3058.89   93.09
   0   1  -9  572.14   18.00
   0   1  -9  511.15   18.30
   0   1  -9  552.34   18.20
   0  -1   9  623.54   41.20
   0  -1   9  558.44   17.90
   0  -1   9  554.04   18.20
   0  -1   9  598.54   21.00
   0  -1   9  563.94   18.20
  -1   1  -9  722.33   23.10
  -1   1  -9  733.13   22.90
   1  -1   9  726.13   23.00
   1  -1   9  748.83   26.30
   1  -1   9  706.33   23.00
  -2   1  -9 1587.14   49.00
  -2   1  -9 1532.45   48.10
   2  -1   9 1514.45   47.90
  -3   1  -9    3.40    2.40
  -3   1  -9    0.00    1.50
  -3   1  -9    2.20    1.10
   3  -1   9    1.30    1.00
   3  -1   9    1.60    1.60
  -4   1  -9  598.54   19.20
  -4   1  -9  599.34   19.50
  -4   1  -9  583.34   23.60
   4  -1   9  626.54   19.80
   4  -1   9  624.04   19.00
   4  -1   9  624.04   20.50
   4  -1   9  541.35   24.50
  -5   1  -9   37.40    2.40
   5  -1   9   38.70    2.70
   5  -1   9   34.70    2.70
  -6   1  -9  215.98    7.30
   6  -1   9  220.78    8.90
   6  -1   9  208.58    8.00
   6  -1   9  208.58    7.70
  -5   0   9    1.70    0.80
  -5   0   9    2.30    1.40
   4   0  -9  341.97   11.60
   4   0  -9  346.77   17.70
  -4   0   9  324.57   15.70
  -4   0   9  347.07   11.90
  -4   0   9  343.57   11.30
   3   0  -9  328.77   10.90
  -3   0   9  300.47   10.90
  -3   0   9  307.97   10.40
   2   0  -9  641.24   20.00
   2   0  -9  600.44   20.20
  -2   0   9  653.13   23.80
  -2   0   9  588.84   20.80
  -2   0   9  605.84   19.70
   1   0  -9 1316.57   40.50
   1   0  -9 1271.97   40.00
   1   0  -9 1300.47   40.30
  -1   0   9 1243.18   40.40
  -1   0   9 1280.67   40.20
  -1   0   9 1294.17   39.90
  -1   0   9 1267.07   43.90
   0   0  -9   12.20    1.70
   0   0  -9   18.20    1.90
   0   0   9   10.40    2.60
   0   0   9   13.00    1.50
   0   0   9   13.30    2.10
  -1   0  -9 2000.40   61.19
   1   0   9 1873.51   60.89
   1   0   9 2021.20   63.59
  -2   0  -9  986.60   31.70
  -2   0  -9  978.00   31.90
   2   0   9 1056.49   32.40
   2   0   9 1030.70   31.70
  -3   0  -9  231.58    8.20
  -3   0  -9  223.78    8.40
   3   0   9  245.98    9.20
   3   0   9  238.18    8.00
   3   0   9  239.28    8.70
  -4   0  -9 6037.10  197.48
  -4   0  -9 6353.56  193.98
   4   0   9 6601.24  194.68
   4   0   9 5858.91  207.58
   4   0   9 6665.63  195.48
  -5   0  -9   35.20    3.10
   5   0   9   40.10    3.80
   5   0   9   41.30    2.70
   5   0   9   37.30    2.90
   6   0   9  792.12   24.90
   6   0   9  771.12   26.30
   6   0   9  722.53   25.10
   5  -1  -9  375.06   13.10
  -5   1   9  388.16   12.90
  -5   1   9  397.56   12.60
   4  -1  -9  769.42   32.40
   4  -1  -9  789.92   25.00
  -4   1   9  769.72   24.60
  -4   1   9  768.72   25.20
   3  -1  -9   16.00    2.10
  -3   1   9   12.60    4.10
  -3   1   9   13.00    1.60
  -3   1   9   10.70    1.70
   2  -1  -9 1432.36   45.60
   2  -1  -9 1490.45   45.50
  -2   1   9 1429.36   45.00
  -2   1   9 1443.26   45.50
  -2   1   9 1487.05   50.29
  -2   1   9 1371.76   45.80
   1  -1  -9 1030.70   32.90
   1  -1  -9 1056.29   32.90
  -1   1   9 1044.30   32.50
  -1   1   9 1018.20   32.90
   0  -1  -9  778.72   24.30
   0  -1  -9  768.92   24.50
   0   1   9  751.12   24.50
   0   1   9  781.72   27.30
   0   1   9  758.12   24.50
  -1  -1  -9 2321.87   71.39
  -1  -1  -9 2132.69   69.89
   1   1   9 2344.47   72.49
   1   1   9 2234.68   69.99
  -2  -1  -9   56.79    4.10
  -2  -1  -9   55.09    3.60
   2   1   9   69.69    4.00
   2   1   9   61.39    4.80
   2   1   9   64.69    3.10
  -3  -1  -9  472.85   16.40
   3   1   9  495.15   16.30
   3   1   9  449.86   19.10
   3   1   9  476.85   15.50
   3   1   9  498.25   16.90
   3   1   9  487.85   17.70
  -4  -1  -9  115.39    8.60
   4   1   9  135.09    7.10
   4   1   9  138.19    6.10
   4   1   9  119.29    9.30
   4   1   9  133.59    5.80
   5   1   9 1663.63   53.99
   5   1   9 1595.14   52.39
   5   1   9 1665.83   51.99
   6   1   9  288.27   11.50
   6   1   9  280.87   10.40
   6   1   9  279.07    9.90
  -5   2   9  462.35   14.80
   4  -2  -9  108.39    4.60
  -4   2   9  112.69    5.00
  -4   2   9  108.39    4.30
   3  -2  -9  589.64   18.90
  -3   2   9  592.84   18.30
  -3   2   9  562.64   24.30
  -3   2   9  562.74   18.90
  -3   2   9  503.75   19.60
   2  -2  -9 1457.35   45.80
  -2   2   9 1461.45   45.10
  -2   2   9 1463.55   45.80
  -2   2   9 1451.25   51.09
  -2   2   9 1389.26   46.10
   1  -2  -9    2.20    1.40
   1  -2  -9    5.10    1.30
   1  -2  -9    6.50    1.70
  -1   2   9    1.20    1.80
  -1   2   9    0.80    2.60
  -1   2   9    2.50    1.40
  -1   2   9    3.50    1.10
   0  -2  -9 2237.48   65.89
   0  -2  -9 1992.10   67.89
   0  -2  -9 2140.79   66.19
   0   2   9 2142.29   66.29
   0   2   9 2197.38   69.79
   0   2   9 2019.10   67.09
  -1  -2  -9  949.21   31.00
  -1  -2  -9  973.40   30.50
   1   2   9  909.71   30.00
  -2  -2  -9  284.67   10.60
  -2  -2  -9  296.07   10.90
   2   2   9  266.67   11.40
   2   2   9  273.57    9.60
   2   2   9  273.47    9.90
  -3  -2  -9 4325.07  137.59
   3   2   9 4325.87  136.09
   3   2   9 4505.95  139.19
   3   2   9 4513.25  140.19
   4   2   9  152.58    6.90
   4   2   9  155.88    6.30
   4   2   9  152.68    8.00
   5   2   9 1228.68   40.20
   5   2   9 1281.87   41.00
   5   2   9 1279.77   42.50
   6   2   9   23.50    2.90
   6   2   9   25.40    2.00
  -5   3   9  513.25   16.10
   4  -3  -9   41.70    2.60
  -4   3   9   43.80    2.20
  -4   3   9   43.20    2.90
   3  -3  -9  501.45   16.20
  -3   3   9  474.35   17.20
  -3   3   9  487.85   22.80
   2  -3  -9  212.48    8.40
   2  -3  -9  225.38    8.50
  -2   3   9  220.18    8.40
  -2   3   9  230.88   16.90
  -2   3   9  214.28    9.00
  -2   3   9  224.58    7.70
   1  -3  -9  837.32   27.60
   1  -3  -9  851.91   27.00
  -1   3   9  900.31   28.50
  -1   3   9  832.92   32.50
  -1   3   9  815.32   27.70
  -1   3   9  860.91   26.80
   0  -3  -9 1821.32   58.19
   0  -3  -9 1917.01   56.79
   0  -3  -9 1751.32   57.29
   0  -3  -9 1835.52   57.29
   0   3   9 1884.01   61.79
   0   3   9 1750.42   57.19
   0   3   9 1778.82   56.99
  -1  -3  -9  773.72   25.90
  -1  -3  -9  774.12   25.10
  -1  -3  -9  773.72   24.60
   1   3   9  790.92   27.00
   1   3   9  744.43   24.90
  -2  -3  -9  382.66   14.10
  -2  -3  -9  379.16   13.40
  -2  -3  -9  377.46   12.80
   2   3   9  395.76   15.30
   2   3   9  389.96   13.10
   2   3   9  377.36   13.00
  -3  -3  -9   58.79    5.30
   3   3   9   62.39    5.00
   3   3   9   62.39    3.50
   4   3   9  961.70   33.70
   4   3   9  982.70   31.40
   5   3   9  418.66   14.00
   5   3   9  406.16   16.30
   6   3   9   10.60    2.40
   6   3   9    7.80    1.60
   6   3   9    6.10    1.10
   4  -4  -9  507.55   16.50
   3  -4  -9 1078.59   34.60
   3  -4  -9 1076.89   34.00
  -3   4   9 1062.09   34.90
  -3   4   9 1087.39   33.70
  -3   4   9 1088.29   34.50
   2  -4  -9    4.90    1.60
   2  -4  -9    1.40    1.50
  -2   4   9    1.60    1.30
  -2   4   9    2.10    0.90
  -2   4   9    1.10    1.90
  -2   4   9    3.10    6.00
   1  -4  -9 1298.77   42.50
   1  -4  -9 1321.17   42.60
   1  -4  -9 1434.26   41.90
  -1   4   9 1313.37   42.60
  -1   4   9 1333.47   42.40
  -1   4   9 1295.67   48.30
   0  -4  -9  544.35   18.70
   0  -4  -9  545.65   18.40
   0  -4  -9  531.25   19.50
   0  -4  -9  556.84   17.80
   0   4   9  535.05   20.20
   0   4   9  547.35   18.30
  -1  -4  -9 1193.48   40.40
  -1  -4  -9 1244.78   39.00
  -1  -4  -9 1244.18   39.50
   1   4   9 1246.48   42.60
   1   4   9 1245.98   39.30
  -2  -4  -9  713.93   23.20
  -2  -4  -9  704.33   23.70
  -2  -4  -9  705.83   26.00
   2   4   9  737.63   23.20
   2   4   9  734.53   25.90
  -3  -4  -9   40.60    3.40
   3   4   9   39.60    4.40
   4   4   9  592.64   22.10
   5   4   9    7.00    1.90
   6   4   9   21.70    2.40
   6   4   9   19.20    2.90
   4  -5  -9  380.46   12.20
   3  -5  -9   13.10    2.20
   3  -5  -9   13.50    1.80
  -3   5   9   13.90    2.10
   2  -5  -9  657.13   21.20
   2  -5  -9  639.34   21.40
  -2   5   9  639.74   21.50
   1  -5  -9  351.96   13.60
  -1   5   9  322.97   29.00
  -1   5   9  372.86   13.40
   0  -5  -9  132.29    5.30
   0  -5  -9  131.99    5.80
   0  -5  -9  130.79    6.90
   0   5   9  136.69    5.90
   0   5   9  131.19    7.80
  -1  -5  -9  942.01   30.30
  -1  -5  -9  932.61   29.80
   1   5   9  910.21   32.30
   1   5   9  948.81   30.00
  -2  -5  -9   57.69    3.90
  -2  -5  -9   59.39    3.30
   2   5   9   57.89    3.20
   2   5   9   52.89    4.90
  -3  -5  -9  348.27   12.00
  -3  -5  -9  339.27   12.60
   3   5   9  370.36   14.70
  -4  -5  -9  207.48    7.90
   4   5   9  221.58    9.90
   5   5   9   48.00    3.70
   5   5   9   52.29    2.90
   3  -6  -9    3.50    0.80
  -3   6   9    3.80    1.30
  -3   6   9    4.20    0.80
   2  -6  -9  460.15   15.70
   2  -6  -9  469.45   15.70
  -2   6   9  474.15   15.40
  -2   6   9  496.95   16.10
   1  -6  -9   17.10    1.70
   1  -6  -9   15.30    2.10
   1  -6  -9   13.50    2.00
  -1   6   9   16.50    2.10
  -1   6   9   14.50    2.20
   0  -6  -9  320.97   12.40
   0  -6  -9  335.67   11.90
   0  -6  -9  345.97   11.30
   0   6   9  334.27   11.70
  -1  -6  -9  357.76   12.40
  -1  -6  -9  353.96   11.90
   1   6   9  330.87   14.10
   1   6   9  357.56   12.00
  -2  -6  -9  537.45   17.00
  -2  -6  -9  513.15   17.30
   2   6   9  515.85   16.50
   2   6   9  501.95   19.30
  -3  -6  -9  705.73   24.70
  -3  -6  -9  735.53   23.80
   3   6   9  751.92   25.70
  -4  -6  -9   15.30    2.20
   4   6   9   17.90    1.90
   4   6   9   18.50    2.60
   2  -7  -9   12.70    1.50
   2  -7  -9   17.00    1.40
  -2   7   9   18.30    2.00
   1  -7  -9  103.79    4.40
   1  -7  -9  102.89    4.20
  -1   7   9  109.09    4.20
   0  -7  -9  122.19    4.30
   0  -7  -9  121.29    4.90
   0   7   9  119.09    4.70
  -1  -7  -9  194.08    7.10
  -1  -7  -9  190.98    7.50
   1   7   9  190.28    6.60
  -2  -7  -9    8.50    1.40
  -2  -7  -9    7.50    1.00
  -3  -7  -9  123.89    4.30
   3   7   9  116.49    5.70
   3   7   9  112.49    5.50
   1   7 -10   70.39    3.00
  -1  -7  10   68.69    2.70
   0   7 -10  128.09    4.40
   0  -7  10  127.89    4.50
  -1   7 -10  686.03   21.70
   1  -7  10  696.23   21.70
  -2   7 -10    0.80    0.70
   2  -7  10    2.40    0.50
  -3  -6  10  531.85   16.70
   2   6 -10   81.99    3.00
  -2  -6  10   83.39    3.20
  -2  -6  10   81.99    3.00
   1   6 -10  302.57    9.90
  -1  -6  10  296.17    9.90
   0   6 -10  471.35   15.30
   0  -6  10  478.25   15.30
   0  -6  10  473.55   15.30
  -1   6 -10  153.98    5.60
  -1   6 -10  155.28    5.80
   1  -6  10  152.48    5.40
   1  -6  10  150.48    5.40
  -2   6 -10  223.68    8.00
  -2   6 -10  230.18    7.80
   2  -6  10  217.48    8.00
   2  -6  10  229.98    7.40
  -3   6 -10  299.47    9.70
  -3   6 -10  293.07    9.80
   3  -6  10  294.87    9.50
  -4  -5  10  231.48    7.40
  -3  -5  10  562.04   17.80
  -3  -5  10  563.64   17.90
   2   5 -10  238.78    8.00
  -2  -5  10  238.88    8.00
  -2  -5  10  242.28    8.20
   1   5 -10  276.67    9.10
  -1  -5  10  263.47    9.60
  -1  -5  10  263.07    8.90
  -1  -5  10  271.97    9.20
   0   5 -10 1918.81   59.59
   0   5 -10 1916.81   59.79
   0  -5  10 1985.60   59.39
   0  -5  10 1929.41   59.69
   0  -5  10 1909.81   59.69
   0  -5  10 1855.01   66.39
  -1   5 -10  171.88    6.30
  -1   5 -10  182.48    6.30
  -1   5 -10  143.79   19.50
   1  -5  10  175.08    6.10
   1  -5  10  151.78   17.70
   1  -5  10  180.18    6.20
  -2   5 -10  723.33   22.70
  -2   5 -10  720.93   23.30
  -2   5 -10  722.53   23.30
   2  -5  10  729.33   22.90
   2  -5  10  735.83   23.10
  -3   5 -10   16.40    1.30
  -3   5 -10   14.70    2.20
  -3   5 -10   19.00    1.70
   3  -5  10   19.60    1.30
  -4   5 -10  452.35   14.00
  -4   5 -10  437.46   14.30
   4  -5  10  442.76   14.00
  -4  -4  10  423.86   13.50
  -4  -4  10  423.66   13.80
   3   4 -10  221.28    7.50
  -3  -4  10  228.88    7.80
  -3  -4  10  225.88    7.60
   2   4 -10  146.39    5.20
  -2  -4  10  145.59    5.40
  -2  -4  10  139.69    5.10
  -2  -4  10  135.99   10.80
   1   4 -10 1928.41   59.79
   1   4 -10 1974.60   59.89
  -1  -4  10 1921.41   65.89
  -1  -4  10 1885.41   59.59
  -1  -4  10 1928.61   60.09
  -1  -4  10 1904.91   59.89
   0   4 -10    5.60    6.30
   0   4 -10   12.40    1.70
   0   4 -10    9.40    1.30
   0  -4  10    7.70    1.10
   0  -4  10    8.20    4.30
   0  -4  10   10.80    1.30
   0  -4  10    6.60    1.00
  -1   4 -10 1252.17   39.80
  -1   4 -10 1216.48   45.90
  -1   4 -10 1287.27   39.30
  -1   4 -10 1264.57   39.80
   1  -4  10 1302.27   39.60
   1  -4  10 1247.68   39.60
   1  -4  10 1270.97   46.10
  -2   4 -10  532.15   16.30
  -2   4 -10  482.95   22.70
  -2   4 -10  513.95   16.80
  -2   4 -10  495.65   16.70
   2  -4  10  502.45   16.40
   2  -4  10  519.15   16.40
  -3   4 -10  154.78    5.50
  -3   4 -10  151.98    5.90
   3  -4  10  154.98    5.50
  -4   4 -10  804.92   25.30
  -4   4 -10  799.62   25.60
   4  -4  10  807.12   25.20
  -5   4 -10   71.49    2.70
  -5  -3  10  150.88    5.00
  -4  -3  10  711.63   22.70
   3   3 -10   33.50    2.00
   3   3 -10   24.50    5.90
  -3  -3  10   28.10    1.80
  -3  -3  10   32.20    2.20
   2   3 -10   70.59    3.10
  -2  -3  10   66.09    6.90
  -2  -3  10   74.29    3.30
  -2  -3  10   72.09    3.00
   1   3 -10 2885.71   91.29
   1   3 -10 2969.80   91.39
  -1  -3  10 2949.10   91.49
  -1  -3  10 2998.70   96.49
  -1  -3  10 2924.11   91.39
  -1  -3  10 2971.30   91.09
   0   3 -10 1100.69   34.80
   0   3 -10 1108.19   39.90
   0   3 -10 1090.49   34.30
   0   3 -10 1091.89   34.70
   0  -3  10 1121.49   34.90
   0  -3  10 1103.69   39.70
   0  -3  10 1112.49   34.40
   0  -3  10 1095.79   34.70
  -1   3 -10 1503.85   52.49
  -1   3 -10 1547.35   48.10
  -1   3 -10 1519.35   47.00
  -1   3 -10 1498.05   47.40
   1  -3  10 1536.75   47.20
   1  -3  10 1505.25   47.20
   1  -3  10 1472.05   52.49
  -2   3 -10   14.20    1.50
  -2   3 -10   12.90    4.30
  -2   3 -10   14.60    2.10
  -2   3 -10   13.60    1.80
   2  -3  10   14.50    2.00
   2  -3  10   15.10    1.50
  -3   3 -10  702.63   30.40
  -3   3 -10  804.42   25.10
  -3   3 -10  802.32   24.80
   3  -3  10  804.72   24.70
  -4   3 -10  416.86   13.90
  -4   3 -10  414.26   13.60
   4  -3  10  428.56   13.40
   4  -3  10  412.06   14.10
  -5   3 -10  686.63   21.50
  -5   3 -10  672.53   21.50
   5  -3  10  681.13   21.70
  -5  -2  10  490.25   15.50
  -4  -2  10  153.78    5.40
  -4  -2  10  154.28    5.90
   3   2 -10  524.15   21.10
   3   2 -10  577.24   24.40
  -3  -2  10  560.74   22.20
   2   2 -10  558.14   22.90
   2   2 -10  576.24   18.90
  -2  -2  10  569.44   19.00
  -2  -2  10  648.04   26.40
  -2  -2  10  591.04   18.80
   1   2 -10  431.36   14.30
   1   2 -10  430.96   18.10
   1   2 -10  432.46   17.30
  -1  -2  10  454.85   18.00
  -1  -2  10  438.76   14.90
  -1  -2  10  417.46   14.40
   0   2 -10 1712.83   53.29
   0   2 -10 1671.63   53.59
   0   2 -10 1620.94   53.49
   0   2 -10 1747.43   57.69
   0  -2  10 1841.32   94.89
   0  -2  10 1737.83   53.19
   0  -2  10 1727.73   57.59
   0  -2  10 1685.93   53.49
  -1   2 -10  511.55   16.50
  -1   2 -10  498.85   16.20
  -1   2 -10  508.55   20.20
  -1   2 -10  495.25   16.60
   1  -2  10  519.15   20.70
   1  -2  10  503.25   16.30
   1  -2  10  512.25   16.40
  -2   2 -10  555.94   19.00
  -2   2 -10  576.44   23.00
   2  -2  10  579.44   18.40
   2  -2  10  582.04   18.80
  -3   2 -10  483.25   15.90
  -3   2 -10  468.95   27.30
  -3   2 -10  472.55   15.60
   3  -2  10  500.65   15.40
   3  -2  10  470.65   16.10
  -4   2 -10   66.19    3.50
  -4   2 -10   64.79    3.40
  -4   2 -10   50.09    8.80
   4  -2  10   57.19    8.10
   4  -2  10   60.49    4.10
   4  -2  10   61.69    2.80
   4  -2  10   60.79    3.50
  -5   2 -10    5.30    1.00
  -5   2 -10    7.60    1.60
   5  -2  10    7.70    1.40
  -6   2 -10   89.89    3.30
   6  -2  10   95.29    4.50
   6  -2  10   89.69    3.60
  -5  -1  10  815.52   25.60
  -5  -1  10  823.42   25.80
   4   1 -10   36.70    2.40
  -4  -1  10   45.60    2.20
  -4  -1  10   40.80    2.80
   3   1 -10 1218.78   37.20
   3   1 -10 1185.58   42.70
  -3  -1  10 1122.29   37.20
  -3  -1  10 1166.58   40.90
  -3  -1  10 1187.08   36.90
   2   1 -10  417.66   13.80
   2   1 -10  425.36   18.00
  -2  -1  10  417.96   13.60
  -2  -1  10  408.16   13.90
  -2  -1  10  428.36   17.30
  -2  -1  10  406.06   14.60
   1   1 -10 2469.25   77.29
   1   1 -10 2505.05   77.39
  -1  -1  10 2506.55   77.39
  -1  -1  10 2540.45   77.09
  -1  -1  10 2535.75   80.89
  -1  -1  10 2411.46   77.49
   0   1 -10 1758.02   55.79
   0   1 -10 1769.72   55.79
   0   1 -10 1829.72   55.59
   0  -1  10 1772.72   55.79
   0  -1  10 1817.32   58.99
   0  -1  10 1806.82   55.49
  -1   1 -10  281.67    9.30
  -1   1 -10  274.97    9.80
  -1   1 -10  285.17    9.60
   1  -1  10  274.47    9.50
   1  -1  10  298.37   13.00
  -2   1 -10 1106.69   34.90
  -2   1 -10 1125.39   35.20
   2  -1  10 1064.59   35.70
   2  -1  10 1164.58   34.90
  -3   1 -10   88.99    7.10
  -3   1 -10  100.89    4.70
  -3   1 -10   88.59    3.80
   3  -1  10   87.09    5.50
   3  -1  10   89.09    4.80
  -4   1 -10  258.17    8.70
  -4   1 -10  223.08   13.20
  -4   1 -10  258.27    8.90
   4  -1  10  268.67    8.40
   4  -1  10  260.97    9.20
   4  -1  10  258.17    9.90
   4  -1  10  231.68   13.90
  -5   1 -10 1130.09   35.30
   5  -1  10 1121.09   35.90
   5  -1  10 1129.29   37.60
   5  -1  10 1128.89   36.70
  -6   1 -10    1.00    0.90
   6  -1  10    1.00    1.10
   6  -1  10    1.00    0.90
  -5   0  10  201.48    8.30
  -5   0  10  203.78    6.80
   4   0 -10  946.31   30.00
  -4   0  10  933.31   29.80
  -4   0  10  961.90   30.30
   3   0 -10  405.56   18.40
   3   0 -10  422.86   13.80
  -3   0  10  404.26   13.80
  -3   0  10  401.16   13.30
  -3   0  10  399.16   17.50
   2   0 -10    5.80    1.20
  -2   0  10    8.00    3.00
  -2   0  10    8.70    2.70
  -2   0  10    8.40    1.40
   1   0 -10  818.32   25.80
   1   0 -10  849.41   26.30
   1   0 -10  817.22   26.10
  -1   0  10  821.52   25.80
  -1   0  10  798.12   26.30
  -1   0  10  811.22   26.10
  -1   0  10  820.92   29.40
   0   0 -10   15.80    1.70
   0   0 -10   19.50    2.30
   0   0 -10   17.70    1.90
   0   0  10   13.50    1.90
   0   0  10   21.60    2.20
   0   0  10   13.10    1.90
  -1   0 -10  999.80   32.40
  -1   0 -10 1011.50   32.20
   1   0  10 1014.40   32.40
   1   0  10 1095.59   35.60
  -2   0 -10  484.05   15.70
  -2   0 -10  487.15   15.90
   2   0  10  501.65   17.60
   2   0  10  479.95   16.30
   2   0  10  484.55   15.70
  -3   0 -10  196.18    7.10
  -3   0 -10  195.78    7.30
   3   0  10  202.08    9.90
   3   0  10  209.48    8.40
  -4   0 -10   24.30    3.10
  -4   0 -10   16.20    5.10
  -4   0 -10   19.40    2.40
   4   0  10   23.60    2.40
   4   0  10   19.80    3.00
   4   0  10   21.20    2.60
   4   0  10   16.30    4.30
  -5   0 -10  323.47   11.10
   5   0  10  331.67   12.30
   5   0  10  333.07   13.20
   5   0  10  341.97   11.70
  -6   0 -10  160.88    5.90
   6   0  10  175.68    7.50
   6   0  10  170.08    6.20
   5  -1 -10   10.80    1.60
  -5   1  10    7.60    1.00
  -5   1  10    7.50    2.00
   4  -1 -10 1878.81   58.49
  -4   1  10 1868.21   58.29
  -4   1  10 1875.41   58.79
   3  -1 -10  196.48    7.20
  -3   1  10  182.28    6.60
  -3   1  10  186.48    7.20
  -3   1  10  179.08   11.10
   2  -1 -10 3287.47   99.69
   2  -1 -10 3200.18   99.69
  -2   1  10 3196.48   99.59
  -2   1  10 3203.28   99.09
  -2   1  10 3148.89  104.19
   1  -1 -10 2213.68   68.49
   1  -1 -10 2272.17   68.69
   1  -1 -10 2171.58   68.09
  -1   1  10 2160.78   68.69
  -1   1  10 2185.58   68.09
  -1   1  10 2183.28   68.49
   0  -1 -10  578.44   18.90
   0  -1 -10  581.34   18.60
   0   1  10  576.44   18.90
   0   1  10  581.94   21.80
   0   1  10  588.74   18.90
  -1  -1 -10 1347.57   42.70
  -1  -1 -10 1338.57   42.40
   1   1  10 1316.07   45.10
   1   1  10 1360.26   42.70
   1   1  10 1446.66   43.00
  -2  -1 -10   81.99    3.60
  -2  -1 -10   87.29    3.90
   2   1  10   85.69    3.80
   2   1  10   87.19    5.60
   2   1  10   85.49    4.30
  -3  -1 -10  755.72   24.20
  -3  -1 -10  729.83   23.90
   3   1  10  752.12   26.00
   3   1  10  773.72   24.60
   3   1  10  756.12   28.10
  -4  -1 -10  268.87    9.70
   4   1  10  288.47   11.90
   4   1  10  264.07   14.50
   4   1  10  298.57   10.40
   4   1  10  299.97   11.20
   5   1  10  182.38    8.50
   5   1  10  173.78    7.60
   5   1  10  179.98    7.00
   6   1  10  114.39    5.70
   6   1  10  103.89    4.30
  -5   2  10  210.78    6.90
   4  -2 -10  209.78    7.50
  -4   2  10  205.58    7.10
  -4   2  10  212.08    7.80
  -3   2  10   29.70    2.60
  -3   2  10   23.80    3.00
  -3   2  10   24.30    3.70
  -3   2  10   25.90    7.30
   2  -2 -10  560.74   18.20
   2  -2 -10  546.15   18.20
  -2   2  10  541.05   18.10
  -2   2  10  526.05   18.60
  -2   2  10  538.05   17.50
   1  -2 -10    5.60    1.30
   1  -2 -10    3.30    1.50
  -1   2  10    3.90    1.10
   0  -2 -10 1288.27   40.10
   0  -2 -10 1250.37   40.50
   0  -2 -10 1265.77   40.70
   0   2  10 1405.36   46.00
   0   2  10 1226.28   40.50
   0   2  10 1250.17   40.50
  -1  -2 -10  701.93   22.40
  -1  -2 -10  721.03   22.80
   1   2  10  708.33   22.80
   1   2  10  690.63   24.80
  -2  -2 -10  196.78    7.50
  -2  -2 -10  193.48    7.00
   2   2  10  201.08    9.30
   2   2  10  208.18    7.50
   2   2  10  196.48    7.30
  -3  -2 -10  795.12   27.60
   3   2  10  869.41   27.30
   3   2  10  866.71   29.70
   3   2  10  914.51   28.00
  -4  -2 -10 1311.77   43.70
   4   2  10 1438.16   46.50
   4   2  10 1445.16   44.40
   5   2  10 1099.19   36.90
   5   2  10 1078.29   34.70
   6   2  10  372.86   12.40
   6   2  10  376.36   13.90
   4  -3 -10  109.39    4.50
  -4   3  10  111.49    5.50
  -4   3  10   92.09    3.80
   3  -3 -10  937.61   30.10
  -3   3  10  896.21   30.40
  -3   3  10  944.41   30.10
  -3   3  10  954.90   29.40
   2  -3 -10 1246.08   39.80
   2  -3 -10 1249.47   39.70
  -2   3  10 1260.17   38.90
  -2   3  10 1276.77   39.80
  -2   3  10 1222.28   40.00
  -2   3  10 1215.38   45.50
   1  -3 -10   79.89    4.30
   1  -3 -10   83.79    3.70
   1  -3 -10   85.09    4.50
  -1   3  10   90.29    4.30
  -1   3  10   75.79    8.50
  -1   3  10   80.39    3.50
  -1   3  10   83.79    4.70
   0  -3 -10 1318.87   41.10
   0  -3 -10 1327.47   40.60
   0  -3 -10 1268.47   41.20
   0   3  10 1234.28   44.80
   0   3  10 1310.37   41.20
   0   3  10 1282.07   41.10
  -1  -3 -10  253.37    9.50
  -1  -3 -10  244.18   10.30
   1   3  10  255.17    9.60
   1   3  10  246.18   11.10
  -2  -3 -10 1011.90   32.50
  -2  -3 -10 1010.70   34.30
   2   3  10 1068.39   35.10
   2   3  10 1026.60   32.80
  -3  -3 -10  116.59    8.40
  -3  -3 -10  112.89    4.90
  -3  -3 -10  112.19    6.10
   3   3  10  120.89    6.90
   3   3  10  115.39    4.90
   3   3  10  119.39    5.10
  -4  -3 -10  232.68    8.70
   4   3  10  248.68   11.00
   4   3  10  250.77    9.00
   5   3  10 1225.68   40.90
   5   3  10 1222.28   38.70
   6   3  10   78.89    4.40
   4  -4 -10   95.19    3.70
   3  -4 -10  377.76   13.40
  -3   4  10  416.36   15.20
   2  -4 -10   12.10    1.80
   2  -4 -10   16.10    2.40
  -2   4  10   10.50    2.30
  -2   4  10   13.00    7.60
  -2   4  10   11.90    1.70
   1  -4 -10  771.32   25.40
   1  -4 -10  799.82   24.50
   1  -4 -10  771.82   25.30
  -1   4  10  780.62   25.10
  -1   4  10  736.33   31.30
  -1   4  10  766.42   25.40
   0  -4 -10  524.45   17.60
   0  -4 -10  501.75   17.80
   0  -4 -10  533.35   17.00
   0   4  10  505.75   17.50
  -1  -4 -10   47.20    2.80
  -1  -4 -10   47.30    3.40
  -1  -4 -10   43.60    5.10
   1   4  10   44.40    5.10
   1   4  10   50.19    3.20
  -2  -4 -10 1139.09   36.20
  -2  -4 -10 1145.99   36.70
   2   4  10 1137.49   36.30
   2   4  10 1161.98   38.80
  -3  -4 -10 1597.14   52.19
  -3  -4 -10 1519.65   51.29
   3   4  10 1744.13   55.89
  -4  -4 -10  339.27   11.60
   4   4  10  339.37   13.80
   5   4  10 1212.88   40.10
   3  -5 -10  144.29    5.30
  -3   5  10  131.49    5.60
   2  -5 -10   54.59    3.10
   2  -5 -10   54.69    3.20
  -2   5  10   57.09    3.50
   1  -5 -10  783.72   25.60
   1  -5 -10  791.42   24.60
   1  -5 -10  775.52   25.60
  -1   5  10  774.52   25.60
   0  -5 -10  103.19    6.00
   0  -5 -10  101.89    5.50
   0  -5 -10  110.59    4.60
   0   5  10  108.19    5.50
   1   5  10 1009.60   34.80
  -2  -5 -10    7.00    1.40
  -2  -5 -10    7.90    1.90
   2   5  10    3.30    2.00
   2   5  10    7.70    1.50
  -3  -5 -10  251.47    8.80
  -3  -5 -10  241.18    9.50
   3   5  10  252.67   10.90
  -4  -5 -10  857.21   27.40
   4   5  10  868.81   29.50
   5   5  10    4.20    1.40
   5   5  10    4.90    1.20
   3  -6 -10   44.10    2.00
  -3   6  10   42.50    1.90
  -3   6  10   43.20    2.40
   2  -6 -10  262.07    8.90
   2  -6 -10  252.87    8.60
  -2   6  10  249.08    8.40
  -2   6  10  256.67    8.90
   1  -6 -10  390.66   12.70
   1  -6 -10  372.26   12.70
  -1   6  10  371.76   12.70
  -1   6  10  352.46   12.00
   0  -6 -10   51.89    2.50
   0  -6 -10   43.60    5.40
   0  -6 -10   50.19    3.10
   0   6  10   51.69    3.00
  -1  -6 -10 1048.60   32.90
  -1  -6 -10 1054.09   32.40
   1   6  10 1054.29   32.50
   1   6  10  943.71   34.10
  -2  -6 -10  139.09    6.00
  -2  -6 -10  153.38    5.60
   2   6  10  137.69    7.20
   2   6  10  149.69    5.20
  -3  -6 -10  101.39    4.00
  -3  -6 -10   93.69    5.20
   3   6  10   89.19    5.30
  -4  -6 -10  266.27    8.80
   4   6  10  261.47   10.20
   4   6  10  268.27    9.30
   1  -7 -10    1.20    0.80
  -1   7  10    1.20    0.80
   0  -7 -10  358.26   12.10
   0  -7 -10  400.96   12.80
   0   7  10  392.46   12.50
  -1  -7 -10  101.09    3.70
  -1  -7 -10  104.69    4.20
   1   7  10   97.99    3.70
  -2  -7 -10  346.67   12.70
  -2  -7 -10  378.96   11.80
  -3  -7 -10  271.67    8.60
   3   7  10  251.97    8.70
   0   7 -11   62.19    2.30
   0  -7  11   61.99    2.30
  -1   7 -11  253.57    8.10
   1  -7  11  247.88    8.40
   2   6 -11  222.58    7.40
  -2  -6  11  236.48    7.50
  -2  -6  11  239.58    7.70
   1   6 -11    5.80    0.80
  -1  -6  11    8.50    1.10
  -1  -6  11    6.20    0.70
   0   6 -11  234.28    7.90
   0  -6  11  239.18    8.10
   0  -6  11  238.48    7.90
  -1   6 -11  147.39    5.20
  -1   6 -11  141.49    5.00
   1  -6  11  146.39    5.10
   1  -6  11  145.29    5.10
  -2   6 -11  293.87    9.60
  -2   6 -11  299.67    9.70
   2  -6  11  287.67    9.50
  -3   6 -11  212.28    7.00
  -3  -5  11  913.01   28.40
  -3  -5  11  917.51   28.60
  -2  -5  11    5.30    0.70
  -1  -5  11  193.08    6.80
  -1  -5  11  200.68    7.40
  -1  -5  11  194.08    6.50
   0   5 -11  491.25   15.80
   0   5 -11  483.75   15.60
   0  -5  11  481.55   15.70
   0  -5  11  485.25   15.30
  -1   5 -11  306.77   10.30
  -1   5 -11  307.57   10.20
   1  -5  11  306.67   10.20
   1  -5  11  301.97   10.10
  -2   5 -11  301.47   10.10
  -2   5 -11  302.77   10.10
   2  -5  11  292.67    9.90
  -3   5 -11  321.67   10.00
  -3   5 -11  318.27   11.00
   3  -5  11  298.37   10.50
  -4   5 -11  117.09    4.10
   4  -5  11  114.09    4.00
  -4  -4  11  281.67   10.00
  -4  -4  11  318.97    9.60
   3   4 -11  831.22   26.00
  -3  -4  11  842.02   26.30
  -3  -4  11  819.02   26.00
   2   4 -11  257.47    8.80
  -2  -4  11  258.97    8.60
  -2  -4  11  265.37    8.90
   1   4 -11  599.34   19.10
  -1  -4  11  598.44   19.00
  -1  -4  11  596.24   19.40
  -1  -4  11  614.04   19.30
  -1  -4  11  586.44   24.80
   0   4 -11    2.30    1.00
   0   4 -11    4.60    8.00
   0   4 -11    4.60    1.40
   0  -4  11    4.30    1.40
   0  -4  11    2.80    0.90
   0  -4  11   -0.20    4.70
  -1   4 -11 1435.66   43.80
  -1   4 -11 1326.07   49.99
  -1   4 -11 1371.16   44.00
   1  -4  11 1344.17   50.19
   1  -4  11 1456.15   43.70
   1  -4  11 1412.06   44.00
  -2   4 -11  277.37    9.80
  -2   4 -11  288.57   10.00
  -2   4 -11  294.27    9.40
  -2   4 -11  271.07   16.30
   2  -4  11  289.27    9.60
   2  -4  11  296.17    9.60
  -3   4 -11    3.10    0.70
   3  -4  11    4.10    0.80
  -4   4 -11  308.77   10.30
  -5   4 -11  162.48    5.40
  -5   4 -11  164.38    5.50
   5  -4  11  161.68    6.30
  -4  -3  11 1022.30   31.60
  -4  -3  11 1004.90   31.80
   3   3 -11  148.79    5.40
  -3  -3  11  151.88    5.30
  -3  -3  11  151.38    5.60
   2   3 -11  567.04   18.60
  -2  -3  11  577.94   18.50
  -2  -3  11  593.34   18.80
   1   3 -11  694.33   22.30
   1   3 -11  684.93   22.40
  -1  -3  11  707.93   22.10
  -1  -3  11  696.43   27.30
  -1  -3  11  695.33   22.60
  -1  -3  11  714.33   22.40
   0   3 -11  884.91   28.20
   0   3 -11  876.91   28.10
   0  -3  11  888.51   28.10
   0  -3  11  900.01   33.40
   0  -3  11  885.01   27.80
  -1   3 -11  877.01   28.60
  -1   3 -11  911.51   28.30
  -1   3 -11  894.61   34.00
  -1   3 -11  919.01   28.70
   1  -3  11  906.81   28.50
   1  -3  11  894.61   28.50
  -2   3 -11  292.17    9.60
  -2   3 -11  274.77    9.90
  -2   3 -11  284.57   15.20
  -2   3 -11  290.27   10.20
   2  -3  11  295.37    9.70
   2  -3  11  289.17    9.60
  -3   3 -11  304.87   10.20
  -3   3 -11  253.77   21.00
  -3   3 -11  307.87   10.00
   3  -3  11  315.17    9.90
  -4   3 -11  622.44   20.00
  -4   3 -11  618.24   19.80
   4  -3  11  623.74   19.60
  -5   3 -11    7.70    1.10
  -5   3 -11   12.00    1.80
   5  -3  11   11.10    2.00
  -4  -2  11  728.03   23.10
  -4  -2  11  721.83   23.10
   3   2 -11   54.79    2.70
  -3  -2  11   59.29    2.60
  -3  -2  11   53.69    2.90
   2   2 -11 1384.76   43.40
   2   2 -11 1347.27   47.90
  -2  -2  11 1432.26   47.90
  -2  -2  11 1325.47   43.80
  -2  -2  11 1403.86   43.50
  -2  -2  11 1416.86   43.20
   1   2 -11  174.28    6.50
   1   2 -11  176.78    6.50
   1   2 -11  177.68   11.10
  -1  -2  11  197.08   11.40
  -1  -2  11  176.98    6.50
  -1  -2  11  178.48    6.20
  -1  -2  11  171.98    6.80
   0   2 -11 2817.72   92.69
   0   2 -11 2751.72   88.39
   0   2 -11 3069.29   88.29
   0   2 -11 2808.72   88.39
   0  -2  11 2831.32   87.99
   0  -2  11 2843.32   88.39
   0  -2  11 2848.71   88.39
  -1   2 -11 1555.74   49.10
  -1   2 -11 1551.44   48.80
  -1   2 -11 1531.25   53.29
   1  -2  11 1595.44   53.89
   1  -2  11 1593.34   49.00
   1  -2  11 1593.54   49.00
  -2   2 -11   53.19    2.50
  -2   2 -11   55.39    2.90
  -2   2 -11   53.09    6.10
  -2   2 -11   53.39    5.00
   2  -2  11   52.29    3.10
   2  -2  11   51.39    2.50
  -3   2 -11  910.31   34.80
  -3   2 -11  964.20   29.40
  -3   2 -11  943.71   29.10
   3  -2  11  874.31   29.40
  -4   2 -11  388.56   12.90
  -4   2 -11  399.76   13.10
   4  -2  11  409.86   12.70
   4  -2  11  380.06   13.30
  -5   2 -11  246.78    8.00
  -5   2 -11  234.18    8.10
   5  -2  11  242.08   10.00
   5  -2  11  238.18    8.30
  -6   2 -11  151.78    5.00
   6  -2  11  154.68    6.10
  -5  -1  11  488.35   15.50
   4   1 -11  192.78    6.60
  -4  -1  11  194.48    6.60
   3   1 -11  330.57   10.90
   3   1 -11  310.27   16.90
  -3  -1  11  305.97   14.80
  -3  -1  11  321.67   11.00
  -3  -1  11  330.37   10.60
   2   1 -11  447.56   14.80
   2   1 -11  447.26   19.20
   2   1 -11  456.25   15.00
  -2  -1  11  454.15   15.00
  -2  -1  11  444.46   15.40
  -2  -1  11  454.45   14.60
  -2  -1  11  445.16   18.50
   1   1 -11 1481.75   46.10
   1   1 -11 1490.35   46.10
   1   1 -11 1538.75   49.60
  -1  -1  11 1262.57   46.70
  -1  -1  11 1500.65   49.70
  -1  -1  11 1482.85   46.10
  -1  -1  11 1529.15   45.80
   0   1 -11 2622.34   81.49
   0   1 -11 2612.84   81.39
   0   1 -11 2622.94   81.09
   0  -1  11 2610.84   80.99
   0  -1  11 2617.34   81.39
   0  -1  11 2613.24   81.39
   0  -1  11 2661.83   85.09
  -1   1 -11  389.56   13.30
  -1   1 -11  401.56   13.20
  -1   1 -11  402.96   13.00
   1  -1  11  412.06   17.10
   1  -1  11  391.06   13.10
   1  -1  11  396.46   13.10
  -2   1 -11 1094.79   34.00
  -2   1 -11 1092.89   33.70
   2  -1  11 1050.29   34.30
   2  -1  11 1050.49   34.20
   2  -1  11 1085.59   33.80
  -3   1 -11  906.01   29.00
  -3   1 -11  902.91   28.80
  -3   1 -11  938.41   33.90
   3  -1  11  892.51   29.30
   3  -1  11  931.31   28.80
  -4   1 -11   40.80   10.40
  -4   1 -11   48.80    2.50
  -4   1 -11   44.30    2.90
   4  -1  11   44.00    3.90
   4  -1  11   44.80    3.10
   4  -1  11   49.90    2.40
  -5   1 -11 1830.22   55.69
   5  -1  11 1719.03   55.69
   5  -1  11 1794.12   57.29
  -6   1 -11  225.78    7.40
   6  -1  11  236.58    8.80
   6  -1  11  223.38    7.80
   5   0 -11  258.27    9.20
  -5   0  11  300.37    9.30
  -5   0  11  281.67    9.20
   4   0 -11   48.70    2.50
  -4   0  11   44.50    2.20
  -4   0  11   46.30    2.70
   3   0 -11 1251.07   38.80
   3   0 -11 1198.78   44.20
  -3   0  11 1220.58   43.30
  -3   0  11 1210.28   38.90
  -3   0  11 1252.87   38.40
   2   0 -11   45.00    3.30
   2   0 -11   46.90    2.70
  -2   0  11   45.10    4.20
  -2   0  11   44.00    2.70
  -2   0  11   44.10    5.50
  -2   0  11   45.00    2.30
   1   0 -11  370.56   12.30
   1   0 -11  356.26   11.80
   1   0 -11  368.76   12.20
  -1   0  11  358.36   11.80
  -1   0  11  364.56   15.50
  -1   0  11  367.56   13.20
  -1   0  11  350.96   12.20
   0   0 -11 3320.67  102.79
   0   0 -11 3411.76  102.49
   0   0 -11 3297.07  102.69
   0   0  11 3351.66  102.79
   0   0  11 3307.97  102.69
   0   0  11 3271.77  105.89
   0   0  11 3273.77  102.29
  -1   0 -11  111.39    4.50
  -1   0 -11  108.39    5.30
  -1   0 -11  114.39    4.30
   1   0  11  129.29    9.70
   1   0  11  110.49    4.70
   1   0  11  106.39    4.50
  -2   0 -11 1821.32   57.69
  -2   0 -11 1894.91   58.49
   2   0  11 1827.72   59.19
   2   0  11 1859.51   57.89
   2   0  11 1842.42   57.89
  -3   0 -11  239.08    8.50
  -3   0 -11  238.58    8.30
   3   0  11  242.38   10.20
   3   0  11  248.28    8.30
   3   0  11  240.18    8.90
  -4   0 -11  211.58   13.20
  -4   0 -11  250.87    8.70
   4   0  11  237.28   11.10
   4   0  11  232.78   13.50
   5   0  11   89.19    5.20
   5   0  11   89.89    4.10
  -6   0 -11    6.40    1.30
   6   0  11    5.40    1.30
   6   0  11    4.90    0.90
  -5   1  11   90.49    3.20
   4  -1 -11  411.26   13.60
  -4   1  11  410.66   13.80
  -4   1  11  396.46   13.10
   3  -1 -11  438.86   14.10
  -3   1  11  401.66   18.50
  -3   1  11  414.96   13.60
  -3   1  11  412.36   14.10
   2  -1 -11    5.40    1.60
   2  -1 -11    5.40    1.20
  -2   1  11    4.40    1.30
  -2   1  11    8.80    3.60
   1  -1 -11 2034.70   61.69
   1  -1 -11 1962.80   61.49
  -1   1  11 1984.50   61.69
  -1   1  11 1908.61   65.39
  -1   1  11 1957.80   60.99
  -1   1  11 1957.80   61.49
   0  -1 -11  347.47   11.90
   0  -1 -11  361.56   11.60
   0  -1 -11  345.07   12.00
   0   1  11  350.96   14.90
   0   1  11  349.47   12.00
   0   1  11  348.07   11.90
  -1  -1 -11 1664.63   54.19
  -1  -1 -11 1744.33   53.79
  -1  -1 -11 1720.93   53.99
   1   1  11 1756.52   53.99
   1   1  11 1754.32   53.99
  -2  -1 -11  582.64   19.20
   2   1  11  585.74   20.90
   2   1  11  608.44   19.20
   2   1  11  581.74   19.60
  -3  -1 -11  183.08    6.60
  -3  -1 -11  190.48    7.00
   3   1  11  191.08    7.30
   3   1  11  182.48    8.60
   3   1  11  193.18    6.80
   3   1  11  180.48   11.10
  -4  -1 -11 1037.60   32.60
  -5  -1 -11  641.54   20.80
   5   1  11  665.23   21.40
   5   1  11  667.73   23.10
   6   1  11  549.05   17.70
   6   1  11  554.84   19.00
   4  -2 -11 1129.99   35.00
  -4   2  11 1117.59   35.20
  -4   2  11 1096.49   34.70
  -3   2  11    6.90    1.30
  -3   2  11    2.50    3.10
  -3   2  11    8.50    1.30
   2  -2 -11  200.78    7.60
   2  -2 -11  203.78    7.60
  -2   2  11  202.68    7.60
  -2   2  11  183.78   11.80
  -2   2  11  202.98    6.90
  -2   2  11  200.38    8.20
   1  -2 -11  516.95   16.70
   1  -2 -11  509.75   16.70
   1  -2 -11  497.25   16.00
  -1   2  11  501.95   16.60
  -1   2  11  476.05   15.80
  -1   2  11  480.85   16.70
  -1   2  11  483.25   20.60
   0  -2 -11  195.18    6.70
   0  -2 -11  189.18    7.50
   0  -2 -11  194.28    7.20
   0   2  11  180.28    7.20
   0   2  11  172.38    8.00
   0   2  11  184.68   10.40
  -1  -2 -11 1355.36   43.60
   1   2  11 1408.66   43.90
   1   2  11 1412.36   43.80
  -2  -2 -11    9.20    1.60
  -2  -2 -11   13.80    1.80
   2   2  11   13.00    1.70
   2   2  11   11.50    3.00
  -3  -2 -11  629.44   20.90
  -3  -2 -11  615.44   20.40
   3   2  11  638.44   22.90
   3   2  11  666.43   21.10
   3   2  11  651.23   20.60
  -4  -2 -11   57.99    3.10
   4   2  11   64.39    3.50
   4   2  11   58.29    4.50
  -5  -2 -11    9.70    1.70
   5   2  11   10.70    1.70
   5   2  11   12.10    2.50
   6   2  11  262.87   10.00
   6   2  11  262.77    8.80
   4  -3 -11  660.03   20.50
  -4   3  11  630.64   20.10
   3  -3 -11  437.66   14.70
  -3   3  11  439.26   14.70
  -3   3  11  432.16   13.90
   2  -3 -11 2735.63   84.99
   2  -3 -11 2765.42   85.19
  -2   3  11 2706.83   85.29
  -2   3  11 2747.93   85.09
  -2   3  11 2684.93   84.19
   1  -3 -11   40.50    3.20
   1  -3 -11   29.70    2.30
   1  -3 -11   31.60    2.70
  -1   3  11   29.50    3.20
  -1   3  11   33.40    2.80
  -1   3  11   35.90    7.80
   0  -3 -11 1739.53   54.39
   0  -3 -11 1711.53   54.99
   0  -3 -11 1744.53   54.89
   0   3  11 1724.33   54.69
   0   3  11 1790.12   54.99
  -1  -3 -11  178.38    6.70
  -1  -3 -11  167.38    6.20
   1   3  11  171.08    6.70
   1   3  11  150.18    8.80
  -2  -3 -11  311.87   11.10
  -2  -3 -11  310.57   10.60
   2   3  11  318.67   10.90
   2   3  11  305.77   12.90
  -3  -3 -11  843.32   28.00
  -3  -3 -11  847.32   27.40
   3   3  11  891.71   27.40
   3   3  11  880.31   30.10
  -4  -3 -11    8.40    1.60
   4   3  11    8.30    1.40
   4   3  11    6.50    2.10
  -5  -3 -11  151.48    6.20
   5   3  11  152.18    8.10
   4  -4 -11    3.50    0.70
   3  -4 -11  148.79    6.60
  -3   4  11  165.68    6.50
   2  -4 -11   15.30    2.20
   2  -4 -11   10.60    1.60
  -2   4  11   11.90    2.00
  -2   4  11   12.50    1.90
   1  -4 -11  472.05   15.90
   1  -4 -11  467.65   15.00
   1  -4 -11  470.85   15.90
  -1   4  11  431.86   23.60
  -1   4  11  473.15   16.00
  -1   4  11  467.45   15.60
   0  -4 -11  819.72   26.40
   0  -4 -11  782.82   26.40
   0  -4 -11  812.52   25.70
   0   4  11  803.12   26.30
  -1  -4 -11   33.20    2.30
  -1  -4 -11   32.20    2.80
   1   4  11   31.90    2.70
  -2  -4 -11  732.73   23.20
  -2  -4 -11  734.83   24.30
   2   4  11  720.83   23.60
   2   4  11  697.43   25.40
  -3  -4 -11   16.30    2.10
  -3  -4 -11   18.10    2.60
   3   4  11   12.50    2.50
  -4  -4 -11    8.10    1.60
   4   4  11    8.50    2.00
   5   4  11  642.24   22.00
   3  -5 -11 1328.27   40.90
  -3   5  11 1291.47   40.90
   2  -5 -11   77.89    4.30
   2  -5 -11   93.49    3.80
  -2   5  11   89.49    4.20
   1  -5 -11  777.42   25.30
   1  -5 -11  787.52   25.20
  -1   5  11  765.32   25.30
   0  -5 -11  169.78    7.80
   0  -5 -11  187.38    6.40
   0  -5 -11  175.88    7.00
   0   5  11  179.18    7.10
  -1  -5 -11  143.09    5.40
  -1  -5 -11  139.99    5.90
   1   5  11  124.29    7.20
   1   5  11  148.79    5.70
  -2  -5 -11  834.92   26.80
  -2  -5 -11  837.62   26.30
   2   5  11  844.92   26.20
   2   5  11  783.12   28.20
  -3  -5 -11   70.29    3.20
  -3  -5 -11   74.39    4.50
   3   5  11   61.49    4.50
  -4  -5 -11  260.17    8.80
   4   5  11  260.77   10.40
   5   5  11   81.29    3.40
   5   5  11   77.09    4.00
   2  -6 -11  272.57    9.00
  -2   6  11  279.77    9.30
   1  -6 -11  394.56   13.10
   1  -6 -11  401.96   13.10
  -1   6  11  384.46   13.10
   0  -6 -11   39.70    2.50
   0   6  11   38.60    2.40
  -1  -6 -11  309.37   10.20
  -1  -6 -11  304.67   10.70
   1   6  11  305.47   10.40
  -2  -6 -11  187.28    6.80
   2   6  11  168.48    7.80
  -3  -6 -11    7.10    1.00
   3   6  11    5.40    1.60
   4   6  11  657.73   20.40
   4   6  11  610.34   21.00
   0  -7 -11   96.09    3.60
   0   7  11   90.09    3.40
  -1  -7 -11  396.36   12.90
  -2  -7 -11  106.49    3.80
  -2  -7 -11  105.19    4.10
   1   6 -12  246.98    8.10
  -1  -6  12  254.77    8.20
   0   6 -12  141.29    4.90
   0  -6  12  142.49    5.10
   0  -6  12  137.89    4.80
  -1   6 -12 1378.76   44.20
  -1   6 -12 1489.05   44.50
   1  -6  12 1464.95   44.40
   1  -6  12 1393.76   44.30
  -2   6 -12   63.29    2.70
  -2   6 -12   62.09    2.60
   2  -6  12   62.59    2.50
  -3  -5  12   56.59    2.30
  -3  -5  12   53.49    2.00
   2   5 -12  551.24   17.50
  -2  -5  12  564.74   17.70
  -2  -5  12  554.54   17.40
   1   5 -12    1.90    0.70
  -1  -5  12   -1.00    1.80
  -1  -5  12    0.70    0.70
  -1  -5  12    1.80    0.60
   0   5 -12  434.06   14.20
   0   5 -12  440.26   14.40
   0  -5  12  471.25   15.10
   0  -5  12  437.96   14.40
  -1   5 -12   18.40    1.50
  -1   5 -12   20.50    1.70
   1  -5  12   22.20    1.60
  -2   5 -12  539.65   16.90
  -2   5 -12  514.75   16.80
   2  -5  12  512.25   16.70
  -3   5 -12  278.57    9.20
  -4   5 -12   13.00    1.00
   3   4 -12  713.93   23.70
  -3  -4  12  787.62   24.00
  -3  -4  12  778.12   23.70
   2   4 -12   97.09    3.70
  -2  -4  12  100.39    3.90
  -2  -4  12   96.99    3.60
   1   4 -12  222.28    7.60
  -1  -4  12  216.98    7.60
  -1  -4  12  214.28    7.30
  -1  -4  12  225.58    8.00
   0   4 -12  955.80   30.50
   0   4 -12  955.50   30.40
   0  -4  12  994.20   30.50
   0  -4  12  957.00   29.90
   0  -4  12  958.50   30.40
  -1   4 -12   46.70    2.70
  -1   4 -12   60.09    2.70
   1  -4  12   51.69    2.50
   1  -4  12   51.09    2.50
  -2   4 -12 1034.20   33.80
  -2   4 -12 1108.39   34.00
  -2   4 -12 1082.99   33.50
   2  -4  12 1072.39   33.50
  -3   4 -12   33.70    1.70
  -3   4 -12   29.90    1.90
  -4   4 -12  315.57   10.20
  -4   4 -12  316.27   10.00
   4  -4  12  303.77    9.90
  -4  -3  12  293.87    9.30
  -4  -3  12  284.47    9.40
   3   3 -12  665.93   21.00
  -3  -3  12  660.33   20.90
   2   3 -12  304.47   10.20
  -2  -3  12  303.67   10.00
  -2  -3  12  310.37   10.40
   1   3 -12  607.24   20.30
   1   3 -12  642.04   20.40
  -1  -3  12  645.64   20.50
  -1  -3  12  640.54   20.10
  -1  -3  12  640.14   20.60
   0   3 -12   45.90    2.50
   0   3 -12   43.70    9.10
   0   3 -12   44.60    2.50
   0  -3  12   45.50    2.50
   0  -3  12   47.10    2.70
   0  -3  12   47.10    2.20
   0  -3  12   52.49    8.20
  -1   3 -12  193.48    6.80
  -1   3 -12  185.98   12.20
  -1   3 -12  178.78    6.60
  -1   3 -12  183.98    6.30
   1  -3  12  186.38    6.60
   1  -3  12  172.68   13.40
  -2   3 -12  770.72   24.60
  -2   3 -12  726.23   30.10
  -2   3 -12  820.42   25.30
  -2   3 -12  755.02   24.40
   2  -3  12  761.32   24.20
  -3   3 -12   10.00    1.50
  -3   3 -12   10.10    1.20
  -4   3 -12  495.25   15.80
   4  -3  12  495.45   16.00
  -5   3 -12   53.09    2.30
  -5   3 -12   53.19    2.10
   5  -3  12   49.80    3.10
  -4  -2  12  839.12   26.30
  -4  -2  12  832.72   26.10
   3   2 -12   78.89    3.30
  -3  -2  12   79.89    3.50
  -3  -2  12   77.79    3.10
   2   2 -12 1379.86   43.00
  -2  -2  12 1367.86   47.70
  -2  -2  12 1384.26   42.70
  -2  -2  12 1398.06   43.10
  -2  -2  12 1323.87   43.30
   1   2 -12  118.39    4.80
   1   2 -12  117.49    4.70
   1   2 -12  125.79   12.10
  -1  -2  12  121.39    4.80
  -1  -2  12  120.99    4.40
  -1  -2  12  120.09    8.80
  -1  -2  12  121.69    5.20
   0   2 -12  325.97   15.50
   0   2 -12  335.27   11.20
   0   2 -12  334.67   11.30
   0   2 -12  329.57   10.80
   0  -2  12  344.87   11.20
   0  -2  12  336.47   10.80
   0  -2  12  329.77   15.60
   0  -2  12  327.17   11.30
  -1   2 -12 1548.65   48.50
  -1   2 -12 1516.25   48.50
  -1   2 -12 1548.55   48.20
  -1   2 -12 1562.54   53.29
   1  -2  12 1574.54   48.50
   1  -2  12 1550.84   48.40
  -2   2 -12    4.30    1.10
  -2   2 -12    2.20    1.90
  -2   2 -12    4.70    3.60
   2  -2  12    2.70    1.60
   2  -2  12    4.40    1.00
  -3   2 -12  368.46   12.40
  -3   2 -12  371.16   23.30
  -3   2 -12  375.36   12.20
   3  -2  12  371.56   12.20
  -4   2 -12  195.08    6.80
  -4   2 -12  198.18    7.00
   4  -2  12  198.48    6.70
   4  -2  12  201.18    8.50
  -5   2 -12   10.90    1.20
  -5   2 -12   12.80    1.90
   5  -2  12    9.70    2.00
   5  -2  12   11.70    1.60
   4   1 -12  534.75   17.40
  -4  -1  12  571.04   17.90
  -4  -1  12  564.34   17.60
   3   1 -12  381.96   12.80
  -3  -1  12  387.86   13.00
  -3  -1  12  391.96   12.60
   2   1 -12 1721.23   54.49
   2   1 -12 1709.93   54.39
  -2  -1  12 1846.12   54.89
  -2  -1  12 1740.33   54.89
  -2  -1  12 1799.42   54.99
  -2  -1  12 1622.54   58.19
   1   1 -12    5.10    1.20
  -1  -1  12    5.50    1.10
  -1  -1  12    5.00    3.00
  -1  -1  12    3.30    1.50
  -1  -1  12    4.10    0.90
   0   1 -12    5.30    1.10
   0   1 -12    3.50    1.00
   0   1 -12    5.50    1.30
   0  -1  12    5.80    1.10
   0  -1  12    4.00    1.10
   0  -1  12    4.10    3.20
  -1   1 -12  843.52   26.60
  -1   1 -12  845.72   26.30
  -1   1 -12  808.52   26.60
   1  -1  12  822.02   26.50
   1  -1  12  856.11   26.60
   1  -1  12  829.02   31.00
  -2   1 -12   62.49    6.20
  -2   1 -12   64.59    3.10
  -2   1 -12   59.49    2.80
   2  -1  12   59.89    5.80
   2  -1  12   62.39    2.90
  -3   1 -12  689.33   21.90
  -3   1 -12  689.13   22.10
  -3   1 -12  703.93   27.20
   3  -1  12  703.03   21.90
   3  -1  12  656.33   22.20
   3  -1  12  687.93   23.80
  -4   1 -12   75.49    3.50
  -4   1 -12   75.39    3.20
   4  -1  12   73.79    3.70
   4  -1  12   75.39    4.70
   4  -1  12   79.09    3.20
  -5   1 -12  201.38    6.60
   5  -1  12  193.68    8.10
   5  -1  12  189.28    6.90
   4   0 -12   46.80    2.20
  -4   0  12   48.00    2.50
  -4   0  12   45.50    2.10
   3   0 -12  989.00   31.70
  -3   0  12 1021.40   31.80
  -3   0  12  986.10   31.30
   2   0 -12  602.04   19.70
   2   0 -12  577.24   24.00
   2   0 -12  588.64   20.60
  -2   0  12  610.04   19.80
  -2   0  12  648.54   21.00
  -2   0  12  603.14   19.30
   1   0 -12 1485.55   47.60
   1   0 -12 1486.15   47.70
  -1   0  12 1580.24   47.20
  -1   0  12 1514.55   47.70
  -1   0  12 1524.75   47.80
   0   0 -12 3054.19   94.99
   0   0 -12 3066.29   94.69
   0   0 -12 3086.29   95.09
   0   0  12 3076.59   95.09
   0   0  12 3064.59   94.99
   0   0  12 3043.00   98.59
  -2   0 -12 1146.79   36.20
  -2   0 -12 1162.18   36.00
   2   0  12 1136.19   37.80
   2   0  12 1125.79   36.30
   2   0  12 1164.38   36.10
  -3   0 -12  343.27   15.30
  -3   0 -12  338.07   11.20
  -3   0 -12  334.57   11.40
   3   0  12  342.07   11.80
   3   0  12  347.07   11.30
   3   0  12  332.17   13.10
  -4   0 -12   25.30    2.50
  -4   0 -12   26.20    1.80
   4   0  12   25.10    2.40
   4   0  12   25.70    3.20
  -5   0 -12  735.13   23.10
   5   0  12  734.13   24.10
   5   0  12  731.93   25.10
   6   0  12   24.30    2.20
   6   0  12   24.90    1.50
   4  -1 -12  150.28    5.20
  -4   1  12  146.59    5.10
  -4   1  12  149.69    5.50
   3  -1 -12  927.41   28.70
  -3   1  12  913.21   28.20
  -3   1  12  842.62   29.80
  -3   1  12  909.41   28.80
   2  -1 -12   58.99    3.40
  -2   1  12   57.79    3.70
  -2   1  12   60.49    7.20
   1  -1 -12   65.19    3.40
   1  -1 -12   65.39    3.40
   1  -1 -12   65.69    3.10
  -1   1  12   64.69    2.90
  -1   1  12   64.49    3.40
  -1   1  12   59.09    6.60
  -1   1  12   69.69    3.90
   0  -1 -12 1528.75   48.90
   0  -1 -12 1560.64   48.90
   0  -1 -12 1562.34   48.50
   0   1  12 1586.94   48.90
   0   1  12 1567.74   49.00
   0   1  12 1532.05   52.39
  -1  -1 -12  252.17    8.90
  -1  -1 -12  257.37    8.60
  -1  -1 -12  234.08    9.50
   1   1  12  252.87    8.90
   1   1  12  256.07    9.10
  -2  -1 -12 1464.55   47.30
  -2  -1 -12 1498.55   47.00
   2   1  12 1535.25   49.10
   2   1  12 1528.55   47.20
  -3  -1 -12   33.60    2.10
  -3  -1 -12   33.40    2.60
   3   1  12   29.40    2.70
   3   1  12   30.60    2.40
   3   1  12   30.80    3.70
  -4  -1 -12  647.94   20.80
  -4  -1 -12  632.94   20.50
   4   1  12  659.93   21.10
   4   1  12  630.24   22.60
  -5  -1 -12  554.94   17.70
   5   1  12  577.24   20.20
   5   1  12  542.45   18.40
   6   1  12  146.49    6.00
   6   1  12  142.49    5.00
   4  -2 -12  339.17   10.90
  -4   2  12  342.77   11.10
  -4   2  12  326.37   10.60
   3  -2 -12  485.05   16.00
  -3   2  12  487.75   16.10
  -3   2  12  490.45   16.60
  -3   2  12  477.15   15.50
   2  -2 -12  823.32   26.20
   2  -2 -12  847.32   26.40
  -2   2  12  747.13   30.60
  -2   2  12  835.72   26.60
  -2   2  12  826.32   26.30
  -2   2  12  805.92   25.60
   1  -2 -12 1526.95   47.50
   1  -2 -12 1563.04   46.80
   1  -2 -12 1561.64   47.60
  -1   2  12 1512.35   47.60
  -1   2  12 1500.15   47.40
  -1   2  12 1483.25   51.89
  -1   2  12 1386.36   46.60
   0  -2 -12  699.73   22.00
   0  -2 -12  703.53   22.50
   0  -2 -12  685.33   22.60
   0   2  12  700.43   22.60
   0   2  12  665.23   26.30
   0   2  12  683.83   22.40
  -1  -2 -12 1892.41   61.09
  -1  -2 -12 1982.50   60.79
   1   2  12 1981.10   61.09
  -2  -2 -12  729.23   23.60
  -2  -2 -12  740.53   24.00
   2   2  12  766.12   23.90
   2   2  12  731.63   25.80
  -3  -2 -12  157.68    7.90
  -3  -2 -12  150.58    5.70
   3   2  12  156.38    6.10
   3   2  12  152.98    7.70
  -4  -2 -12  949.71   30.40
   4   2  12  979.20   30.90
   4   2  12  968.50   32.70
  -5  -2 -12    6.30    1.30
   5   2  12    7.80    1.10
   5   2  12    4.20    1.60
   4  -3 -12  273.97    8.90
   3  -3 -12   12.50    1.60
  -3   3  12   13.40    2.20
  -3   3  12    9.70    1.40
   2  -3 -12   27.30    2.30
   2  -3 -12   25.10    2.40
  -2   3  12   27.00    3.00
  -2   3  12   26.60    2.30
   1  -3 -12  449.06   15.20
   1  -3 -12  443.66   16.80
  -1   3  12  489.25   16.50
  -1   3  12  530.45   17.70
   0  -3 -12   47.40    4.00
   0  -3 -12   48.50    2.60
   0  -3 -12   48.00    3.10
   0   3  12   55.59    3.30
   0   3  12   49.50    3.30
  -1  -3 -12 1999.40   62.69
  -1  -3 -12 1968.80   62.19
   1   3  12 2023.40   62.59
  -2  -3 -12    1.70    0.90
   2   3  12    0.60    1.30
   2   3  12   -1.10    2.40
  -3  -3 -12  606.44   19.50
  -3  -3 -12  610.04   20.00
   3   3  12  607.14   21.80
  -4  -3 -12  448.16   14.90
   4   3  12  464.85   17.00
  -5  -3 -12   22.10    2.30
   5   3  12   19.50    2.50
   3  -4 -12  492.75   15.70
  -3   4  12  478.45   15.90
   2  -4 -12  310.87   10.50
   2  -4 -12  299.97   10.60
  -2   4  12  311.27   10.90
   1  -4 -12   53.29    3.10
   1  -4 -12   54.09    3.40
  -1   4  12   52.69    3.40
   0  -4 -12  435.36   15.20
   0  -4 -12  446.56   14.40
   0  -4 -12  438.96   15.10
   0   4  12  443.56   15.10
  -1  -4 -12  562.34   18.10
  -1  -4 -12  580.84   18.80
   1   4  12  517.15   21.20
   1   4  12  577.44   18.60
  -2  -4 -12  287.47   10.30
  -2  -4 -12  295.87    9.80
   2   4  12  297.47    9.90
   2   4  12  262.27   11.50
  -3  -4 -12  658.33   21.10
  -3  -4 -12  662.03   21.50
   3   4  12  651.83   23.10
  -4  -4 -12  115.99    4.50
   4   4  12  115.09    5.90
   5   4  12    5.90    1.40
   2  -5 -12  298.87    9.70
   2  -5 -12  295.77   10.00
  -2   5  12  290.17   10.00
   1  -5 -12  315.37   10.70
   1  -5 -12  303.77   10.80
  -1   5  12  311.77   10.80
   0  -5 -12  927.61   30.10
   0  -5 -12  954.60   29.40
   0  -5 -12  923.31   30.10
   0   5  12  940.21   30.00
  -1  -5 -12   63.39    3.40
  -1  -5 -12   64.59    3.00
   1   5  12   65.69    3.30
  -2  -5 -12  330.47   11.20
  -2  -5 -12  335.87   10.80
   2   5  12  286.37   13.70
   2   5  12  326.37   10.90
  -3  -5 -12  154.48    5.40
  -3  -5 -12  143.89    6.10
   3   5  12  140.89    6.80
  -4  -5 -12  125.69    4.50
   4   5  12  120.29    5.60
   1  -6 -12  246.48    8.20
   1  -6 -12  236.88    8.30
  -1   6  12  244.58    8.30
   0  -6 -12   48.10    2.60
   0  -6 -12   49.00    2.00
   0   6  12   45.10    2.40
  -1  -6 -12  348.07   11.80
  -1  -6 -12  353.86   11.40
   1   6  12  348.47   11.40
  -2  -6 -12  274.87    9.40
  -2  -6 -12  278.57    9.20
  -3  -6 -12  164.38    5.40
   3   6  12  144.49    6.30
   0   6 -13    9.90    0.90
   0  -6  13    9.30    1.00
  -1   6 -13  450.65   14.20
   1  -6  13  448.26   14.20
   2   5 -13  391.66   12.40
  -2  -5  13  393.86   12.70
   1   5 -13   76.89    3.00
  -1  -5  13   77.89    4.50
  -1  -5  13   77.69    3.00
   0   5 -13  151.48    5.30
   0  -5  13  149.19    5.40
   0  -5  13  150.78    5.20
  -1   5 -13  122.89    4.50
  -1   5 -13  123.49    4.40
   1  -5  13  121.39    4.50
   1  -5  13  125.79    4.40
  -2   5 -13  160.38    5.40
  -2   5 -13  155.08    6.20
   2  -5  13  152.68    5.40
  -3   5 -13   89.09    3.20
   3  -5  13   83.79    3.10
  -3  -4  13  424.96   13.30
  -3  -4  13  408.26   13.00
   2   4 -13  541.85   17.40
  -2  -4  13  563.94   17.60
  -2  -4  13  544.55   17.20
   1   4 -13   38.20    1.90
  -1  -4  13   36.20    2.00
  -1  -4  13   39.40    3.00
  -1  -4  13   35.40    1.80
   0   4 -13 1186.78   37.30
   0   4 -13 1182.58   37.20
   0  -4  13 1205.88   37.40
   0  -4  13 1190.18   37.30
  -1   4 -13  856.31   27.40
  -1   4 -13  863.31   27.30
   1  -4  13  887.11   27.20
   1  -4  13  853.31   27.30
  -2   4 -13  246.78    8.40
  -2   4 -13  245.38    8.00
  -2   4 -13  251.97    8.50
   2  -4  13  243.98    8.30
  -3   4 -13  660.33   20.30
  -3   4 -13  651.73   20.60
   3  -4  13  638.64   20.50
  -4   4 -13   16.90    1.30
  -4   4 -13   16.00    1.60
   3   3 -13  490.15   15.60
  -3  -3  13  488.95   15.50
  -3  -3  13  501.05   15.80
   2   3 -13  210.38    7.30
  -2  -3  13  214.88    7.40
  -2  -3  13  209.48    7.00
   1   3 -13  354.36   11.70
   1   3 -13  338.17   11.60
  -1  -3  13  354.36   12.00
  -1  -3  13  355.36   11.40
  -1  -3  13  363.46   11.80
   0   3 -13  392.26   13.00
   0   3 -13  391.06   13.00
   0  -3  13  387.66   12.90
   0  -3  13  396.36   13.10
  -1   3 -13  472.45   15.20
  -1   3 -13  469.75   15.10
  -1   3 -13  466.35   14.70
  -1   3 -13  455.85   23.60
   1  -3  13  464.45   15.00
   1  -3  13  442.76   15.00
  -2   3 -13 1196.38   36.90
  -2   3 -13 1144.29   36.70
  -2   3 -13 1170.68   36.40
   2  -3  13 1165.58   36.70
  -3   3 -13    1.50    0.60
  -3   3 -13    3.80    0.90
   3  -3  13    1.50    2.10
   3  -3  13    0.20    0.60
  -4   3 -13  305.17    9.80
  -4   3 -13  311.87    9.60
   4  -3  13  282.07   10.60
   4  -3  13  286.17    9.40
  -4  -2  13  397.76   12.70
  -4  -2  13  394.16   12.40
   3   2 -13  749.42   23.90
  -3  -2  13  759.82   23.80
  -3  -2  13  763.52   24.10
   2   2 -13  105.39    4.20
  -2  -2  13  104.09    3.90
  -2  -2  13  112.69    4.40
   1   2 -13 1191.98   36.90
   1   2 -13 1145.89   36.80
  -1  -2  13 1181.08   37.10
  -1  -2  13 1194.78   37.00
  -1  -2  13 1180.48   36.50
  -1  -2  13 1132.79   41.60
   0   2 -13  821.62   25.80
   0   2 -13  782.82   25.60
   0   2 -13  780.92   30.70
   0  -2  13  809.92   25.80
   0  -2  13  779.62   30.70
   0  -2  13  846.22   25.80
  -1   2 -13  229.98    7.80
  -1   2 -13  233.48    8.30
  -1   2 -13  231.18   13.00
  -1   2 -13  229.38    8.10
   1  -2  13  229.68    8.10
   1  -2  13  216.58   16.30
   1  -2  13  236.08    8.10
  -2   2 -13 1429.16   44.20
  -2   2 -13 1348.27   44.10
  -2   2 -13 1400.46   53.79
  -2   2 -13 1435.06   43.90
   2  -2  13 1422.26   44.00
  -3   2 -13  235.88    8.10
  -3   2 -13  228.48    7.80
   3  -2  13  233.18    9.50
   3  -2  13  231.48    7.90
  -4   2 -13  687.73   21.20
  -4   2 -13  663.93   21.00
   4  -2  13  644.14   22.30
   4  -2  13  662.73   20.80
  -5   2 -13    1.30    0.50
  -5   2 -13    1.90    1.60
   5  -2  13    1.50    1.30
  -4  -1  13  385.26   12.40
  -4  -1  13  403.86   13.50
   3   1 -13   82.99    3.40
  -3  -1  13   88.99    3.70
  -3  -1  13   84.49    3.20
   2   1 -13  735.63   23.90
  -2  -1  13  748.03   24.00
  -2  -1  13  761.02   23.50
  -2  -1  13  738.33   24.30
   1   1 -13  297.87   10.00
  -1  -1  13  297.67   10.40
  -1  -1  13  265.67   14.00
   0   1 -13  481.35   15.70
   0   1 -13  483.25   15.70
   0   1 -13  467.65   15.20
   0  -1  13  473.45   15.60
   0  -1  13  460.15   20.00
   0  -1  13  480.05   15.70
  -1   1 -13 1157.38   35.90
  -1   1 -13 1147.29   36.20
  -1   1 -13 1135.39   36.30
   1  -1  13 1140.89   36.10
   1  -1  13 1156.18   36.20
  -2   1 -13  113.79    4.60
  -2   1 -13  110.39    8.30
  -2   1 -13  111.49    4.30
   2  -1  13  112.79    4.50
  -3   1 -13  814.32   25.70
  -3   1 -13  808.02   31.10
  -3   1 -13  826.72   25.90
   3  -1  13  787.42   27.30
   3  -1  13  832.22   25.80
  -4   1 -13  208.18    7.30
  -4   1 -13  209.38    7.10
   4  -1  13  204.78    8.60
   4  -1  13  205.58    7.50
  -5   1 -13  123.69    4.20
   5  -1  13  114.79    4.40
   5  -1  13  116.39    5.40
  -4   0  13  439.66   14.10
  -4   0  13  457.85   14.50
   3   0 -13  246.08    8.50
  -3   0  13  245.38    8.20
  -3   0  13  248.38    8.60
   2   0 -13 1254.37   39.20
   2   0 -13 1234.98   39.00
  -2   0  13 1242.98   38.70
  -2   0  13 1218.08   39.40
  -2   0  13 1262.67   39.30
   1   0 -13   25.80    2.20
   1   0 -13   28.30    2.20
  -1   0  13   21.40    2.00
  -1   0  13   25.60    1.80
  -1   0  13   20.90    2.60
   0   0 -13  321.87   10.70
   0   0 -13  316.67   11.10
   0   0 -13  325.27   11.10
   0   0  13  322.67   11.00
   0   0  13  323.27   11.10
   0   0  13  326.57   15.30
  -1   0 -13  627.34   20.20
  -1   0 -13  595.64   20.20
  -1   0 -13  626.84   19.80
   1   0  13  621.54   20.00
   1   0  13  629.54   20.10
  -2   0 -13  507.55   16.70
  -2   0 -13  515.85   16.50
   2   0  13  507.65   16.60
  -3   0 -13  749.62   23.10
  -3   0 -13  721.13   29.90
  -3   0 -13  731.73   23.30
   3   0  13  690.83   23.30
   3   0  13  712.23   24.90
   3   0  13  754.52   23.10
   3   0  13  718.23   28.70
  -4   0 -13    0.30    0.70
  -4   0 -13    3.10    1.40
   4   0  13    2.40    1.20
   4   0  13    0.50    1.50
  -5   0 -13  102.39    3.70
   5   0  13  100.69    5.00
   5   0  13   98.49    3.90
   4  -1 -13    0.60    0.60
  -4   1  13    0.60    0.50
  -4   1  13   -0.20    0.70
   3  -1 -13 1010.90   32.00
  -3   1  13 1013.20   32.10
   2  -1 -13  373.46   12.60
   2  -1 -13  370.26   12.50
  -2   1  13  377.26   13.00
  -2   1  13  370.26   12.70
  -2   1  13  374.86   12.10
   1  -1 -13 1241.68   40.60
   1  -1 -13 1259.97   40.50
  -1   1  13 1356.76   40.90
  -1   1  13 1209.68   44.30
  -1   1  13 1321.77   40.70
   0  -1 -13   73.09    4.00
   0  -1 -13   92.29    3.90
   0  -1 -13   77.79    3.40
   0   1  13   90.39    4.10
   0   1  13   80.59    3.90
   0   1  13   77.69    8.30
  -1  -1 -13  127.69    5.20
  -1  -1 -13  132.79    4.90
  -1  -1 -13  128.19    6.00
   1   1  13  135.09    5.30
   1   1  13  129.69    5.50
  -2  -1 -13  614.24   20.10
  -2  -1 -13  615.94   19.80
   2   1  13  620.14   20.00
  -3  -1 -13  159.88    5.90
  -3  -1 -13  154.98    6.20
   3   1  13  166.18    7.90
   3   1  13  168.98    6.00
  -4  -1 -13  229.68    7.60
  -4  -1 -13  221.58    8.60
   4   1  13  220.18    9.40
   4   1  13  217.08    7.90
  -5  -1 -13  289.97    9.30
   5   1  13  284.37    9.60
   5   1  13  280.97   10.80
   4  -2 -13  224.38    7.40
  -4   2  13  238.98    7.70
   3  -2 -13  806.32   24.70
  -3   2  13  749.62   24.70
  -3   2  13  759.22   24.00
   2  -2 -13   32.20    2.30
   2  -2 -13   32.50    2.50
  -2   2  13   32.30    3.10
  -2   2  13   31.30    2.30
   1  -2 -13 2276.67   70.49
   1  -2 -13 2275.77   70.59
  -1   2  13 2306.67   70.69
  -1   2  13 2130.79   74.79
  -1   2  13 2299.37   70.49
   0  -2 -13  121.29    5.00
   0  -2 -13  119.69    4.60
   0  -2 -13  119.69    5.30
   0   2  13  120.49    5.10
   0   2  13  114.09    5.10
  -1  -2 -13  966.40   31.70
  -1  -2 -13  984.40   31.30
  -1  -2 -13 1018.90   33.00
   1   2  13  995.10   31.70
  -2  -2 -13  832.52   26.90
  -2  -2 -13  876.61   28.70
   2   2  13  805.12   29.30
   2   2  13  875.41   27.50
  -3  -2 -13   44.30    2.40
  -3  -2 -13   44.30    3.00
   3   2  13   41.70    2.70
   3   2  13   43.30    4.30
  -4  -2 -13  109.19    4.30
   4   2  13  117.59    6.10
  -5  -2 -13  142.89    5.10
   5   2  13  148.39    6.40
   3  -3 -13  230.08    7.70
  -3   3  13  222.18    8.20
  -3   3  13  226.68    7.70
   2  -3 -13  409.66   13.80
  -2   3  13  423.16   13.70
  -2   3  13  404.96   14.00
   1  -3 -13   32.90    2.70
   1  -3 -13   39.00    2.60
  -1   3  13   37.10    2.50
  -1   3  13   34.70    2.80
   0  -3 -13   81.69    3.50
   0  -3 -13   84.29    4.60
   0  -3 -13   86.19    4.00
   0   3  13   78.99    4.00
   0   3  13   86.69    4.20
  -1  -3 -13  721.23   23.30
  -1  -3 -13  730.03   23.80
   1   3  13  738.63   23.70
  -2  -3 -13  170.18    6.50
  -2  -3 -13  163.98    6.00
   2   3  13  168.28    6.30
   2   3  13  154.98    8.10
  -3  -3 -13  448.86   14.70
  -3  -3 -13  466.35   15.20
   3   3  13  442.46   16.60
  -4  -3 -13  414.46   13.50
   4   3  13  416.66   15.20
  -5  -3 -13    0.30    1.20
   5   3  13    0.70    1.20
   2  -4 -13 1461.95   45.50
   2  -4 -13 1457.25   45.80
  -2   4  13 1470.05   45.90
   1  -4 -13  240.58    8.70
   1  -4 -13  248.48    8.80
  -1   4  13  248.78    8.90
   0  -4 -13  303.47   10.50
   0  -4 -13  300.87   10.90
   0  -4 -13  290.97    9.90
   0   4  13  305.17   10.60
  -1  -4 -13 1575.84   49.80
  -1  -4 -13 1599.94   50.29
   1   4  13 1612.04   50.09
  -2  -4 -13   51.09    3.10
  -2  -4 -13   50.29    2.50
   2   4  13   50.19    2.90
  -3  -4 -13  437.16   14.50
  -3  -4 -13  442.86   14.10
   3   4  13  417.86   15.60
  -4  -4 -13  245.78    8.00
   4   4  13  230.98    9.20
   2  -5 -13    6.80    0.90
  -2   5  13    5.90    1.10
   1  -5 -13   10.60    1.40
   1  -5 -13   10.20    1.40
  -1   5  13    9.30    1.20
   0  -5 -13  197.48    6.60
   0  -5 -13  206.08    7.60
   0   5  13  194.88    7.50
  -1  -5 -13  556.84   18.60
  -1  -5 -13  587.54   19.40
   1   5  13  607.24   19.90
  -2  -5 -13  554.34   17.40
  -2  -5 -13  540.75   17.50
   2   5  13  495.85   19.60
  -3  -5 -13  235.38    8.10
  -3  -5 -13  240.08    7.70
   3   5  13  210.28    9.10
  -4  -5 -13    1.20    0.80
   4   5  13    1.00    1.30
   1  -6 -13   58.49    2.30
  -1   6  13   54.99    2.40
   0  -6 -13  301.77    9.80
   0   6  13  289.67    9.60
  -1  -6 -13   16.00    1.60
  -1  -6 -13   16.80    1.10
   1   6  13   16.00    1.80
  -2  -6 -13  584.74   18.30
  -2  -6 -13  575.14   18.40
  -1  -5  14  331.67   11.10
   0   5 -14  241.78    7.90
   0  -5  14  240.58    8.00
   0  -5  14  242.98    7.90
  -1   5 -14  383.06   12.50
  -1   5 -14  403.06   12.70
   1  -5  14  399.06   12.60
  -2   5 -14   78.19    3.70
  -2   5 -14   87.29    3.30
   2  -5  14   83.29    3.10
   2   4 -14  388.26   12.40
  -2  -4  14  391.06   12.50
   1   4 -14   29.70    1.60
  -1  -4  14   30.80    2.80
  -1  -4  14   27.40    1.60
   0   4 -14  396.76   13.00
   0   4 -14  396.76   13.10
   0  -4  14  417.06   13.10
   0  -4  14  412.16   13.20
  -1   4 -14  185.18    6.60
  -1   4 -14  190.28    6.60
   1  -4  14  194.08    6.70
   1  -4  14  190.28    6.50
  -2   4 -14   57.79    2.50
  -2   4 -14   59.09    2.90
   2  -4  14   56.69    2.50
  -3   4 -14  425.36   13.40
   3  -4  14  409.66   13.20
  -3  -3  14  927.61   29.00
   2   3 -14  305.47    9.80
  -2  -3  14  285.87    9.50
  -2  -3  14  305.87    9.90
   1   3 -14  305.37   10.30
  -1  -3  14  314.87   10.50
  -1  -3  14  309.17   10.30
   0   3 -14  543.35   17.60
   0   3 -14  542.05   17.50
   0  -3  14  546.75   17.50
   0  -3  14  549.05   17.70
  -1   3 -14    2.20    0.70
  -1   3 -14    1.20    1.00
   1  -3  14    1.00    1.00
   1  -3  14    1.20    0.80
  -2   3 -14  326.57   10.80
  -2   3 -14  319.97   10.40
  -2   3 -14  324.67   10.90
   2  -3  14  322.97   10.70
  -3   3 -14   62.29    2.70
  -3   3 -14   63.59    2.50
   3  -3  14   61.79    2.60
  -4   3 -14    4.70    0.80
  -4   3 -14    6.20    0.80
   3   2 -14  663.43   21.20
  -3  -2  14  711.63   21.50
  -3  -2  14  653.93   21.00
   2   2 -14    3.10    0.80
  -2  -2  14    2.00    0.70
  -2  -2  14    2.70    0.80
  -2  -2  14    3.80    2.20
   1   2 -14  806.92   26.10
   1   2 -14  838.72   26.30
  -1  -2  14  800.42   25.70
  -1  -2  14  827.62   26.30
  -1  -2  14  858.01   26.50
   0   2 -14  546.35   17.70
   0   2 -14  539.85   17.70
   0  -2  14  544.15   17.60
   0  -2  14  544.05   17.70
  -1   2 -14   65.69    3.00
  -1   2 -14   65.49    2.80
  -1   2 -14   63.09    3.20
   1  -2  14   67.69    3.10
   1  -2  14   67.39    3.10
  -2   2 -14  927.91   29.70
  -2   2 -14  950.30   29.40
  -2   2 -14  945.41   29.90
   2  -2  14  931.31   29.60
  -3   2 -14  193.38    6.60
  -3   2 -14  200.48    6.90
   3  -2  14  194.58    6.70
  -4   2 -14  119.29    4.30
  -4   2 -14  125.09    4.20
   4  -2  14  110.09    5.60
   3   1 -14  311.17   10.40
  -3  -1  14  311.57   10.20
  -3  -1  14  337.27   10.70
   2   1 -14  199.38    7.10
  -2  -1  14  209.68    7.70
  -2  -1  14  205.18    7.20
  -2  -1  14  188.88    6.60
   1   1 -14  792.92   25.80
   1   1 -14  809.32   25.90
  -1  -1  14  830.32   25.90
  -1  -1  14  809.02   26.00
   0   1 -14    0.80    0.80
   0   1 -14    3.30    5.20
   0  -1  14    1.60    1.00
   0  -1  14    0.80    1.00
   0  -1  14   -0.70    7.80
  -1   1 -14 1150.28   36.00
  -1   1 -14 1149.39   42.10
  -1   1 -14 1129.69   36.40
  -1   1 -14 1173.38   36.40
   1  -1  14 1149.89   36.10
   1  -1  14 1151.18   36.30
  -2   1 -14  254.67   13.80
  -2   1 -14  255.77    8.70
  -2   1 -14  251.87    8.90
   2  -1  14  270.77    8.90
  -3   1 -14  570.34   18.20
  -3   1 -14  586.64   18.50
   3  -1  14  547.75   19.90
   3  -1  14  583.54   18.30
  -4   1 -14  556.14   17.30
  -4   1 -14  535.65   17.20
   4  -1  14  517.55   35.90
   5  -1  14   49.70    3.00
   3   0 -14   29.50    1.80
  -3   0  14   30.50    1.90
  -3   0  14   27.80    1.50
   2   0 -14  912.31   29.90
  -2   0  14  883.51   29.40
  -2   0  14  927.91   30.00
  -2   0  14 1058.19   31.60
   1   0 -14  663.53   21.60
   1   0 -14  663.93   21.70
  -1   0  14  675.93   21.90
  -1   0  14  682.83   21.70
   0   0 -14   41.50    2.20
   0   0 -14   43.20    2.70
   0   0 -14   38.60    2.50
   0   0  14   41.50    2.60
   0   0  14   31.10    8.00
   0   0  14   36.90    2.50
  -1   0 -14 1127.69   32.80
  -1   0 -14  976.80   32.90
  -1   0 -14 1018.90   32.30
   1   0  14  909.11   32.90
   1   0  14 1034.80   32.00
  -2   0 -14  409.96   13.50
  -2   0 -14  418.46   13.90
   2   0  14  419.56   13.80
  -3   0 -14 1006.90   31.90
  -3   0 -14 1019.20   31.70
   3   0  14  973.70   33.20
   3   0  14 1036.20   31.70
  -4   0 -14  218.18    7.50
   4   0  14  208.58    8.60
   5   0  14  214.08    8.00
   3  -1 -14   88.89    3.50
  -3   1  14   89.49    3.60
   2  -1 -14  583.04   19.20
   2  -1 -14  603.54   19.50
  -2   1  14  622.74   19.60
   1  -1 -14    2.00    1.10
   1  -1 -14    0.70    1.00
  -1   1  14    2.00    1.00
  -1   1  14    2.80    1.30
   0  -1 -14 1200.58   38.10
   0  -1 -14 1240.78   38.70
   0  -1 -14 1206.38   38.70
   0   1  14 1239.48   38.70
   0   1  14 1221.08   38.50
  -1  -1 -14  406.86   14.40
  -1  -1 -14  422.26   13.80
  -1  -1 -14  428.46   14.20
   1   1  14  439.16   14.20
  -2  -1 -14  439.96   14.20
  -2  -1 -14  432.46   14.50
   2   1  14  432.36   14.40
  -3  -1 -14 1238.48   38.70
  -3  -1 -14 1236.38   39.00
   3   1  14 1252.97   38.70
   3   1  14 1225.48   40.40
  -4  -1 -14   50.69    2.40
  -4  -1 -14   49.10    3.10
   4   1  14   46.00    3.80
   5   1  14  451.85   15.40
   3  -2 -14  640.14   19.90
  -3   2  14  652.43   20.00
  -3   2  14  587.34   21.20
   2  -2 -14  247.08    8.50
   2  -2 -14  247.28    8.70
  -2   2  14  254.07    9.00
  -2   2  14  253.37    8.70
   1  -2 -14  254.27    9.10
   1  -2 -14  252.27    9.00
  -1   2  14  257.57    9.20
  -1   2  14  257.37    8.90
   0  -2 -14  232.78    7.80
   0  -2 -14  236.48    8.40
   0  -2 -14  229.08    8.60
   0   2  14  226.28    8.40
   0   2  14  234.38    8.20
  -1  -2 -14  131.99    6.80
  -1  -2 -14  135.29    5.10
  -1  -2 -14  139.09    5.50
   1   2  14  137.79    5.50
  -2  -2 -14  924.61   29.70
  -2  -2 -14  934.71   29.40
   2   2  14  931.71   29.50
  -3  -2 -14  287.57    9.70
  -3  -2 -14  285.07   10.10
   3   2  14  308.87    9.90
   3   2  14  286.37   13.20
  -4  -2 -14  287.67   10.10
  -4  -2 -14  260.47    8.90
   4   2  14  264.77   10.40
  -5  -2 -14   50.29    2.20
   5   2  14   46.00    3.00
   3  -3 -14  374.36   12.40
   2  -3 -14   16.20    1.80
   2  -3 -14   21.40    1.70
  -2   3  14   21.40    1.70
  -2   3  14   20.30    2.20
   1  -3 -14 1367.06   43.20
   1  -3 -14 1369.86   43.10
  -1   3  14 1357.86   43.00
  -1   3  14 1389.16   43.30
   0  -3 -14   25.40    1.80
   0  -3 -14   27.90    3.10
   0  -3 -14   25.10    2.10
   0   3  14   28.20    2.20
  -1  -3 -14   21.50    1.60
  -1  -3 -14   18.50    2.00
   1   3  14   17.10    1.90
  -2  -3 -14  606.14   19.40
  -2  -3 -14  593.74   19.70
   2   3  14  616.34   19.50
  -3  -3 -14   65.29    3.40
  -3  -3 -14   65.39    2.80
   3   3  14   60.09    4.60
  -4  -3 -14  677.13   21.00
   4   3  14  653.43   22.10
   2  -4 -14  316.97   10.40
   1  -4 -14  511.85   16.70
   1  -4 -14  515.95   16.80
  -1   4  14  522.05   16.90
   0  -4 -14  328.07   11.50
   0  -4 -14  331.67   10.70
   0  -4 -14  330.97   11.30
   0   4  14  335.97   11.30
  -1  -4 -14  601.74   19.50
  -1  -4 -14  598.74   19.10
   1   4  14  600.04   19.40
  -2  -4 -14   80.99    3.70
  -2  -4 -14   80.59    3.30
   2   4  14   79.59    3.30
  -3  -4 -14  234.08    7.50
  -3  -4 -14  233.08    8.00
   3   4  14  200.78    8.60
  -4  -4 -14    4.80    0.80
   4   4  14    3.60    1.50
   1  -5 -14   26.90    2.10
  -1   5  14   24.20    1.70
   0  -5 -14   92.09    3.70
   0   5  14   90.09    3.60
  -1  -5 -14   92.49    3.40
  -1  -5 -14   91.59    3.80
   1   5  14   89.89    3.50
  -2  -5 -14   97.49    3.60
  -2  -5 -14   90.99    3.80
  -3  -5 -14  704.63   22.20
   1   4 -15  264.97    8.60
  -1  -4  15  264.57    8.60
   0   4 -15  129.89    4.60
   0  -4  15  132.19    4.60
   0  -4  15  130.99    4.80
  -1   4 -15  358.36   11.60
  -1   4 -15  357.46   11.60
   1  -4  15  364.16   11.70
  -2   4 -15   13.10    2.30
  -2   4 -15   11.70    1.10
   2  -4  15   13.80    1.10
  -3   4 -15  279.07    9.00
   2   3 -15 1278.67   39.50
  -2  -3  15 1266.57   39.60
   1   3 -15    2.80    0.70
  -1  -3  15    2.50    1.30
  -1  -3  15    1.60    0.70
   0   3 -15  840.82   26.40
   0   3 -15  837.52   26.50
   0  -3  15  836.02   26.50
   0  -3  15  844.02   26.40
  -1   3 -15  164.48    5.90
   1  -3  15  171.28    5.70
   1  -3  15  152.18    6.70
  -2   3 -15  132.09    5.30
  -2   3 -15  124.79    4.60
   2  -3  15  123.09    4.50
  -3   3 -15  657.83   20.60
  -3   3 -15  641.84   20.30
   3  -3  15  654.13   20.40
   2   2 -15  238.48    8.00
  -2  -2  15  243.38    8.10
   1   2 -15  291.77   10.20
   1   2 -15  310.37   10.50
  -1  -2  15  333.07   10.70
  -1  -2  15  312.37   10.60
   0   2 -15  718.23   22.90
   0   2 -15  703.83   22.80
   0  -2  15  731.33   23.00
   0  -2  15  718.63   22.80
  -1   2 -15   23.70    1.70
  -1   2 -15   21.50    2.20
   1  -2  15   24.60    2.20
   1  -2  15   22.10    1.80
  -2   2 -15  444.96   14.40
  -2   2 -15  453.45   15.00
  -2   2 -15  458.85   14.80
   2  -2  15  454.55   14.70
  -3   2 -15  141.09    5.10
  -3   2 -15  143.49    4.90
   3  -2  15  144.29    5.00
  -4   2 -15  164.88    5.40
  -4   2 -15  162.88    5.60
   3   1 -15 1052.39   33.80
  -3  -1  15 1133.59   34.60
   2   1 -15   11.60    1.30
  -2  -1  15   11.20    1.40
  -2  -1  15   13.00    2.60
   1   1 -15 1134.19   36.40
   1   1 -15 1109.89   37.30
  -1  -1  15 1179.58   36.40
  -1  -1  15 1207.58   36.80
   0   1 -15   54.29    2.70
   0   1 -15   57.89    2.80
   0  -1  15   55.19    2.80
   0  -1  15   51.49    2.90
  -1   1 -15  376.36   12.50
  -1   1 -15  366.76   12.00
  -1   1 -15  373.36   12.60
   1  -1  15  380.06   12.50
   1  -1  15  367.36   12.30
  -2   1 -15  305.47   10.00
  -2   1 -15  306.47   10.30
   2  -1  15  298.07   10.20
  -3   1 -15    7.60    1.10
   3  -1  15    7.60    1.30
  -4   1 -15  237.38    7.90
  -4   1 -15  244.28    8.40
  -3   0  15   54.29    2.40
   2   0 -15  503.65   16.70
  -2   0  15  520.25   16.70
  -2   0  15  524.05   16.90
   1   0 -15  630.64   20.80
   1   0 -15  648.94   21.00
  -1   0  15  655.73   20.90
  -1   0  15  666.73   21.10
   0   0 -15   74.89    3.60
   0   0 -15   75.79    3.40
   0   0  15   74.29    3.60
   0   0  15   77.59    3.50
  -1   0 -15  766.22   24.60
  -1   0 -15  786.52   25.10
  -1   0 -15  796.52   25.00
   1   0  15  768.92   25.00
  -2   0 -15  179.88    6.30
  -2   0 -15  180.38    6.60
   2   0  15  186.28    6.60
  -3   0 -15   67.59    2.80
  -3   0 -15   70.49    3.30
  -4   0 -15  179.98    5.70
   4   0  15  154.98    7.90
   3  -1 -15   18.00    1.30
  -3   1  15   19.10    1.80
   2  -1 -15  959.30   30.50
  -2   1  15  959.00   30.60
  -2   1  15  980.50   30.50
   1  -1 -15   86.09    3.80
   1  -1 -15   85.09    3.70
  -1   1  15   87.89    3.70
  -1   1  15   86.69    3.90
   0  -1 -15  467.75   15.60
   0  -1 -15  492.55   16.40
   0  -1 -15  503.95   16.30
   0   1  15  510.05   16.40
   0   1  15  506.85   16.10
  -1  -1 -15  471.55   15.60
  -1  -1 -15  476.25   15.80
  -1  -1 -15  468.45   15.10
   1   1  15  464.65   15.50
  -2  -1 -15  141.49    5.50
  -2  -1 -15  143.89    5.20
   2   1  15  143.19    5.40
  -3  -1 -15  821.22   25.60
   3   1  15  803.12   25.40
  -4  -1 -15  171.68    6.10
  -4  -1 -15  181.88    5.80
   4   1  15  152.88    6.90
   2  -2 -15  566.84   18.10
  -2   2  15  554.84   18.10
  -2   2  15  566.54   18.00
   1  -2 -15   52.19    3.10
   1  -2 -15   49.30    3.80
  -1   2  15   54.59    3.30
  -1   2  15   57.29    2.70
   0  -2 -15  868.61   27.70
   0  -2 -15  898.41   28.10
   0   2  15  866.61   27.70
   0   2  15  833.82   27.30
  -1  -2 -15  242.28    8.80
  -1  -2 -15  250.37    8.40
   1   2  15  262.77    8.90
  -2  -2 -15   38.50    2.40
  -2  -2 -15   38.80    2.10
   2   2  15   39.80    2.30
  -3  -2 -15  585.64   18.90
  -4  -2 -15   88.69    3.10
   4   2  15   70.09    5.40
   2  -3 -15  111.69    4.10
  -2   3  15  110.59    4.30
   1  -3 -15  122.09    4.70
   1  -3 -15  123.09    4.80
  -1   3  15  129.69    4.90
   0  -3 -15  717.23   23.00
   0  -3 -15  723.03   23.10
   0   3  15  707.93   23.00
  -1  -3 -15   90.09    3.50
  -1  -3 -15   90.99    3.90
   1   3  15   89.59    3.80
  -2  -3 -15 1037.10   32.10
  -2  -3 -15 1006.90   32.90
   2   3  15 1033.80   32.20
  -3  -3 -15  281.17    9.60
  -3  -3 -15  289.27    9.40
  -4  -3 -15  367.26   11.70
   1  -4 -15  423.16   13.70
   1  -4 -15  423.06   13.60
  -1   4  15  418.76   13.70
   0  -4 -15   46.30    3.80
   0  -4 -15   57.39    2.60
   0   4  15   56.49    2.70
  -1  -4 -15    4.90    0.80
  -1  -4 -15    6.70    1.10
   1   4  15    4.70    1.00
  -2  -4 -15  600.24   19.30
  -2  -4 -15  607.54   19.10
  -3  -4 -15    9.90    1.10
  -3  -4 -15    9.90    1.70
   0  -5 -15  246.48    8.00
   0   5  15  236.28    7.90
   1   5  15   90.89    3.20
  -2  -5 -15  193.98    6.60
  -2  -5 -15  198.48    6.40
  -1   4 -16  401.76   12.80
   1  -4  16  378.06   12.40
   1   3 -16   80.49    3.00
  -1  -3  16   67.49    3.40
  -1  -3  16   75.59    2.80
   0   3 -16   19.90    1.40
   0   3 -16   17.90    1.60
   0  -3  16   18.60    1.60
   0  -3  16   24.50    1.60
  -1   3 -16  570.24   18.30
  -1   3 -16  545.45   17.50
   1  -3  16  543.05   17.50
  -2   3 -16   15.30    1.10
   2  -3  16   14.00    1.10
  -3   3 -16  576.04   17.70
   3  -3  16  551.24   17.60
   2   2 -16  690.73   21.80
  -2  -2  16  704.83   21.90
   1   2 -16    1.30    0.70
  -1  -2  16    3.30    2.00
  -1  -2  16    0.80    0.70
   0   2 -16  678.53   21.80
   0   2 -16  672.53   21.70
   0  -2  16  697.73   21.90
   0  -2  16  700.23   21.70
  -1   2 -16  323.87   10.70
  -1   2 -16  321.67   10.80
   1  -2  16  329.37   10.80
  -2   2 -16  130.99    4.70
   2  -2  16  129.69    4.70
  -3   2 -16  324.67   10.60
  -3   2 -16  318.87   10.50
   3  -2  16  340.17   10.80
   2   1 -16  509.85   16.30
  -2  -1  16  516.25   16.30
   1   1 -16  350.36   11.50
   1   1 -16  352.66   11.60
  -1  -1  16  354.76   11.50
  -1  -1  16  344.47   11.60
   0   1 -16  512.25   16.50
   0   1 -16  504.05   16.50
   0  -1  16  517.95   16.60
   0  -1  16  503.85   16.30
  -1   1 -16   81.09    3.80
  -1   1 -16   80.49    3.40
   1  -1  16   77.79    3.40
  -2   1 -16  702.73   22.50
  -2   1 -16  659.53   21.60
   2  -1  16  706.63   22.00
  -3   1 -16  316.87   10.30
  -3   1 -16  330.37   10.50
   3  -1  16  314.67   10.30
  -4   1 -16  295.37    9.60
  -4   1 -16  306.17   10.20
   2   0 -16    6.40    0.90
  -2   0  16    5.10    0.80
  -2   0  16    6.30    1.70
   1   0 -16 1081.69   34.20
   1   0 -16 1075.69   34.00
  -1   0  16 1109.59   34.10
  -1   0  16 1087.29   34.30
   0   0 -16  314.67   10.50
   0   0 -16  315.57   10.50
   0   0  16  297.37   10.20
   0   0  16  315.17   10.50
  -1   0 -16  347.67   11.60
  -1   0 -16  332.87   11.10
  -1   0 -16  349.87   11.80
   1   0  16  354.46   11.60
  -2   0 -16  353.16   12.10
   2   0  16  364.26   12.30
  -3   0 -16   59.49    2.60
  -3   0 -16   55.69    2.30
   3   0  16   52.19    2.40
  -4   0 -16  611.04   19.20
   2  -1 -16  287.97    9.50
  -2   1  16  288.17    9.60
   1  -1 -16  490.25   15.90
   1  -1 -16  477.35   15.70
  -1   1  16  492.85   15.70
  -1   1  16  496.75   16.00
   0  -1 -16  406.06   13.70
   0  -1 -16  444.86   14.00
   0   1  16  389.56   13.30
   0   1  16  413.46   13.70
  -1  -1 -16  669.83   21.80
  -1  -1 -16  662.13   21.70
  -1  -1 -16  675.93   21.60
   1   1  16  674.53   21.50
  -2  -1 -16   20.80    2.70
  -2  -1 -16   21.30    2.20
   2   1  16   20.10    2.00
  -3  -1 -16  160.68    5.80
  -3  -1 -16  166.18    5.60
   2  -2 -16  557.64   17.90
  -2   2  16  577.74   18.50
   1  -2 -16   87.39    3.50
   1  -2 -16   84.89    3.30
  -1   2  16   80.69    3.40
  -1   2  16   85.79    3.60
   0  -2 -16  453.95   14.90
   0  -2 -16  455.05   15.00
   0   2  16  462.95   15.00
  -1  -2 -16  224.18    7.40
  -2  -2 -16  131.29    5.00
  -2  -2 -16  134.09    4.70
   2   2  16  131.29    4.80
  -3  -2 -16  249.08    8.50
  -3  -2 -16  258.87    8.40
  -4  -2 -16    6.80    0.90
   1  -3 -16  343.67   11.30
   1  -3 -16  344.37   11.10
  -1   3  16  351.46   11.40
   0  -3 -16  533.65   17.20
   0  -3 -16  527.85   17.20
   0   3  16  540.55   17.20
  -1  -3 -16    5.70    0.80
  -1  -3 -16    5.60    1.00
   1   3  16    5.40    0.90
  -2  -3 -16  372.76   12.50
  -2  -3 -16  389.26   12.20
   2   3  16  380.96   12.30
  -3  -3 -16  142.89    4.80
  -3  -3 -16  134.59    5.00
  -1  -4 -16  165.28    5.60
   1   4  16  157.18    5.70
  -2  -4 -16  141.59    4.80
  -2  -4 -16  140.99    5.00
   0   2 -17   49.80    2.30
   0  -2  17   49.40    2.30
  -1   2 -17  315.47   10.30
  -1   2 -17  322.97   10.50
   1  -2  17  320.67   10.40
  -2   2 -17   27.70    1.50
   2  -2  17   30.20    2.00
   1   1 -17   82.89    3.20
  -1  -1  17   79.79    3.10
  -1  -1  17   84.59    3.40
   0   1 -17  353.06   11.50
   0   1 -17  339.87   11.30
   0  -1  17  352.86   11.40
  -1   1 -17  308.77   10.30
  -1   1 -17  300.27   10.10
   1  -1  17  315.37   10.20
  -2   1 -17  212.78    7.20
   2  -1  17  213.28    7.10
  -3   1 -17  421.76   13.30
  -3   1 -17  412.56   13.00
  -1   0  17  297.77    9.90
  -1   0  17  321.77   10.20
   0   0 -17  387.46   12.40
   0   0 -17  374.36   12.20
   0   0  17  370.26   12.30
  -1   0 -17    8.00    1.20
  -1   0 -17   10.10    1.90
   1   0  17    9.80    1.30
  -2   0 -17  574.44   17.50
  -2   0 -17  522.05   17.10
   2   0  17  542.35   17.30
  -3   0 -17   86.89    3.30
  -3   0 -17   84.99    3.50
   1  -1 -17  572.24   18.20
  -1   1  17  573.44   18.20
   0  -1 -17   19.60    2.10
   0  -1 -17   18.80    1.50
  -1  -1 -17  400.76   13.20
   1   1  17  406.56   13.10
  -2  -1 -17  331.17   10.60
  -2  -1 -17  337.07   11.00
   2   1  17  333.37   10.80
  -3  -1 -17   17.60    1.40
  -3  -1 -17   15.90    1.50
   1  -2 -17  795.22   25.00
  -1   2  17  801.62   25.00
   0  -2 -17   13.80    1.70
   0  -2 -17   17.60    1.40
   0   2  17   14.90    1.40
  -1  -2 -17  566.44   18.10
   1   2  17  565.14   18.00
  -2  -2 -17   53.19    2.10
  -2  -2 -17   52.89    2.40
   2   2  17   48.30    2.10
  -3  -2 -17  289.27    9.20
   0  -3 -17  757.02   24.20
   0   3  17  789.02   24.20
   1   3  17  111.49    3.90
  -2  -3 -17  125.59    4.20
  -2  -3 -17  127.69    4.50
  -1   0 -18    1.00    0.60
   1   0  18    0.40    0.70
  -1  -1 -18    7.70    1.10
   1   1  18    6.40    0.80
   0   0   0    0.00    0.00
_computing_structure_solution     'SHELXT 2018/2 (Sheldrick, 2018)'
;
_shelx_hkl_checksum              44262
_shelx_res_file
;
TITL X:\Users\MEC\20mec15\work\cu_20mec15_0m_a.res in P-1
    X:\Users\MEC\20mec15\work\cu_20mec15_0m_a.res
    created by SHELXL-2018/3 at 16:56:33 on 29-Jun-2020
CELL 1.54178 5.9282 7.3614 14.6747 88.532 82.199 87.457
ZERR 2.0000 0.0006 0.0008 0.0016 0.003 0.003 0.003
LATT 1
SFAC C H O BR
UNIT 32 26 2 2
BOND $h
conf
ACTA
FMAP 2 1 53
PLAN 20 0 0
LIST 6 1
TEMP -173.15
L.S. 10
WGHT    0.031300    0.578300
FVAR       1.19438
BR1   4    0.800349    0.890291    0.082375    11.00000    0.02062    0.02741 =
         0.01669    0.00044    0.00161   -0.00258
O1    3    0.732937    0.789002    0.456980    11.00000    0.01515    0.03211 =
         0.01963    0.00075   -0.00239   -0.00231
C1    1    0.535357    0.791667    0.442253    11.00000    0.01742    0.01417 =
         0.01944   -0.00208   -0.00190   -0.00181
C2    1    0.346565    0.731871    0.512795    11.00000    0.01750    0.01914 =
         0.02061   -0.00132   -0.00075   -0.00191
AFIX  43
H2    2    0.199245    0.718770    0.495759    11.00000   -1.20000
AFIX   0
C3    1    0.381680    0.696510    0.599511    11.00000    0.01762    0.01416 =
         0.02374   -0.00256   -0.00149    0.00047
AFIX  43
H3    2    0.530796    0.713033    0.613915    11.00000   -1.20000
AFIX   0
C4    1    0.472624    0.859037    0.351304    11.00000    0.01503    0.01306 =
         0.01880   -0.00123   -0.00249   -0.00297
C5    1    0.636645    0.843942    0.273298    11.00000    0.01361    0.01431 =
         0.02054   -0.00161   -0.00244   -0.00257
AFIX  43
H5    2    0.783980    0.791310    0.277957    11.00000   -1.20000
AFIX   0
C6    1    0.580322    0.906899    0.189588    11.00000    0.01626    0.01666 =
         0.01679   -0.00119    0.00048   -0.00429
C7    1    0.365841    0.986691    0.180696    11.00000    0.01981    0.01737 =
         0.02080    0.00202   -0.00699   -0.00421
AFIX  43
H7    2    0.330243    1.029208    0.122449    11.00000   -1.20000
AFIX   0
C8    1    0.206685    1.002429    0.258404    11.00000    0.01399    0.01673 =
         0.02748   -0.00079   -0.00485   -0.00028
AFIX  43
H8    2    0.061052    1.058189    0.253582    11.00000   -1.20000
AFIX   0
C9    1    0.256676    0.937788    0.343587    11.00000    0.01471    0.01570 =
         0.02148   -0.00208    0.00010   -0.00182
AFIX  43
H9    2    0.144730    0.947060    0.396286    11.00000   -1.20000
AFIX   0
C10   1    0.212133    0.634618    0.674639    11.00000    0.01830    0.01476 =
         0.02085    0.00107   -0.00262    0.00021
C11   1    0.253455    0.652543    0.765544    11.00000    0.01962    0.01545 =
         0.02591    0.00100   -0.00992   -0.00069
AFIX  43
H11   2    0.393474    0.699115    0.777189    11.00000   -1.20000
AFIX   0
C12   1    0.093967    0.603625    0.838701    11.00000    0.02446    0.01754 =
         0.02070    0.00014   -0.00924    0.00196
AFIX  43
H12   2    0.124142    0.620360    0.899810    11.00000   -1.20000
AFIX   0
C13   1   -0.110369    0.530139    0.824089    11.00000    0.02058    0.01421 =
         0.02176   -0.00004   -0.00452    0.00299
C14   1   -0.149203    0.506831    0.733221    11.00000    0.01870    0.01673 =
         0.02300   -0.00031   -0.00576   -0.00253
AFIX  43
H14   2   -0.285712    0.453991    0.721786    11.00000   -1.20000
AFIX   0
C15   1    0.007643    0.559360    0.659723    11.00000    0.02171    0.01893 =
         0.01892   -0.00118   -0.00544   -0.00266
AFIX  43
H15   2   -0.023652    0.544247    0.598635    11.00000   -1.20000
AFIX   0
C16   1   -0.284609    0.476107    0.903707    11.00000    0.02436    0.02724 =
         0.02107   -0.00057   -0.00266    0.00012
AFIX 137
H16A  2   -0.238535    0.357702    0.928866    11.00000   -1.50000
H16B  2   -0.433393    0.467934    0.882360    11.00000   -1.50000
H16C  2   -0.295102    0.567581    0.951623    11.00000   -1.50000
AFIX   0
HKLF 4
REM  X:\Users\MEC\20mec15\work\cu_20mec15_0m_a.res in P-1
REM wR2 = 0.0651, GooF = S = 1.094, Restrained GooF = 1.094 for all data
REM R1 = 0.0255 for 2440 Fo > 4sig(Fo) and 0.0256 for all 2461 data
REM 164 parameters refined using 0 restraints
END
WGHT      0.0313      0.5784
REM Highest difference peak  0.633,  deepest hole -0.400,  1-sigma level  0.071
Q1    1   0.8192  0.9060  0.0184  11.00000  0.05    0.63
Q2    1   0.7230  0.9585  0.0603  11.00000  0.05    0.60
Q3    1   0.7566  0.8858  0.1451  11.00000  0.05    0.56
Q4    1   0.7533  0.9388  0.0390  11.00000  0.05    0.52
Q5    1   0.4813  0.5579  0.5655  11.00000  0.05    0.45
Q6    1   0.4231  0.6215  0.4722  11.00000  0.05    0.44
Q7    1   0.4957  0.8258  0.3934  11.00000  0.05    0.41
Q8    1   0.3003  0.5753  0.6416  11.00000  0.05    0.41
Q9    1   0.3151  0.6080  0.7230  11.00000  0.05    0.35
Q10   1   0.4789  0.9640  0.1858  11.00000  0.05    0.33
Q11   1   0.1949  0.5953  0.7995  11.00000  0.05    0.33
Q12   1  -0.0525  0.5003  0.7017  11.00000  0.05    0.33
Q13   1   0.3742  0.8856  0.3478  11.00000  0.05    0.32
Q14   1   0.5503  0.8697  0.3161  11.00000  0.05    0.31
Q15   1  -0.1214  0.5066  0.7796  11.00000  0.05    0.31
Q16   1   0.6261  0.8952  0.2351  11.00000  0.05    0.30
Q17   1   0.2359  0.9759  0.2992  11.00000  0.05    0.29
Q18   1  -0.1927  0.5096  0.8656  11.00000  0.05    0.26
Q19   1   0.0677  0.4989  0.6359  11.00000  0.05    0.24
Q20   1   0.3160  1.0071  0.2250  11.00000  0.05    0.24
;
_shelx_res_checksum              56482
loop_
_space_group_symop_operation_xyz
'x, y, z'
'-x, -y, -z'
loop_
_atom_site_type_symbol
_atom_site_label
_atom_site_fract_x
_atom_site_fract_y
_atom_site_fract_z
_atom_site_U_iso_or_equiv
_atom_site_adp_type
_atom_site_calc_flag
_atom_site_occupancy
_atom_site_disorder_assembly
_atom_site_disorder_group
Br Br1 0.80035(3) 0.89029(3) 0.08237(2) 0.02192(9) Uani d 1 . .
O O1 0.7329(2) 0.7890(2) 0.45698(9) 0.0223(3) Uani d 1 . .
C C1 0.5354(3) 0.7917(2) 0.44225(13) 0.0170(4) Uani d 1 . .
C C2 0.3466(3) 0.7319(3) 0.51279(13) 0.0192(4) Uani d 1 . .
H H2 0.199245 0.718770 0.495759 0.023 Uiso calc 1 . .
C C3 0.3817(3) 0.6965(2) 0.59951(13) 0.0186(4) Uani d 1 . .
H H3 0.530796 0.713033 0.613915 0.022 Uiso calc 1 . .
C C4 0.4726(3) 0.8590(2) 0.35130(13) 0.0155(3) Uani d 1 . .
C C5 0.6366(3) 0.8439(2) 0.27330(13) 0.0161(3) Uani d 1 . .
H H5 0.783980 0.791310 0.277957 0.019 Uiso calc 1 . .
C C6 0.5803(3) 0.9069(2) 0.18959(12) 0.0167(3) Uani d 1 . .
C C7 0.3658(3) 0.9867(2) 0.18070(13) 0.0189(4) Uani d 1 . .
H H7 0.330243 1.029208 0.122449 0.023 Uiso calc 1 . .
C C8 0.2067(3) 1.0024(2) 0.25840(14) 0.0192(4) Uani d 1 . .
H H8 0.061052 1.058189 0.253582 0.023 Uiso calc 1 . .
C C9 0.2567(3) 0.9378(2) 0.34359(13) 0.0175(4) Uani d 1 . .
H H9 0.144730 0.947060 0.396286 0.021 Uiso calc 1 . .
C C10 0.2121(3) 0.6346(2) 0.67464(13) 0.0180(4) Uani d 1 . .
C C11 0.2535(3) 0.6525(2) 0.76554(14) 0.0197(4) Uani d 1 . .
H H11 0.393474 0.699115 0.777189 0.024 Uiso calc 1 . .
C C12 0.0940(3) 0.6036(3) 0.83870(13) 0.0204(4) Uani d 1 . .
H H12 0.124142 0.620360 0.899810 0.025 Uiso calc 1 . .
C C13 -0.1104(3) 0.5301(2) 0.82409(13) 0.0188(4) Uani d 1 . .
C C14 -0.1492(3) 0.5068(2) 0.73322(13) 0.0191(4) Uani d 1 . .
H H14 -0.285712 0.453991 0.721786 0.023 Uiso calc 1 . .
C C15 0.0076(3) 0.5594(3) 0.65972(13) 0.0195(4) Uani d 1 . .
H H15 -0.023652 0.544247 0.598635 0.023 Uiso calc 1 . .
C C16 -0.2846(4) 0.4761(3) 0.90371(14) 0.0243(4) Uani d 1 . .
H H16A -0.238535 0.357702 0.928866 0.036 Uiso calc 1 . .
H H16B -0.433393 0.467934 0.882360 0.036 Uiso calc 1 . .
H H16C -0.295102 0.567581 0.951623 0.036 Uiso calc 1 . .
loop_
_atom_site_aniso_label
_atom_site_aniso_U_11
_atom_site_aniso_U_22
_atom_site_aniso_U_33
_atom_site_aniso_U_12
_atom_site_aniso_U_13
_atom_site_aniso_U_23
Br1 0.02062(13) 0.02741(13) 0.01669(12) -0.00258(8) 0.00161(8) 0.00044(8)
O1 0.0152(7) 0.0321(7) 0.0196(7) -0.0023(5) -0.0024(5) 0.0007(5)
C1 0.0174(9) 0.0142(8) 0.0194(9) -0.0018(7) -0.0019(7) -0.0021(6)
C2 0.0175(9) 0.0191(9) 0.0206(9) -0.0019(7) -0.0008(7) -0.0013(7)
C3 0.0176(9) 0.0142(8) 0.0237(9) 0.0005(7) -0.0015(7) -0.0026(7)
C4 0.0150(8) 0.0131(8) 0.0188(9) -0.0030(6) -0.0025(7) -0.0012(6)
C5 0.0136(8) 0.0143(8) 0.0205(9) -0.0026(6) -0.0024(7) -0.0016(7)
C6 0.0163(9) 0.0167(8) 0.0168(8) -0.0043(7) 0.0005(7) -0.0012(6)
C7 0.0198(9) 0.0174(8) 0.0208(9) -0.0042(7) -0.0070(7) 0.0020(7)
C8 0.0140(9) 0.0167(8) 0.0275(10) -0.0003(7) -0.0048(7) -0.0008(7)
C9 0.0147(9) 0.0157(8) 0.0215(9) -0.0018(7) 0.0001(7) -0.0021(7)
C10 0.0183(9) 0.0148(8) 0.0209(9) 0.0002(7) -0.0026(7) 0.0011(7)
C11 0.0196(9) 0.0155(8) 0.0259(10) -0.0007(7) -0.0099(8) 0.0010(7)
C12 0.0245(10) 0.0175(9) 0.0207(9) 0.0020(7) -0.0092(8) 0.0001(7)
C13 0.0206(9) 0.0142(8) 0.0218(9) 0.0030(7) -0.0045(7) 0.0000(7)
C14 0.0187(9) 0.0167(8) 0.0230(9) -0.0025(7) -0.0058(7) -0.0003(7)
C15 0.0217(10) 0.0189(9) 0.0189(9) -0.0027(7) -0.0054(7) -0.0012(7)
C16 0.0244(10) 0.0272(10) 0.0211(9) 0.0001(8) -0.0027(8) -0.0006(8)
loop_
_atom_type_symbol
_atom_type_description
_atom_type_scat_dispersion_real
_atom_type_scat_dispersion_imag
_atom_type_scat_source
C C 0.0181 0.0091 'International Tables Vol C Tables 4.2.6.8 and 6.1.1.4'
H H 0.0000 0.0000 'International Tables Vol C Tables 4.2.6.8 and 6.1.1.4'
O O 0.0492 0.0322 'International Tables Vol C Tables 4.2.6.8 and 6.1.1.4'
Br Br -0.6763 1.2805 'International Tables Vol C Tables 4.2.6.8 and 6.1.1.4'
loop_
_geom_angle_atom_site_label_1
_geom_angle_atom_site_label_2
_geom_angle_atom_site_label_3
_geom_angle_site_symmetry_1
_geom_angle_site_symmetry_3
_geom_angle
_geom_angle_publ_flag
O1 C1 C2 . . 122.32(17) ?
O1 C1 C4 . . 120.48(17) ?
C2 C1 C4 . . 117.20(16) ?
C3 C2 C1 . . 120.92(17) ?
C3 C2 H2 . . 119.5 ?
C1 C2 H2 . . 119.5 ?
C2 C3 C10 . . 126.21(18) ?
C2 C3 H3 . . 116.9 ?
C10 C3 H3 . . 116.9 ?
C9 C4 C5 . . 120.03(17) ?
C9 C4 C1 . . 121.39(17) ?
C5 C4 C1 . . 118.57(16) ?
C6 C5 C4 . . 118.80(17) ?
C6 C5 H5 . . 120.6 ?
C4 C5 H5 . . 120.6 ?
C5 C6 C7 . . 121.94(17) ?
C5 C6 Br1 . . 119.84(14) ?
C7 C6 Br1 . . 118.21(14) ?
C8 C7 C6 . . 118.60(17) ?
C8 C7 H7 . . 120.7 ?
C6 C7 H7 . . 120.7 ?
C7 C8 C9 . . 120.93(17) ?
C7 C8 H8 . . 119.5 ?
C9 C8 H8 . . 119.5 ?
C8 C9 C4 . . 119.69(17) ?
C8 C9 H9 . . 120.2 ?
C4 C9 H9 . . 120.2 ?
C11 C10 C15 . . 118.05(18) ?
C11 C10 C3 . . 119.08(17) ?
C15 C10 C3 . . 122.87(17) ?
C12 C11 C10 . . 121.11(18) ?
C12 C11 H11 . . 119.4 ?
C10 C11 H11 . . 119.4 ?
C11 C12 C13 . . 120.94(18) ?
C11 C12 H12 . . 119.5 ?
C13 C12 H12 . . 119.5 ?
C12 C13 C14 . . 118.08(18) ?
C12 C13 C16 . . 121.12(18) ?
C14 C13 C16 . . 120.80(18) ?
C15 C14 C13 . . 121.21(18) ?
C15 C14 H14 . . 119.4 ?
C13 C14 H14 . . 119.4 ?
C14 C15 C10 . . 120.57(18) ?
C14 C15 H15 . . 119.7 ?
C10 C15 H15 . . 119.7 ?
C13 C16 H16A . . 109.5 ?
C13 C16 H16B . . 109.5 ?
H16A C16 H16B . . 109.5 ?
C13 C16 H16C . . 109.5 ?
H16A C16 H16C . . 109.5 ?
H16B C16 H16C . . 109.5 ?
loop_
_geom_bond_atom_site_label_1
_geom_bond_atom_site_label_2
_geom_bond_site_symmetry_2
_geom_bond_distance
_geom_bond_publ_flag
Br1 C6 . 1.9053(18) ?
O1 C1 . 1.219(2) ?
C1 C2 . 1.491(3) ?
C1 C4 . 1.500(3) ?
C2 C3 . 1.334(3) ?
C2 H2 . 0.9500 ?
C3 C10 . 1.465(3) ?
C3 H3 . 0.9500 ?
C4 C9 . 1.399(3) ?
C4 C5 . 1.401(3) ?
C5 C6 . 1.380(3) ?
C5 H5 . 0.9500 ?
C6 C7 . 1.398(3) ?
C7 C8 . 1.382(3) ?
C7 H7 . 0.9500 ?
C8 C9 . 1.391(3) ?
C8 H8 . 0.9500 ?
C9 H9 . 0.9500 ?
C10 C11 . 1.399(3) ?
C10 C15 . 1.401(3) ?
C11 C12 . 1.382(3) ?
C11 H11 . 0.9500 ?
C12 C13 . 1.393(3) ?
C12 H12 . 0.9500 ?
C13 C14 . 1.400(3) ?
C13 C16 . 1.508(3) ?
C14 C15 . 1.384(3) ?
C14 H14 . 0.9500 ?
C15 H15 . 0.9500 ?
C16 H16A . 0.9800 ?
C16 H16B . 0.9800 ?
C16 H16C . 0.9800 ?
loop_
_geom_torsion_atom_site_label_1
_geom_torsion_atom_site_label_2
_geom_torsion_atom_site_label_3
_geom_torsion_atom_site_label_4
_geom_torsion_site_symmetry_1
_geom_torsion_site_symmetry_2
_geom_torsion_site_symmetry_3
_geom_torsion_site_symmetry_4
_geom_torsion
_geom_torsion_publ_flag
O1 C1 C2 C3 . . . . 9.4(3) ?
C4 C1 C2 C3 . . . . -169.73(17) ?
C1 C2 C3 C10 . . . . -179.08(17) ?
O1 C1 C4 C9 . . . . -151.81(18) ?
C2 C1 C4 C9 . . . . 27.3(2) ?
O1 C1 C4 C5 . . . . 27.4(3) ?
C2 C1 C4 C5 . . . . -153.51(16) ?
C9 C4 C5 C6 . . . . -0.4(3) ?
C1 C4 C5 C6 . . . . -179.54(16) ?
C4 C5 C6 C7 . . . . 0.7(3) ?
C4 C5 C6 Br1 . . . . 179.46(13) ?
C5 C6 C7 C8 . . . . 0.0(3) ?
Br1 C6 C7 C8 . . . . -178.79(13) ?
C6 C7 C8 C9 . . . . -1.0(3) ?
C7 C8 C9 C4 . . . . 1.3(3) ?
C5 C4 C9 C8 . . . . -0.6(3) ?
C1 C4 C9 C8 . . . . 178.53(16) ?
C2 C3 C10 C11 . . . . -161.99(18) ?
C2 C3 C10 C15 . . . . 17.3(3) ?
C15 C10 C11 C12 . . . . -2.3(3) ?
C3 C10 C11 C12 . . . . 177.07(16) ?
C10 C11 C12 C13 . . . . 1.8(3) ?
C11 C12 C13 C14 . . . . 0.2(3) ?
C11 C12 C13 C16 . . . . 179.84(17) ?
C12 C13 C14 C15 . . . . -1.6(3) ?
C16 C13 C14 C15 . . . . 178.69(17) ?
C13 C14 C15 C10 . . . . 1.1(3) ?
C11 C10 C15 C14 . . . . 0.8(3) ?
C3 C10 C15 C14 . . . . -178.51(17) ?

_cod_database_fobs_code 2243553
