#------------------------------------------------------------------------------
#$Date: 2019-07-03 07:11:13 +0300 (Wed, 03 Jul 2019) $
#$Revision: 216706 $
#$URL: file:///home/coder/svn-repositories/cod/cif/2/24/30/2243000.cif $
#------------------------------------------------------------------------------
#
# This file is available in the Crystallography Open Database (COD),
# http://www.crystallography.net/. The original data for this entry
# were provided by IUCr Journals, http://journals.iucr.org/.
#
# The file may be used within the scientific community so long as
# proper attribution is given to the journal article from which the
# data were obtained.
#
data_2243000
loop_
_publ_author_name
'Vu Quoc, Trung'
'Nguyen Ngoc, Linh'
'Tran Thi Thuy, Duong'
'Vu Quoc, Manh'
'Vuong Nguyen, Thien'
'Oanh Doan Thi, Yen'
'Van Meervelt, Luc'
_publ_section_title
;
 Crystal structure of two
 <i>N</i>'-(1-phenylbenzylidene)-2-(thiophen-3-yl)acetohydrazides
;
_journal_issue                   8
_journal_name_full               'Acta Crystallographica Section E'
_journal_page_first              1090
_journal_page_last               1095
_journal_paper_doi               10.1107/S2056989019008892
_journal_volume                  75
_journal_year                    2019
_chemical_formula_iupac          'C14 H14 N2 O2 S'
_chemical_formula_moiety         'C14 H14 N2 O2 S'
_chemical_formula_sum            'C14 H14 N2 O2 S'
_chemical_formula_weight         274.33
_chemical_name_systematic
;
<i>N</i>'-[1-(4-Methoxyphenyl)benzylidene]-2-(thiophen-3-yl)acetohydrazide
;
_space_group_crystal_system      triclinic
_space_group_IT_number           2
_space_group_name_Hall           '-P 1'
_space_group_name_H-M_alt        'P -1'
_symmetry_space_group_name_Hall  '-P 1'
_symmetry_space_group_name_H-M   'P -1'
_atom_sites_solution_hydrogens   geom
_audit_creation_method
;
Olex2 1.2
(compiled 2018.05.29 svn.r3510 for OlexSys, GUI svn.r5506)
;
_cell_angle_alpha                78.327(4)
_cell_angle_beta                 83.070(4)
_cell_angle_gamma                87.013(4)
_cell_formula_units_Z            2
_cell_length_a                   6.5185(2)
_cell_length_b                   9.7447(5)
_cell_length_c                   10.9291(6)
_cell_measurement_reflns_used    5534
_cell_measurement_temperature    293(2)
_cell_measurement_theta_max      27.2260
_cell_measurement_theta_min      3.1260
_cell_volume                     674.63(6)
_computing_cell_refinement
;
CrysAlis PRO (Rigaku OD, 2018)
;
_computing_data_collection
;
CrysAlis PRO (Rigaku OD, 2018)
;
_computing_data_reduction
;
CrysAlis PRO (Rigaku OD, 2018)
;
_computing_molecular_graphics
;
<i>OLEX2</i> (Dolomanov <i>et al.</i>,  2009)
;
_computing_publication_material
;
<i>OLEX2</i> (Dolomanov <i>et al.</i>,  2009)
;
_computing_structure_refinement
;
SHELXL (Sheldrick, 2015b)
;
_computing_structure_solution
;
SHELXT (Sheldrick, 2015a)
;
_diffrn_ambient_temperature      293(2)
_diffrn_detector                 'CCD plate'
_diffrn_detector_area_resol_mean 15.9631
_diffrn_measured_fraction_theta_full 0.998
_diffrn_measured_fraction_theta_max 0.999
_diffrn_measurement_device       'four-circle diffractometer'
_diffrn_measurement_device_type
' Rigaku Oxford Diffraction SuperNova, Single source at offset/far, Eos'
_diffrn_measurement_method       '\w scans'
_diffrn_radiation_monochromator  mirror
_diffrn_radiation_probe          x-ray
_diffrn_radiation_type           MoK\a
_diffrn_radiation_wavelength     0.71073
_diffrn_reflns_av_R_equivalents  0.0274
_diffrn_reflns_av_unetI/netI     0.0210
_diffrn_reflns_limit_h_max       8
_diffrn_reflns_limit_h_min       -8
_diffrn_reflns_limit_k_max       12
_diffrn_reflns_limit_k_min       -12
_diffrn_reflns_limit_l_max       13
_diffrn_reflns_limit_l_min       -13
_diffrn_reflns_number            13795
_diffrn_reflns_theta_full        25.242
_diffrn_reflns_theta_max         26.370
_diffrn_reflns_theta_min         2.571
_diffrn_source                   'micro-focus sealed X-ray tube'
_exptl_absorpt_coefficient_mu    0.239
_exptl_absorpt_correction_T_max  1.00000
_exptl_absorpt_correction_T_min  0.68733
_exptl_absorpt_correction_type   multi-scan
_exptl_absorpt_process_details
;
(CrysAlis PRO; Rigaku OD, 2018)
;
_exptl_crystal_colour            white
_exptl_crystal_density_diffrn    1.350
_exptl_crystal_description       needle
_exptl_crystal_F_000             288
_exptl_crystal_size_max          0.5
_exptl_crystal_size_mid          0.15
_exptl_crystal_size_min          0.05
_refine_diff_density_max         0.332
_refine_diff_density_min         -0.380
_refine_ls_extinction_method     none
_refine_ls_goodness_of_fit_ref   1.059
_refine_ls_hydrogen_treatment    constr
_refine_ls_matrix_type           full
_refine_ls_number_parameters     173
_refine_ls_number_reflns         2752
_refine_ls_number_restraints     0
_refine_ls_restrained_S_all      1.059
_refine_ls_R_factor_all          0.0624
_refine_ls_R_factor_gt           0.0512
_refine_ls_shift/su_max          0.000
_refine_ls_shift/su_mean         0.000
_refine_ls_structure_factor_coef Fsqd
_refine_ls_weighting_details
'w=1/[\s^2^(Fo^2^)+(0.0537P)^2^+0.5294P] where P=(Fo^2^+2Fc^2^)/3'
_refine_ls_weighting_scheme      calc
_refine_ls_wR_factor_gt          0.1367
_refine_ls_wR_factor_ref         0.1453
_reflns_number_gt                2238
_reflns_number_total             2752
_reflns_threshold_expression     'I > 2\s(I)'
_iucr_refine_instructions_details
;
TITL tr1011_a.res in P-1
 tr1011.res created by SHELXL-2016/4 at 09:21:55 on 05-Mar-2019
REM Old TITL TR1011 in P-1
REM SHELXT solution in P-1
REM R1 0.204, Rweak 0.017, Alpha 0.025, Orientation as input
REM Formula found by SHELXT: C14 N3 O13 S
CELL 0.71073 6.518511 9.744665 10.929115 78.327 83.0702 87.0126
ZERR 2 0.000238 0.000511 0.000578 0.0044 0.0036 0.0036
LATT 1
SFAC C H N O S
UNIT 28 28 4 4 2
L.S. 10
PLAN  5
SIZE 0.5 0.15 0.05
TEMP 21
MORE -1
BOND $H
CONF
htab
fmap 2
acta
SHEL 999 0.8
OMIT 0 7 0
OMIT 0 6 0
REM <olex2.extras>
REM <HklSrc "%./TR1011.hkl">
REM </olex2.extras>
WGHT    0.053700    0.529400
FVAR       0.73575
S1    5    0.688946    0.789241    0.169565    11.00000    0.05540    0.08480 =
         0.08610   -0.03941    0.00839   -0.00761
C2    1    0.559513    0.735611    0.314749    11.00000    0.04407    0.05917 =
         0.06398   -0.02703   -0.01025    0.00190
AFIX  43
H2    2    0.619153    0.726965    0.389168    11.00000   -1.20000
AFIX   0
C3    1    0.357945    0.706594    0.309960    11.00000    0.04448    0.03762 =
         0.05293   -0.01753   -0.00853   -0.00061
C4    1    0.312252    0.727514    0.184072    11.00000    0.05414    0.04933 =
         0.05681   -0.02071   -0.01560   -0.00231
AFIX  43
H4    2    0.182310    0.712513    0.163071    11.00000   -1.20000
AFIX   0
C5    1    0.478966    0.772735    0.093515    11.00000    0.05282    0.05049 =
         0.05057   -0.02379    0.00031   -0.00440
AFIX  43
H5    2    0.476097    0.790729    0.006852    11.00000   -1.20000
AFIX   0
C6    1    0.200208    0.670846    0.423366    11.00000    0.05031    0.04359 =
         0.05257   -0.01078   -0.01096   -0.00980
AFIX  23
H6A   2    0.265853    0.615910    0.493142    11.00000   -1.20000
H6B   2    0.093072    0.615347    0.404620    11.00000   -1.20000
AFIX   0
C7    1    0.105574    0.804221    0.458917    11.00000    0.03682    0.05109 =
         0.03681   -0.00556   -0.00368   -0.00884
O8    4   -0.051344    0.860089    0.416301    11.00000    0.03658    0.06798 =
         0.05112   -0.01523   -0.01291   -0.00082
N9    3    0.205056    0.865781    0.533755    11.00000    0.03643    0.04888 =
         0.04245   -0.01206   -0.01144    0.00324
AFIX  43
H9    2    0.160089    0.945717    0.549350    11.00000   -1.20000
AFIX   0
N10   3    0.377837    0.803069    0.585937    11.00000    0.03814    0.04719 =
         0.03864   -0.00694   -0.00958    0.00113
C11   1    0.462111    0.873878    0.651720    11.00000    0.04212    0.04217 =
         0.03962   -0.00871   -0.00729    0.00206
AFIX  43
H11   2    0.406000    0.961642    0.660165    11.00000   -1.20000
AFIX   0
C12   1    0.643815    0.820734    0.713853    11.00000    0.03704    0.03990 =
         0.03426   -0.00517   -0.00554   -0.00204
C13   1    0.735376    0.905658    0.779392    11.00000    0.04850    0.03613 =
         0.04365   -0.00976   -0.01008    0.00340
AFIX  43
H13   2    0.679005    0.994741    0.782354    11.00000   -1.20000
AFIX   0
C14   1    0.906988    0.860455    0.839616    11.00000    0.04982    0.04386 =
         0.04440   -0.01435   -0.01488   -0.00287
AFIX  43
H14   2    0.966061    0.919004    0.882266    11.00000   -1.20000
AFIX   0
C15   1    0.992140    0.727586    0.836834    11.00000    0.03934    0.04673 =
         0.03560   -0.00338   -0.00877   -0.00064
C16   1    0.903679    0.641498    0.772215    11.00000    0.04822    0.03653 =
         0.04914   -0.00939   -0.01171    0.00363
AFIX  43
H16   2    0.960075    0.552276    0.769944    11.00000   -1.20000
AFIX   0
C17   1    0.732224    0.687979    0.711323    11.00000    0.04701    0.04079 =
         0.04655   -0.01348   -0.01127   -0.00319
AFIX  43
H17   2    0.674636    0.629647    0.667808    11.00000   -1.20000
AFIX   0
O18   4    1.160196    0.690787    0.900735    11.00000    0.05384    0.05954 =
         0.06130   -0.01422   -0.02842    0.01088
C19   1    1.260291    0.559191    0.892571    11.00000    0.05605    0.06454 =
         0.06899   -0.00846   -0.02136    0.01745
AFIX 137
H19A  2    1.307244    0.557208    0.806228    11.00000   -1.50000
H19B  2    1.164788    0.485433    0.925510    11.00000   -1.50000
H19C  2    1.376398    0.546115    0.940466    11.00000   -1.50000
AFIX   0
HKLF 4
REM  tr1011_a.res in P-1
REM R1 =  0.0512 for    2238 Fo > 4sig(Fo)  and  0.0624 for all    2752 data
REM    173 parameters refined using      0 restraints
END
WGHT      0.0538      0.5285
REM Instructions for potential hydrogen bonds
EQIV $1 x+1, y,
HTAB C2 O8_$1
EQIV $2 -x, -y+2, -z+
HTAB N9 O8_$2
REM Highest difference peak  0.332,  deepest hole -0.380,  1-sigma level  0.047
Q1    1   0.4713  0.7807  0.0585  11.00000  0.05    0.33
Q2    1   0.4010  0.7836  0.1163  11.00000  0.05    0.32
Q3    1   0.4256  0.7350  0.1127  11.00000  0.05    0.31
Q4    1   0.5282  0.7588  0.1312  11.00000  0.05    0.28
Q5    1   0.2811  0.6952  0.3601  11.00000  0.05    0.19
  REM The information below was added by Olex2.
  REM
  REM R1 = 0.0512 for 2238 Fo > 4sig(Fo) and 0.0624 for all 14776 data
  REM n/a parameters refined using n/a restraints
  REM Highest difference peak 0.33, deepest hole -0.38
  REM Mean Shift 0, Max Shift 0.000.
  REM +++ Tabular Listing of Refinement Information +++
  REM R1_all = 0.0624
  REM R1_gt = 0.0512
  REM wR_ref = 0.1453
  REM GOOF = 1.059
  REM Shift_max = 0.000
  REM Shift_mean = 0
  REM Reflections_all = 14776
  REM Reflections_gt = 2238
  REM Parameters = n/a
  REM Hole = -0.38
  REM Peak = 0.33
  REM Flack = n/a
;
_cod_data_source_file            rz5260sup1.cif
_cod_data_source_block           3b
_cod_database_code               2243000
_shelx_space_group_comment
;
The symmetry employed for this shelxl refinement is uniquely defined
by the following loop, which should always be used as a source of
symmetry information in preference to the above space-group names.
They are only intended as comments.
;
_shelx_estimated_absorpt_t_min   0.890
_shelx_estimated_absorpt_t_max   0.988
loop_
_space_group_symop_operation_xyz
'x, y, z'
'-x, -y, -z'
loop_
_atom_site_type_symbol
_atom_site_label
_atom_site_fract_x
_atom_site_fract_y
_atom_site_fract_z
_atom_site_U_iso_or_equiv
_atom_site_adp_type
_atom_site_calc_flag
_atom_site_occupancy
S S1 0.68895(12) 0.78924(10) 0.16957(9) 0.0734(3) Uani d 1
C C2 0.5595(4) 0.7356(3) 0.3147(3) 0.0534(6) Uani d 1
H H2 0.619153 0.726965 0.389168 0.064 Uiso calc 1
C C3 0.3579(4) 0.7066(2) 0.3100(2) 0.0436(5) Uani d 1
C C4 0.3123(4) 0.7275(3) 0.1841(2) 0.0512(6) Uani d 1
H H4 0.182310 0.712513 0.163071 0.061 Uiso calc 1
C C5 0.4790(4) 0.7727(3) 0.0935(2) 0.0497(6) Uani d 1
H H5 0.476097 0.790729 0.006852 0.060 Uiso calc 1
C C6 0.2002(4) 0.6708(3) 0.4234(2) 0.0479(6) Uani d 1
H H6A 0.265853 0.615910 0.493142 0.057 Uiso calc 1
H H6B 0.093072 0.615347 0.404620 0.057 Uiso calc 1
C C7 0.1056(3) 0.8042(3) 0.4589(2) 0.0418(5) Uani d 1
O O8 -0.0513(2) 0.86009(19) 0.41630(16) 0.0508(4) Uani d 1
N N9 0.2051(3) 0.8658(2) 0.53376(18) 0.0417(5) Uani d 1
H H9 0.160089 0.945717 0.549350 0.050 Uiso calc 1
N N10 0.3778(3) 0.8031(2) 0.58594(17) 0.0412(5) Uani d 1
C C11 0.4621(3) 0.8739(2) 0.6517(2) 0.0411(5) Uani d 1
H H11 0.406000 0.961642 0.660165 0.049 Uiso calc 1
C C12 0.6438(3) 0.8207(2) 0.7139(2) 0.0372(5) Uani d 1
C C13 0.7354(4) 0.9057(2) 0.7794(2) 0.0423(5) Uani d 1
H H13 0.679005 0.994741 0.782354 0.051 Uiso calc 1
C C14 0.9070(4) 0.8605(2) 0.8396(2) 0.0444(5) Uani d 1
H H14 0.966061 0.919004 0.882266 0.053 Uiso calc 1
C C15 0.9921(3) 0.7276(2) 0.8368(2) 0.0409(5) Uani d 1
C C16 0.9037(4) 0.6415(2) 0.7722(2) 0.0442(5) Uani d 1
H H16 0.960075 0.552276 0.769944 0.053 Uiso calc 1
C C17 0.7322(4) 0.6880(2) 0.7113(2) 0.0435(5) Uani d 1
H H17 0.674636 0.629647 0.667808 0.052 Uiso calc 1
O O18 1.1602(3) 0.69079(19) 0.90073(17) 0.0565(5) Uani d 1
C C19 1.2603(4) 0.5592(3) 0.8926(3) 0.0634(8) Uani d 1
H H19A 1.307244 0.557208 0.806228 0.095 Uiso calc 1
H H19B 1.164788 0.485433 0.925510 0.095 Uiso calc 1
H H19C 1.376398 0.546115 0.940466 0.095 Uiso calc 1
loop_
_atom_site_aniso_label
_atom_site_aniso_U_11
_atom_site_aniso_U_22
_atom_site_aniso_U_33
_atom_site_aniso_U_12
_atom_site_aniso_U_13
_atom_site_aniso_U_23
S1 0.0554(5) 0.0848(6) 0.0861(6) -0.0076(4) 0.0084(4) -0.0394(5)
C2 0.0441(13) 0.0592(16) 0.0640(16) 0.0019(11) -0.0103(12) -0.0270(13)
C3 0.0445(13) 0.0376(12) 0.0529(14) -0.0006(9) -0.0085(10) -0.0175(10)
C4 0.0541(15) 0.0493(14) 0.0568(15) -0.0023(11) -0.0156(12) -0.0207(12)
C5 0.0528(14) 0.0505(14) 0.0506(14) -0.0044(11) 0.0003(11) -0.0238(11)
C6 0.0503(14) 0.0436(13) 0.0526(14) -0.0098(10) -0.0110(11) -0.0108(11)
C7 0.0368(12) 0.0511(13) 0.0368(11) -0.0088(10) -0.0037(9) -0.0056(10)
O8 0.0366(9) 0.0680(12) 0.0511(10) -0.0008(8) -0.0129(7) -0.0152(8)
N9 0.0364(10) 0.0489(11) 0.0424(10) 0.0032(8) -0.0114(8) -0.0121(8)
N10 0.0381(10) 0.0472(11) 0.0386(10) 0.0011(8) -0.0096(8) -0.0069(8)
C11 0.0421(12) 0.0422(12) 0.0396(12) 0.0021(9) -0.0073(9) -0.0087(9)
C12 0.0370(11) 0.0399(12) 0.0343(11) -0.0020(9) -0.0055(9) -0.0052(9)
C13 0.0485(13) 0.0361(12) 0.0436(12) 0.0034(10) -0.0101(10) -0.0098(9)
C14 0.0498(13) 0.0439(13) 0.0444(13) -0.0029(10) -0.0149(10) -0.0143(10)
C15 0.0393(12) 0.0467(13) 0.0356(11) -0.0006(10) -0.0088(9) -0.0034(9)
C16 0.0482(13) 0.0365(12) 0.0491(13) 0.0036(10) -0.0117(11) -0.0094(10)
C17 0.0470(13) 0.0408(12) 0.0465(13) -0.0032(10) -0.0113(10) -0.0135(10)
O18 0.0538(10) 0.0595(11) 0.0613(11) 0.0109(8) -0.0284(9) -0.0142(9)
C19 0.0560(16) 0.0645(18) 0.0690(18) 0.0175(13) -0.0214(14) -0.0085(14)
loop_
_atom_type_symbol
_atom_type_description
_atom_type_scat_dispersion_real
_atom_type_scat_dispersion_imag
_atom_type_scat_source
C C 0.0033 0.0016 'International Tables Vol C Tables 4.2.6.8 and 6.1.1.4'
H H 0.0000 0.0000 'International Tables Vol C Tables 4.2.6.8 and 6.1.1.4'
N N 0.0061 0.0033 'International Tables Vol C Tables 4.2.6.8 and 6.1.1.4'
O O 0.0106 0.0060 'International Tables Vol C Tables 4.2.6.8 and 6.1.1.4'
S S 0.1246 0.1234 'International Tables Vol C Tables 4.2.6.8 and 6.1.1.4'
loop_
_geom_angle_atom_site_label_1
_geom_angle_atom_site_label_2
_geom_angle_atom_site_label_3
_geom_angle
C2 S1 C5 93.48(13)
S1 C2 H2 123.7
C3 C2 S1 112.5(2)
C3 C2 H2 123.7
C2 C3 C4 111.0(2)
C2 C3 C6 124.5(2)
C4 C3 C6 124.3(2)
C3 C4 H4 122.7
C5 C4 C3 114.5(2)
C5 C4 H4 122.7
S1 C5 H5 125.7
C4 C5 S1 108.50(19)
C4 C5 H5 125.7
C3 C6 H6A 109.8
C3 C6 H6B 109.8
C3 C6 C7 109.57(19)
H6A C6 H6B 108.2
C7 C6 H6A 109.8
C7 C6 H6B 109.8
O8 C7 C6 121.7(2)
O8 C7 N9 120.2(2)
N9 C7 C6 117.9(2)
C7 N9 H9 119.3
C7 N9 N10 121.3(2)
N10 N9 H9 119.3
C11 N10 N9 115.4(2)
N10 C11 H11 119.2
N10 C11 C12 121.7(2)
C12 C11 H11 119.2
C13 C12 C11 119.1(2)
C17 C12 C11 123.1(2)
C17 C12 C13 117.8(2)
C12 C13 H13 119.3
C14 C13 C12 121.4(2)
C14 C13 H13 119.3
C13 C14 H14 120.0
C13 C14 C15 120.0(2)
C15 C14 H14 120.0
C14 C15 C16 119.5(2)
O18 C15 C14 116.0(2)
O18 C15 C16 124.5(2)
C15 C16 H16 119.9
C17 C16 C15 120.1(2)
C17 C16 H16 119.9
C12 C17 H17 119.4
C16 C17 C12 121.2(2)
C16 C17 H17 119.4
C15 O18 C19 117.5(2)
O18 C19 H19A 109.5
O18 C19 H19B 109.5
O18 C19 H19C 109.5
H19A C19 H19B 109.5
H19A C19 H19C 109.5
H19B C19 H19C 109.5
loop_
_geom_bond_atom_site_label_1
_geom_bond_atom_site_label_2
_geom_bond_distance
S1 C2 1.700(3)
S1 C5 1.715(3)
C2 H2 0.9300
C2 C3 1.368(3)
C3 C4 1.415(3)
C3 C6 1.507(3)
C4 H4 0.9300
C4 C5 1.403(4)
C5 H5 0.9300
C6 H6A 0.9700
C6 H6B 0.9700
C6 C7 1.511(3)
C7 O8 1.230(3)
C7 N9 1.348(3)
N9 H9 0.8600
N9 N10 1.382(2)
N10 C11 1.277(3)
C11 H11 0.9300
C11 C12 1.456(3)
C12 C13 1.396(3)
C12 C17 1.393(3)
C13 H13 0.9300
C13 C14 1.374(3)
C14 H14 0.9300
C14 C15 1.387(3)
C15 C16 1.387(3)
C15 O18 1.363(3)
C16 H16 0.9300
C16 C17 1.379(3)
C17 H17 0.9300
O18 C19 1.422(3)
C19 H19A 0.9600
C19 H19B 0.9600
C19 H19C 0.9600
loop_
_geom_hbond_atom_site_label_D
_geom_hbond_atom_site_label_H
_geom_hbond_atom_site_label_A
_geom_hbond_site_symmetry_A
_geom_hbond_distance_DH
_geom_hbond_distance_HA
_geom_hbond_distance_DA
_geom_hbond_angle_DHA
_geom_hbond_publ_flag
N9 H9 O8 2_576 0.86 2.08 2.935(3) 179 yes
C6 H6A N10 . 0.97 2.44 2.782(3) 100 yes
C13 H13 Cg1 2_676 0.93 2.68 3.611(2) 179 yes
loop_
_geom_torsion_atom_site_label_1
_geom_torsion_atom_site_label_2
_geom_torsion_atom_site_label_3
_geom_torsion_atom_site_label_4
_geom_torsion
S1 C2 C3 C4 0.8(3)
S1 C2 C3 C6 -173.66(19)
C2 S1 C5 C4 0.8(2)
C2 C3 C4 C5 -0.2(3)
C2 C3 C6 C7 84.9(3)
C3 C4 C5 S1 -0.5(3)
C3 C6 C7 O8 90.8(3)
C3 C6 C7 N9 -85.4(3)
C4 C3 C6 C7 -88.8(3)
C5 S1 C2 C3 -1.0(2)
C6 C3 C4 C5 174.3(2)
C6 C7 N9 N10 -5.8(3)
C7 N9 N10 C11 177.8(2)
O8 C7 N9 N10 177.97(19)
N9 N10 C11 C12 179.26(19)
N10 C11 C12 C13 176.9(2)
N10 C11 C12 C17 -3.1(4)
C11 C12 C13 C14 180.0(2)
C11 C12 C17 C16 -179.6(2)
C12 C13 C14 C15 -0.4(4)
C13 C12 C17 C16 0.4(3)
C13 C14 C15 C16 0.4(4)
C13 C14 C15 O18 -179.0(2)
C14 C15 C16 C17 0.0(4)
C14 C15 O18 C19 -175.7(2)
C15 C16 C17 C12 -0.4(4)
C16 C15 O18 C19 4.9(4)
C17 C12 C13 C14 0.0(3)
O18 C15 C16 C17 179.4(2)
loop_
_refln_index_h
_refln_index_k
_refln_index_l
_refln_F_squared_meas
_refln_F_squared_sigma
0 0 -2 641.59 10.88
0 0 -2 658.62 11.13
0 0 -2 641.31 10.39
0 0 2 634.61 10.24
0 0 2 635.62 10.84
0 0 2 651.55 10.42
0 0 2 625.43 10.46
0 0 2 654.1 11.12
0 0 3 1096.92 17.55
0 0 3 1083.47 18.57
0 0 -3 1084.44 18.29
0 0 3 1099.11 18.21
0 0 -3 1085.48 18.56
0 0 3 1101.94 17.31
0 0 3 1098.86 17.6
0 0 -3 1112.05 17.5
0 0 4 359.65 7.4
0 0 4 347.05 8.38
0 0 -4 342.24 8.06
0 0 4 355.22 7.1
0 0 4 375.59 8.16
0 0 -4 346.84 7.24
0 0 4 352.65 7.38
0 0 -5 0.99 0.39
0 0 -5 0.94 0.63
0 0 5 1.56 0.55
0 0 5 1.4 0.5
0 0 6 7.95 1.05
0 0 -6 6.41 1.22
0 0 6 11.48 1.3
0 0 7 124.39 4.35
0 0 -7 109.35 5.12
0 0 7 120.26 4.64
0 0 8 146.16 5.07
0 0 -8 139.6 6.19
0 0 8 141.18 5.45
0 0 -9 5.31 1.48
0 0 9 14.08 1.81
0 0 9 10.75 1.43
0 0 -10 12.73 2.11
0 0 10 15.37 1.78
0 0 11 12.12 1.66
0 0 -11 12.36 2.21
0 0 -12 9.11 2.02
0 0 12 11.84 1.72
0 0 12 13.22 1.81
0 0 -12 10.62 1.67
0 0 13 5.17 1.27
0 0 -13 1.99 1.12
0 0 13 3.67 1.04
0 0 -13 5.26 1.31
0 0 14 1.72 0.86
0 -1 13 0.08 0.38
0 1 -13 0.6 0.73
0 1 -13 1.34 1.08
0 1 -12 -0.29 0.7
0 -1 12 0.93 0.6
0 1 -12 0.21 0.53
0 -1 12 0.69 0.65
0 -1 11 3.56 0.93
0 1 -11 3.39 0.94
0 -1 11 2.98 0.86
0 1 -11 2.23 0.98
0 1 -10 6.5 1.56
0 -1 10 6.77 1.2
0 1 -10 8.54 1.32
0 -1 9 11.9 1.49
0 1 -9 6.86 1.46
0 1 -8 17.84 2.16
0 -1 8 16.28 1.64
0 1 -7 51.74 3.44
0 -1 7 49.16 2.71
0 -1 6 6.24 0.91
0 1 -6 4.01 0.92
0 -1 5 184.19 4.97
0 1 -5 190.61 6.03
0 1 -5 181.47 4.6
0 1 -4 136.43 3.53
0 -1 4 141.86 4.08
0 -1 4 136.62 4.62
0 1 -4 147.64 4.26
0 1 -4 146.27 4.16
0 1 -4 142.17 4.66
0 -1 4 139.93 4.92
0 -1 3 219.15 5.71
0 1 -3 228.66 5.78
0 1 -3 240.11 5.29
0 -1 3 233.55 5.17
0 1 -3 239.5 5.32
0 1 -3 220.21 4.59
0 -1 3 237.75 3.85
0 1 -2 36.64 1.45
0 1 -2 34.93 1.18
0 -1 2 36.37 1.7
0 -1 2 35.13 1.39
0 1 -2 35.33 1.66
0 -1 1 337.14 5.73
0 1 -1 342.22 5.51
0 -1 1 328.01 6.27
0 -1 1 347.56 6.17
0 1 -1 346.12 6.22
0 1 -1 344.7 5.37
0 1 -1 338.16 5.72
0 -1 1 341.54 5.45
0 1 1 493.33 7.84
0 1 1 483.29 8.17
0 1 1 497.34 7.84
0 -1 -1 485.08 7.85
0 -1 -1 489.27 7.85
0 1 2 -0.05 0.25
0 -1 -2 0.07 0.16
0 -1 -2 -0.15 0.17
0 1 2 0.11 0.2
0 -1 -2 -0.02 0.27
0 1 2 0.03 0.18
0 1 3 13.43 0.93
0 -1 -3 12.23 0.87
0 -1 -3 12.32 1.13
0 -1 -3 13.17 0.89
0 1 3 13.7 1.18
0 1 3 12.75 0.86
0 1 4 157.62 3.93
0 -1 -4 147.05 3.91
0 1 4 144.69 4.69
0 1 4 153.01 4.08
0 -1 -4 149.11 3.95
0 -1 -4 151.54 4.9
0 -1 -5 8.08 0.89
0 1 5 6.9 0.83
0 1 5 7.41 0.91
0 -1 -5 7.57 1.16
0 -1 -5 7.35 1.09
0 -1 -5 8.54 0.92
0 -1 -6 53.46 3.37
0 -1 -6 45.74 2.94
0 1 6 48.53 2.58
0 1 6 53.88 2.49
0 1 7 151.23 4.79
0 1 7 146.6 5.1
0 -1 -7 144.69 5.85
0 -1 -7 147.76 2.63
0 -1 -7 151.45 6.31
0 -1 -7 141.99 2.82
0 1 8 0.84 0.49
0 1 8 1.27 0.59
0 -1 -8 2.07 0.81
0 -1 -9 44.23 3.59
0 1 9 41.02 2.95
0 1 9 41.97 2.72
0 -1 -10 9.58 1.77
0 1 10 6.86 1.29
0 1 10 8.38 1.29
0 1 11 0.53 0.58
0 -1 -11 0.5 0.63
0 1 11 1.95 0.75
0 1 12 0.97 0.68
0 1 12 1.11 0.65
0 -1 -12 2.36 1.2
0 1 12 1.39 0.78
0 1 13 3.3 1.05
0 1 13 7.46 1.44
0 -1 -13 5.17 1.62
0 -1 -13 7.56 1.55
0 1 14 -0.74 0.63
0 -1 -14 0.08 0.79
0 2 -13 1.86 0.86
0 2 -13 2.17 1.08
0 -2 12 3.05 0.89
0 2 -12 5.51 1.28
0 -2 12 4.91 1.22
0 2 -12 4.21 1.46
0 2 -11 5.81 1.5
0 -2 11 4.55 1.11
0 2 -11 4.78 1.09
0 -2 11 5.14 1.05
0 -2 10 1.26 0.5
0 2 -10 1.43 0.86
0 2 -10 2.19 0.7
0 -2 10 0.99 0.6
0 2 -9 31 3.08
0 2 -9 32.26 2.35
0 -2 9 33.8 2.26
0 -2 9 31.31 2.48
0 2 -8 78.59 3.48
0 2 -8 71.42 4.46
0 -2 8 77.09 3.3
0 -2 8 74.12 3.68
0 -2 7 15.04 1.54
0 2 -7 13.45 1.81
0 2 -7 18.1 1.49
0 2 -6 22.93 2.2
0 2 -6 24.72 1.6
0 -2 6 23.22 0.93
0 -2 6 22.18 0.81
0 2 -5 0.13 0.42
0 2 -5 0.22 0.42
0 -2 5 0.13 0.14
0 2 -5 0.31 0.3
0 2 -5 -0.11 0.19
0 -2 4 76.91 3.56
0 2 -4 81.67 2.52
0 2 -4 82.11 3.57
0 2 -4 77.47 3.05
0 2 -4 76.63 2.59
0 2 -4 81.41 3.22
0 -2 3 52.64 1.58
0 2 -3 49.69 2.5
0 2 -3 48.96 2.11
0 -2 3 51.17 2.6
0 2 -3 52.18 1.73
0 -2 3 51.68 2.1
0 2 -3 51.81 1.85
0 -2 2 88.73 1.9
0 -2 2 89.16 2.14
0 -2 2 84.64 2.52
0 2 -2 87.12 2.14
0 2 -2 86.95 2.28
0 2 -2 87.72 2.55
0 -2 2 89.24 3.18
0 -2 2 87.91 3.03
0 2 -2 84.69 3.05
0 2 -1 22.19 1.28
0 -2 1 19.37 0.82
0 2 -1 20.35 0.81
0 2 -1 19.73 0.94
0 -2 1 20.03 0.7
0 2 -1 19.69 1.24
0 -2 1 20.53 1.29
0 -2 1 20.99 0.98
0 -2 1 20.97 1.26
0 -2 0 5624.15 84.21
0 -2 0 5914.34 84.29
0 2 0 6133.04 84.25
0 2 0 5965.19 83.34
0 2 0 5910.09 84.25
0 -2 0 5783.83 83.4
0 2 0 5563.21 83.72
0 2 0 5605.44 83.23
0 -2 -1 0.01 0.12
0 2 1 -0.05 0.13
0 -2 -1 0.2 0.21
0 2 1 -0.02 0.24
0 2 1 0.08 0.21
0 -2 -1 0.32 0.17
0 2 1 0.02 0.21
0 -2 -1 -0.04 0.28
0 2 1 0.06 0.13
0 -2 -2 1612.71 25.45
0 -2 -2 1591.21 24.71
0 -2 -2 1677.36 23.77
0 -2 -2 1591.89 24.75
0 2 2 1618.28 24.73
0 2 2 1626.29 25.42
0 2 2 1635.32 24.73
0 -2 -3 354.33 6.96
0 2 3 355.53 7.03
0 -2 -3 357.74 7.04
0 2 3 366.11 6.18
0 -2 -3 366.47 7.94
0 2 3 354.67 6.95
0 2 3 354.99 7.8
0 -2 -4 211.64 5.13
0 2 4 218.87 6.02
0 -2 -4 216.64 5.13
0 2 4 218.33 5.24
0 -2 -4 226.52 6.21
0 2 4 212.63 4.41
0 2 4 210.85 5.06
0 2 5 9.09 1.01
0 2 5 11.33 0.89
0 -2 -5 12.1 1.11
0 2 5 9.44 0.96
0 -2 -5 9.67 1.35
0 2 6 60.86 2.69
0 2 6 56.06 2.8
0 -2 -6 59.53 3.54
0 -2 -7 380.12 10.88
0 2 7 401.01 8.95
0 -2 -7 389.58 10.44
0 2 7 366.09 9.16
0 -2 -8 143.45 6.63
0 -2 -8 149.37 6.35
0 2 8 141.6 5.35
0 -2 -8 144.23 3.19
0 2 8 150.57 5.1
0 -2 -9 12.67 2.12
0 2 9 11.83 1.39
0 -2 -9 10.51 1.75
0 -2 -9 11.37 0.68
0 2 9 10.58 1.38
0 2 9 10.3 1.48
0 2 10 8.76 1.3
0 2 10 6.82 1.18
0 -2 -10 7.96 1.66
0 -2 -10 6.21 1.56
0 2 10 10.13 1.55
0 2 11 5.31 1.25
0 2 11 5.94 1.18
0 -2 -11 5.22 1.46
0 2 11 4.92 1.05
0 2 12 3.85 1.11
0 2 12 3.82 0.98
0 -2 -12 2.79 1.12
0 2 13 0.84 0.64
0 -2 -13 -1.29 0.94
0 2 13 -0.24 0.55
0 2 14 3.88 1.16
0 2 14 4.94 1.49
0 -2 -14 3.96 1.52
0 3 -12 1.25 0.97
0 3 -12 0.2 0.45
0 -3 12 1.03 0.69
0 3 -11 0.67 0.66
0 -3 11 0.27 0.48
0 3 -11 -0.37 0.63
0 -3 10 4.11 1.07
0 3 -10 2.55 1.09
0 -3 10 4.57 0.94
0 3 -10 4.46 1.02
0 3 -9 12.6 1.51
0 -3 9 12.22 1.61
0 3 -9 9.3 1.77
0 -3 9 12.12 1.37
0 3 -8 33.61 3.1
0 -3 8 39.62 2.3
0 3 -8 41.57 2.53
0 -3 8 41.02 2.82
0 -3 7 9.51 0.73
0 -3 7 8.08 0.95
0 3 -7 8.42 1.47
0 3 -7 10.25 1.15
0 -3 7 9.87 0.69
0 3 -6 4.57 0.76
0 3 -6 5.67 1.05
0 3 -6 5.94 1.21
0 -3 6 5.4 0.57
0 -3 6 3.88 0.62
0 3 -5 91.26 3.07
0 -3 5 84.94 4.09
0 3 -5 89.25 3.74
0 3 -5 88.37 3.21
0 3 -5 83.53 4.11
0 -3 5 88.91 2.77
0 -3 4 1.28 0.3
0 -3 4 1.8 0.66
0 3 -4 0.94 0.43
0 3 -4 1.35 0.36
0 3 -4 1.42 0.36
0 3 -4 1.29 0.67
0 3 -3 46.28 2.13
0 3 -3 47.16 1.77
0 -3 3 41.52 2.48
0 3 -3 43.56 2.51
0 -3 3 42.64 1.45
0 3 -3 40.56 1.74
0 -3 3 42.78 1.57
0 -3 2 0.86 0.44
0 -3 2 0.82 0.24
0 3 -2 1.39 0.53
0 3 -2 1.15 0.36
0 3 -2 1.15 0.27
0 -3 2 0.89 0.29
0 -3 2 0.5 0.35
0 3 -2 0.72 0.38
0 3 -1 1803.04 27.13
0 -3 1 1765.74 26.3
0 -3 1 1780.92 28.82
0 -3 1 1766.17 27.29
0 3 -1 1814.46 28.48
0 3 -1 1799.83 28.52
0 -3 1 1786.36 28.59
0 3 0 358.89 6.51
0 3 0 344.44 6.45
0 -3 0 346.69 6.61
0 3 0 365.89 7.5
0 -3 0 356.61 7.57
0 3 0 348.31 7.48
0 3 0 356.53 7.06
0 -3 0 349.79 7.53
0 3 1 664.59 10.44
0 -3 -1 640.97 10.84
0 3 1 645.76 11.85
0 3 1 611.49 10.84
0 -3 -1 641.74 10.34
0 3 1 652.64 10.82
0 -3 -1 663.8 11.53
0 -3 -1 662.44 11.98
0 3 2 914.32 15.17
0 3 2 917.1 15.24
0 -3 -2 928.89 15.25
0 -3 -2 861.55 13.97
0 -3 -2 904.6 15.84
0 -3 -2 871.99 13.63
0 3 2 910.49 15.78
0 3 2 905.04 13.84
0 -3 -3 400 6.55
0 -3 -3 402.53 8.85
0 3 3 389.15 7.99
0 -3 -3 391.72 7.97
0 -3 -3 392.01 8.02
0 -3 -3 388.46 6.73
0 3 3 397.44 8.75
0 3 3 396.21 8
0 -3 -4 100.43 3.39
0 -3 -4 109.36 3.56
0 3 4 109.31 3.53
0 3 4 106.6 3.47
0 -3 -4 106.24 2.72
0 -3 -4 102.04 4.13
0 3 4 106.41 2.52
0 3 5 2.64 0.43
0 3 5 3.36 0.65
0 3 5 2.55 0.57
0 -3 -5 2.58 0.72
0 -3 -6 24.35 2.26
0 3 6 22 1.65
0 3 6 22.34 1.37
0 3 6 18.27 1.6
0 3 7 263.05 6.39
0 -3 -7 264.96 8.83
0 3 7 258.03 7.34
0 3 7 280.71 7.19
0 3 8 121.05 4.95
0 -3 -8 121.14 6.04
0 3 8 117 4.13
0 3 8 121.18 4.62
0 -3 -9 10.07 1.76
0 -3 -9 11.2 1.99
0 3 9 10.8 1.3
0 3 9 11.06 1.54
0 3 9 11.03 1.44
0 3 10 24.11 2.2
0 -3 -10 24.03 2.85
0 3 10 25.57 2.12
0 -3 -10 24.89 3.08
0 3 10 24.73 2.45
0 -3 -11 11.99 2.12
0 3 11 11.63 1.78
0 -3 -11 6.77 1.74
0 3 11 8.15 1.36
0 3 12 0.91 0.65
0 -3 -12 0.92 0.92
0 3 12 2.45 0.91
0 3 13 1.89 0.92
0 -3 -13 1.35 1.08
0 3 13 1.78 0.8
0 3 14 2.66 1.1
0 -3 -14 1.57 1.1
0 4 -12 1.19 0.93
0 -4 11 0.41 0.54
0 4 -11 -0.25 0.64
0 -4 10 0.96 0.86
0 4 -10 -0.42 0.63
0 -4 10 0.57 0.6
0 4 -10 0.93 0.62
0 -4 9 0.5 0.53
0 4 -9 0.24 0.59
0 4 -9 0.35 0.44
0 -4 9 0.11 0.56
0 4 -8 39.49 3.46
0 4 -8 39.76 2.6
0 -4 8 38.92 2.31
0 -4 8 37.3 3.35
0 -4 7 10.23 1.08
0 4 -7 11.13 1.73
0 -4 7 10.49 0.93
0 4 -7 9.49 1.48
0 -4 7 12.8 1.9
0 4 -7 10.36 1.24
0 4 -6 36.63 2.97
0 4 -6 30.89 1.97
0 -4 6 32.95 1.66
0 4 -6 34.07 2.5
0 -4 6 32.99 1.77
0 -4 6 30.47 2.72
0 4 -5 20.85 1.81
0 4 -5 22.64 2.21
0 4 -5 19.99 1.45
0 4 -5 16.94 1.37
0 -4 5 21.06 2.1
0 -4 5 20.66 1.26
0 4 -4 83.23 2.92
0 -4 4 80.52 3.97
0 4 -4 77.44 3.93
0 4 -4 85.74 3.46
0 -4 4 81.14 2.34
0 4 -3 3.39 0.52
0 4 -3 3.09 0.74
0 -4 3 3.8 0.35
0 -4 3 3.69 0.48
0 4 -3 4.46 0.71
0 -4 3 3.73 0.86
0 -4 2 121.92 4.51
0 4 -2 117.9 3.54
0 -4 2 118.39 3.11
0 -4 2 120.27 3.69
0 4 -2 120.8 4.46
0 -4 1 562.71 8.98
0 -4 1 540.13 11.5
0 4 -1 532.99 10.02
0 4 -1 548.84 11.35
0 4 -1 541.79 9.9
0 -4 1 543.33 10.13
0 4 -1 530.92 10.98
0 4 0 7.22 0.75
0 -4 0 9.27 1.2
0 4 0 5.25 0.85
0 -4 0 5.79 0.9
0 4 0 7.99 0.78
0 -4 0 7.38 0.78
0 4 0 6.54 0.84
0 4 1 203.06 4.65
0 -4 -1 202.16 5.32
0 4 1 203.26 5.67
0 -4 -1 205.29 5.58
0 -4 -1 203.95 5.76
0 4 1 201.07 4.37
0 4 1 204.26 4.9
0 -4 -2 856.97 15.8
0 4 2 812.9 15.01
0 4 2 854.51 15.07
0 4 2 815.08 13.44
0 -4 -2 864.19 13.83
0 -4 -2 833.92 13.25
0 4 3 6.97 0.9
0 4 3 8.18 0.97
0 4 3 8.52 0.65
0 -4 -3 7.19 0.64
0 -4 -3 7.1 0.53
0 -4 -3 7.63 1.09
0 4 4 6.59 0.99
0 -4 -4 4.87 0.51
0 -4 -4 5.1 0.42
0 -4 -4 6.17 1.12
0 4 4 6.77 0.97
0 4 5 17.78 1.5
0 -4 -5 14.47 1.69
0 -4 -5 14.69 0.98
0 4 5 13 1.32
0 4 6 55.05 2.94
0 -4 -6 48.95 3.36
0 4 6 53.03 2.81
0 4 6 58.78 1.94
0 -4 -6 56.72 2.22
0 4 7 0.65 0.31
0 -4 -7 0.42 0.49
0 4 7 0.12 0.46
0 4 7 0.52 0.4
0 4 8 0.98 0.45
0 -4 -8 2.02 0.99
0 4 8 2.37 0.53
0 4 8 2.86 0.77
0 4 9 58.57 3.62
0 -4 -9 55.16 4.37
0 4 9 60.09 2.93
0 4 9 58.01 3.37
0 4 10 49.17 3.53
0 -4 -10 59.03 4.49
0 -4 -10 56.4 4.69
0 4 10 56.56 3.47
0 4 11 12.54 1.71
0 4 11 13.11 1.9
0 -4 -11 11.53 2.3
0 -4 -11 14.01 2.35
0 4 12 1.25 0.79
0 -4 -12 0.1 0.77
0 4 12 0.62 0.58
0 -4 -12 2.84 1.23
0 -4 -13 1.73 1.19
0 -4 -13 0.7 0.76
0 4 13 -0.51 0.62
0 4 13 1.11 0.74
0 -4 -14 15.54 2.89
0 4 14 15.42 2.45
0 4 14 16.11 2.21
0 5 -12 -0.31 0.49
0 -5 11 -0.66 1.1
0 5 -11 -0.96 0.95
0 -5 11 -0.89 0.67
0 -5 10 0.28 0.69
0 5 -10 1.78 0.83
0 -5 10 1.39 0.73
0 5 -9 5.94 1.55
0 -5 9 5.82 1.52
0 -5 8 9.49 1.81
0 5 -8 7.63 1.21
0 5 -8 5.74 1.41
0 -5 7 1.76 0.74
0 5 -7 4.45 1.05
0 5 -7 2.72 0.71
0 5 -7 2.77 0.99
0 -5 6 0.03 0.2
0 5 -6 1.09 0.6
0 -5 6 0.25 0.68
0 5 -6 -0.03 0.59
0 5 -6 0.12 0.33
0 -5 5 23.44 2.37
0 5 -5 23.27 2.01
0 5 -5 24.42 2.43
0 -5 5 23.33 1.17
0 5 -5 21.53 1.62
0 5 -4 12.17 1.35
0 5 -4 11.16 1.06
0 -5 4 14.29 0.99
0 -5 4 14.27 1.77
0 5 -4 12.49 1.64
0 -5 3 6.47 0.68
0 5 -3 5.59 1.1
0 5 -3 6.11 0.88
0 -5 3 5.48 1.05
0 5 -2 3.81 0.65
0 -5 2 2.66 0.79
0 5 -2 3.13 0.81
0 5 -2 7.62 0.93
0 -5 2 3.63 0.53
0 5 -1 164.78 3.14
0 5 -1 165.49 4.58
0 -5 1 166.39 5.74
0 -5 1 160.48 3.51
0 5 -1 163.36 4.39
0 5 -1 173.5 5.68
0 5 0 47.4 2.05
0 5 0 40.64 2.32
0 5 0 44.54 2.04
0 -5 0 48.34 2.25
0 -5 0 45.02 2.78
0 -5 -1 220.24 6.62
0 5 1 216.38 5.65
0 5 1 223.98 5.28
0 5 1 223.09 5.08
0 5 2 118.06 3.23
0 5 2 121.57 3.64
0 -5 -2 114.86 4.57
0 5 2 119.29 4.29
0 5 2 117.74 3.59
0 5 3 306.58 6.04
0 -5 -3 299.12 6.3
0 5 3 314.23 7.77
0 -5 -3 300.43 8.35
0 5 3 309.22 7.71
0 -5 -3 309.8 5.77
0 5 4 27.22 2
0 -5 -4 23.79 2.16
0 -5 -4 24.9 1.12
0 5 4 27.71 1.96
0 -5 -4 25.16 1.23
0 -5 -4 23.15 1.25
0 5 5 3.98 0.83
0 -5 -5 3.78 1.01
0 -5 -5 4.69 0.62
0 5 5 4.66 0.88
0 -5 -5 6.16 0.59
0 5 6 4.67 0.92
0 5 6 4.92 0.95
0 -5 -6 2.92 0.46
0 -5 -6 3.17 0.99
0 5 7 115.66 4.79
0 5 7 119.22 4.78
0 -5 -7 120.96 5.88
0 -5 -7 111.99 3.45
0 5 8 12.14 1.56
0 5 8 10.12 1.44
0 -5 -8 14.73 2.19
0 5 9 12.79 1.73
0 5 9 12.87 1.65
0 -5 -9 13.91 2.23
0 5 10 38.69 2.98
0 -5 -10 38.36 4.05
0 5 10 34.75 3.03
0 5 11 13.63 1.84
0 5 11 9.97 1.72
0 -5 -11 10.45 2.18
0 -5 -11 11.6 2.2
0 -5 -12 1.58 0.95
0 5 12 0.09 0.47
0 -5 -12 0.86 0.78
0 5 12 0.1 0.53
0 -5 -13 -0.42 0.71
0 -5 -13 0.09 0.6
0 5 13 0.48 0.61
0 5 13 -0.99 0.67
0 5 14 -0.52 0.68
0 -5 -14 0.67 0.69
0 5 14 -1.36 0.78
0 6 -11 -0.18 0.59
0 6 -10 12.81 2.3
0 -6 10 11.33 2.23
0 6 -10 11.95 2.01
0 6 -9 20.46 2.76
0 -6 9 14.9 2.5
0 6 -8 3.89 1.19
0 -6 8 3.76 1.27
0 6 -7 0.62 0.5
0 6 -7 1.35 0.82
0 -6 7 1.2 0.8
0 6 -6 0.38 0.46
0 -6 6 0.97 0.71
0 6 -6 1 0.8
0 -6 5 8.54 1.63
0 6 -5 10.98 1.45
0 6 -5 11.55 1.17
0 6 -5 8.37 1.51
0 6 -4 11.42 1.38
0 6 -4 13.33 1.81
0 -6 4 11.68 0.93
0 6 -4 10.97 1.39
0 -6 4 12.81 1.81
0 -6 3 5.53 1.21
0 6 -3 3.56 0.77
0 6 -3 5.06 0.9
0 6 -3 4.72 1.09
0 -6 3 5.24 0.66
0 -6 2 105.85 5.04
0 6 -2 111.73 3.9
0 -6 2 106.6 3.34
0 6 -2 106.38 4.86
0 6 -2 109.09 4.06
0 6 -1 226.84 6.03
0 -6 1 235.43 4.62
0 -6 1 230.09 7.58
0 6 -1 247.73 5.98
0 6 -1 238.85 7.39
0 6 -1 223.99 4.13
0 -6 0 79.67 2.67
0 6 0 74.56 2.99
0 -6 0 73.89 4.04
0 6 0 90.76 3.2
0 6 1 2.72 0.57
0 6 1 1.85 0.55
0 -6 -1 2.63 0.79
0 6 1 2.32 0.53
0 6 2 528.5 9.84
0 6 2 479.14 10.45
0 -6 -2 528.6 12.49
0 6 2 525.83 11.66
0 6 2 530.93 10.29
0 -6 -3 88.36 4.38
0 6 3 90.03 3.35
0 6 3 82.08 3.8
0 6 3 85.26 2.79
0 6 4 5.76 0.66
0 6 4 5.92 1.09
0 -6 -4 5.95 0.59
0 -6 -4 6.96 0.73
0 -6 -4 7.44 1.34
0 -6 -4 6.51 0.76
0 6 4 5.37 0.98
0 -6 -5 51.4 3.55
0 -6 -5 53.19 1.79
0 -6 -5 51.2 2.04
0 6 5 52.83 3.14
0 6 5 56.04 3.16
0 -6 -5 55.24 1.64
0 -6 -6 116.08 3.09
0 6 6 131.55 5.16
0 6 6 122.66 5.04
0 -6 -6 123.71 3.52
0 -6 -6 122.85 5.87
0 6 7 158.45 5.93
0 6 7 152.95 5.86
0 -6 -7 152.9 6.99
0 6 8 12.69 1.7
0 -6 -8 13.86 2.21
0 6 8 12.8 1.69
0 -6 -9 25.91 3.17
0 6 9 24.81 2.48
0 6 9 24.15 2.37
0 6 10 72.94 4.47
0 -6 -10 63.82 5.18
0 6 10 74.56 4.36
0 6 11 2.31 0.99
0 6 11 3.69 1.1
0 -6 -11 5.95 1.74
0 6 12 2.93 1.05
0 -6 -12 2.05 1.01
0 6 12 3.35 1.15
0 -6 -12 0.74 0.72
0 6 13 0.46 0.65
0 6 13 -0.07 0.52
0 6 14 13.69 2.15
0 6 14 12 2.19
0 -6 -14 10.47 2.39
0 7 -10 -0.77 0.76
0 7 -9 10.59 2.13
0 7 -9 9.56 1.77
0 -7 9 8.95 2.05
0 7 -8 1.16 0.78
0 7 -8 0.78 0.72
0 -7 8 3.16 1.18
0 7 -7 0.5 0.66
0 7 -7 2.3 0.94
0 7 -7 0.4 0.59
0 -7 7 0.36 0.69
0 7 -6 1.28 0.65
0 -7 6 0.83 0.88
0 7 -6 1.51 0.84
0 7 -6 0.58 0.56
0 -7 5 9.73 1.84
0 7 -5 12 1.62
0 7 -5 10.34 1.75
0 7 -5 11.13 1.52
0 7 -4 9.74 1.35
0 -7 4 7.29 1.58
0 7 -4 5.93 1.14
0 7 -4 5.06 1.21
0 -7 4 6.83 0.74
0 7 -3 3.39 0.78
0 7 -3 5.81 1.26
0 7 -3 4 0.88
0 -7 3 4.85 0.65
0 -7 3 4.77 1.26
0 -7 2 0.96 0.35
0 7 -2 0.04 0.39
0 7 -2 2.58 0.68
0 7 -2 1.16 0.48
0 -7 2 0.44 0.6
0 -7 1 0.64 0.2
0 -7 1 0.15 0.57
0 7 -1 0.96 0.47
0 7 -1 0.63 0.38
0 7 0 70.22 2.99
0 7 0 63.24 2.92
0 -7 0 76.08 4.42
0 -7 0 62.05 2.36
0 -7 -1 39.74 3.1
0 7 1 42.31 2.21
0 7 1 41.09 2.2
0 7 2 1.19 0.46
0 7 2 2.39 0.54
0 -7 -2 2.31 0.87
0 7 2 1.73 0.48
0 7 2 2.64 0.79
0 7 3 20.92 1.42
0 7 3 22.42 2.1
0 -7 -3 17.7 2.14
0 7 3 20.56 1.6
0 -7 -4 124.21 5.8
0 7 4 121.18 3.56
0 7 4 122.61 5.15
0 7 4 122.97 4.38
0 7 5 46.75 3.17
0 -7 -5 57.23 2.25
0 -7 -5 49.77 2.01
0 -7 -5 51.74 3.8
0 7 5 52.56 3.3
0 -7 -6 53.24 2.12
0 -7 -6 52.24 3.97
0 7 6 49.66 3.28
0 7 6 57.69 3.56
0 7 7 56 3.59
0 7 7 50.15 3.44
0 -7 -7 46.47 3.93
0 7 8 9.06 1.51
0 -7 -8 9.93 1.94
0 7 8 9.4 1.54
0 7 9 27.69 2.73
0 -7 -9 26.2 3.31
0 7 9 26.75 2.63
0 7 10 4.14 1.2
0 -7 -10 4.24 1.47
0 7 10 2.89 0.97
0 -7 -11 9.85 2.17
0 7 11 9.03 1.72
0 7 11 9.59 1.72
0 -7 -12 4.16 1.67
0 7 12 4.23 1.31
0 7 12 4.5 1.26
0 -7 -13 -0.18 0.71
0 7 13 -1.34 0.84
0 7 13 0.22 0.54
0 8 -9 2.06 1.12
0 -8 8 7 1.81
0 8 -8 6.38 1.65
0 8 -8 3.93 1.16
0 8 -7 3.07 1.19
0 8 -7 2.59 0.96
0 8 -7 2.06 0.94
0 -8 7 1.46 0.95
0 -8 6 1.08 0.85
0 8 -6 -0.14 0.46
0 8 -6 1.4 0.64
0 8 -6 -0.01 0.62
0 8 -5 1.55 0.62
0 8 -5 2.16 0.82
0 8 -5 0.18 0.6
0 -8 5 1.78 0.89
0 -8 4 3 1.1
0 8 -4 1.7 0.81
0 8 -4 3.13 0.84
0 8 -4 1.66 0.7
0 8 -3 5.39 1.31
0 -8 3 8.34 1.71
0 8 -3 7.29 1.14
0 8 -3 6.16 1.13
0 -8 2 14.17 2.12
0 8 -2 13.69 1.58
0 -8 2 13.75 1.2
0 8 -2 14.94 1.54
0 8 -1 0.12 0.38
0 -8 1 0.98 0.75
0 8 -1 -0.23 0.37
0 8 0 28.85 1.99
0 -8 0 33.59 3.15
0 8 0 28.18 2.08
0 8 1 1.9 0.54
0 -8 -1 1.29 0.84
0 8 1 0.36 0.39
0 8 2 39 2.26
0 -8 -2 46.06 3.62
0 8 2 39.14 3.04
0 8 2 45.52 2.46
0 -8 -3 36.12 3.27
0 8 3 35.09 2.23
0 8 3 39.47 3.02
0 8 3 37.3 2.09
0 8 4 13.24 1.4
0 -8 -4 11.46 1.9
0 8 4 13.56 1.79
0 8 4 12.36 1.11
0 -8 -5 66.99 4.59
0 8 5 60.59 3.87
0 8 5 70.2 3.44
0 -8 -6 59.2 4.48
0 8 6 60.39 3.84
0 -8 -7 66.77 4.91
0 8 7 69.94 4.24
0 8 7 59.98 4
0 8 8 7.44 1.52
0 8 8 10.86 1.76
0 -8 -8 8.35 1.95
0 -8 -9 -0.35 0.81
0 8 9 0.08 0.55
0 8 9 -0.52 0.6
0 -8 -10 4.27 1.43
0 8 10 7.82 1.58
0 8 10 7.02 1.49
0 8 11 3.09 1.06
0 -8 -11 3.63 1.58
0 8 11 1.31 0.82
0 8 12 2.58 1.01
0 8 12 1.58 0.82
0 9 -7 3.18 1.24
0 -9 7 1.13 0.84
0 9 -7 2.68 1.02
0 9 -7 1.85 0.85
0 9 -6 2.82 1.1
0 -9 6 1.65 0.86
0 9 -6 4.89 1.27
0 9 -6 3.06 1.01
0 -9 5 1.42 0.97
0 9 -5 0.2 0.49
0 9 -5 0.06 0.52
0 9 -5 0.68 0.58
0 9 -4 11.86 1.65
0 9 -4 13.4 1.82
0 -9 4 12.31 2.25
0 9 -4 10.35 1.9
0 9 -3 11.59 1.62
0 9 -3 11.45 1.54
0 -9 3 10.89 2.07
0 9 -2 8.41 1.24
0 9 -2 8.33 1.31
0 -9 2 7.81 1.68
0 9 -1 0.68 0.46
0 9 -1 0.38 0.39
0 -9 1 1.15 0.82
0 9 0 16.7 1.71
0 -9 0 15.47 2.35
0 9 0 18.15 1.66
0 9 1 0.25 0.34
0 -9 -1 -0.05 0.61
0 9 1 0.29 0.43
0 9 1 0.13 0.46
0 9 2 -0.2 0.39
0 9 2 -0.18 0.46
0 -9 -2 -0.45 0.7
0 9 2 -0.05 0.28
0 9 3 7.98 1.04
0 9 3 8.57 1.14
0 9 3 7.13 1.42
0 -9 -3 6.83 1.59
0 -9 -4 2.45 1.06
0 9 4 4.55 0.88
0 9 4 3.22 0.98
0 9 4 2.69 0.55
0 -9 -5 18.89 2.64
0 9 5 21.19 2.4
0 9 5 25.46 2.08
0 -9 -6 10.64 2.03
0 9 6 14.36 1.66
0 9 6 12.37 1.88
0 9 7 66.64 4.39
0 -9 -7 59.58 4.91
0 9 7 65.61 3.71
0 9 8 1.93 0.93
0 9 8 6.21 1.46
0 -9 -8 7.74 1.98
0 -9 -9 16.18 2.78
0 9 9 15.95 2.23
0 9 9 19.09 2.53
0 9 10 4.71 1.4
0 9 10 3.13 1.19
0 -9 -10 2.88 1.38
0 9 11 9.42 1.88
0 9 11 10.13 1.95
0 10 -7 1.69 0.83
0 10 -6 1.23 0.75
0 10 -6 1.21 0.77
0 10 -6 0.16 0.59
0 10 -5 2.83 0.96
0 10 -5 1.39 0.73
0 -10 5 3.34 1.29
0 10 -4 4.5 1.16
0 10 -4 4.15 1.12
0 -10 4 3.73 1.49
0 10 -3 0.28 0.42
0 -10 3 -0.37 0.76
0 -10 2 4.24 1.33
0 10 -2 4.6 0.99
0 10 -2 3.06 0.9
0 -10 1 -0.16 0.64
0 10 -1 0.41 0.43
0 10 -1 -0.15 0.37
0 -10 0 7.52 1.77
0 10 0 7.48 1.13
0 10 0 8.01 1.27
0 10 1 -0.05 0.34
0 10 1 0.75 0.64
0 10 1 -0.17 0.44
0 -10 -1 -0.2 0.74
0 10 2 0.12 0.48
0 -10 -2 -0.1 0.93
0 10 2 -0.08 0.3
0 10 2 -0.2 0.34
0 -10 -3 -0.13 0.69
0 10 3 0.35 0.56
0 -10 -4 7.99 1.85
0 10 4 8.2 1.6
0 -10 -5 0.76 0.75
0 10 5 1.26 0.56
0 10 6 3.16 1.07
0 -10 -6 4.57 1.57
0 -10 -7 1.45 1.09
0 10 7 0.77 0.71
0 10 8 1.62 0.81
0 -10 -8 1.52 1.09
0 -10 -9 7.84 2.05
0 10 9 6.88 1.61
0 10 10 5.52 1.53
0 11 -5 2.49 1
0 11 -4 3.59 1.1
0 -11 3 0.87 0.93
0 11 -3 -0.09 0.5
0 11 -2 14.98 1.99
0 -11 2 22.87 3.29
0 -11 1 -0.41 0.81
0 11 -1 3.56 1.04
0 -11 0 2.06 1.08
0 11 0 1.74 0.95
0 11 0 1.97 0.78
0 11 1 0.78 0.71
0 -11 -1 4.83 1.54
0 11 2 0.36 0.62
0 -11 -2 0.6 0.71
0 -11 -3 4.08 1.44
0 11 3 2.25 0.91
0 -11 -4 4.57 1.49
0 11 4 3.27 1.22
0 11 5 1.03 0.75
0 -11 -5 -0.09 0.8
0 11 6 0.04 0.56
0 -11 -6 -1.67 1.11
0 -11 -7 2.28 1.24
0 11 7 1.67 0.94
0 -11 -8 0.38 0.86
0 11 8 0.02 0.5
0 12 -3 2.61 0.97
0 -12 0 8 2.12
0 12 0 6.51 1.65
0 -12 -1 0.43 0.98
0 12 1 1.42 0.87
0 -12 -2 0.8 0.96
0 12 2 -0.35 0.66
0 12 3 2.11 0.98
0 -12 -3 2.91 1.27
0 12 4 7.11 1.67
0 -12 -4 6.49 1.93
0 12 5 -0.53 0.73
0 -12 -5 -0.16 0.7
-1 12 4 2.28 1.04
-1 12 3 11.67 2.17
1 -12 -3 9.96 2.29
-1 12 2 0.43 0.62
1 -12 -2 0.41 0.79
-1 11 8 4.37 1.37
1 -11 -7 1.27 0.87
-1 11 7 1.06 0.7
-1 11 6 5.44 1.46
1 -11 -6 6.56 1.85
-1 11 5 7.75 1.67
1 -11 -5 5.93 1.68
1 -11 -4 5.76 1.74
-1 11 4 10.27 1.88
-1 11 3 9.04 1.79
1 -11 -3 10.81 2.24
-1 11 2 0.77 0.55
-1 11 2 1.15 0.93
1 -11 -2 -1.26 0.99
-1 11 1 16.91 2.46
-1 11 1 18.98 2.01
1 -11 -1 19.41 2.93
1 -11 0 -0.34 0.7
-1 11 0 0.06 0.37
1 -11 1 -0.56 0.64
-1 11 -1 0.23 0.47
1 -11 2 -0.63 0.74
-1 11 -2 0.61 0.56
-1 11 -3 -0.29 0.45
1 -11 3 -0.34 0.69
-1 11 -3 0.48 0.47
-1 11 -4 0.67 0.53
1 -11 4 2.02 0.85
-1 11 -4 1.35 0.74
-1 11 -5 -0.15 0.49
-1 11 -5 2.17 0.92
-1 10 10 5.59 1.46
1 -10 -9 -1.47 1.11
-1 10 9 1.69 0.85
-1 10 9 2.94 1.34
-1 10 8 8.91 1.72
-1 10 8 11.21 2.03
1 -10 -8 10.49 2.27
-1 10 7 1.33 0.75
-1 10 7 1 0.57
1 -10 -7 1.5 0.93
1 -10 -6 7.47 1.94
-1 10 6 9.31 1.57
-1 10 6 6.78 1.49
1 -10 -5 0.93 0.76
-1 10 5 0.52 0.67
-1 10 5 -0.06 0.41
1 -10 -4 2.87 1.26
-1 10 4 4 1.15
-1 10 4 4.68 1.03
-1 10 3 8.66 1.67
1 -10 -3 8.53 1.9
-1 10 3 7.42 1.27
1 -10 -2 26.96 3.27
-1 10 2 23.18 2.69
-1 10 2 22.39 2.16
-1 10 1 11.83 1.56
1 -10 -1 16.97 2.63
-1 10 0 11.46 1.42
1 -10 0 7.45 1.77
-1 10 0 13.02 1.61
-1 10 -1 0.44 0.38
-1 10 -1 -0.12 0.38
1 -10 1 -0.91 0.75
-1 10 -2 11.64 1.63
1 -10 2 10.99 2.14
-1 10 -2 10.84 1.53
-1 10 -3 1.6 0.62
1 -10 3 2.59 1.16
-1 10 -3 2.93 0.93
1 -10 4 0.56 0.84
-1 10 -4 1.37 0.91
-1 10 -4 0.49 0.58
1 -10 4 0.97 0.81
-1 10 -4 1.19 0.64
-1 10 -5 1.26 0.97
1 -10 5 -0.75 0.6
1 -10 5 -1.04 0.98
-1 10 -5 -0.88 0.72
-1 10 -5 1.01 0.68
-1 10 -6 3.58 1.13
-1 10 -6 5.58 1.41
-1 9 11 11.95 2.09
-1 9 10 19.8 2.58
1 -9 -10 20.07 3.22
-1 9 10 22.49 2.83
1 -9 -9 5.23 1.68
-1 9 9 7.57 1.58
-1 9 9 7.8 1.7
1 -9 -8 2.33 1.14
-1 9 8 2.27 0.95
-1 9 8 6.05 1.41
-1 9 7 7.7 1.55
1 -9 -7 6.37 1.68
-1 9 7 5.88 1.29
1 -9 -6 1.81 1.02
-1 9 6 1.98 0.9
-1 9 6 3.46 0.96
-1 9 6 2.06 0.86
1 -9 -5 -0.13 0.73
-1 9 5 -0.03 0.52
-1 9 5 -0.03 0.41
-1 9 4 9.99 1.45
-1 9 4 10.43 1.73
1 -9 -4 7.76 1.7
-1 9 3 28.84 2.38
1 -9 -3 28.32 3.12
-1 9 3 27.85 2.8
-1 9 2 6.77 0.89
-1 9 2 3.12 0.96
-1 9 2 7.2 1.22
1 -9 -2 3.45 1.18
-1 9 1 41.81 2.39
-1 9 1 42.98 2.81
1 -9 -1 45.8 3.92
-1 9 0 1.78 0.66
-1 9 0 1.36 0.5
1 -9 0 0.72 0.71
-1 9 -1 4.91 1
-1 9 -1 4.85 0.91
1 -9 1 3.46 1.2
-1 9 -2 18.39 1.94
-1 9 -2 21.17 2.01
1 -9 2 17.96 2.56
-1 9 -3 -0.1 0.42
-1 9 -3 -1.54 0.87
-1 9 -3 0.49 0.44
1 -9 3 -0.39 0.79
-1 9 -4 5.03 1.15
1 -9 4 5.4 1.63
-1 9 -4 6.15 1.29
-1 9 -4 4.27 1.39
-1 9 -5 1.05 0.84
-1 9 -5 0.32 0.53
1 -9 5 -0.71 1.01
1 -9 5 -0.02 0.41
-1 9 -5 1.38 0.81
-1 9 -6 11.79 1.86
1 -9 6 11.01 2.26
-1 9 -6 12.76 2.36
-1 9 -6 15.21 2.15
-1 9 -7 4.04 1.26
-1 9 -7 5.14 1.36
-1 9 -7 0.91 0.87
-1 8 13 2.15 0.98
-1 8 12 3.23 1.11
-1 8 11 17.02 2.36
1 -8 -11 21.65 3.48
-1 8 11 18.11 2.5
1 -8 -10 2.37 1.4
-1 8 10 1.11 0.71
-1 8 10 0.97 0.66
1 -8 -9 6.81 1.79
-1 8 9 7.84 1.51
-1 8 9 9.47 1.81
-1 8 8 1.08 0.91
-1 8 8 0.12 0.57
1 -8 -8 -1.49 1.02
-1 8 7 -0.68 0.71
1 -8 -7 0.15 0.7
-1 8 7 -0.7 0.68
1 -8 -6 -0.56 0.72
-1 8 6 -1.32 0.76
-1 8 6 -0.12 0.57
-1 8 5 1.54 0.67
1 -8 -5 1.68 0.9
-1 8 5 0.17 0.57
-1 8 5 1.12 0.68
1 -8 -4 8.27 0.82
1 -8 -4 7.86 1.66
-1 8 4 9.19 1.33
-1 8 4 9.78 1.54
-1 8 3 31.04 1.58
-1 8 3 33.97 2.51
-1 8 3 37.55 2.97
1 -8 -3 33.35 3.16
-1 8 2 162.49 6.52
1 -8 -2 174.47 7.44
-1 8 2 176.7 4.73
-1 8 2 177.67 5.92
1 -8 -1 12.23 0.69
-1 8 1 12.11 1.17
-1 8 1 11.36 1.37
1 -8 -1 13.43 2.09
1 -8 0 7.29 1.51
-1 8 0 7.12 1.11
-1 8 0 7.96 1.02
-1 8 -1 6.36 0.98
-1 8 -1 6.15 1.06
1 -8 1 4.7 1.29
-1 8 -2 28.61 2.89
-1 8 -2 24.72 2.02
-1 8 -2 24.53 2.12
1 -8 2 25.85 2.86
-1 8 -3 0.37 0.5
-1 8 -3 0.27 0.43
-1 8 -3 0.34 0.43
1 -8 3 -0.33 0.7
1 -8 4 -0.61 0.85
-1 8 -4 0.74 0.61
-1 8 -4 -0.04 0.71
-1 8 -4 -0.19 0.49
-1 8 -5 5.07 1.15
1 -8 5 3.51 0.91
-1 8 -5 2.63 1.06
1 -8 5 1.73 0.91
-1 8 -6 34.73 3.65
1 -8 6 38.68 3.9
1 -8 6 31.84 2.66
-1 8 -6 36.57 3.17
-1 8 -7 75.31 4.78
-1 8 -7 69.99 5.38
1 -8 7 68.15 5.4
-1 8 -8 2.83 1.1
1 -8 8 2.55 1.2
-1 8 -8 3.74 1.52
-1 7 13 1.43 0.81
-1 7 12 2.69 1.03
-1 7 12 2.53 1.04
1 -7 -12 0.14 0.72
1 -7 -11 2.07 0.97
-1 7 11 3.88 1.14
-1 7 11 3.4 1.15
-1 7 10 13.5 2
-1 7 10 13.68 1.98
1 -7 -10 12.43 2.37
1 -7 -9 155.45 8.19
-1 7 9 156.9 6.84
-1 7 9 154.19 6.54
1 -7 -8 79.42 5.49
-1 7 8 74.93 4.28
-1 7 8 86.67 4.8
-1 7 7 155.44 6.23
1 -7 -7 168.79 7.81
-1 7 7 165.51 6.66
-1 7 6 2.64 0.96
-1 7 6 2.71 0.83
1 -7 -6 3.09 1.11
1 -7 -5 33.73 3.11
-1 7 5 32.57 2.57
-1 7 5 31.82 2.64
-1 7 4 46.34 3.09
1 -7 -4 46.58 1.72
1 -7 -4 43.61 3.46
-1 7 4 46.68 2.92
-1 7 4 46.8 3.14
-1 7 3 89.76 4.01
-1 7 3 88.08 2.55
1 -7 -3 99.17 5.1
-1 7 3 89.77 4.38
-1 7 2 9.93 1.24
-1 7 2 10.33 0.89
1 -7 -2 12.66 1.81
-1 7 2 10.52 1.06
-1 7 1 101.28 4.03
-1 7 1 86.98 3.61
-1 7 1 93.16 3.17
1 -7 -1 91.2 4.85
1 -7 0 -0.23 0.57
-1 7 0 0.33 0.3
-1 7 0 0.26 0.32
-1 7 0 -0.14 0.35
-1 7 -1 6.82 1.04
-1 7 -1 5.98 1.23
-1 7 -1 5.6 0.87
-1 7 -1 5.1 0.74
1 -7 1 8.21 1.48
1 -7 2 2.03 0.25
-1 7 -2 2.27 0.84
-1 7 -2 2.57 0.74
1 -7 2 1.27 0.75
-1 7 -3 0.32 0.39
-1 7 -3 -0.19 0.55
1 -7 3 -0.04 0.46
1 -7 4 1.83 0.87
-1 7 -4 0.24 0.62
-1 7 -4 1.74 0.7
1 -7 5 7.89 1.2
-1 7 -5 6.14 1.23
1 -7 5 6.32 1.5
-1 7 -5 6.34 1.46
1 -7 6 8.88 1.31
-1 7 -6 12.46 2.13
1 -7 6 11.95 2.04
-1 7 -6 12.29 1.77
-1 7 -7 1.43 1
-1 7 -7 0.18 0.63
1 -7 7 0.02 0.6
-1 7 -8 35.56 3.34
-1 7 -8 36.51 3.89
1 -7 8 36.49 3.82
-1 7 -9 8.66 1.91
1 -7 9 9.23 2.07
-1 7 -9 8.17 1.78
-1 7 -10 3.96 1.57
-1 6 13 0.8 0.74
-1 6 13 -0.06 0.64
-1 6 12 -0.2 0.46
1 -6 -12 -0.47 0.77
1 -6 -12 -0.32 0.86
-1 6 12 -1 0.67
1 -6 -11 10.85 2.34
-1 6 11 13.43 2.01
-1 6 11 15.41 2.11
-1 6 10 0.12 0.53
1 -6 -10 0.87 0.8
1 -6 -10 1.12 0.53
-1 6 10 1.23 0.72
-1 6 9 -0.23 0.65
-1 6 9 0.87 0.63
1 -6 -9 0.07 0.63
-1 6 8 1.97 0.83
1 -6 -8 3.56 1.35
-1 6 8 4.74 1.1
1 -6 -7 3.22 1.17
-1 6 7 3.65 0.89
-1 6 7 3.98 1.03
-1 6 6 17.75 1.81
-1 6 6 20.8 2.07
1 -6 -6 24.15 2.61
1 -6 -5 3.93 1.1
-1 6 5 3.05 0.79
-1 6 5 5.53 1.09
-1 6 4 2.49 0.78
-1 6 4 4.34 0.89
1 -6 -4 3.84 1.07
-1 6 3 148.63 5.4
1 -6 -3 148.43 6
-1 6 3 148.56 3.14
-1 6 3 143.41 5.07
-1 6 3 155.17 5.44
1 -6 -2 50.8 3.29
-1 6 2 45.3 1.97
-1 6 2 49.96 1.78
-1 6 2 46.11 2.61
-1 6 1 115.65 3.29
-1 6 1 114.19 4.16
1 -6 -1 118.3 5.13
-1 6 1 113.13 3.77
1 -6 0 280.1 8.46
-1 6 0 266.63 6.97
-1 6 0 280.83 7.07
-1 6 0 272.77 6.19
-1 6 0 263.83 6.66
-1 6 -1 4.15 0.67
-1 6 -1 5.02 0.88
-1 6 -1 4.66 1.1
1 -6 1 4.68 1.03
-1 6 -2 2.52 0.69
-1 6 -2 3.41 0.53
1 -6 2 2.99 0.27
-1 6 -2 3.65 0.96
1 -6 2 4.2 1.03
1 -6 3 26.47 2.58
-1 6 -3 27.04 1.2
-1 6 -3 26.45 2.05
-1 6 -3 31.29 2.77
-1 6 -4 14.96 1.62
1 -6 4 14.81 1.99
-1 6 -4 17.64 2.22
1 -6 5 3.68 1.11
1 -6 5 5.7 0.95
-1 6 -5 4.44 1.22
-1 6 -5 6.21 1.13
-1 6 -6 70.06 4.79
-1 6 -6 75.84 4.15
1 -6 6 66.27 3.39
1 -6 6 69.02 4.61
-1 6 -7 31.84 3.34
-1 6 -7 33.94 2.94
1 -6 7 29.69 3.17
1 -6 7 31.52 2.34
-1 6 -8 21.74 2.5
-1 6 -8 22.29 2.91
1 -6 8 20.03 2.72
1 -6 9 10.47 2.07
-1 6 -9 13.56 2.44
-1 6 -9 10.19 1.84
1 -6 10 3 1.21
-1 6 -10 6.16 1.81
-1 6 -11 -0.11 0.77
-1 5 13 -0.58 0.59
-1 5 13 0.81 0.84
1 -5 -13 0.52 0.93
-1 5 12 10.89 1.87
-1 5 12 7.35 1.53
1 -5 -12 6.88 1.7
1 -5 -12 11.12 2.39
-1 5 11 5.59 1.29
1 -5 -11 2.47 1.06
1 -5 -11 3.85 1.43
-1 5 11 4.47 1.16
-1 5 10 9.85 1.61
1 -5 -10 8.96 1.97
1 -5 -10 10.2 1.24
-1 5 10 10.76 1.65
-1 5 9 164.08 6.47
-1 5 9 161.46 6.26
1 -5 -9 165.17 7.97
1 -5 -8 104.23 5.89
-1 5 8 104.25 4.66
-1 5 8 103.63 4.83
-1 5 7 134.32 5.3
-1 5 7 117.91 4.81
1 -5 -7 128.95 6.24
-1 5 6 10.27 1.39
-1 5 6 11.15 1.35
1 -5 -6 11.44 1.73
-1 5 5 67.44 3.4
-1 5 5 64.7 3.14
1 -5 -5 60.3 3.74
1 -5 -4 247.43 7.79
-1 5 4 245.69 6.79
-1 5 4 257.73 7.11
-1 5 3 39.7 2.43
1 -5 -3 42.88 2.85
1 -5 -3 38.94 1.47
-1 5 3 37.84 2.32
-1 5 2 82.44 3.48
1 -5 -2 73.81 3.71
-1 5 2 74.72 2.24
-1 5 2 79.43 2.06
-1 5 2 82.79 3.37
-1 5 1 1312.36 22.03
-1 5 1 1269.36 20.81
1 -5 -1 1314.37 23.48
-1 5 1 1288.05 20.08
1 -5 0 119.45 4.76
1 -5 0 116.69 2.17
-1 5 0 109.45 4.52
-1 5 0 123.71 4.03
-1 5 -1 38.91 1.95
1 -5 1 38.25 2.65
-1 5 -1 40.06 2.21
-1 5 -1 38.57 2.69
-1 5 -2 0.23 0.46
1 -5 2 0.81 0.58
-1 5 -2 0.22 0.35
-1 5 -2 0.16 0.19
-1 5 -3 26.35 2.39
-1 5 -3 22.67 1.19
1 -5 3 23.74 2.2
-1 5 -3 28.84 1.96
1 -5 4 -0.08 0.25
-1 5 -4 0.17 0.15
-1 5 -4 0.11 0.48
1 -5 4 -0.18 0.48
1 -5 4 0.41 0.35
-1 5 -4 0.11 0.33
-1 5 -5 40.83 3.26
1 -5 5 33.28 2.12
-1 5 -5 32.9 1.6
-1 5 -5 38.12 2.58
1 -5 5 32.76 1.9
1 -5 5 30.57 2.76
1 -5 6 24.43 2.59
1 -5 6 23.48 1.71
1 -5 6 25.97 1.91
-1 5 -6 23.32 2.6
-1 5 -6 24.47 1.54
-1 5 -6 26.04 2.3
1 -5 7 2.41 0.62
1 -5 7 2.41 0.65
1 -5 7 1.47 0.51
1 -5 7 2.28 0.84
-1 5 -7 2.62 0.88
-1 5 -7 4.26 1.25
-1 5 -7 2.38 0.58
1 -5 8 26.78 2.98
-1 5 -8 33.3 2.94
-1 5 -8 26.83 3.12
-1 5 -9 0.94 0.74
-1 5 -9 0.74 0.67
1 -5 9 0.73 0.65
-1 5 -10 1.91 0.97
1 -5 10 0.21 0.7
1 -5 11 3.07 1.34
-1 5 -11 2.27 1.07
-1 4 14 0.16 0.64
-1 4 13 0.27 0.44
1 -4 -13 -0.84 0.74
1 -4 -13 0.85 0.92
-1 4 13 0.43 0.51
-1 4 12 8.1 1.59
1 -4 -12 5.21 1.68
-1 4 12 5.92 1.31
1 -4 -12 7.1 1.7
1 -4 -11 1.98 1.15
-1 4 11 0.51 0.59
-1 4 11 1.04 0.62
1 -4 -11 0.12 0.6
-1 4 10 33.2 2.79
1 -4 -10 28.31 3.37
-1 4 10 31.42 2.75
1 -4 -10 32.77 3.18
1 -4 -9 56.29 2.65
-1 4 9 54.78 3.4
1 -4 -9 62.42 4.7
-1 4 9 64.06 3.74
1 -4 -9 56.47 2.87
-1 4 8 14.82 1.66
1 -4 -8 16.25 2.26
1 -4 -8 20.56 1.66
-1 4 8 17.57 1.04
-1 4 8 17.91 1.9
-1 4 7 24.87 2
1 -4 -7 26.01 2.65
-1 4 7 26.64 2.17
1 -4 -6 5.65 1.19
-1 4 6 6.19 1.02
-1 4 6 6.4 0.96
1 -4 -5 21.08 0.73
-1 4 5 23.07 1.68
-1 4 5 23.49 1.84
1 -4 -5 21.64 2.12
-1 4 4 132.79 4.49
1 -4 -4 129.15 5.05
-1 4 4 135.99 4.28
-1 4 3 112.25 3.82
-1 4 3 117.49 4.01
1 -4 -3 113.2 4.46
-1 4 2 46.42 1.3
-1 4 2 49.65 2.41
-1 4 2 47 1.18
1 -4 -2 46.63 2.64
1 -4 -1 576.09 11.86
-1 4 1 580.72 11.13
-1 4 1 567.41 11.18
-1 4 0 630.36 12.45
1 -4 0 618.48 12.49
1 -4 0 604.17 9.3
1 -4 0 620.78 11.66
-1 4 0 624.48 11.58
1 -4 0 613.84 11.83
-1 4 -1 140.69 4.16
1 -4 1 147.1 4.93
1 -4 1 140.78 4.17
-1 4 -1 139.96 4.85
-1 4 -1 133.6 3.82
-1 4 -2 15.48 1.29
-1 4 -2 13.5 0.99
1 -4 2 14.21 1.49
-1 4 -2 16.27 1.67
-1 4 -3 43.07 2.9
-1 4 -3 46.83 2.38
1 -4 3 45.47 2.03
1 -4 3 46.68 2.86
-1 4 -3 45.84 1.31
-1 4 -3 40.41 1.65
1 -4 4 20.9 1.45
-1 4 -4 18.7 2.04
1 -4 4 21.29 1.5
-1 4 -4 21.61 1.71
1 -4 4 21.7 2.03
-1 4 -4 19.63 0.99
-1 4 -5 1.07 0.3
-1 4 -5 1.56 0.77
1 -4 5 1.08 0.42
-1 4 -5 0.95 0.54
1 -4 5 1.03 0.39
-1 4 -5 1.17 0.32
1 -4 5 1.22 0.72
-1 4 -6 -0.18 0.46
1 -4 6 0.09 0.33
-1 4 -6 -0.16 0.2
-1 4 -6 0.71 0.78
-1 4 -6 0.25 0.25
1 -4 6 -0.05 0.29
1 -4 6 0.04 0.45
1 -4 6 0.09 0.3
1 -4 7 37.48 3.2
1 -4 7 44.81 2.39
-1 4 -7 41.7 2.14
-1 4 -7 43.06 3.04
1 -4 7 42.01 2.32
-1 4 -7 40.84 3.57
1 -4 7 39.93 2.52
-1 4 -8 38.69 3.09
-1 4 -8 38.85 2.27
1 -4 8 39.02 2.63
1 -4 8 40.45 3.49
-1 4 -8 38.81 3.61
-1 4 -9 0.4 0.41
-1 4 -9 -0.24 0.67
-1 4 -9 0.6 0.75
1 -4 9 -0.2 0.63
1 -4 9 0.15 0.39
1 -4 9 0.32 0.46
1 -4 10 -0.18 0.41
1 -4 10 -0.37 0.68
-1 4 -10 0.03 0.65
-1 4 -11 -0.01 0.74
1 -4 11 1.33 0.83
-1 4 -12 6.09 1.77
-1 3 14 3.17 1.13
1 -3 -13 3.89 1.15
-1 3 13 2.29 0.89
-1 3 13 4.43 1.25
-1 3 12 1.91 0.83
1 -3 -12 2.09 1.03
1 -3 -12 1.94 0.94
-1 3 12 0.62 0.57
1 -3 -11 15.24 2.34
1 -3 -11 20.22 3
-1 3 11 25.12 2.52
-1 3 11 16 2
-1 3 10 3.81 0.99
1 -3 -10 1.89 0.88
-1 3 10 3.2 0.96
1 -3 -10 4.89 1.57
1 -3 -9 2.1 1.08
-1 3 9 5.16 1.08
1 -3 -9 5.53 1.32
-1 3 9 6.37 1.19
1 -3 -9 3.93 0.66
1 -3 -8 43.08 2.05
-1 3 8 44.9 2.9
-1 3 8 44.65 2.79
1 -3 -8 42.69 2.22
1 -3 -8 44.87 3.69
1 -3 -7 3.71 0.65
-1 3 7 4.67 0.93
1 -3 -7 4.51 1.16
1 -3 -7 5.36 0.7
-1 3 7 4.99 0.86
1 -3 -6 84.46 4.39
-1 3 6 81.52 3.36
-1 3 6 85.69 3.66
-1 3 5 19.5 1.45
1 -3 -5 19.05 1.93
-1 3 5 19.93 1.61
-1 3 4 77.87 3.1
1 -3 -4 78.15 1.63
1 -3 -4 74.93 3.55
-1 3 4 75.22 2.82
1 -3 -4 73.69 2.8
1 -3 -4 73.87 1.87
1 -3 -3 144.72 4.77
-1 3 3 149.33 4.28
-1 3 3 143.02 4
-1 3 3 146.85 4.71
1 -3 -2 168.12 4.42
-1 3 2 167.33 4.79
1 -3 -2 165.99 4.43
-1 3 2 161.23 4.4
1 -3 -2 165.96 3.45
1 -3 -2 165.44 4.85
-1 3 2 162.09 4.26
-1 3 1 2148.1 33.27
-1 3 1 2194.08 33.88
1 -3 -1 2117.55 33.75
-1 3 1 2152.6 33.5
1 -3 -1 2144.66 33.99
1 -3 -1 2212.86 33.35
1 -3 0 52.35 2.47
1 -3 0 48.77 2.17
1 -3 0 47.29 1.24
-1 3 0 52.72 2.39
-1 3 0 49.09 2.28
1 -3 0 50.46 2.36
1 -3 0 51.78 2.07
-1 3 0 49.32 2.12
-1 3 0 47.18 2
-1 3 -1 535.75 9.88
1 -3 1 546.04 10.35
-1 3 -1 546.3 10.13
1 -3 1 529.06 9.85
1 -3 1 555.92 10.84
-1 3 -1 533.29 11.03
-1 3 -1 554.08 10.81
1 -3 1 564.87 11.37
-1 3 -2 20.04 1.71
1 -3 2 18.23 1.54
1 -3 2 20.21 1.28
-1 3 -2 21.77 1.67
-1 3 -2 21.63 1.39
1 -3 2 18.33 1.35
-1 3 -2 19.81 1.16
-1 3 -3 28.35 0.98
-1 3 -3 28.91 2.2
-1 3 -3 28.87 1.34
1 -3 3 31.17 1.63
1 -3 3 30.24 1.64
1 -3 3 29.87 2.07
-1 3 -3 32.17 1.82
-1 3 -4 23.16 1.1
-1 3 -4 24.77 1.75
-1 3 -4 22.98 2.1
1 -3 4 22.95 1.46
1 -3 4 25.51 2.04
1 -3 4 22.99 1.54
1 -3 5 151.09 4.28
-1 3 -5 152.29 6.07
-1 3 -5 153.76 5.02
1 -3 5 157.43 4.69
-1 3 -5 145.4 3.73
1 -3 5 142.14 5.5
1 -3 5 149.79 4.2
-1 3 -6 66.7 4.13
1 -3 6 63.93 2.67
1 -3 6 65.24 2.63
1 -3 6 60.78 3.69
-1 3 -6 74.45 3.57
1 -3 6 61.67 2.94
-1 3 -6 59.92 2.43
1 -3 7 91.45 3.23
-1 3 -7 103.16 5.45
1 -3 7 97.93 3.27
-1 3 -7 100.2 4.56
1 -3 7 90.9 3.85
1 -3 8 3.09 0.78
1 -3 8 2.84 0.76
-1 3 -8 6.36 1.3
-1 3 -8 3.55 1.23
1 -3 8 2.88 0.48
1 -3 9 39.15 2.66
1 -3 9 38.32 2.73
-1 3 -9 35.69 3.56
-1 3 -9 43.75 2.58
1 -3 10 -0.28 0.49
-1 3 -10 -0.2 0.74
1 -3 10 1.28 0.51
-1 3 -10 0.99 0.54
-1 3 -11 0.07 0.35
-1 3 -11 -0.4 0.76
1 -3 11 0.02 0.34
-1 3 -12 0.36 0.78
1 -3 12 0.24 0.59
-1 3 -13 3.18 1.4
-1 2 14 0.19 0.43
-1 2 13 0.14 0.6
-1 2 13 -0.93 0.64
1 -2 -13 0.5 0.61
-1 2 12 2.55 0.86
1 -2 -12 2.66 1.11
-1 2 12 4.39 1.14
1 -2 -12 4.7 1.18
-1 2 11 9.94 1.59
-1 2 11 8.8 1.52
1 -2 -11 9.41 1.78
1 -2 -11 13.34 1.83
-1 2 10 84.37 4.35
1 -2 -10 84.54 5.76
-1 2 10 81.44 4.35
1 -2 -10 80.67 4.92
-1 2 9 15.75 1.8
1 -2 -9 17.68 2.15
-1 2 9 14.19 1.65
1 -2 -9 13.8 0.86
1 -2 -9 12.67 2.13
1 -2 -8 33.22 1.64
1 -2 -8 30.54 3.04
-1 2 8 34.41 2.39
1 -2 -8 31.78 1.52
-1 2 8 33.79 2.46
1 -2 -8 32.42 2.71
-1 2 7 0.52 0.32
1 -2 -7 -0.1 0.57
1 -2 -7 0.28 0.23
1 -2 -7 0.24 0.22
-1 2 7 0.27 0.37
1 -2 -7 0.05 0.39
-1 2 6 60.81 2.75
1 -2 -6 63.42 3.71
1 -2 -6 60.37 2.17
-1 2 6 63.49 3.04
1 -2 -6 61.69 2.4
1 -2 -5 3.07 0.49
1 -2 -5 3.64 0.59
1 -2 -5 3.79 0.89
-1 2 5 3.28 0.57
1 -2 -5 2.95 0.51
-1 2 5 3.29 0.65
1 -2 -4 540.34 9.51
1 -2 -4 527.83 9.8
-1 2 4 525.16 11.23
-1 2 4 535.16 9.83
1 -2 -4 553.73 11.61
-1 2 4 544.94 10.52
1 -2 -3 54.45 2.01
1 -2 -3 61.75 1.39
-1 2 3 56.73 2.02
1 -2 -3 59.68 2.39
1 -2 -3 60.66 2.7
-1 2 3 56.98 2.32
1 -2 -3 57.57 1.61
-1 2 3 60.58 2.63
-1 2 2 934.42 15.08
-1 2 2 927.01 15.46
1 -2 -2 961.5 15.54
-1 2 2 946.81 15.99
-1 2 2 937.88 14.34
1 -2 -2 942.35 16.07
1 -2 -1 1228.9 19.21
1 -2 -1 1212.78 18.32
1 -2 -1 1222.75 19.44
1 -2 -1 1194.82 18.99
-1 2 1 1191.5 18.97
1 -2 -1 1191.99 18.72
-1 2 1 1225.2 19.4
-1 2 0 1141.97 17.96
1 -2 0 1136.9 17.29
1 -2 0 1161.78 18.53
-1 2 0 1182.39 18.64
1 -2 0 1137.48 18.49
1 -2 0 1172.97 18.79
-1 2 0 1184.17 16.97
1 -2 0 1139.04 17.96
-1 2 0 1143.22 18.5
1 -2 0 1173.12 18.27
-1 2 0 1133.27 18.39
1 -2 0 1127.31 16.97
1 -2 1 33.92 1.5
1 -2 1 33.14 1.6
1 -2 1 38.01 1.66
1 -2 1 32.5 1.66
1 -2 1 33.73 1.89
1 -2 1 33.31 1.35
-1 2 -1 31.63 1.62
-1 2 -1 31.91 1.53
-1 2 -1 33.21 1.52
-1 2 -1 34.92 1.86
1 -2 2 54.46 2
-1 2 -2 51.48 2.58
-1 2 -2 49.31 1.89
1 -2 2 55.47 2.16
1 -2 2 53.71 2.35
1 -2 2 57.69 2.75
1 -2 2 49.7 2.04
-1 2 -2 55.42 2.07
1 -2 3 25.22 1.38
-1 2 -3 27.75 1.58
-1 2 -3 27 1.3
1 -2 3 27.7 1.44
1 -2 3 26.45 1.52
1 -2 3 27.32 2.06
1 -2 3 28.45 1.6
-1 2 -3 31.47 2.18
1 -2 3 28.42 1.82
-1 2 -4 11.84 1.13
-1 2 -4 12.5 1.49
1 -2 4 13.94 1.16
1 -2 4 11.81 0.96
1 -2 4 12.18 0.99
1 -2 5 1.25 0.36
-1 2 -5 1.13 0.29
1 -2 5 0.17 0.26
-1 2 -5 1.14 0.46
-1 2 -5 2.07 0.79
1 -2 5 0.96 0.32
-1 2 -6 75.76 3.52
-1 2 -6 65.88 2.48
1 -2 6 67.83 3.02
-1 2 -6 76.18 4.27
1 -2 6 72.46 2.55
1 -2 6 71.3 2.46
-1 2 -7 54.63 3.88
1 -2 7 50.17 1.83
1 -2 7 54.55 2.85
1 -2 7 51.46 2.57
-1 2 -7 54.86 3.21
1 -2 8 2.77 0.73
1 -2 8 2.68 0.66
-1 2 -8 2.13 0.73
-1 2 -8 1.39 1
1 -2 9 -0.39 0.35
1 -2 9 0.45 0.44
-1 2 -9 -0.27 0.78
-1 2 -10 5.65 1.52
1 -2 10 2.9 0.76
1 -2 10 4.28 0.96
-1 2 -11 0.27 0.65
1 -2 11 0.49 0.5
1 -2 11 0.16 0.41
1 -2 12 3.74 1.06
-1 2 -12 3.22 0.89
-1 2 -12 3.69 1.43
-1 2 -13 5.1 1.23
1 -2 13 3.93 1.32
-1 2 -13 7.36 2.03
-1 1 14 1.4 0.9
-1 1 13 0.65 0.6
1 -1 -13 1.8 0.93
1 -1 -12 -0.68 0.69
1 -1 -12 3.07 1.06
-1 1 12 3.42 1.01
-1 1 11 1.66 0.7
1 -1 -11 1.41 0.76
1 -1 -11 1.33 0.68
-1 1 11 1.38 0.76
-1 1 10 5.75 1.12
1 -1 -10 6.48 1.23
-1 1 10 5.77 1.17
1 -1 -10 3.39 1.1
1 -1 -9 57.51 3.35
1 -1 -9 53.32 3.73
-1 1 9 54.05 3.21
-1 1 9 52.8 3.32
-1 1 8 8.89 1.24
1 -1 -8 7.6 1.32
-1 1 8 8.57 1.28
-1 1 7 7.59 1.14
1 -1 -7 6.32 0.49
-1 1 7 5.82 0.9
1 -1 -7 3.44 1.04
1 -1 -7 6.05 1.13
1 -1 -7 6.64 0.54
1 -1 -6 140.26 3.29
1 -1 -6 143.05 3.49
1 -1 -6 140.83 4.98
-1 1 6 141.98 4.37
1 -1 -6 141.65 4.2
1 -1 -6 137.85 5.69
-1 1 6 147.83 4.83
1 -1 -5 303.17 5.82
-1 1 5 306.55 7.3
1 -1 -5 305.71 8.3
-1 1 5 305.39 6.69
1 -1 -5 308.69 6.51
1 -1 -5 303.49 7.32
1 -1 -5 302.58 6.16
-1 1 4 63.43 2.21
1 -1 -4 61.43 2.11
-1 1 4 58.59 2.87
1 -1 -4 61.81 1.96
-1 1 4 62.03 2.59
1 -1 -4 63.13 3.03
1 -1 -4 60.48 2.13
1 -1 -4 60.59 2.59
1 -1 -3 2.5 0.5
1 -1 -3 2.94 0.48
1 -1 -3 2.95 0.47
1 -1 -3 3.18 0.4
1 -1 -3 2.52 0.34
1 -1 -3 2.57 0.4
1 -1 -3 2.14 0.56
-1 1 3 2.78 0.52
1 -1 -3 2.7 0.48
-1 1 3 1.8 0.47
1 -1 -3 2.72 0.44
-1 1 3 2.73 0.39
1 -1 -2 2161.88 32.75
1 -1 -2 2169.53 33
1 -1 -2 2263.42 33.43
1 -1 -2 2118.82 32.12
1 -1 -2 2152.39 32.73
1 -1 -2 2105.27 32.66
-1 1 2 2217.11 32.12
1 -1 -2 2169.12 32.32
1 -1 -2 2211.72 31.88
-1 1 2 2195.88 33.07
1 -1 -2 2207.94 33.09
-1 1 2 2163.06 33.22
-1 1 1 117.9 2.99
-1 1 1 121.22 2.7
-1 1 1 118.84 2.63
-1 1 1 118.32 2.8
1 -1 -1 116.13 3.12
1 -1 -1 121.57 2.98
1 -1 -1 126.87 2.36
-1 1 1 122.38 2.51
1 -1 -1 118.42 2.95
-1 1 1 118.82 2.86
1 -1 -1 115.65 2.87
1 -1 -1 121.22 2.6
-1 1 1 121.26 2.98
1 -1 -1 120.47 2.85
1 -1 -1 115.99 2.76
-1 1 1 120.75 2.87
-1 1 1 121.22 2.32
1 -1 -1 116.79 2.69
1 -1 0 77 2.27
-1 1 0 75.51 2.22
-1 1 0 74.8 1.8
-1 1 0 72.18 2.14
-1 1 0 73.31 1.71
-1 1 0 74.34 2
-1 1 0 76.26 2.11
1 -1 0 74.86 1.81
-1 1 0 74.32 2.18
1 -1 0 73.82 2
1 -1 0 78.87 2.01
1 -1 0 74.99 2.31
1 -1 0 76.85 2.33
-1 1 0 76.28 2.4
1 -1 0 75.07 2.18
1 -1 0 76.2 1.81
-1 1 0 75.52 2.25
-1 1 0 77.25 1.94
-1 1 -1 996.55 15.68
1 -1 1 976.83 15.99
1 -1 1 1018.15 16.12
1 -1 1 965.42 16.45
-1 1 -1 980.05 16.36
1 -1 1 1011.38 16.22
-1 1 -1 1005.26 15.79
-1 1 -1 994.21 15.82
1 -1 1 994.2 15.74
1 -1 1 1022.84 14.95
1 -1 1 991.14 15.81
-1 1 -1 994.13 16.03
1 -1 1 1042.83 16.02
-1 1 -1 1013.55 15.84
1 -1 2 27.01 1.41
1 -1 2 25.02 1.27
1 -1 2 26.15 1.65
1 -1 2 28.96 1.32
-1 1 -2 26.68 1.66
1 -1 2 26.68 1.33
-1 1 -2 25.92 1.27
-1 1 -2 25.92 1.23
-1 1 -2 28.09 1.49
-1 1 -2 24.99 1.22
-1 1 -3 107.43 3.5
1 -1 3 101.99 2.9
1 -1 3 104.84 3.13
1 -1 3 103.89 3.88
-1 1 -3 103.76 3.87
-1 1 -3 105.18 2.83
1 -1 3 106.84 3.07
1 -1 3 102.61 2.87
-1 1 -3 99.78 2.68
-1 1 -3 102.19 3.02
1 -1 4 17.96 1.26
1 -1 4 19.86 1.11
1 -1 4 21.1 1.83
-1 1 -4 20.52 1.57
-1 1 -4 17.74 0.97
1 -1 4 16.65 1.11
-1 1 -4 17.68 1.3
-1 1 -4 21.16 1.85
-1 1 -5 29.01 2.36
1 -1 5 26.82 1.27
1 -1 5 29.12 1.73
1 -1 5 26.94 1.44
-1 1 -5 27.87 1.84
-1 1 -5 28.16 1.18
1 -1 5 27.25 1.41
-1 1 -6 33.72 2.76
1 -1 6 35.32 1.32
-1 1 -6 34.27 2.26
1 -1 6 33.47 1.8
1 -1 6 32.42 1.96
-1 1 -7 268.97 9.02
-1 1 -7 291.9 7.95
1 -1 7 271.69 6.66
1 -1 7 268.32 7.07
-1 1 -8 -0.48 0.78
1 -1 8 -0.19 0.38
1 -1 8 -0.07 0.35
1 -1 9 55.86 3.24
-1 1 -9 53.31 4.27
1 -1 9 60.32 3.07
1 -1 10 14.05 1.72
-1 1 -10 13.33 2.26
1 -1 10 13.03 1.5
1 -1 11 8.25 1.26
1 -1 11 8.2 1.39
-1 1 -11 8.74 1.93
1 -1 12 4.87 1.2
-1 1 -12 6.2 1.76
1 -1 12 5.64 1.49
-1 1 -13 14.63 2.77
1 -1 13 14.66 2.14
1 -1 13 16.02 2.52
-1 1 -14 9.04 2.29
1 -1 14 13.82 2.5
-1 1 -14 9.97 1.76
-1 0 14 0.97 0.7
1 0 -13 0.96 0.64
1 0 -13 1.09 0.78
-1 0 13 0.68 0.66
-1 0 12 1.64 0.87
1 0 -12 -0.16 0.49
-1 0 11 0.21 0.45
1 0 -11 0.25 0.53
1 0 -11 1.74 0.82
1 0 -10 2.73 0.95
1 0 -10 1.68 0.8
-1 0 10 2.51 0.87
-1 0 9 -0.08 0.49
1 0 -9 1.64 0.63
1 0 -9 0.95 0.7
-1 0 8 9.96 1.38
-1 0 8 10.38 1.28
1 0 -8 9.43 1.45
1 0 -8 12.32 1.44
-1 0 7 12.75 1.45
1 0 -7 12.86 1.38
-1 0 7 12.78 1.32
1 0 -7 10.12 1.42
-1 0 6 25.46 1.72
1 0 -6 25.61 1.66
1 0 -6 23.84 1.94
1 0 -6 29.49 1.94
-1 0 6 29.73 2.06
1 0 -5 332.05 7.12
1 0 -5 365.6 7.74
1 0 -5 356.06 6.15
-1 0 5 333.84 7.3
-1 0 5 352.18 8.06
1 0 -5 331.33 7.98
-1 0 4 73.12 2.04
1 0 -4 71.7 2.06
1 0 -4 71.87 3.27
1 0 -4 71.64 2.64
-1 0 4 73.59 2.88
1 0 -4 70.62 2.29
1 0 -4 72.48 2.72
-1 0 4 72.71 2.39
-1 0 4 67.91 3.14
1 0 -4 66.37 2.6
1 0 -3 3525.24 51.64
-1 0 3 3507.63 52.87
1 0 -3 3601.04 51.95
1 0 -3 3571.08 51.02
1 0 -3 3562.69 51.02
-1 0 3 3533.98 51.3
-1 0 3 3489.88 50.81
-1 0 3 3577.57 52.33
1 0 -3 3483.03 51.45
1 0 -3 3494.99 52.99
1 0 -3 3430.97 51.98
1 0 -3 3422.27 52.39
1 0 -3 3474.52 51.33
-1 0 3 3551.36 51.15
1 0 -2 0.21 0.15
1 0 -2 0.13 0.1
1 0 -2 0.24 0.21
1 0 -2 0.19 0.25
1 0 -2 -0.08 0.23
1 0 -2 -0.07 0.2
-1 0 2 0.03 0.2
-1 0 2 -0.03 0.24
-1 0 2 0.05 0.24
1 0 -2 0.18 0.3
1 0 -2 -0.08 0.2
-1 0 2 0.49 0.27
-1 0 2 -0.04 0.27
-1 0 2 0.14 0.12
-1 0 2 0.1 0.16
1 0 -2 -0.06 0.19
1 0 -1 39.45 1.47
1 0 -1 38.91 1.47
-1 0 1 38.31 1.25
-1 0 1 38.88 1.42
1 0 -1 39.68 1.53
-1 0 1 39.51 1.55
-1 0 1 37.81 1.43
1 0 -1 41.46 1.58
1 0 -1 39.67 1.28
-1 0 1 38.42 1.23
1 0 -1 39.25 1.25
-1 0 1 37.28 1.36
1 0 -1 38.38 1.46
-1 0 1 41.75 1.49
-1 0 1 39.36 1.49
-1 0 0 26.73 1.02
1 0 0 27.55 1.24
-1 0 0 25.77 0.78
-1 0 0 26.07 1.2
1 0 0 25.61 1
1 0 0 25.92 1.21
1 0 0 24.81 1.15
-1 0 0 25.07 1.22
-1 0 0 25.03 1.15
1 0 0 26.33 1.35
-1 0 0 24.21 0.85
-1 0 0 26.49 1.35
-1 0 0 23.08 1.18
1 0 0 25.4 1.18
1 0 1 155.63 3.61
-1 0 -1 158.25 3.67
1 0 1 153.99 3.67
1 0 1 166.52 3.73
1 0 1 157.34 3.98
-1 0 -1 161 3.66
-1 0 -1 160.02 3.37
1 0 1 165.63 3.23
-1 0 -1 161.58 3.14
1 0 1 165.18 3.38
-1 0 -1 159.05 3.64
-1 0 -1 158.08 3.9
1 0 1 167.55 3.7
-1 0 -1 156.11 3.61
-1 0 -2 1180.24 18.64
-1 0 -2 1192.98 19.61
1 0 2 1206.63 19.38
-1 0 -2 1214.56 19.15
-1 0 -2 1175.05 18.26
1 0 2 1191.69 18.6
-1 0 -2 1172.55 18.67
1 0 2 1181.09 18.79
-1 0 -2 1228.23 18.92
1 0 2 1189.01 18.27
1 0 2 1188.04 19.53
1 0 2 1200.02 18.94
-1 0 -2 1212.57 18.74
1 0 2 1190.45 19.03
1 0 2 1221.73 18.93
1 0 3 36.25 1.93
1 0 3 37.48 1.52
-1 0 -3 36.31 1.45
-1 0 -3 34.46 1.52
-1 0 -3 35.31 1.74
1 0 3 35.16 1.62
1 0 3 36.1 1.11
-1 0 -3 33.41 2.02
1 0 3 38.03 1.88
-1 0 -3 35.56 1.49
1 0 3 36.16 1.79
1 0 3 36.66 2.04
1 0 3 33.31 1.36
1 0 4 3.03 0.39
1 0 4 3.37 0.42
1 0 4 3.76 0.59
-1 0 -4 3.73 0.49
1 0 4 4.69 0.83
1 0 4 4.46 0.75
-1 0 -4 3.01 0.57
-1 0 -4 3.41 0.43
-1 0 -4 4.51 0.66
-1 0 -4 3.72 0.85
1 0 4 3.05 0.71
1 0 4 3.47 0.56
1 0 5 6.3 0.81
1 0 5 5.83 0.92
-1 0 -5 4.06 0.69
-1 0 -5 6.23 0.52
-1 0 -5 5.87 0.6
-1 0 -5 8.49 1.27
1 0 5 6.25 0.65
-1 0 -6 93.44 3.69
1 0 6 88.81 3.34
1 0 6 83.75 3.74
-1 0 -6 85.45 4.34
-1 0 -6 81.39 2.4
1 0 6 82.28 2.85
1 0 7 1.04 0.54
-1 0 -7 1.41 0.8
1 0 7 2.14 0.58
-1 0 -7 1.82 0.29
1 0 7 1.48 0.42
-1 0 -8 -0.54 0.8
1 0 8 0.26 0.32
1 0 8 0.62 0.48
1 0 8 0.36 0.39
1 0 9 2.59 0.76
-1 0 -9 1.17 0.88
1 0 9 3.26 0.71
1 0 9 3.37 0.91
1 0 10 24.97 2.53
1 0 10 24.22 2.56
-1 0 -10 20.62 2.78
1 0 10 25.64 2.3
1 0 10 23.67 1.97
1 0 11 3.46 0.82
-1 0 -11 2.8 1.3
1 0 11 3.83 1.04
1 0 11 2.12 0.85
1 0 12 2.8 1.05
-1 0 -12 1.45 0.92
1 0 12 2.53 0.87
-1 0 -13 33.79 4.12
1 0 13 26.94 3.17
1 0 13 32.13 3.07
1 0 14 3.06 1.04
-1 0 -14 1.84 1.19
-1 -1 13 -0.36 0.58
1 1 -13 -1.5 0.9
1 1 -13 0.29 0.55
1 1 -12 0.44 0.49
-1 -1 12 1.02 0.63
1 1 -11 0.13 0.55
-1 -1 11 0.16 0.49
1 1 -11 -0.07 0.47
-1 -1 10 -0.73 0.68
1 1 -10 0.41 0.45
1 1 -10 0.57 0.56
1 1 -9 21.01 2.05
1 1 -9 19 2.23
-1 -1 9 22.8 2.24
1 1 -8 25.26 2.41
1 1 -8 28.63 2.24
-1 -1 8 31.94 2.51
1 1 -7 2.03 0.63
-1 -1 7 1.82 0.65
1 1 -7 1.69 0.59
-1 -1 6 54.97 1.52
1 1 -6 59.39 2.81
-1 -1 6 58.29 3.04
1 1 -6 53.59 3.03
-1 -1 5 290.79 5.62
1 1 -5 305.38 7.45
1 1 -5 308.81 7.04
1 1 -5 280.4 6.53
-1 -1 5 307.14 7.45
-1 -1 5 300.33 7.52
1 1 -4 39.19 2.02
-1 -1 4 41.71 1.61
-1 -1 4 38.1 2.07
-1 -1 4 42.24 1.36
1 1 -4 40.06 2
1 1 -4 37.16 1.73
1 1 -4 43.47 2.13
-1 -1 4 42.29 2.56
1 1 -3 266.69 5.37
1 1 -3 284.44 6.72
-1 -1 3 274.76 6.76
-1 -1 3 274.7 5.5
-1 -1 3 279.1 5.98
-1 -1 3 271.53 5.81
-1 -1 3 268.67 5.2
1 1 -3 270.15 5.97
1 1 -3 267.76 5.84
1 1 -3 277.15 5.82
1 1 -3 268.1 6.07
1 1 -2 9999 140.48
-1 -1 2 9795.93 140.23
-1 -1 2 9939.11 139.75
-1 -1 2 9933.54 139.95
-1 -1 2 9980.04 140.04
1 1 -2 9748.96 139.52
1 1 -2 9422.29 139.93
1 1 -2 9709.14 140.43
1 1 -1 3.57 0.33
-1 -1 1 5.36 0.56
-1 -1 1 3.14 0.48
-1 -1 1 3.06 0.33
1 1 -1 3.46 0.44
1 1 -1 3.42 0.53
-1 -1 1 3.13 0.47
-1 -1 1 3.1 0.5
-1 -1 1 3.19 0.42
1 1 -1 2.27 0.42
-1 -1 0 0.29 0.17
-1 -1 0 0.58 0.29
-1 -1 0 0.43 0.14
1 1 0 0.23 0.19
1 1 0 0.25 0.13
-1 -1 0 0.23 0.17
-1 -1 0 0.3 0.13
-1 -1 0 0.74 0.31
1 1 0 0.43 0.24
-1 -1 0 0.16 0.16
1 1 0 0.41 0.14
1 1 0 0.28 0.22
1 1 1 2043.43 30.37
-1 -1 -1 2015.85 30.33
-1 -1 -1 2015.65 29.78
-1 -1 -1 1970.71 30.17
1 1 1 1992.95 30.25
-1 -1 -1 2048.05 29.97
1 1 1 2029.57 29.96
1 1 1 2044.39 31.23
-1 -1 -1 1994.4 31.19
1 1 1 2018.27 29.76
1 1 2 335.73 7.06
-1 -1 -2 330.95 6.39
-1 -1 -2 344.79 6.44
1 1 2 342.89 6.4
-1 -1 -2 330.48 5.7
-1 -1 -2 331.26 6.89
1 1 2 329.45 5.62
1 1 2 338.84 5.64
1 1 2 346.34 6.5
-1 -1 -2 349.01 6.31
-1 -1 -2 329.61 6.46
1 1 2 335.66 6.42
-1 -1 -2 336.97 5.61
-1 -1 -3 24.55 1.19
1 1 3 26.54 1.17
1 1 3 26.44 1.37
-1 -1 -3 25.85 1.28
-1 -1 -3 24.24 1.53
1 1 3 25.94 1.55
-1 -1 -3 25.59 1.01
-1 -1 -3 24.66 1.4
1 1 3 27.02 1.6
1 1 3 24.7 1.44
-1 -1 -3 28.51 1.5
1 1 3 26.98 1.03
-1 -1 -4 552.88 10.46
-1 -1 -4 532.83 11.12
1 1 4 528.17 10.54
-1 -1 -4 523.6 9.41
1 1 4 526.25 10.46
-1 -1 -4 547.25 11.45
1 1 4 600.92 10.27
-1 -1 -4 530.84 9.26
1 1 4 537.04 11.04
1 1 4 543.18 9.15
1 1 4 532.84 9.75
1 1 5 88.29 2.64
-1 -1 -5 88.41 4.02
-1 -1 -5 85.61 2.54
1 1 5 86.56 3.04
1 1 5 88.03 3.45
-1 -1 -5 86.38 3.91
1 1 5 86.41 3.42
-1 -1 -5 90.04 2.76
-1 -1 -6 76.87 2.3
-1 -1 -6 69.76 3.87
-1 -1 -6 75.7 2.55
1 1 6 74.91 2.64
-1 -1 -6 71.88 3.85
1 1 6 69.67 3.22
1 1 6 71.72 3.37
-1 -1 -6 69.1 2.66
-1 -1 -7 2.51 0.9
1 1 7 2.37 0.71
1 1 7 2.8 0.57
-1 -1 -7 2.99 0.38
-1 -1 -7 2.44 0.45
1 1 7 3.06 0.76
1 1 8 11.23 1.45
-1 -1 -8 9.4 0.75
1 1 8 10.81 1.15
-1 -1 -8 14.69 2.02
1 1 8 11.75 1.56
1 1 9 40.34 2.94
-1 -1 -9 40.02 3.58
1 1 9 45.12 2.92
1 1 9 42.25 3.15
1 1 9 45.46 2.54
1 1 10 13.14 1.89
1 1 10 14.06 1.74
-1 -1 -10 14.92 2.36
1 1 10 13.69 1.49
1 1 10 11.61 1.69
1 1 11 -0.47 0.58
-1 -1 -11 0.56 0.84
1 1 11 -0.43 0.51
1 1 11 0.5 0.5
1 1 11 -0.1 0.58
1 1 12 1.17 0.73
1 1 12 3.4 1.04
-1 -1 -12 2.68 1.24
1 1 12 2.67 0.76
1 1 12 1.59 0.92
-1 -1 -13 4.67 1.68
1 1 13 5.09 1.32
-1 -1 -14 49.77 5.19
1 1 14 41.27 3.72
-1 -2 13 0.25 0.72
1 2 -13 1.68 0.86
1 2 -13 2.33 1.1
-1 -2 12 3.1 1.08
1 2 -12 3.78 1.15
1 2 -12 2.22 0.85
1 2 -11 1.25 0.81
1 2 -11 1.8 0.9
-1 -2 11 3.87 1.1
1 2 -10 -0.16 0.58
-1 -2 10 0.08 0.45
1 2 -10 0.82 0.64
-1 -2 9 5.88 1.22
1 2 -9 5.13 1.11
1 2 -9 6.3 1.31
1 2 -8 0.58 0.47
-1 -2 8 0.99 0.63
1 2 -8 0.82 0.53
-1 -2 7 -0.08 0.12
1 2 -7 0.06 0.4
1 2 -7 0.4 0.38
-1 -2 7 -0.38 0.53
1 2 -6 22.31 1.95
-1 -2 6 19.26 1.13
-1 -2 6 17.3 0.71
1 2 -6 18.91 1.62
1 2 -5 225.35 5.92
-1 -2 5 236.24 5.2
1 2 -5 233.93 6.15
-1 -2 5 232.95 6.83
1 2 -5 234.33 6.6
1 2 -4 0.07 0.3
-1 -2 4 0.4 0.32
1 2 -4 0.25 0.37
-1 -2 4 0.22 0.3
1 2 -4 0.01 0.24
-1 -2 4 0.13 0.23
-1 -2 3 391.31 8.3
1 2 -3 386.57 7.96
1 2 -3 385.3 8.08
-1 -2 3 389.44 7.49
-1 -2 3 386.46 7.77
1 2 -3 382.7 8.11
1 2 -3 382.25 7.95
-1 -2 3 383.1 7.77
1 2 -2 862.29 14.47
-1 -2 2 872.82 14.97
-1 -2 2 851.69 14.68
1 2 -2 875.21 14.73
1 2 -2 861.82 15
-1 -2 2 877.67 14.27
1 2 -2 883.73 15.76
-1 -2 2 868.42 14.47
-1 -2 2 865.26 14.78
1 2 -1 1251.31 21.19
-1 -2 1 1259.6 19.58
-1 -2 1 1274.33 19.54
1 2 -1 1287.34 20.32
-1 -2 1 1314.99 20.27
1 2 -1 1314.03 20.34
-1 -2 1 1285.13 20.58
1 2 -1 1265.57 20.77
-1 -2 1 1281.96 20.25
1 2 -1 1322.72 20.09
-1 -2 1 1324.08 21.2
-1 -2 1 1287.24 20.42
-1 -2 0 33.86 1.7
1 2 0 32.24 1.68
-1 -2 0 33.71 1.42
1 2 0 33.23 1.38
-1 -2 0 32.56 0.9
1 2 0 32.63 1.29
1 2 0 34.17 1.46
-1 -2 0 33.16 1.4
1 2 0 31.36 1.22
-1 -2 0 29.59 1.13
-1 -2 -1 0.2 0.18
1 2 1 -0.05 0.23
1 2 1 -0.29 0.24
-1 -2 -1 0.18 0.21
1 2 1 0.49 0.24
-1 -2 -1 0.27 0.26
1 2 1 0.05 0.26
-1 -2 -1 0.06 0.24
-1 -2 -1 -0.08 0.18
1 2 2 894.56 13.35
1 2 2 916.37 14.64
-1 -2 -2 870.91 14.61
1 2 2 901.81 14.64
-1 -2 -2 878.67 14.85
-1 -2 -2 887.4 15.42
-1 -2 -2 901.34 14.68
1 2 2 871.88 14.85
-1 -2 -2 875.28 14.29
1 2 2 913.28 14.44
-1 -2 -3 429.84 8.77
1 2 3 417.36 7.37
1 2 3 441.38 8.77
-1 -2 -3 439.57 8.35
-1 -2 -3 419.03 8.49
-1 -2 -3 413.87 8.01
1 2 3 430.37 7.75
1 2 3 436.25 8.36
1 2 3 417.89 8.75
-1 -2 -3 414.56 7.62
-1 -2 -4 534.94 10.01
1 2 4 531.99 10.42
1 2 4 534.02 10.96
1 2 4 521.59 9.46
-1 -2 -4 531.68 11.06
1 2 4 534.72 10.59
-1 -2 -4 544.45 10.36
-1 -2 -4 524.67 9.4
1 2 4 521.08 9.42
1 2 5 9.82 0.86
1 2 5 9.35 0.91
-1 -2 -5 9.54 1.31
-1 -2 -5 9.26 0.86
1 2 5 8.66 1.08
1 2 5 8.57 1.04
-1 -2 -6 16.51 1.83
1 2 6 17.52 1.27
-1 -2 -6 20.89 1.32
-1 -2 -6 18.94 1.37
1 2 6 17.6 1.59
1 2 6 21.1 1.76
-1 -2 -7 10.94 0.94
-1 -2 -7 15.07 1.92
1 2 7 13.94 1.5
-1 -2 -7 14.63 1.9
1 2 7 12.13 1.13
1 2 7 12.1 1.44
-1 -2 -8 11.43 1.82
1 2 8 12.15 1.55
-1 -2 -8 11.38 1.82
-1 -2 -8 11.99 0.94
1 2 8 14.97 1.66
1 2 8 13.46 1.29
1 2 9 5.7 1.2
1 2 9 6.03 0.95
-1 -2 -9 4.98 1.26
-1 -2 -9 4.07 1.29
1 2 9 4.36 1.04
1 2 10 22.05 1.89
1 2 10 17.02 2.11
-1 -2 -10 22.39 2.89
1 2 10 19.16 2.14
1 2 11 5.94 1.25
1 2 11 5.65 1.07
-1 -2 -11 5.25 1.49
1 2 11 5.67 1.26
1 2 11 4.1 1.19
1 2 12 1.29 0.82
1 2 12 0.57 0.46
1 2 12 -1.92 0.88
-1 -2 -12 0.46 0.83
1 2 12 0.63 0.51
1 2 13 2.7 1.14
-1 -2 -13 1.48 1.17
1 2 13 2.83 0.89
1 2 14 1.6 0.86
-1 -2 -14 0.81 0.98
1 2 14 3.65 1.35
-1 -3 13 1.49 0.78
-1 -3 12 -1 0.72
1 3 -12 0.14 0.5
1 3 -12 0.54 0.67
1 3 -11 4.08 1.16
1 3 -11 6.48 1.57
1 3 -11 2.35 0.98
-1 -3 11 3.18 1.05
1 3 -10 1.69 0.74
1 3 -10 1.19 0.7
1 3 -10 0.4 0.52
-1 -3 10 0.86 0.75
-1 -3 10 1.04 0.44
1 3 -9 4.79 1.21
-1 -3 9 3.41 0.98
1 3 -9 4.08 1.06
-1 -3 8 19.65 2.12
1 3 -8 18.59 2.14
1 3 -8 18.44 1.91
-1 -3 7 1.38 0.38
1 3 -7 1.04 0.48
1 3 -7 1.58 0.65
-1 -3 7 0.89 0.18
1 3 -6 9.29 1.22
-1 -3 6 8.22 0.84
1 3 -6 7.93 1.28
-1 -3 5 12.01 1.14
1 3 -5 11.29 1.27
1 3 -5 10.39 1.31
1 3 -5 11.62 1.28
-1 -3 5 9.15 1.36
1 3 -4 409.38 9.35
-1 -3 4 412.02 9.81
1 3 -4 416.59 9.17
1 3 -4 410.28 9.12
-1 -3 4 412.04 8.52
-1 -3 3 4.93 0.61
1 3 -3 5.06 0.79
1 3 -3 4.37 0.76
-1 -3 3 4.29 0.79
1 3 -3 3.73 0.69
-1 -3 3 4.3 0.63
-1 -3 3 4.84 0.7
-1 -3 3 4.24 0.83
1 3 -2 191.34 5.14
-1 -3 2 196.54 3.73
-1 -3 2 193.96 4.51
-1 -3 2 200.86 5.43
1 3 -2 193.7 4.67
-1 -3 2 196.53 4.7
-1 -3 2 192.58 4.92
1 3 -2 191.35 5.01
1 3 -2 197.79 5.13
-1 -3 2 196.09 5.38
1 3 -1 109.42 2.81
1 3 -1 107.41 3.85
1 3 -1 107.93 3.48
-1 -3 1 107.04 3.47
-1 -3 1 106.78 3.31
1 3 -1 105.4 3.25
-1 -3 1 107.11 3.53
-1 -3 1 111.58 2.73
-1 -3 1 109.34 3.25
-1 -3 1 105.9 2.13
-1 -3 1 108.61 3.78
1 3 0 64.56 2.46
-1 -3 0 64.79 2.26
-1 -3 0 70.3 2.6
1 3 0 65.46 1.86
-1 -3 0 66.32 2.51
1 3 0 63.76 2.71
1 3 0 64.93 2.35
-1 -3 0 66.53 2.73
-1 -3 0 65.05 1.67
1 3 0 64.51 1.67
1 3 1 137.28 3.67
1 3 1 138.24 2.42
-1 -3 -1 136.42 3.89
-1 -3 -1 132.79 3.94
-1 -3 -1 134.72 3.47
1 3 1 136.49 4.07
1 3 1 135.34 3.61
1 3 1 136.93 3.83
1 3 1 134.89 3.14
1 3 2 115.38 2.98
-1 -3 -2 108.2 3.53
1 3 2 107.14 3.26
1 3 2 106.7 3.45
1 3 2 108.85 3.15
-1 -3 -2 101.34 3.16
-1 -3 -2 106.64 3.05
-1 -3 -2 105.88 3.29
-1 -3 -2 107.46 3.44
-1 -3 -3 2.15 0.5
-1 -3 -3 2.37 0.45
1 3 3 2.14 0.5
-1 -3 -3 1.73 0.4
1 3 3 2.47 0.47
1 3 3 1.46 0.42
-1 -3 -3 2.48 0.56
-1 -3 -3 1.45 0.58
1 3 3 3.68 0.69
-1 -3 -4 265.83 6.22
-1 -3 -4 263.85 7.04
-1 -3 -4 257.75 5.93
1 3 4 260.02 6.47
-1 -3 -4 267.3 5.96
1 3 4 257.89 6.44
1 3 4 278.84 6.13
-1 -3 -5 351.44 7.66
1 3 5 366.64 8.41
1 3 5 353.54 7.45
1 3 5 360.73 8.4
-1 -3 -5 359.24 9.27
1 3 5 367.82 7.76
-1 -3 -5 390.83 7.73
-1 -3 -5 357.4 7.65
-1 -3 -6 13.33 1.68
1 3 6 14.85 1.46
1 3 6 14.21 1.51
1 3 6 12.73 1.17
1 3 7 6.89 1.07
1 3 7 6.85 1.11
-1 -3 -7 5.85 1.23
1 3 7 7.13 0.95
1 3 8 2.73 0.65
-1 -3 -8 3.09 1.02
1 3 8 2.62 0.8
-1 -3 -8 3.38 1.09
1 3 8 3.87 0.86
1 3 9 21.85 1.81
1 3 9 20.94 2.18
-1 -3 -9 28.05 3.04
1 3 9 20.99 2.09
-1 -3 -9 19.87 2.54
1 3 10 4.32 1.02
1 3 10 3.05 0.8
1 3 10 3.06 0.94
-1 -3 -10 2.88 1.17
-1 -3 -10 5.91 1.58
1 3 11 11.35 1.48
1 3 11 12.08 1.91
-1 -3 -11 10.52 2.12
-1 -3 -11 10.4 2.14
1 3 11 10.03 1.67
1 3 12 7.46 1.25
1 3 12 7.17 1.56
1 3 12 7.59 1.46
-1 -3 -12 4.88 1.67
1 3 13 0.98 0.82
1 3 13 1.21 0.74
-1 -3 -13 1.5 0.99
1 3 14 5.18 1.56
-1 -3 -14 0.05 0.83
1 3 14 6.42 1.59
-1 -4 12 0.75 0.8
-1 -4 11 16.17 2.63
-1 -4 11 11.05 1.91
1 4 -11 9.67 1.79
1 4 -11 11.32 1.89
1 4 -10 5.87 1.35
1 4 -10 6.38 1.43
-1 -4 10 7.94 1.84
1 4 -10 4.95 1.22
-1 -4 10 8.79 1.61
1 4 -9 10.11 1.61
1 4 -9 8.67 1.54
1 4 -9 11.77 1.87
-1 -4 9 6.24 1.55
-1 -4 9 10.63 1.69
1 4 -8 4.21 1.02
-1 -4 8 2.65 0.98
-1 -4 8 3.47 0.64
1 4 -8 2.91 0.87
1 4 -8 2.08 0.82
1 4 -7 5.86 1.23
-1 -4 7 4.36 1.16
1 4 -7 7.22 1.22
1 4 -7 5.39 1.11
-1 -4 7 6.16 0.74
1 4 -6 4.5 0.91
-1 -4 6 4.78 1.14
1 4 -6 4.56 1.02
1 4 -6 4.55 0.94
-1 -4 5 18.04 1.43
1 4 -5 15.56 1.68
1 4 -5 15.92 1.59
-1 -4 5 14.48 1.75
1 4 -5 14.96 1.58
1 4 -4 11.24 1.37
1 4 -4 14.21 1.44
1 4 -4 10.12 1.2
-1 -4 4 11.98 1.16
-1 -4 4 9.93 1.41
-1 -4 3 53.36 2.98
-1 -4 3 50.88 2.4
1 4 -3 47.06 2.5
1 4 -3 54.78 2.81
1 4 -3 52.35 2.44
-1 -4 3 49.72 2.07
1 4 -3 51 2.62
-1 -4 2 288.1 6.39
-1 -4 2 292.62 7.64
1 4 -2 287.34 7.23
1 4 -2 286.6 6.86
-1 -4 2 292.29 6.25
1 4 -2 298.18 6.98
-1 -4 2 294.87 6.83
1 4 -2 292.92 6.39
-1 -4 1 74.76 2.37
1 4 -1 76.04 2.38
-1 -4 1 77.18 3.32
-1 -4 1 79.53 3.31
-1 -4 1 72.86 2.78
1 4 -1 72.98 2.85
-1 -4 0 128.3 4.21
-1 -4 0 127.02 3.68
1 4 0 131.59 3.84
-1 -4 0 132.29 4.34
-1 -4 0 132.93 4.37
1 4 0 123.85 4.14
1 4 0 128.55 4.42
1 4 0 126.18 2.9
-1 -4 0 127.65 3.04
1 4 0 130.37 2.89
1 4 1 78.13 1.91
-1 -4 -1 80.47 3.23
-1 -4 -1 81.27 2.66
1 4 1 77.47 2.23
1 4 1 80.79 2.84
1 4 1 77.78 3.13
1 4 1 78.88 2.99
-1 -4 -1 74.07 3.02
1 4 1 76.08 3.17
-1 -4 -2 131.52 4.38
1 4 2 128.28 4.03
-1 -4 -2 120.29 3.96
1 4 2 132.27 2.84
-1 -4 -2 127.69 3.52
1 4 2 131.22 4.29
1 4 2 133.41 3.75
-1 -4 -3 105.2 3.23
1 4 3 111.21 3.38
-1 -4 -3 103.02 4.02
-1 -4 -3 108.46 3.85
-1 -4 -3 111.67 3.73
1 4 3 111.4 3.76
-1 -4 -4 105.97 3.68
1 4 4 101.7 3.78
-1 -4 -4 107.37 3.37
-1 -4 -4 105.12 4.26
1 4 4 105.2 3.7
1 4 5 92.33 3.5
-1 -4 -5 93.51 3.29
-1 -4 -5 87.12 4.17
1 4 5 95.17 3.8
-1 -4 -5 90.63 3.23
1 4 6 486.08 11.02
-1 -4 -6 472.65 9.91
1 4 6 480.92 10.43
1 4 6 498.48 10.4
-1 -4 -6 498.24 12.33
1 4 7 1.16 0.48
-1 -4 -7 1.33 0.73
1 4 7 1.22 0.5
1 4 7 1.98 0.76
-1 -4 -8 5.97 1.39
1 4 8 6.92 1.14
1 4 8 4.47 1
1 4 8 5.84 0.99
1 4 9 13.52 1.79
1 4 9 16.23 1.76
1 4 9 13.88 1.52
-1 -4 -9 20.32 2.62
1 4 10 15.17 1.7
-1 -4 -10 13.4 2.26
1 4 10 13.36 1.89
1 4 10 11.28 1.59
-1 -4 -10 10.04 1.94
1 4 11 0.41 0.5
-1 -4 -11 -0.24 0.82
1 4 11 1.62 0.65
-1 -4 -11 -0.28 0.78
1 4 12 2.56 0.81
-1 -4 -12 2.28 1.23
1 4 12 0.27 0.64
-1 -4 -12 0.92 0.94
1 4 12 2.03 0.89
1 4 13 3.95 1.32
1 4 13 4.75 1.25
-1 -4 -13 4.31 1.6
1 4 14 2.79 1.07
-1 -4 -14 1 1.09
-1 -5 12 0.48 0.68
-1 -5 11 0.42 0.72
-1 -5 11 0.53 0.71
-1 -5 10 -0.22 0.81
1 5 -10 1.51 0.86
1 5 -10 1.41 0.8
-1 -5 10 0.53 0.63
1 5 -9 4.21 1.25
1 5 -9 5.02 1.27
1 5 -9 2.64 0.92
-1 -5 9 7.25 1.74
1 5 -8 1.23 0.63
-1 -5 8 2.01 0.95
1 5 -8 1.3 0.7
1 5 -8 2.57 0.92
1 5 -7 7.91 1.46
1 5 -7 9.37 1.45
-1 -5 7 10.88 1.86
1 5 -7 9.2 1.5
1 5 -6 3.43 0.95
-1 -5 6 3.97 0.49
1 5 -6 3.63 0.88
1 5 -6 4.01 0.98
-1 -5 6 2.17 0.88
-1 -5 5 1.68 0.76
1 5 -5 0.46 0.58
-1 -5 5 0.14 0.28
1 5 -5 0.1 0.43
-1 -5 5 0.66 0.18
1 5 -5 0.96 0.54
1 5 -4 140.05 4.81
1 5 -4 130.96 5.2
-1 -5 4 132.34 5.61
1 5 -4 137.36 5.03
1 5 -4 132.95 4.8
-1 -5 4 135.03 4.35
-1 -5 3 269.84 6.68
1 5 -3 265.91 6.66
1 5 -3 261.83 7.15
1 5 -3 267.39 7.61
-1 -5 3 267.24 8.04
1 5 -3 258.37 6.84
-1 -5 3 256.25 5.86
-1 -5 2 305.11 8.39
1 5 -2 298.81 7.91
1 5 -2 292.45 6.68
1 5 -2 293.11 7.34
-1 -5 2 294.65 7.09
-1 -5 2 290.72 6.57
-1 -5 1 18.94 1.43
-1 -5 1 18.39 1.73
1 5 -1 19.22 1.53
-1 -5 1 17.2 1.19
1 5 -1 17.14 1.15
-1 -5 0 48.36 2.4
-1 -5 0 50.94 2.86
-1 -5 0 53.61 2.87
1 5 0 49.2 2.39
1 5 0 50.26 1.61
1 5 0 53.03 1.85
-1 -5 0 49.07 1.96
1 5 1 13.33 0.86
1 5 1 15.05 0.85
-1 -5 -1 16.76 1.6
-1 -5 -1 13.08 1.31
1 5 1 15.45 1.44
1 5 1 13.58 1.2
1 5 2 -0.03 0.34
-1 -5 -2 0.3 0.37
-1 -5 -2 0.01 0.2
1 5 2 0.06 0.14
1 5 2 -0.08 0.25
-1 -5 -2 -0.06 0.37
1 5 3 9.02 0.73
-1 -5 -3 8.78 0.86
-1 -5 -3 7.71 0.98
-1 -5 -3 8.43 1.23
1 5 3 8.73 1.12
1 5 3 7.87 0.9
-1 -5 -4 27.02 1.84
1 5 4 27.75 1.69
-1 -5 -4 26 1.87
-1 -5 -4 30.13 1.66
1 5 4 30.5 2.11
-1 -5 -4 30.3 2.36
-1 -5 -5 68.33 3.8
1 5 5 62.15 3.21
-1 -5 -5 69.88 2.94
-1 -5 -5 67.55 2.72
1 5 5 64.79 3.18
1 5 6 91.06 4.12
-1 -5 -6 89.06 3.18
-1 -5 -6 88.3 3.37
1 5 6 96.67 3.99
-1 -5 -6 96.23 4.84
1 5 7 0.05 0.41
1 5 7 0.1 0.36
-1 -5 -7 0.49 0.55
1 5 8 47.23 3.22
1 5 8 49.4 2.72
-1 -5 -8 46.29 3.75
1 5 8 50.42 3
1 5 9 5.24 1.03
-1 -5 -9 5.08 1.4
1 5 9 7.22 1.35
1 5 10 -0.12 0.45
-1 -5 -10 -0.48 0.81
1 5 10 -0.89 0.77
-1 -5 -11 2.33 1
1 5 11 2.81 0.9
-1 -5 -11 3.88 1.31
1 5 11 3.4 1.06
-1 -5 -12 29.95 3.77
1 5 12 29.22 3.11
-1 -5 -12 31.38 3.91
1 5 12 28.42 2.62
1 5 13 -0.49 0.56
1 5 13 1.16 0.99
-1 -5 -13 -0.24 0.77
-1 -5 -13 -0.55 0.85
1 5 14 1.12 0.82
-1 -5 -14 1.4 1.13
-1 -6 11 2.01 0.99
1 6 -10 0.33 0.56
-1 -6 10 0.26 0.59
1 6 -10 -0.43 0.69
-1 -6 10 0.52 0.62
1 6 -9 1.5 0.76
1 6 -9 2.22 0.89
-1 -6 9 3.39 1.32
-1 -6 8 0.45 0.56
1 6 -8 0.1 0.52
1 6 -8 -0.81 0.67
-1 -6 7 5.23 1.43
1 6 -7 2.68 0.94
1 6 -7 4.3 1.13
1 6 -6 16.06 1.8
1 6 -6 15.98 1.93
-1 -6 6 14.88 2.15
1 6 -6 15.29 1.99
-1 -6 5 3.49 0.7
-1 -6 5 5.35 1.3
1 6 -5 3.69 1.01
1 6 -5 3.37 0.91
1 6 -5 3.62 0.89
1 6 -5 3.01 0.78
1 6 -4 17.4 1.67
1 6 -4 16.68 1.92
-1 -6 4 17.63 2.16
-1 -6 4 16.35 1.45
1 6 -4 17.45 1.81
-1 -6 3 5.76 1.23
1 6 -3 4.92 0.98
1 6 -3 5.62 1.11
-1 -6 3 4.97 0.84
1 6 -3 4.71 0.8
-1 -6 3 5.01 0.67
1 6 -2 2.73 0.58
-1 -6 2 3.01 0.67
-1 -6 2 2.96 0.53
1 6 -2 2.71 0.66
-1 -6 2 3.55 0.97
-1 -6 1 18.22 1.43
1 6 -1 18.66 1.31
1 6 -1 20.16 1.68
-1 -6 1 20.78 2.09
-1 -6 0 10.36 0.98
-1 -6 0 10.73 1.46
1 6 0 11.97 0.93
1 6 0 10.4 1.14
-1 -6 0 9.84 1.12
1 6 0 9.46 0.66
-1 -6 -1 75.49 3.86
1 6 1 72.11 3.12
1 6 1 74.73 2.35
-1 -6 -1 70.06 3.41
1 6 1 74.35 2.32
1 6 1 72.68 3.47
-1 -6 -2 98.15 3.96
1 6 2 102.33 2.85
1 6 2 96.92 3.6
-1 -6 -2 100.67 4.56
1 6 2 103.11 4.21
1 6 2 111.44 3.23
1 6 3 58.44 3.11
-1 -6 -3 53.21 3.34
1 6 3 58.92 2.67
1 6 3 56.58 2.09
-1 -6 -3 55.68 2.81
1 6 4 2.46 0.71
-1 -6 -4 2.67 0.52
1 6 4 2.41 0.55
-1 -6 -4 2.8 0.71
-1 -6 -4 3.91 1
-1 -6 -4 2.39 0.59
-1 -6 -5 0.54 0.31
-1 -6 -5 0.9 0.71
-1 -6 -5 0.15 0.37
-1 -6 -5 0.98 0.47
1 6 5 -0.02 0.48
-1 -6 -6 113.96 5.54
1 6 6 108.03 4.74
-1 -6 -6 108.76 3.73
1 6 6 114.96 4.74
1 6 7 11.56 1.51
-1 -6 -7 10.07 1.76
1 6 7 11 1.54
1 6 8 0.51 0.47
-1 -6 -8 2.08 0.93
1 6 8 1.52 0.67
1 6 9 18.81 2.02
1 6 9 15.73 2.01
-1 -6 -9 17.5 2.56
1 6 10 -0.01 0.48
1 6 10 -0.29 0.49
-1 -6 -10 0.54 0.9
-1 -6 -11 4.22 1.43
1 6 11 3.72 1.05
1 6 11 2.37 0.89
1 6 12 3.35 1.28
-1 -6 -12 3 1.34
1 6 12 4.39 1.15
-1 -6 -12 3.49 1.53
-1 -6 -13 2 1.12
1 6 13 0.91 0.68
1 6 13 1.01 0.72
1 6 13 1.96 0.87
-1 -6 -13 1.15 1.06
1 7 -9 0.35 0.62
-1 -7 9 0.96 0.96
1 7 -9 0.98 0.83
1 7 -8 2.97 1.15
-1 -7 8 2.91 1.16
1 7 -8 2.47 1.02
-1 -7 7 6.46 1.62
1 7 -7 7.21 1.55
1 7 -7 9.47 1.65
-1 -7 6 -0.12 0.68
1 7 -6 0.01 0.42
1 7 -6 0.45 0.56
1 7 -5 2.87 0.84
-1 -7 5 2.97 0.66
1 7 -5 3.88 0.94
1 7 -5 4.01 1.1
-1 -7 5 2.45 0.94
-1 -7 4 28.06 1.97
1 7 -4 25.33 2.52
1 7 -4 24.52 2.09
1 7 -4 26.27 2.35
-1 -7 4 29.12 2.97
-1 -7 3 99.07 3.95
1 7 -3 94.81 4.42
1 7 -3 100.01 4.06
-1 -7 3 105.83 5.48
-1 -7 2 73.8 2.84
1 7 -2 86.73 3.44
1 7 -2 83.5 3.91
-1 -7 2 79.65 3.53
-1 -7 2 86.63 4.78
-1 -7 1 9.52 1.59
1 7 -1 5.93 0.83
1 7 -1 8.26 1.18
-1 -7 1 5.89 0.84
1 7 0 48.61 2.14
1 7 0 46.69 1.54
1 7 0 42.32 2.58
-1 -7 0 50.92 3.47
-1 -7 0 44.77 2.5
1 7 1 6.38 0.72
1 7 1 5.94 1.11
1 7 1 5.96 0.64
1 7 1 5.03 0.86
-1 -7 -1 6.35 1.27
1 7 2 5.28 0.64
1 7 2 4.46 0.97
1 7 2 4.78 0.65
1 7 2 4.22 0.8
-1 -7 -2 4.24 0.92
-1 -7 -2 5.6 1.29
1 7 3 15.07 1.09
1 7 3 15.44 1.73
-1 -7 -3 13.22 1.44
1 7 3 12.55 1.3
-1 -7 -3 16.5 2
-1 -7 -4 61.07 3.92
1 7 4 61.19 3.51
1 7 4 56.68 2.77
-1 -7 -4 57.98 3.29
-1 -7 -4 60.95 3.06
1 7 4 61.37 2.49
-1 -7 -5 244.37 7.29
1 7 5 288.99 8.44
-1 -7 -5 272.88 9.2
-1 -7 -5 272.83 7.19
1 7 6 114.45 5.16
-1 -7 -6 121.15 6.07
-1 -7 -6 114.35 4.36
1 7 7 3.23 0.91
-1 -7 -7 4.59 1.28
1 7 7 4.89 1.15
-1 -7 -7 5.02 0.91
1 7 8 53.74 3.52
1 7 8 51.72 3.65
-1 -7 -8 61.36 4.64
1 7 9 3.19 0.91
-1 -7 -9 4.6 1.49
1 7 9 1.93 0.83
1 7 10 13.86 1.89
-1 -7 -10 13.71 2.51
1 7 10 10.75 1.8
1 7 11 3.16 1.11
-1 -7 -11 2.17 1.1
1 7 11 1.11 0.7
1 7 12 8.33 1.61
1 7 12 12.18 2.08
-1 -7 -12 10.78 2.53
1 7 13 0.5 0.58
1 7 13 1.84 0.9
-1 -7 -13 0.69 0.83
1 8 -9 2.13 1.02
-1 -8 8 0.37 0.65
1 8 -8 0.8 0.66
1 8 -8 1.23 0.69
-1 -8 7 0.46 0.86
1 8 -7 0.25 0.53
1 8 -7 0.77 0.65
1 8 -6 6.12 1.34
-1 -8 6 8.35 1.92
1 8 -6 9.43 1.75
-1 -8 5 1.28 0.81
1 8 -5 1.15 0.63
1 8 -5 1.49 0.82
1 8 -5 1.11 0.6
-1 -8 4 1.54 1.04
1 8 -4 0.04 0.45
1 8 -4 0.71 0.62
-1 -8 3 7.7 1.6
1 8 -3 7.56 1.16
1 8 -3 8.87 1.4
-1 -8 3 9 1.18
1 8 -2 -0.24 0.44
-1 -8 2 0.29 0.61
-1 -8 2 -0.06 0.35
1 8 -2 -0.12 0.36
-1 -8 1 12.16 1.9
1 8 -1 11.01 1.19
1 8 -1 9.52 1.38
1 8 0 42.74 3.1
1 8 0 41.4 2.74
1 8 0 44.31 2.21
-1 -8 0 42.95 3.49
1 8 1 2.77 0.51
1 8 1 4.01 1.01
1 8 1 5.87 1.05
1 8 1 5.27 0.64
-1 -8 -1 5.12 1.24
1 8 2 222.72 5.35
-1 -8 -2 237.38 8.52
1 8 2 219.66 5.41
1 8 2 224.1 7.62
1 8 2 227 6.7
1 8 3 103.05 3.6
1 8 3 96.15 3.19
-1 -8 -3 96.44 4.25
1 8 3 94.26 3.95
-1 -8 -3 103.02 5.42
1 8 3 101.88 4.89
1 8 4 36.13 1.92
-1 -8 -4 36.45 2.46
-1 -8 -4 33.03 3.12
1 8 4 37.76 2.33
1 8 4 39.47 3.02
1 8 5 171.5 6.61
1 8 5 154.12 5
-1 -8 -5 163.93 7.25
1 8 5 154.45 4.72
-1 -8 -5 163.75 5.46
1 8 6 2.73 0.62
-1 -8 -6 3.27 0.78
-1 -8 -6 0.8 0.53
1 8 6 4.12 1.05
-1 -8 -7 -0.53 0.85
1 8 7 0.52 0.58
1 8 8 8.8 1.58
-1 -8 -8 10.73 2.03
1 8 9 16.03 2.08
1 8 9 12.34 1.93
-1 -8 -9 14.35 2.49
-1 -8 -10 0.01 0.57
1 8 10 -0.4 0.63
1 8 10 -0.03 0.46
-1 -8 -11 0.37 0.84
1 8 11 0.96 0.74
1 8 11 2.83 0.99
1 8 12 -0.89 0.72
-1 -8 -12 3.43 1.46
1 8 12 2.35 1.06
1 8 13 -0.21 0.56
1 9 -8 1.38 0.87
-1 -9 7 0.45 0.7
1 9 -7 0.58 0.73
1 9 -7 0.48 0.73
1 9 -6 -0.56 0.58
1 9 -6 0 0.44
-1 -9 6 -0.65 0.72
-1 -9 5 4.46 1.52
1 9 -5 2.09 0.86
1 9 -5 2.57 0.9
-1 -9 4 1.77 0.95
1 9 -4 2.12 0.77
1 9 -4 1.35 0.74
-1 -9 3 0.74 0.84
1 9 -3 -0.02 0.47
1 9 -3 0.12 0.44
-1 -9 2 18.65 2.6
1 9 -2 19.35 1.78
1 9 -2 14.06 1.8
1 9 -1 4.74 0.85
-1 -9 1 3.22 1.1
1 9 -1 4.43 0.99
-1 -9 0 0.41 0.64
1 9 0 0.43 0.61
1 9 0 1.81 0.61
1 9 0 0.48 0.33
1 9 1 0.23 0.29
1 9 1 -0.57 0.65
1 9 1 0.36 0.4
1 9 2 1.65 0.64
1 9 2 0.27 0.51
1 9 2 0.36 0.28
-1 -9 -2 -0.35 0.69
1 9 3 4.29 1.12
1 9 3 4.82 0.95
1 9 3 3.17 0.62
-1 -9 -3 4.64 1.36
-1 -9 -4 42.79 3.81
1 9 4 49.56 2.84
1 9 4 50.56 2.7
1 9 4 48.78 3.6
-1 -9 -5 44.94 3.94
1 9 5 50.06 3.7
1 9 5 48.53 2.72
1 9 6 7.37 1.52
-1 -9 -6 6.8 1.58
-1 -9 -7 10.09 2.05
1 9 7 11.22 1.83
1 9 8 0.55 0.67
-1 -9 -8 0.52 0.92
1 9 9 6.75 1.54
-1 -9 -9 10.2 2.17
1 9 10 1.39 0.88
-1 -9 -10 2.27 1.2
-1 -9 -11 0 0.85
1 9 11 1.4 0.86
1 9 12 1.03 0.73
-1 -10 5 -0.03 0.7
1 10 -5 -0.81 0.62
-1 -10 4 5.62 1.65
1 10 -4 3.78 1.12
-1 -10 3 0.67 0.85
1 10 -3 -0.57 0.56
-1 -10 2 5.09 1.58
1 10 -2 3.85 1.07
1 10 -1 2.84 1.1
1 10 -1 1.82 0.74
-1 -10 1 2.57 1.1
1 10 0 4.31 1.01
1 10 0 2.57 0.85
-1 -10 0 4.96 1.51
1 10 1 -0.61 0.63
1 10 1 1.26 0.63
-1 -10 -1 0.01 0.63
1 10 2 18.14 1.93
1 10 2 16.76 2.22
-1 -10 -2 18.94 2.68
1 10 3 13.31 2.02
1 10 3 13.49 1.62
-1 -10 -3 14.87 2.39
1 10 4 5.66 1.36
-1 -10 -4 4.9 1.48
1 10 4 5.77 1.04
1 10 5 79.44 3.78
-1 -10 -5 69.58 5.28
1 10 5 76.59 4.85
-1 -10 -6 -0.5 0.77
1 10 6 -0.24 0.6
1 10 7 6.27 1.48
-1 -10 -7 3.67 1.32
1 10 8 22.47 2.79
-1 -10 -8 19 2.96
-1 -10 -9 21 3.26
1 10 9 16.01 2.42
1 10 10 1.13 0.79
-1 -10 -10 1.61 1.04
1 11 -4 0.45 0.61
-1 -11 3 0.52 0.89
1 11 -3 0 0.61
-1 -11 2 1.04 0.81
1 11 -2 2.41 0.95
-1 -11 1 -0.28 0.8
1 11 -1 1.85 0.84
1 11 0 0.8 0.57
1 11 0 -0.51 0.78
-1 -11 0 0.17 0.84
1 11 1 4.11 1.22
1 11 1 4.62 1.12
-1 -11 -1 4.63 1.5
1 11 2 5.65 1.22
1 11 2 4.73 1.31
-1 -11 -2 6.9 1.8
1 11 3 7.6 1.63
-1 -11 -3 11.09 2.24
1 11 4 6.01 1.46
-1 -11 -4 8 1.93
-1 -11 -5 5.83 1.69
1 11 5 5.59 1.52
1 11 6 0.61 0.8
-1 -11 -6 1.51 1.06
-1 -11 -7 17.79 2.94
1 11 7 23.22 2.9
-1 -11 -8 8.14 2.02
1 11 8 5.59 1.48
1 11 8 8.28 1.46
1 11 9 7.52 1.5
1 11 10 2.82 0.95
1 12 -3 1.25 0.78
1 12 -2 -0.04 0.4
1 12 -1 0.56 0.67
1 12 -1 0.44 0.65
1 12 0 -0.08 0.7
-1 -12 0 -0.78 1.01
1 12 1 5.46 1.45
-1 -12 -1 8.13 2.1
-1 -12 -2 0.02 0.74
1 12 2 0.47 0.44
1 12 3 0.21 0.61
-1 -12 -3 4.62 1.64
1 12 4 1.36 0.82
-1 -12 -4 0.03 0.67
-1 -12 -5 0.28 0.9
1 12 5 0.29 0.62
-1 -12 -6 -0.18 0.88
-2 12 -1 6.03 1.35
-2 12 -2 1.99 0.88
-2 11 8 10.93 2.01
2 -11 -8 9.92 1.94
2 -11 -7 0.03 0.51
-2 11 7 0.5 0.6
-2 11 6 -0.25 0.67
-2 11 6 0.66 0.69
2 -11 -6 -0.81 0.8
-2 11 5 9.4 1.85
-2 11 5 5.02 1.29
2 -11 -5 6.37 1.85
-2 11 4 -0.22 0.53
-2 11 4 0.46 0.82
2 -11 -4 0.86 0.89
-2 11 3 14.42 1.96
-2 11 3 15.43 2.35
2 -11 -3 18.5 2.95
2 -11 -2 1.81 1.06
-2 11 2 2.32 0.9
-2 11 2 1.11 0.81
-2 11 1 13.96 1.89
2 -11 -1 10.81 1.95
2 -11 -1 9.22 2.07
2 -11 0 0.47 0.49
-2 11 0 0.53 0.62
2 -11 0 1.62 1.07
2 -11 1 1.3 0.93
-2 11 -1 0.54 0.63
2 -11 1 1.42 0.82
2 -11 2 -0.48 0.83
-2 11 -2 0.95 0.61
2 -11 2 1.04 0.8
-2 11 -3 0.35 0.52
2 -11 3 -0.1 0.53
-2 11 -4 1.01 0.67
-2 11 -4 1.48 0.72
2 -11 4 1.53 0.91
2 -11 5 6.32 1.65
-2 11 -5 7.88 1.57
2 -10 -10 7.08 1.65
-2 10 10 6.95 1.61
2 -10 -10 7.09 1.55
-2 10 9 -0.61 0.57
2 -10 -9 0.22 0.43
-2 10 8 6.83 1.54
-2 10 8 5.17 1.44
2 -10 -8 6.91 1.58
-2 10 8 6.42 1.5
2 -10 -8 5.92 1.77
-2 10 7 0.69 0.69
-2 10 7 0.37 0.65
-2 10 7 -0.59 0.71
2 -10 -7 -1.31 0.99
-2 10 6 7.66 1.54
-2 10 6 5.12 1.28
2 -10 -6 4.04 1.45
-2 10 5 1.35 0.79
2 -10 -5 0.36 0.8
-2 10 5 0.69 0.67
-2 10 4 13.72 2.14
2 -10 -4 12.02 2.26
-2 10 4 11.95 1.78
-2 10 3 34.25 3.28
2 -10 -3 36.12 3.81
-2 10 3 32.05 2.87
-2 10 2 16.76 2.33
-2 10 2 15.48 1.96
2 -10 -2 13.71 2.35
-2 10 1 6.63 1.29
2 -10 -1 4.34 1.38
2 -10 0 16.46 2.29
-2 10 0 12.64 1.76
2 -10 0 14.17 2.38
2 -10 1 -0.15 0.69
2 -10 1 0.12 0.61
-2 10 -1 -0.09 0.52
2 -10 2 3.36 1.28
2 -10 2 2.95 1.1
-2 10 -2 2.66 0.78
-2 10 -2 3.42 0.99
2 -10 3 0.98 0.71
-2 10 -3 1.36 0.72
-2 10 -3 0.89 0.51
2 -10 3 1.3 0.71
-2 10 -3 1.53 1.03
2 -10 4 2.03 0.9
2 -10 4 2.28 0.95
-2 10 -4 4.6 1.19
-2 10 -4 4.46 1.42
-2 10 -4 5.45 1.23
2 -10 5 6.48 1.58
-2 10 -5 6.82 1.43
-2 10 -5 5.91 1.4
2 -10 5 4.45 1.27
-2 10 -6 2.69 0.99
-2 9 11 2.51 0.98
2 -9 -11 3.08 1.12
2 -9 -10 3.6 1.13
2 -9 -10 2.92 1.45
2 -9 -10 5.96 1.41
-2 9 10 3.6 1.19
-2 9 9 0.62 0.6
2 -9 -9 1.93 0.87
2 -9 -9 2.11 0.9
2 -9 -9 0.7 0.79
-2 9 9 2.17 1.08
-2 9 8 17.75 2.5
-2 9 8 21.23 2.48
2 -9 -8 20.73 2.2
2 -9 -8 17.01 2.81
2 -9 -8 21.54 2.53
-2 9 7 1.19 0.83
-2 9 7 0.28 0.46
2 -9 -7 0.94 0.53
2 -9 -7 1.1 0.88
2 -9 -6 3.55 0.89
-2 9 6 3.91 1.15
-2 9 6 5.08 1.24
2 -9 -6 4.02 1.37
-2 9 6 3.92 1.14
-2 9 5 2.87 0.96
2 -9 -5 3.48 1.19
-2 9 5 3.75 1.04
-2 9 5 4.57 1.24
2 -9 -5 2.64 0.63
2 -9 -4 11.29 2.08
-2 9 4 11.98 1.78
-2 9 4 11.82 1.82
-2 9 3 0.65 0.7
-2 9 3 1.39 0.74
2 -9 -3 2.85 1.2
-2 9 2 4.28 1.02
2 -9 -2 6.09 1.53
2 -9 -2 2.81 0.82
-2 9 1 10.74 1.57
2 -9 -1 10.78 1.95
-2 9 0 0.73 0.49
-2 9 0 1.01 0.43
2 -9 0 1 0.77
2 -9 1 0.53 0.7
-2 9 -1 1.32 0.52
-2 9 -1 2.51 0.88
2 -9 1 1.49 0.75
-2 9 -2 0.31 0.47
2 -9 2 0.42 0.62
-2 9 -2 -0.42 0.75
2 -9 2 0.85 0.57
-2 9 -2 0.12 0.34
2 -9 3 2.5 1.07
-2 9 -3 3.18 0.94
2 -9 3 1.98 0.84
-2 9 -3 5.52 1.56
-2 9 -3 2.91 0.83
2 -9 4 2.66 1.21
-2 9 -4 3.82 1.25
2 -9 4 2.95 1.1
-2 9 -4 4.65 1.17
2 -9 5 0.76 0.76
2 -9 5 -0.25 0.49
-2 9 -5 0.09 0.65
-2 9 -5 -0.1 0.64
2 -9 5 -0.04 0.46
2 -9 6 1.7 1.02
2 -9 6 3.16 1.11
-2 9 -6 0.21 0.56
-2 9 -6 1.99 1.04
-2 9 -7 6.12 1.54
-2 8 11 1.9 0.84
2 -8 -11 1.1 0.75
-2 8 10 -0.44 0.6
-2 8 10 -0.2 0.43
2 -8 -10 0 0.57
2 -8 -10 0.63 0.53
2 -8 -10 1.13 0.7
-2 8 9 11.08 1.76
-2 8 9 9.8 1.79
2 -8 -9 9.09 1.59
2 -8 -9 8.44 1.66
2 -8 -9 7.13 1.42
2 -8 -9 5.64 1.71
2 -8 -8 4.74 1.13
-2 8 8 2.92 1.05
2 -8 -8 3.32 1.32
-2 8 8 4.02 1.06
2 -8 -8 5.95 1.32
2 -8 -7 18.93 2.21
2 -8 -7 23.35 2.18
2 -8 -7 21.8 2.95
-2 8 7 24.79 2.71
-2 8 7 21.56 2.32
2 -8 -6 4.55 0.94
-2 8 6 4.16 1.14
2 -8 -6 2.9 1.18
-2 8 6 4.94 1.13
-2 8 5 0.99 0.61
-2 8 5 1.61 0.8
-2 8 5 2.41 0.83
2 -8 -5 1.73 0.59
2 -8 -5 1.8 0.93
-2 8 4 2.45 0.85
-2 8 4 1.03 0.64
2 -8 -4 0.79 0.38
2 -8 -4 0.95 0.61
-2 8 4 1.26 0.72
-2 8 3 19.67 2.17
-2 8 3 19.71 2.12
2 -8 -3 20.83 1.74
2 -8 -3 16.98 2.26
2 -8 -3 21.9 1.53
2 -8 -2 35.21 1.75
2 -8 -2 34.03 2.38
-2 8 2 36.31 1.67
2 -8 -2 29.69 3.04
-2 8 2 38.67 2.87
-2 8 1 14.54 1.75
2 -8 -1 15.96 1.72
-2 8 1 17.12 1.3
2 -8 -1 17.78 2.32
-2 8 0 93.09 4.45
2 -8 0 91.96 5.4
-2 8 0 91.39 3.5
2 -8 1 -0.33 0.75
2 -8 1 0.49 0.48
-2 8 -1 0.76 0.6
2 -8 2 4.48 1.26
2 -8 2 5.52 1.19
-2 8 -2 6.33 1.41
-2 8 -2 4.09 1.01
-2 8 -3 4.34 1.06
-2 8 -3 4.72 1.33
2 -8 3 2.44 1.07
2 -8 3 3.94 1.07
-2 8 -4 84.64 5.52
-2 8 -4 80.59 4.42
2 -8 4 81.19 5.4
2 -8 4 78.35 4.52
-2 8 -5 -1.29 0.87
2 -8 5 1.02 0.76
2 -8 5 0.83 0.63
2 -8 5 0.28 0.6
-2 8 -5 -0.12 0.44
-2 8 -6 6.44 1.71
2 -8 6 9.1 1.97
-2 8 -6 6.83 1.43
2 -8 6 9.63 1.64
2 -8 6 6.63 1.38
2 -8 7 6.43 1.75
-2 8 -7 7.86 1.63
-2 8 -7 4.45 1.48
-2 8 -8 1.66 0.97
-2 8 -8 0.18 0.59
-2 7 11 10.98 2.05
-2 7 11 10.5 1.79
2 -7 -11 10.83 2.34
2 -7 -11 12.37 1.98
-2 7 10 11.16 1.91
2 -7 -10 11.63 2.37
2 -7 -10 9.65 1.55
-2 7 10 12.45 1.84
2 -7 -10 10.43 1.73
-2 7 9 0.59 0.64
2 -7 -9 0.93 0.66
2 -7 -9 1.9 0.73
2 -7 -9 -0.02 0.62
-2 7 9 1.2 0.77
2 -7 -9 1.4 0.63
-2 7 8 2.76 0.89
2 -7 -8 5.92 1.34
-2 7 8 3.68 0.95
2 -7 -8 3.49 0.95
2 -7 -8 2.02 0.8
2 -7 -8 2.49 1.14
-2 7 7 -0.11 0.61
2 -7 -7 -0.16 0.42
2 -7 -7 -0.26 0.67
-2 7 7 -0.81 0.54
2 -7 -7 0.81 0.67
2 -7 -6 24.08 2.01
-2 7 6 19.71 2.04
2 -7 -6 21.94 2.71
-2 7 6 27.04 2.56
-2 7 5 17.27 1.9
2 -7 -5 17.06 1.58
2 -7 -5 18.15 2.34
-2 7 5 15.78 1.93
-2 7 4 28.32 2.42
-2 7 4 25.9 2.39
2 -7 -4 32.62 2.01
2 -7 -4 26.42 1.4
-2 7 4 29.53 2.56
2 -7 -4 27.95 2.84
-2 7 3 0.59 0.58
-2 7 3 0.84 0.58
-2 7 3 0.8 0.57
2 -7 -3 0.73 0.43
2 -7 -3 0.78 0.35
2 -7 -3 0.22 0.53
2 -7 -2 1.96 0.45
-2 7 2 1.5 0.69
2 -7 -2 0.56 0.37
-2 7 2 2.4 0.45
2 -7 -2 1.63 0.76
-2 7 2 1.97 0.35
-2 7 1 62.69 2.8
2 -7 -1 67.27 2.22
-2 7 1 63.94 2.42
2 -7 -1 69.42 4.28
2 -7 -1 67.91 3.37
-2 7 1 69.94 3.68
2 -7 0 3.32 0.97
-2 7 0 4.28 0.9
-2 7 0 2.59 0.9
2 -7 1 3.87 1.06
-2 7 -1 4.78 0.97
-2 7 -1 6.04 1.34
2 -7 1 3.79 0.96
2 -7 2 31.08 2.92
-2 7 -2 27.24 2.26
-2 7 -2 29.4 2.88
2 -7 2 27.09 2.39
2 -7 3 8.14 1.69
2 -7 3 6.91 1.22
-2 7 -3 9.09 1.4
-2 7 -3 6.85 1.46
-2 7 -4 63.93 4.55
2 -7 4 58.01 4.32
-2 7 -4 67.53 3.81
2 -7 4 71.16 4
2 -7 5 132.9 5.84
-2 7 -5 141.33 5.89
2 -7 5 127.51 6.65
2 -7 5 116.89 5.41
-2 7 -5 130.49 6.87
2 -7 6 11.28 1.66
-2 7 -6 9.47 1.6
-2 7 -6 11.04 2.11
2 -7 6 7.81 1.68
2 -7 6 11 1.69
2 -7 7 -0.39 0.54
2 -7 7 -0.2 0.85
-2 7 -7 -0.61 0.73
-2 7 -7 0.33 0.68
-2 7 -8 5.44 1.35
2 -7 8 3.25 1.38
-2 7 -8 6.97 1.85
-2 7 -9 3.74 1.25
-2 7 -9 6.74 1.81
2 -7 9 4.75 1.44
-2 6 12 -0.25 0.69
2 -6 -12 1.23 0.87
-2 6 11 28.14 3
-2 6 11 27.42 2.74
2 -6 -11 32.72 3.12
2 -6 -11 27.29 3.67
-2 6 10 8.94 1.66
2 -6 -10 7.74 1.52
2 -6 -10 6.87 1.89
-2 6 10 5.96 1.29
-2 6 9 42.06 3.44
2 -6 -9 42.55 3.27
2 -6 -9 54.12 3.6
2 -6 -9 41.84 4.11
2 -6 -9 45.72 3.13
-2 6 9 42.58 3.13
2 -6 -8 8.32 1.8
-2 6 8 7.13 1.39
2 -6 -8 7.35 1.3
2 -6 -8 9.15 1.52
-2 6 8 6.21 1.2
2 -6 -8 6.53 1.23
-2 6 7 53.85 3.23
2 -6 -7 52.88 3.49
2 -6 -7 57.89 3.33
2 -6 -7 49.88 4.05
2 -6 -7 54.95 3.31
-2 6 7 58.88 3.76
-2 6 6 11.72 1.65
-2 6 6 11.02 1.42
2 -6 -6 13.42 1.49
2 -6 -6 13.88 1.63
2 -6 -6 11.64 1.85
-2 6 5 4.55 0.93
-2 6 5 4.78 1.02
2 -6 -5 3.5 1.07
2 -6 -5 5.14 0.86
-2 6 4 1.9 0.68
2 -6 -4 1.28 0.69
-2 6 4 2.43 0.77
2 -6 -4 2.52 0.6
-2 6 3 0.34 0.47
-2 6 3 0.43 0.41
-2 6 3 1.23 0.58
2 -6 -3 0.15 0.24
2 -6 -3 0.08 0.21
2 -6 -3 0.23 0.42
-2 6 2 6.62 0.63
2 -6 -2 8.16 1.03
2 -6 -2 6.75 1.23
2 -6 -2 7.57 0.79
-2 6 2 7.71 1.2
-2 6 2 6.54 0.55
-2 6 2 6.66 1.13
2 -6 -1 18.48 1.12
2 -6 -1 19.46 2.07
-2 6 1 18.64 1.79
2 -6 -1 18.55 1.63
2 -6 -1 17.96 1.14
2 -6 0 49.08 1.63
2 -6 0 57.31 3.2
2 -6 0 53.5 3.44
-2 6 0 50.18 2.94
-2 6 0 49.4 3.23
-2 6 -1 23.41 1.99
-2 6 -1 20.7 2.16
2 -6 1 25.4 2.39
2 -6 1 28 2.23
-2 6 -2 9.21 1.55
2 -6 2 9.44 1.53
-2 6 -2 9.45 1.29
2 -6 2 9.54 1.32
-2 6 -3 1.4 0.79
2 -6 3 0.33 0.48
-2 6 -3 0.2 0.25
2 -6 3 -0.06 0.5
-2 6 -3 1.4 0.6
-2 6 -4 34.13 2.55
-2 6 -4 30.67 3
2 -6 4 29.85 2.86
2 -6 4 27.8 2.36
-2 6 -5 30.91 2.54
2 -6 5 35.37 2.69
-2 6 -5 33.86 3.3
2 -6 5 36.92 3.26
2 -6 5 39.62 2.91
-2 6 -6 120.53 5.4
2 -6 6 111.1 5.08
2 -6 6 107.61 4.43
2 -6 6 99.34 5.69
-2 6 -6 104.35 6.17
2 -6 6 112.92 5.07
2 -6 7 38.03 2.95
2 -6 7 40.33 3
-2 6 -7 40.48 3.24
2 -6 7 39.23 3.66
-2 6 -7 38.32 3.8
-2 6 -8 7.89 1.55
-2 6 -8 9.21 2.01
2 -6 8 6.48 1.57
2 -6 9 4.21 1.43
-2 6 -9 3.38 1.21
-2 6 -9 1.75 0.89
-2 6 -10 -0.66 0.8
2 -6 10 -0.27 0.7
-2 6 -10 0.04 0.7
-2 5 12 16.53 2.38
2 -5 -12 21.73 3.43
2 -5 -12 19.83 2.57
-2 5 11 0.53 0.57
-2 5 11 0.31 0.56
2 -5 -11 -0.67 0.95
2 -5 -11 1.02 0.79
2 -5 -10 39.91 4.13
-2 5 10 39.44 3.04
2 -5 -10 46.95 3.53
-2 5 10 42.85 3.45
-2 5 9 4.68 1.24
2 -5 -9 2.15 0.78
2 -5 -9 3.23 0.83
-2 5 9 3.4 0.92
2 -5 -9 2.49 1.13
2 -5 -9 3.55 0.98
2 -5 -8 14.53 1.76
-2 5 8 11.77 1.71
-2 5 8 9.12 1.33
2 -5 -8 8.52 1.74
2 -5 -8 10.75 1.53
2 -5 -8 8.38 1.25
2 -5 -7 7.82 1.29
-2 5 7 8.84 1.43
2 -5 -7 9.1 1.3
-2 5 7 9.05 1.25
2 -5 -7 10.12 1.39
2 -5 -7 10.34 1.83
2 -5 -6 130.76 5.2
2 -5 -6 121.67 5.9
2 -5 -6 127.96 4.74
2 -5 -6 119.04 4.7
-2 5 6 116.58 4.49
-2 5 6 122.79 5.12
2 -5 -5 103.96 4.26
2 -5 -5 110.63 4.09
-2 5 5 99.95 4.45
-2 5 5 104.86 4.1
2 -5 -5 99.28 5.01
2 -5 -4 79.84 4.21
2 -5 -4 81.41 3.2
-2 5 4 73.25 3.63
2 -5 -4 80.3 3.65
-2 5 4 73.89 3.38
2 -5 -3 131.5 4.79
2 -5 -3 123.57 3.85
-2 5 3 117.98 4.39
2 -5 -3 127.17 5.26
2 -5 -3 130.82 3.8
-2 5 3 127.38 4.74
2 -5 -2 111.03 4.32
2 -5 -2 107.15 3.29
2 -5 -2 103.44 3.2
2 -5 -2 103.57 4.58
2 -5 -2 105.22 3.79
-2 5 2 105.65 4.16
-2 5 2 107.34 4.41
2 -5 -1 52.88 1.93
2 -5 -1 55.59 2.76
-2 5 1 53.93 2.95
2 -5 -1 54.84 2.96
2 -5 -1 50.34 2.11
2 -5 -1 52.29 3.14
-2 5 1 54.19 2.81
2 -5 0 0.39 0.45
2 -5 0 0.55 0.18
-2 5 0 0.38 0.51
2 -5 0 0.4 0.45
2 -5 0 0.59 0.26
2 -5 0 0.67 0.38
-2 5 0 -0.33 0.45
2 -5 1 87.99 3.83
2 -5 1 82.61 4.02
-2 5 -1 88.83 4.25
-2 5 -1 88.64 3.74
-2 5 -1 81.92 3.64
-2 5 -2 3.23 0.71
-2 5 -2 4.73 0.88
-2 5 -2 4.49 0.99
2 -5 2 4.2 0.95
2 -5 2 3.53 0.8
2 -5 3 21.8 1.89
-2 5 -3 20.99 1.82
-2 5 -3 19.05 2.15
2 -5 3 26.84 2.38
-2 5 -3 24.01 1.71
-2 5 -4 32.83 2.94
2 -5 4 31.97 2.21
2 -5 4 30.47 2.65
2 -5 4 30.1 2.32
-2 5 -4 29.45 2.24
2 -5 4 28.67 2.26
2 -5 5 50.7 2.87
2 -5 5 47.01 2.96
-2 5 -5 50.13 3.08
2 -5 5 48.93 3.52
-2 5 -5 49.6 1.59
2 -5 5 48.94 3.05
-2 5 -5 49 3.81
2 -5 6 26.25 2.26
2 -5 6 31.07 2.43
-2 5 -6 29.18 3.07
2 -5 6 23.61 2.05
2 -5 6 27.11 2.77
-2 5 -6 29.92 2.49
2 -5 7 2.52 0.79
-2 5 -7 2.87 0.94
-2 5 -7 3.29 1.17
2 -5 7 3.08 0.82
2 -5 7 2.71 0.98
2 -5 7 2.57 0.77
2 -5 8 10.75 1.91
-2 5 -8 10.23 1.71
-2 5 -8 10.44 2.03
2 -5 8 9.29 1.41
2 -5 9 9.57 1.91
-2 5 -9 9.8 1.79
-2 5 -9 9.58 2.04
-2 5 -10 -0.06 0.9
2 -5 10 -0.13 0.7
-2 5 -10 -1.67 0.89
-2 5 -11 0.49 0.73
-2 4 13 14.81 2.25
-2 4 12 17.95 2.38
2 -4 -12 15.65 2.36
2 -4 -12 17.24 3.01
-2 4 11 7.65 1.5
-2 4 11 6.7 1.32
2 -4 -11 9.64 2.18
2 -4 -11 6.12 1.39
-2 4 10 10.55 1.69
-2 4 10 11.51 1.59
2 -4 -10 9.98 2.14
2 -4 -10 11.23 1.75
2 -4 -10 12 1.85
-2 4 9 0.27 0.5
2 -4 -9 0.28 0.37
2 -4 -9 1.23 0.54
-2 4 9 1.46 0.65
2 -4 -9 0.12 0.63
2 -4 -9 1.05 0.63
-2 4 8 5.6 0.99
2 -4 -8 6.16 1.15
2 -4 -8 6.64 1.18
-2 4 8 6.63 1.27
2 -4 -8 5.04 1.34
2 -4 -8 5.9 0.98
-2 4 7 28.12 2.04
2 -4 -7 26.19 2.17
2 -4 -7 29.5 2.31
2 -4 -7 25.24 2.66
2 -4 -7 24.98 1.96
2 -4 -7 25.36 1.15
-2 4 7 28.43 2.4
-2 4 6 40.56 2.34
2 -4 -6 40.86 2.69
2 -4 -6 48.45 2.76
2 -4 -6 40.81 1.18
2 -4 -6 40.77 2.47
2 -4 -6 37.66 3.08
-2 4 6 43.57 2.83
2 -4 -5 129.58 4.46
2 -4 -5 125.59 4.8
-2 4 5 124.06 4.17
2 -4 -5 125.92 5.4
2 -4 -5 121.77 4.47
-2 4 5 128.27 4.81
2 -4 -4 111.23 4.4
2 -4 -4 101.36 3.98
2 -4 -4 116.17 3.9
-2 4 4 108.64 3.79
2 -4 -4 116.99 4.85
-2 4 4 113.03 4.3
2 -4 -3 80.36 2.99
-2 4 3 78.32 3.14
2 -4 -3 79.26 3.75
2 -4 -3 80.51 2.73
2 -4 -3 83.32 3.47
-2 4 3 80.33 3.41
2 -4 -2 84.15 2.8
2 -4 -2 85.51 3.26
2 -4 -2 89.32 3.82
-2 4 2 89.73 2.04
2 -4 -2 86.48 3.54
2 -4 -2 85.81 2.92
-2 4 2 85.35 3.4
2 -4 -1 -0.11 0.22
-2 4 1 0.44 0.29
-2 4 1 0.82 0.47
2 -4 -1 0.28 0.36
2 -4 -1 0.31 0.39
2 -4 -1 0.48 0.21
-2 4 1 0.21 0.36
2 -4 -1 0.15 0.5
-2 4 0 0.13 0.31
-2 4 0 0.19 0.32
-2 4 0 0.17 0.41
2 -4 0 -0.15 0.41
2 -4 0 0.25 0.2
-2 4 0 0.23 0.39
2 -4 0 0.11 0.12
2 -4 0 -0.22 0.44
2 -4 0 0.43 0.36
2 -4 1 8.05 1.14
2 -4 1 6.12 0.79
2 -4 1 6.86 1.02
-2 4 -1 7.05 1
-2 4 -1 7.4 1
2 -4 1 7.65 1.07
-2 4 -1 7.11 1.15
2 -4 2 1.89 0.46
2 -4 2 1.95 0.67
-2 4 -2 1.96 0.21
-2 4 -2 1.92 0.69
2 -4 2 2.35 0.63
2 -4 2 1.21 0.53
-2 4 -2 2.33 0.62
-2 4 -2 1.61 0.56
2 -4 3 0.9 0.52
2 -4 3 0.98 0.49
-2 4 -3 1.25 0.47
2 -4 3 0.84 0.48
2 -4 3 1.63 0.44
-2 4 -3 0.71 0.41
2 -4 3 1.6 0.64
-2 4 -3 0.75 0.55
2 -4 4 147.54 5.18
-2 4 -4 156.84 6.38
-2 4 -4 159.06 5.2
2 -4 4 149.9 5.2
2 -4 4 145.94 5.07
2 -4 4 149.34 5.76
-2 4 -5 56.58 1.5
2 -4 5 62.59 3.25
2 -4 5 60.23 3.19
-2 4 -5 53.75 3.82
-2 4 -5 62.8 3.26
2 -4 5 58.69 3.64
2 -4 5 58.13 3.14
-2 4 -6 59.95 1.99
2 -4 6 65.04 3.39
-2 4 -6 59.72 4.27
2 -4 6 61.9 3.41
-2 4 -6 70.85 3.68
2 -4 6 57.26 3.82
2 -4 6 66.89 3.43
2 -4 7 3.48 0.98
2 -4 7 3.08 0.77
2 -4 7 3.37 0.83
2 -4 7 3.8 0.92
-2 4 -7 3.25 0.93
-2 4 -7 4.62 1.39
2 -4 8 7.2 1.49
2 -4 8 7.08 1.27
-2 4 -8 7.85 1.43
-2 4 -8 7.98 1.74
2 -4 8 8.72 1.21
-2 4 -9 -0.87 0.76
-2 4 -9 0.69 0.81
2 -4 9 -0.17 0.67
2 -4 9 0.36 0.46
-2 4 -10 0.82 0.77
2 -4 10 0.63 0.62
-2 4 -10 -0.17 0.62
2 -4 11 -1.23 0.96
-2 4 -11 0.69 0.91
2 -4 11 2.31 1.04
-2 4 -12 1.77 1.12
-2 3 13 1.66 0.86
-2 3 12 0.34 0.62
2 -3 -12 1.08 0.84
-2 3 11 7.07 1.51
2 -3 -11 3.61 1.26
2 -3 -11 6.52 1.47
-2 3 11 4.12 0.99
-2 3 10 8.76 1.53
2 -3 -10 9.04 1.98
2 -3 -10 7.44 1.46
-2 3 10 7.58 1.24
2 -3 -10 10.24 1.69
-2 3 9 6.07 1.22
2 -3 -9 5.36 0.89
2 -3 -9 4.53 1.32
-2 3 9 6.23 1.07
2 -3 -9 6.78 0.89
2 -3 -9 5.02 1.17
2 -3 -9 5.82 1.22
-2 3 8 6.34 1.2
2 -3 -8 6.22 1.02
2 -3 -8 7.97 0.9
2 -3 -8 6.24 0.94
-2 3 8 6.79 1.04
2 -3 -8 8.53 1.68
2 -3 -8 9.59 1.42
2 -3 -8 7.8 1.25
-2 3 7 0.76 0.6
2 -3 -7 0.61 0.61
-2 3 7 1.8 0.57
2 -3 -7 1.18 0.35
2 -3 -7 0.34 0.41
2 -3 -7 0.35 0.36
2 -3 -7 1.19 0.42
2 -3 -7 0.71 0.4
2 -3 -6 210.53 6.31
2 -3 -6 212.44 6.28
-2 3 6 205.55 5.54
2 -3 -6 199 5.77
2 -3 -6 207.63 7.39
2 -3 -6 207.39 4.48
-2 3 6 189.2 5.15
-2 3 6 213.94 6.57
2 -3 -6 191.66 5.04
2 -3 -5 53.21 1.68
2 -3 -5 53.09 2.89
2 -3 -5 52.93 2.67
-2 3 5 53.1 2.37
2 -3 -5 54.34 2.76
2 -3 -5 53.91 3.29
-2 3 5 54.59 2.23
2 -3 -5 51.35 1.93
-2 3 5 55.98 2.95
2 -3 -4 229.17 5.91
2 -3 -4 220.88 4.06
-2 3 4 227.25 5.1
2 -3 -4 237.15 6.9
-2 3 4 222.13 5.37
2 -3 -4 224.12 6.39
2 -3 -4 216.26 5.99
-2 3 4 220.03 6.18
-2 3 3 456.33 8.66
2 -3 -3 451.5 9.78
2 -3 -3 471.06 10.33
2 -3 -3 461.53 9.38
2 -3 -3 471.44 9.33
2 -3 -3 461.25 10.34
-2 3 3 469.31 9.08
-2 3 3 494.2 9.92
2 -3 -2 62.44 2.65
2 -3 -2 66.73 2.71
2 -3 -2 62.99 2.38
2 -3 -2 64.87 2.89
2 -3 -2 63.76 2.52
2 -3 -2 68.04 3.01
-2 3 2 64.28 2.83
2 -3 -2 62.08 2.98
-2 3 2 62.73 2.27
-2 3 2 66.54 2.73
-2 3 2 64.78 1.67
2 -3 -1 154.89 3.81
2 -3 -1 154.53 5
2 -3 -1 161.01 4.84
2 -3 -1 153.99 4.74
2 -3 -1 148.51 4.12
2 -3 -1 158.61 4.7
-2 3 1 158.52 4.62
2 -3 -1 156.93 4.79
-2 3 1 160.11 4.89
2 -3 -1 161.93 4.34
-2 3 1 163.42 4.52
-2 3 1 159.35 4.36
2 -3 0 17.59 0.97
2 -3 0 16.86 1.5
2 -3 0 16.47 1.49
2 -3 0 16.24 1.13
-2 3 0 19.39 1.52
-2 3 0 18.11 1.42
2 -3 0 15.99 1.41
-2 3 0 17.36 1.55
-2 3 0 16.85 0.9
2 -3 0 18.83 1.46
2 -3 0 18.32 1.51
-2 3 0 16.97 1.43
2 -3 0 19.29 1.24
-2 3 0 18.12 1.24
2 -3 1 104.53 3.96
-2 3 -1 106.69 3.7
2 -3 1 98.37 3.76
-2 3 -1 100.06 3.99
-2 3 -1 98.47 3.83
-2 3 -1 103.33 2.63
2 -3 1 105.99 3.74
-2 3 -1 109.67 3.79
2 -3 1 107.3 4.01
2 -3 1 106.68 3.11
-2 3 -2 35.8 2.46
2 -3 2 37.95 2.3
2 -3 2 36.79 2.23
-2 3 -2 39.74 2.15
2 -3 2 39.99 2.34
-2 3 -2 40.66 2.26
2 -3 2 37.6 2.24
2 -3 2 44.98 2.6
-2 3 -2 38.98 1.57
2 -3 2 39.14 1.73
-2 3 -3 18.96 1.48
2 -3 3 16.44 1.51
-2 3 -3 19.7 1.53
-2 3 -3 17.07 1.86
2 -3 3 18.97 1.62
2 -3 3 18.27 1.66
2 -3 3 19.64 1.63
2 -3 3 17.7 1.15
-2 3 -4 267.24 6.85
2 -3 4 268.08 7.54
2 -3 4 255.46 6.99
-2 3 -4 257.44 8.19
2 -3 4 260.84 7
2 -3 4 249.12 7.02
2 -3 5 52.03 2.8
-2 3 -5 50.88 1.64
-2 3 -5 59.04 2.99
2 -3 5 57.66 2.97
2 -3 5 50.1 2.93
2 -3 5 51.35 3.18
-2 3 -5 53.21 3.7
2 -3 6 8.39 1.35
2 -3 6 8.74 1.15
2 -3 6 8.88 1.29
2 -3 6 9.92 1.24
-2 3 -6 8.41 1.23
-2 3 -6 9.16 0.76
-2 3 -6 9.17 1.62
2 -3 7 1.63 0.73
2 -3 7 2.19 0.71
-2 3 -7 4.98 1.06
-2 3 -7 3.22 0.54
2 -3 7 2.05 0.63
2 -3 7 2.94 0.7
-2 3 -7 3.29 1.18
2 -3 8 0.27 0.3
2 -3 8 0.24 0.33
-2 3 -8 0.89 0.6
2 -3 8 0.52 0.63
2 -3 8 0.4 0.52
2 -3 8 0.21 0.32
-2 3 -8 -0.28 0.56
2 -3 9 -0.48 0.5
-2 3 -9 0.38 0.55
-2 3 -9 0.37 0.7
2 -3 9 0.11 0.55
-2 3 -10 9.94 1.74
2 -3 10 9.14 1.58
-2 3 -10 9.26 2.01
2 -3 10 9.87 1.94
2 -3 10 10.85 2.07
2 -3 11 0.32 0.59
2 -3 11 -0.08 0.71
2 -3 11 0.67 0.81
-2 3 -11 -0.1 0.72
2 -3 12 -0.61 0.67
-2 3 -12 -0.42 0.73
2 -3 12 0.52 0.77
-2 2 13 15.44 2.3
-2 2 12 4.52 1.28
2 -2 -12 4.25 1.27
-2 2 11 10.94 1.77
-2 2 11 10.2 1.48
2 -2 -11 12.03 1.92
-2 2 10 6.84 1.16
-2 2 10 6.13 1.26
2 -2 -10 6.77 1.06
2 -2 -10 7.18 1.36
2 -2 -10 4.63 1.16
2 -2 -9 36.67 2.88
2 -2 -9 39.23 3.02
2 -2 -9 41.23 3.78
-2 2 9 34.19 2.41
2 -2 -9 38.91 2.38
-2 2 9 42.99 3.17
2 -2 -8 34.28 3.22
2 -2 -8 37.81 2.05
2 -2 -8 33.1 2.56
2 -2 -8 34.02 2.64
2 -2 -8 38.16 2.18
-2 2 8 38.41 2.36
2 -2 -8 35.63 2.17
-2 2 8 39.89 2.89
-2 2 7 -0.35 0.55
-2 2 7 0.22 0.25
2 -2 -7 0.52 0.32
2 -2 -7 -0.03 0.28
2 -2 -7 -0.04 0.5
2 -2 -7 -0.02 0.29
2 -2 -7 0.07 0.29
2 -2 -7 0.22 0.38
-2 2 6 4.89 0.92
-2 2 6 4.04 0.67
2 -2 -6 3.57 0.74
2 -2 -6 4.14 0.74
2 -2 -6 4.69 0.64
2 -2 -6 5.36 1.2
2 -2 -6 4.21 0.66
2 -2 -6 4.34 0.76
2 -2 -6 4.91 0.93
2 -2 -5 544.5 11.44
-2 2 5 558.56 10.19
2 -2 -5 526.38 10.05
2 -2 -5 545.63 10.93
2 -2 -5 565.72 11.47
2 -2 -5 542.83 12.46
2 -2 -5 539.3 9.7
-2 2 5 556.15 11.66
2 -2 -5 526.73 10.49
2 -2 -4 93.12 3.7
-2 2 4 91.67 2.78
2 -2 -4 98.73 3.57
2 -2 -4 93.86 3.94
2 -2 -4 90.13 2.51
-2 2 4 90.01 3.3
2 -2 -4 89.63 2.89
2 -2 -4 90.86 3.42
-2 2 4 92.87 3.61
2 -2 -3 0.06 0.31
-2 2 3 0.33 0.34
2 -2 -3 0.54 0.41
2 -2 -3 0.27 0.23
2 -2 -3 0.41 0.2
2 -2 -3 0.27 0.33
-2 2 3 0.1 0.17
-2 2 3 0.16 0.18
-2 2 3 0.2 0.15
-2 2 3 0.04 0.25
2 -2 -3 -0.1 0.33
-2 2 3 -0.09 0.32
2 -2 -2 5.77 0.75
-2 2 2 6.09 0.77
-2 2 2 5.98 0.79
2 -2 -2 4.58 0.67
2 -2 -2 6.02 0.91
-2 2 2 5.89 0.66
2 -2 -2 4.84 0.8
-2 2 2 5.93 0.48
-2 2 2 6.06 0.73
2 -2 -2 5.89 0.52
2 -2 -2 5 0.62
2 -2 -2 5.5 0.68
2 -2 -2 5.64 0.79
-2 2 2 5.54 0.56
-2 2 2 5.11 0.68
2 -2 -1 54.11 2.1
2 -2 -1 59.09 2.79
-2 2 1 56.65 1.95
-2 2 1 58.28 2.08
2 -2 -1 57.21 2.25
-2 2 1 58.39 2.39
-2 2 1 56.76 2.23
-2 2 1 61.94 2.21
2 -2 -1 55.83 2.17
2 -2 -1 59.5 2.65
-2 2 1 60.46 1.89
2 -2 -1 54.21 2.23
2 -2 -1 57.51 2.38
2 -2 -1 54.17 2.65
-2 2 1 55.53 2.41
-2 2 1 56.62 2.16
2 -2 0 0.22 0.27
2 -2 0 0.52 0.24
-2 2 0 0.28 0.23
-2 2 0 0.4 0.21
-2 2 0 0.87 0.38
-2 2 0 0.15 0.17
2 -2 0 0.25 0.26
2 -2 0 0.44 0.23
2 -2 0 0.4 0.38
-2 2 0 0.63 0.36
-2 2 0 0.48 0.35
2 -2 0 0.14 0.25
-2 2 0 0.94 0.41
-2 2 0 0.02 0.38
-2 2 0 0.1 0.18
2 -2 0 0.24 0.42
2 -2 0 0.96 0.53
2 -2 1 5.23 0.7
-2 2 -1 4.45 0.78
-2 2 -1 4.58 0.44
2 -2 1 6.35 0.96
-2 2 -1 4.63 0.59
-2 2 -1 4.68 0.66
-2 2 -1 5.76 0.78
2 -2 1 4.46 0.78
2 -2 1 6.52 0.87
-2 2 -1 4.69 0.69
2 -2 1 4.92 0.82
2 -2 1 6.23 0.57
-2 2 -1 4.09 0.74
2 -2 1 4.4 0.81
2 -2 1 4.77 0.87
-2 2 -1 5.35 0.54
2 -2 2 57.48 2.79
2 -2 2 60.45 2.85
-2 2 -2 59.37 2.48
-2 2 -2 63.78 3.11
-2 2 -2 59.61 2.74
2 -2 2 60.09 3.09
-2 2 -2 62.81 2.58
2 -2 2 61.21 2.57
2 -2 2 60.36 3
2 -2 2 64.46 2.88
2 -2 2 64.6 1.88
2 -2 3 22.34 1.71
-2 2 -3 22.46 1.49
2 -2 3 23.47 1.73
-2 2 -3 22.29 1.52
-2 2 -3 23.93 2.05
2 -2 3 21.81 1.72
-2 2 -3 22.04 1.57
2 -2 3 22.6 1.67
2 -2 3 24.19 1.96
2 -2 3 22.81 1.07
-2 2 -4 228.67 5.97
-2 2 -4 228.6 7.49
-2 2 -4 239.66 5.75
2 -2 4 230.43 6.52
2 -2 4 241.29 6.43
2 -2 4 240.67 6.4
2 -2 4 241.43 7.18
2 -2 4 231.06 6.64
-2 2 -5 38.68 3.05
2 -2 5 43.23 2.4
-2 2 -5 41.88 2.4
-2 2 -5 43.91 2.07
2 -2 5 41.72 2.39
2 -2 5 45.43 2.73
2 -2 5 43.64 2.94
-2 2 -6 1.77 0.87
2 -2 6 0.06 0.4
2 -2 6 1.66 0.52
2 -2 6 0.74 0.36
-2 2 -6 1.14 0.52
2 -2 6 0.6 0.5
2 -2 7 63.59 2.97
2 -2 7 63.36 2.83
-2 2 -7 69.65 3.62
2 -2 7 64.68 3.64
-2 2 -7 63.07 4.39
2 -2 7 65.63 2.59
2 -2 8 3.85 0.98
2 -2 8 2.36 0.52
-2 2 -8 1.64 0.72
-2 2 -8 2.14 1.07
2 -2 8 3.15 1.13
2 -2 8 1.21 0.45
2 -2 9 0.28 0.48
-2 2 -9 0.04 0.58
-2 2 -9 -0.17 0.85
2 -2 9 0.42 0.37
2 -2 9 1.44 0.82
2 -2 10 0.45 0.51
-2 2 -10 0.7 0.67
-2 2 -10 0.3 0.91
2 -2 10 -0.07 0.59
-2 2 -11 8.7 2.07
2 -2 11 10.57 1.99
2 -2 11 8.42 1.6
2 -2 12 12.73 2.05
2 -2 12 14.21 2.48
-2 2 -12 14.3 2.73
-2 2 -13 5.42 1.85
2 -2 13 7.4 1.98
-2 1 13 8.18 1.78
-2 1 12 4.2 1.24
2 -1 -12 6.76 1.57
-2 1 11 -0.69 0.74
2 -1 -11 -0.01 0.34
2 -1 -11 0.35 0.5
-2 1 10 9.75 1.64
2 -1 -10 10.01 1.66
-2 1 10 8.09 1.22
2 -1 -10 9.81 1.36
2 -1 -10 8.48 1.55
-2 1 9 -0.38 0.63
-2 1 9 -0.24 0.36
2 -1 -9 -0.11 0.4
2 -1 -9 -0.54 0.49
2 -1 -9 0.34 0.62
2 -1 -8 14.69 1.17
2 -1 -8 15.6 1.8
2 -1 -8 16.89 1.78
2 -1 -8 15.97 1.53
-2 1 8 14.89 1.42
-2 1 8 18.75 1.99
2 -1 -7 21.81 1.55
2 -1 -7 20.35 1.8
-2 1 7 21.23 1.56
2 -1 -7 19.45 1.89
-2 1 7 25.26 2.18
2 -1 -7 24.59 2.51
2 -1 -7 25.73 1.78
2 -1 -7 21.67 1.51
2 -1 -7 21.33 1.42
2 -1 -6 247.85 6.91
2 -1 -6 230.37 5.37
2 -1 -6 219.2 5.6
2 -1 -6 223.76 6.09
2 -1 -6 230.18 7.65
-2 1 6 219.75 5.47
2 -1 -6 238.04 5.87
2 -1 -6 225.19 5.92
-2 1 6 247.44 7.06
2 -1 -5 157.51 5.06
2 -1 -5 157.72 4.55
-2 1 5 158.84 4
2 -1 -5 159.15 5.16
2 -1 -5 155.38 4.77
2 -1 -5 163.38 5.74
2 -1 -5 166.53 4.35
2 -1 -5 162.84 3.95
-2 1 5 169.76 5.34
2 -1 -5 154.63 4.39
-2 1 4 33.62 1.82
2 -1 -4 36.78 2.13
2 -1 -4 33.48 1.37
-2 1 4 35.97 1.43
2 -1 -4 35.57 1.97
-2 1 4 32.48 1.59
2 -1 -4 35.45 2.27
2 -1 -4 35.44 2.13
-2 1 4 34.44 2.14
2 -1 -4 33.78 1.61
2 -1 -4 37.69 2.03
-2 1 4 31.71 2.02
-2 1 3 559.68 10.3
-2 1 3 554.08 10.82
-2 1 3 567.82 10.53
2 -1 -3 566.79 11.33
-2 1 3 574.62 10.45
-2 1 3 532.55 9.11
2 -1 -3 571.92 11.04
2 -1 -3 567.84 10.96
2 -1 -3 562.02 11.06
-2 1 3 566.7 10.81
2 -1 -3 555.29 9.76
-2 1 3 557.2 9.62
2 -1 -3 541.38 10.39
-2 1 3 574.05 10.96
-2 1 2 12.84 1.02
-2 1 2 11.19 1.09
2 -1 -2 13.35 1.29
-2 1 2 11.88 1.18
2 -1 -2 12.63 1.09
-2 1 2 12.72 0.65
2 -1 -2 16.15 1.34
-2 1 2 12.17 1.04
-2 1 2 13.89 1.05
2 -1 -2 14.42 1.24
2 -1 -2 11.84 1
2 -1 -2 12.02 0.84
-2 1 2 12.5 0.97
-2 1 2 13.81 0.84
2 -1 -2 12.23 0.67
2 -1 -2 12.38 1.06
-2 1 2 12.91 1.08
-2 1 2 12.9 0.99
-2 1 1 26.91 1.41
-2 1 1 25.54 1.66
2 -1 -1 26.09 1.81
-2 1 1 26.5 1.25
-2 1 1 25.61 1.48
2 -1 -1 27.95 1.78
-2 1 1 27.26 1.11
-2 1 1 26.34 1.6
2 -1 -1 23.25 1.72
2 -1 -1 25.29 1.18
2 -1 -1 27.63 1.42
2 -1 -1 27.93 1.31
2 -1 -1 27.51 1.27
-2 1 1 25.4 1.19
2 -1 -1 24.12 1.59
-2 1 1 30.44 1.89
-2 1 1 24.38 1.32
2 -1 -1 26.9 1.51
-2 1 0 2.17 0.35
-2 1 0 2.64 0.36
2 -1 0 2.8 0.41
-2 1 0 2.24 0.48
2 -1 0 3.05 0.66
-2 1 0 2.41 0.51
-2 1 0 3.2 0.62
2 -1 0 2.5 0.65
2 -1 0 3.41 0.59
2 -1 0 2.83 0.4
-2 1 0 2.07 0.54
-2 1 0 2.63 0.44
-2 1 0 2.79 0.45
-2 1 0 2.66 0.46
2 -1 0 2.26 0.46
-2 1 0 2.8 0.62
2 -1 0 2.3 0.62
-2 1 0 2.17 0.59
2 -1 1 0.19 0.14
-2 1 -1 0.18 0.13
2 -1 1 -0.03 0.18
2 -1 1 0.47 0.47
2 -1 1 0.3 0.37
2 -1 1 0.24 0.29
2 -1 1 0.93 0.44
-2 1 -1 0.31 0.31
-2 1 -1 0.17 0.28
-2 1 -1 0.02 0.15
-2 1 -1 0.39 0.39
2 -1 1 0.1 0.36
-2 1 -1 0.38 0.33
-2 1 -1 0.14 0.32
2 -1 1 0.55 0.57
-2 1 -1 0.05 0.31
-2 1 -1 -0.07 0.22
-2 1 -2 93.06 3.39
-2 1 -2 90.98 3.3
2 -1 2 94.4 3.5
-2 1 -2 93.91 3.47
-2 1 -2 94.02 3.29
2 -1 2 93.24 3.63
-2 1 -2 91.08 3.22
-2 1 -2 83.87 3.52
2 -1 2 91.3 3.4
2 -1 2 89.8 3.49
2 -1 2 91.11 3.77
-2 1 -2 86.71 2.87
2 -1 2 88.95 2.8
2 -1 2 91.52 3.09
2 -1 2 89.89 1.82
2 -1 3 2.72 0.69
-2 1 -3 3.87 0.88
-2 1 -3 2.71 0.56
-2 1 -3 2.22 0.52
2 -1 3 2.78 0.66
2 -1 3 2.29 0.6
-2 1 -3 2.27 0.53
-2 1 -3 3.01 0.65
2 -1 3 3.37 0.83
2 -1 3 2.36 0.79
-2 1 -3 2.36 0.5
2 -1 3 3.16 0.58
-2 1 -4 1301.11 21.61
-2 1 -4 1306.98 21.63
2 -1 4 1295.25 21.99
2 -1 4 1305.61 19.43
-2 1 -4 1284.93 23.93
-2 1 -4 1308.54 21.77
2 -1 4 1351.99 23.65
2 -1 4 1299.5 22.16
2 -1 4 1330.32 22.88
-2 1 -5 0.81 0.41
2 -1 5 0.6 0.34
-2 1 -5 0.82 0.33
2 -1 5 1.2 0.51
-2 1 -5 0.79 0.45
2 -1 5 0.96 0.43
-2 1 -5 1.11 0.37
2 -1 5 0.67 0.53
2 -1 5 0.98 0.24
2 -1 6 26.79 2.12
-2 1 -6 25.56 2.54
-2 1 -6 27.24 2
2 -1 6 25.12 1.66
-2 1 -6 26.59 1.64
2 -1 6 27 1.31
2 -1 6 26.86 2.38
-2 1 -7 44.12 3.6
2 -1 7 53.33 3.53
-2 1 -7 44.27 2.08
2 -1 7 49.29 3.08
2 -1 7 49.11 2.03
-2 1 -7 48.65 2.92
2 -1 7 48.16 2.24
-2 1 -8 34.78 2.63
-2 1 -8 27.95 3.08
-2 1 -8 29.41 1.57
2 -1 8 30.78 1.73
2 -1 8 24.1 2.53
2 -1 8 29.58 2.48
2 -1 9 5.27 0.78
2 -1 9 3.94 0.96
-2 1 -9 5.58 1.47
2 -1 9 4.17 1.21
-2 1 -9 3.56 0.97
2 -1 10 0.52 0.57
-2 1 -10 0.52 0.75
2 -1 10 1.38 0.8
-2 1 -11 59.55 5.18
2 -1 11 53.87 4.43
2 -1 11 54.19 3.98
-2 1 -12 16.76 2.91
2 -1 12 19.78 2.54
2 -1 12 17.67 2.7
2 -1 13 3.17 1.28
-2 1 -13 8.24 2.17
2 -1 13 4.7 1.36
2 -1 14 -1.66 1.08
2 -1 14 -1.25 0.85
-2 0 13 1.65 0.9
2 0 -12 2.1 0.96
2 0 -12 1.09 0.67
-2 0 12 1.1 0.79
2 0 -11 29.88 2.65
-2 0 11 27.72 2.86
2 0 -11 24.3 2.77
2 0 -10 1.72 0.81
-2 0 10 1.48 0.78
2 0 -10 1.64 0.71
-2 0 9 13.52 1.83
2 0 -9 15.47 1.72
2 0 -9 15.89 1.84
2 0 -9 15.64 1.93
2 0 -8 18.37 1.84
2 0 -8 21.83 2.17
2 0 -8 19.36 1.8
-2 0 8 17.56 1.99
2 0 -7 9.39 0.99
2 0 -7 7.92 1.09
2 0 -7 7.51 1.09
2 0 -7 7.51 1.23
-2 0 7 7.84 1.28
-2 0 6 13.02 1.04
2 0 -6 13.71 1.06
-2 0 6 11.71 1.02
2 0 -6 12.58 1.24
2 0 -6 14.94 1.37
2 0 -6 14.46 1.16
2 0 -6 12.95 1.5
-2 0 6 14.2 1.57
-2 0 5 34.77 1.86
2 0 -5 32.68 1.76
-2 0 5 33.51 1.52
2 0 -5 32.65 2.24
2 0 -5 34.22 1.94
-2 0 5 36.44 2.35
2 0 -5 33.3 1.45
2 0 -5 31.59 1.81
-2 0 5 31.83 1.52
2 0 -4 739.22 14.46
-2 0 4 752.85 13.61
-2 0 4 758.78 13.8
2 0 -4 743.61 14.33
2 0 -4 734.77 13.3
2 0 -4 751.76 12.34
-2 0 4 736.99 12.94
-2 0 4 729.37 11.93
2 0 -4 748.82 14.59
-2 0 4 733.53 14.32
2 0 -4 759.57 13.3
2 0 -4 709.94 13.52
-2 0 4 767.21 14.39
2 0 -4 755.08 11.79
-2 0 3 382.89 8.22
-2 0 3 374.56 8.02
2 0 -3 374.96 8.18
-2 0 3 389.02 8.31
2 0 -3 378.52 8.18
-2 0 3 379.53 6.06
2 0 -3 376.1 5.96
2 0 -3 373.6 7.95
-2 0 3 363.53 7.96
2 0 -3 378.82 7.5
2 0 -3 372.84 8.56
-2 0 3 369.69 7.39
-2 0 3 384.66 7.81
-2 0 3 379.75 8.26
2 0 -3 373.36 8.28
-2 0 2 55.66 2.36
-2 0 2 58.63 2.48
-2 0 2 61.28 2.65
2 0 -2 59.34 2.15
-2 0 2 61.58 2.49
2 0 -2 57.92 2.17
-2 0 2 60.42 2.48
2 0 -2 54.25 2.54
-2 0 2 57.42 2.09
-2 0 2 58.16 2.05
2 0 -2 60.25 2.54
2 0 -2 56.85 2.66
2 0 -2 57.88 2.49
-2 0 2 56.67 2.36
2 0 -2 55.9 2.5
-2 0 1 20.96 1.34
2 0 -1 19.29 1.49
-2 0 1 20.89 1.45
2 0 -1 19.67 0.91
-2 0 1 20 1.49
2 0 -1 19.66 1.42
-2 0 1 20.25 0.87
-2 0 1 19.13 1.13
2 0 -1 20.95 1.37
-2 0 1 20.3 1.41
2 0 -1 18.2 1.46
-2 0 1 23.14 1.71
-2 0 1 18.23 1.32
-2 0 1 19.33 1.19
2 0 -1 19.97 1.19
-2 0 1 20.75 1.51
-2 0 0 242.68 5.87
-2 0 0 237.25 6.1
-2 0 0 248.87 6.16
2 0 0 242.85 4.82
-2 0 0 245.89 4.86
-2 0 0 244.37 6.47
2 0 0 239.94 5.92
-2 0 0 249.25 4.53
2 0 0 236.89 5.28
2 0 0 258.87 6.22
2 0 0 230.26 6.43
2 0 0 250.36 6.11
2 0 0 234.55 5.9
-2 0 0 239.16 4.82
-2 0 0 240.5 5.92
-2 0 0 232.86 5.34
-2 0 0 229.52 5.37
-2 0 -1 174.24 4.97
2 0 1 175.21 4.92
2 0 1 180.76 3.28
-2 0 -1 175.83 4.01
2 0 1 172.13 5.47
2 0 1 168.98 4.4
-2 0 -1 174.97 4.89
-2 0 -1 169.39 4.46
2 0 1 170.22 4.9
-2 0 -1 172.35 4.04
-2 0 -1 170.76 4.41
2 0 1 181.42 4.09
-2 0 -1 177.06 5.28
2 0 1 180.15 4.93
-2 0 -1 172.01 3.36
-2 0 -1 178.63 4.94
2 0 2 46.2 2.3
-2 0 -2 53.82 2.47
-2 0 -2 49.84 1.84
2 0 2 50.69 2.45
-2 0 -2 53.14 2.67
-2 0 -2 52.48 2.49
-2 0 -2 47.52 2.09
-2 0 -2 53.47 2.4
2 0 2 50.85 1.94
2 0 2 50.45 1.98
2 0 2 49.94 2.4
2 0 2 53.34 2.86
2 0 2 54.04 2.59
2 0 2 53.12 2.15
-2 0 -2 50.52 2.4
-2 0 -3 213.93 4.75
2 0 3 212.26 5.83
-2 0 -3 206.26 5.52
-2 0 -3 214.68 5.61
-2 0 -3 209.55 6.11
2 0 3 218.69 6.1
-2 0 -3 210.15 5.47
2 0 3 211.44 5.46
2 0 3 207.6 5.35
2 0 3 208.73 4.9
2 0 3 210.11 6.33
-2 0 -3 212.91 5.91
-2 0 -3 203.37 5.3
2 0 3 203.15 5.4
-2 0 -4 147.4 4.45
2 0 4 149.33 4.06
-2 0 -4 149.16 4.01
2 0 4 145.06 4.74
-2 0 -4 142.37 4.43
-2 0 -4 142.92 5.35
2 0 4 136.36 4.69
2 0 4 148.89 5.34
2 0 4 144.91 4.32
2 0 4 139.02 4.58
-2 0 -5 99.84 3.46
2 0 5 97.91 3.96
-2 0 -5 103.25 3.53
-2 0 -5 100 3.58
2 0 5 97.66 3.99
-2 0 -5 93.86 4.6
2 0 5 93.73 3.31
2 0 5 99.14 4.44
2 0 5 97.55 2.23
-2 0 -6 58.91 2.53
-2 0 -6 59.38 3.85
-2 0 -6 57.98 2.66
-2 0 -6 59 2.87
2 0 6 65.62 2.62
2 0 6 59.52 3.3
2 0 6 57.26 3.44
2 0 6 56.39 1.86
2 0 6 57.65 3.11
-2 0 -7 25.33 1.51
-2 0 -7 28.2 1.8
-2 0 -7 31.8 2.25
2 0 7 27.59 2.37
-2 0 -7 29.21 2.91
2 0 7 29.71 2.32
2 0 7 26.88 2.47
2 0 7 30.21 1.46
2 0 8 2.33 0.48
2 0 8 3.79 0.9
-2 0 -8 3.3 0.86
2 0 8 4.45 1.12
-2 0 -8 2.09 0.49
-2 0 -8 1.73 0.87
2 0 8 2.98 1
2 0 9 13.13 1.9
2 0 9 11.56 1.71
2 0 9 9.02 1.43
-2 0 -9 8.27 1.74
2 0 9 10.36 1.04
2 0 10 22.9 2.67
-2 0 -10 21.06 2.92
2 0 10 23.01 2.42
2 0 10 26.53 1.81
2 0 11 9.22 1.85
2 0 11 11.53 1.82
-2 0 -11 8.72 2.03
-2 0 -12 20.25 3.17
2 0 12 20.68 2.53
2 0 12 22.18 2.92
2 0 13 -1.45 0.91
-2 0 -13 -0.4 1.04
2 0 13 1.06 0.95
2 0 14 0.47 0.81
2 0 14 1.1 0.79
2 1 -13 -1.49 0.81
-2 -1 12 0.76 0.72
2 1 -12 -0.06 0.6
2 1 -12 0.07 0.49
-2 -1 11 0.52 0.63
2 1 -11 1.32 0.88
2 1 -11 0.52 0.51
-2 -1 10 8.09 1.55
2 1 -10 8.18 1.63
2 1 -10 7.32 1.34
2 1 -9 0.95 0.64
2 1 -9 0.92 0.45
2 1 -9 0.36 0.47
-2 -1 9 -0.4 0.5
2 1 -8 23.85 2.09
2 1 -8 22.64 2.26
2 1 -8 24.32 2.14
-2 -1 8 25.15 2.4
-2 -1 7 148.37 4.04
2 1 -7 161.87 5.35
2 1 -7 172.41 6.15
2 1 -7 167.32 5.61
-2 -1 7 169.25 6.21
-2 -1 6 54.61 2.38
2 1 -6 50.8 2.58
2 1 -6 55.91 2.33
-2 -1 6 52.77 1.86
2 1 -6 59.5 3
-2 -1 6 57.31 3.27
2 1 -6 55.9 3.22
-2 -1 5 994.65 17.64
-2 -1 5 1030.22 18.23
2 1 -5 1031.08 17.27
2 1 -5 1010.07 16.55
2 1 -5 1038.36 18.17
2 1 -5 990.13 19.03
-2 -1 5 1002.96 16.82
-2 -1 5 1056.4 19.22
-2 -1 4 389.78 8.55
-2 -1 4 384.95 8.42
2 1 -4 390.61 9.23
-2 -1 4 387.05 7.9
2 1 -4 367.48 6.84
2 1 -4 375.92 7.26
-2 -1 4 376.99 7.48
-2 -1 4 376.47 9.08
2 1 -4 398.81 8.36
-2 -1 4 403.94 9.1
-2 -1 3 10.55 0.72
-2 -1 3 11 1.11
2 1 -3 13.3 1.18
-2 -1 3 12.68 1.2
-2 -1 3 10.81 1.11
-2 -1 3 11.66 1.07
-2 -1 3 8.74 1.13
2 1 -3 8.74 0.94
-2 -1 3 11.4 1.01
2 1 -3 12.55 1.34
2 1 -3 11.27 0.58
2 1 -3 10.33 0.63
-2 -1 2 618.23 11.89
-2 -1 2 619.33 12.07
2 1 -2 639.23 11.43
-2 -1 2 622.74 11.82
-2 -1 2 633.98 9.78
-2 -1 2 622.78 11.22
-2 -1 2 624.18 12.28
2 1 -2 630.37 11.91
-2 -1 2 633 11.23
-2 -1 2 631.23 11.97
2 1 -2 628.78 12.58
2 1 -2 598.69 12.3
2 1 -2 625.22 12.16
2 1 -1 36.67 1.99
2 1 -1 36.05 1.79
-2 -1 1 37.96 1.39
2 1 -1 38.67 2.22
-2 -1 1 34.7 1.69
2 1 -1 36.56 2.08
-2 -1 1 38.23 2.02
-2 -1 1 37.84 2.08
-2 -1 1 37.41 1.99
-2 -1 1 35.73 2.01
-2 -1 1 37.01 2.03
-2 -1 1 38.42 1.99
-2 -1 0 289.41 6.99
-2 -1 0 305.46 7.07
-2 -1 0 310.37 7.03
2 1 0 311.82 5.41
-2 -1 0 306.89 5.35
2 1 0 302.02 6.53
-2 -1 0 310 7.76
-2 -1 0 305.81 7.21
2 1 0 313.47 7.12
-2 -1 0 296.8 7.15
-2 -1 0 305.65 6.45
2 1 0 311.74 6.96
-2 -1 -1 4.63 0.75
2 1 1 6.74 0.89
-2 -1 -1 6.15 0.55
2 1 1 5.65 0.58
-2 -1 -1 4.95 0.71
-2 -1 -1 5.96 0.39
2 1 1 6.35 0.38
2 1 1 6.46 0.8
-2 -1 -1 4.86 0.68
-2 -1 -1 6.76 0.6
2 1 1 6.61 1.07
-2 -1 -1 6.58 0.9
-2 -1 -1 6.34 0.99
2 1 1 6.37 0.86
2 1 2 79.98 3.03
-2 -1 -2 79.55 3.09
-2 -1 -2 75.73 2.3
-2 -1 -2 70.34 2.04
-2 -1 -2 76.46 2.99
2 1 2 79.12 2.28
2 1 2 84.22 3.18
-2 -1 -2 76.69 2.83
-2 -1 -2 74.11 2.99
2 1 2 77.54 3.57
-2 -1 -2 76.6 3.42
-2 -1 -2 76.11 2.85
2 1 2 76.38 2.59
2 1 2 74.52 2.2
-2 -1 -2 74.93 2.59
2 1 3 26.79 1.71
-2 -1 -3 24.73 1.88
-2 -1 -3 24.78 1.56
-2 -1 -3 27.58 1.95
-2 -1 -3 22.55 1.48
2 1 3 26.08 1.53
2 1 3 22.51 1.92
-2 -1 -3 23.48 1.49
2 1 3 26.32 1.62
2 1 3 21.71 1.16
-2 -1 -3 21.55 1.46
-2 -1 -3 25.75 1.21
-2 -1 -3 26.84 1.76
-2 -1 -3 24.09 1.66
2 1 3 25.59 1.76
-2 -1 -3 24.43 0.84
-2 -1 -4 16.43 1.52
-2 -1 -4 23.99 1.68
2 1 4 18.36 1.54
2 1 4 20.95 1.58
-2 -1 -4 23.93 1.32
-2 -1 -4 20.87 1.89
-2 -1 -4 19.73 1.58
2 1 4 19.72 1.54
-2 -1 -4 21.18 1.54
2 1 4 22.46 1.98
2 1 4 19.8 1.2
-2 -1 -4 19.98 0.82
-2 -1 -5 94.49 3.59
2 1 5 99.58 3.91
-2 -1 -5 100.09 3.32
-2 -1 -5 92.64 4.45
2 1 5 95.62 3.89
-2 -1 -5 93.47 3.48
2 1 5 96.57 4.4
-2 -1 -5 96.33 2.44
2 1 5 95.57 2.45
-2 -1 -6 92.08 3.4
2 1 6 95.96 4
-2 -1 -6 98.44 4.88
-2 -1 -6 94.44 3.57
-2 -1 -6 90.12 3.53
2 1 6 91.36 4.06
2 1 6 90.58 4.41
-2 -1 -6 87.15 2.62
2 1 6 90.79 2.61
-2 -1 -7 38.42 2.11
2 1 7 36.31 2.55
2 1 7 38.12 2.76
-2 -1 -7 45.7 2.63
-2 -1 -7 37.56 2.22
-2 -1 -7 38.94 3.31
2 1 7 37.38 2.93
2 1 7 41.95 1.79
-2 -1 -8 65.41 4.52
-2 -1 -8 58.66 2.85
-2 -1 -8 59.9 2.53
2 1 8 68.67 3.94
2 1 8 61.52 3.94
2 1 8 62.89 3.56
2 1 8 66.64 2.54
2 1 9 8.44 1.4
2 1 9 6.51 1.33
-2 -1 -9 8.51 1.84
2 1 9 5.57 1.23
2 1 9 7.69 0.92
-2 -1 -10 17.11 2.68
2 1 10 19.88 2.39
2 1 10 16.63 2.23
2 1 10 14.45 1.91
2 1 10 16.59 1.43
2 1 11 156.31 6.84
-2 -1 -11 164.57 8.64
2 1 11 155.27 7.28
2 1 11 162.08 7.62
2 1 12 8.68 1.82
2 1 12 7.11 1.53
-2 -1 -12 7.84 2.02
2 1 12 7.39 1.77
2 1 13 11.59 2.07
2 1 13 9.18 1.99
-2 -1 -13 9.25 2.26
2 1 14 0.06 0.61
-2 -2 12 1.19 0.79
2 2 -12 -0.22 0.83
2 2 -12 -0.57 0.62
2 2 -11 12.39 2.05
-2 -2 11 8.31 1.71
2 2 -11 10.16 1.75
2 2 -10 6.36 1.42
-2 -2 10 2.52 0.95
2 2 -10 3.77 0.98
2 2 -9 10.65 1.73
2 2 -9 6.53 1.22
2 2 -9 7.38 1.34
-2 -2 9 7.82 1.5
2 2 -8 6.92 1.37
2 2 -8 7.17 1.18
2 2 -8 7.11 1.26
-2 -2 8 8.67 1.51
2 2 -7 4.24 1.05
-2 -2 7 2.75 0.55
2 2 -7 3.02 0.78
2 2 -7 1.1 0.53
-2 -2 7 3.56 1
-2 -2 6 20.63 1.57
-2 -2 6 25.41 1.99
2 2 -6 26.31 1.86
2 2 -6 20.67 1.49
-2 -2 6 20.82 1.29
2 2 -6 19.46 1.97
2 2 -6 21.29 1.87
-2 -2 6 26.19 2.28
-2 -2 5 113.3 3.61
-2 -2 5 121.63 4.28
-2 -2 5 113.01 3.99
2 2 -5 107.33 3.39
-2 -2 5 112.86 4.09
2 2 -5 110.62 3.75
2 2 -5 125.39 4.46
2 2 -5 117.25 4.76
-2 -2 4 1611.65 26.34
-2 -2 4 1576.16 25.56
2 2 -4 1550.23 24.51
2 2 -4 1609.52 26.29
-2 -2 4 1554.08 25.57
2 2 -4 1619.7 27.38
2 2 -4 1539.94 24.89
-2 -2 4 1562.7 26.06
-2 -2 3 241.27 6.3
-2 -2 3 232.62 6.16
-2 -2 3 236.38 5.44
2 2 -3 237.87 6.08
2 2 -3 232.03 6.8
2 2 -3 240.42 5.08
-2 -2 2 11.88 1.21
-2 -2 2 10.63 1.13
-2 -2 2 11.43 0.88
-2 -2 2 12.34 1.04
2 2 -2 11.48 1.35
2 2 -2 12.56 1.15
-2 -2 2 13.64 1.16
-2 -2 2 11.19 1.3
2 2 -1 12.46 1.31
-2 -2 1 11.17 1.05
2 2 -1 12.78 0.72
-2 -2 1 11.31 0.8
-2 -2 1 12.88 1.21
2 2 -1 11.11 1.06
-2 -2 1 11.26 1
-2 -2 1 9.9 1.18
-2 -2 1 12.95 1.26
-2 -2 1 12.84 0.89
2 2 -1 12.68 1.33
-2 -2 1 11.98 1.2
-2 -2 0 0.13 0.18
-2 -2 0 0.01 0.24
2 2 0 -0.06 0.14
-2 -2 0 0.1 0.21
2 2 0 0.45 0.36
2 2 0 0.23 0.2
-2 -2 0 -0.14 0.37
-2 -2 0 0.1 0.38
-2 -2 0 0.02 0.17
2 2 0 0.18 0.39
-2 -2 0 0.1 0.24
-2 -2 -1 0 0.1
2 2 1 -0.12 0.4
-2 -2 -1 -0.02 0.25
2 2 1 0.21 0.22
-2 -2 -1 0.14 0.2
2 2 1 0.05 0.33
-2 -2 -1 0.03 0.23
-2 -2 -1 -0.2 0.33
2 2 1 0.13 0.15
-2 -2 -1 -0.3 0.45
-2 -2 -1 0.09 0.19
2 2 2 1092.58 18.83
-2 -2 -2 1130.4 19.14
-2 -2 -2 1104.79 18.65
2 2 2 1071.15 16.6
-2 -2 -2 1105.88 16.34
2 2 2 1091.46 17.99
-2 -2 -2 1089.57 17.95
2 2 2 1130.17 18.65
-2 -2 -2 1099.86 17.62
2 2 2 1095.89 17.55
2 2 2 1096.42 20.27
-2 -2 -2 1122.01 20.2
-2 -2 -2 1094.49 18.23
-2 -2 -3 0.85 0.25
-2 -2 -3 0.42 0.25
2 2 3 0.98 0.39
2 2 3 0.77 0.21
-2 -2 -3 0.54 0.2
-2 -2 -3 0.7 0.32
-2 -2 -3 0.99 0.4
2 2 3 0.12 0.35
2 2 3 1.3 0.43
-2 -2 -3 0.81 0.39
2 2 3 1.38 0.62
-2 -2 -3 0.56 0.35
-2 -2 -3 0.53 0.39
-2 -2 -4 202.97 4.47
2 2 4 197.44 5.5
2 2 4 200.84 5.54
2 2 4 188.25 4.22
-2 -2 -4 189.31 5.54
2 2 4 198.98 6.47
-2 -2 -4 204.02 6.12
2 2 4 199.39 5.61
-2 -2 -4 196.13 4.19
-2 -2 -4 203.98 5.58
2 2 5 281.6 5.73
-2 -2 -5 265 6.8
2 2 5 280.56 7.2
2 2 5 276.01 5.97
-2 -2 -5 308.74 6.43
2 2 5 270.6 7.26
2 2 5 278.11 8.06
-2 -2 -5 277.64 7.64
-2 -2 -5 266.81 5.58
-2 -2 -6 199.47 5.72
-2 -2 -6 208.19 6.94
2 2 6 213.1 7.07
2 2 6 211.91 6.51
2 2 6 206.3 6.27
-2 -2 -6 217.7 7.52
-2 -2 -6 212.38 4.9
2 2 6 213.94 4.9
2 2 7 15.49 1.66
-2 -2 -7 12.48 1.25
-2 -2 -7 16.26 1.98
2 2 7 14.98 1.89
-2 -2 -7 12.47 1.08
-2 -2 -7 17.1 2.16
2 2 7 13.49 1.08
2 2 7 15.54 1.72
2 2 8 0.98 0.36
2 2 8 0.82 0.52
-2 -2 -8 0.48 0.29
2 2 8 1.16 0.63
-2 -2 -8 1.15 0.77
2 2 8 0.84 0.59
-2 -2 -8 0.29 0.66
2 2 9 11.9 1.61
2 2 9 8.07 1.48
2 2 9 11.02 1.74
-2 -2 -9 9.68 1.89
2 2 9 10.09 1.09
2 2 10 7.18 0.99
2 2 10 5.58 1.26
2 2 10 6.4 1.39
-2 -2 -10 4.01 1.46
2 2 10 5.2 1.29
-2 -2 -11 0.67 0.98
2 2 11 0.4 0.69
2 2 11 2.81 1.21
2 2 11 1.06 0.79
-2 -2 -12 77.39 6.17
2 2 12 75 5.15
2 2 12 77.79 4.95
2 2 12 73.48 5.24
2 2 13 5.04 1.42
2 2 13 3.56 1.24
-2 -2 -13 2.73 1.45
2 2 14 0.46 0.7
-2 -2 -14 -2.36 1.43
2 3 -12 0.59 0.75
2 3 -12 0.02 0.43
-2 -3 12 -0.5 0.86
2 3 -11 -0.33 0.8
2 3 -11 -0.14 0.64
-2 -3 11 0.15 0.6
2 3 -10 2.12 0.92
2 3 -10 2.09 0.9
-2 -3 10 4.17 1.28
-2 -3 9 -0.59 0.65
2 3 -9 0.27 0.59
2 3 -9 1.28 0.61
2 3 -9 0.97 0.78
2 3 -8 3.62 1.03
2 3 -8 1.22 0.61
-2 -3 8 2.37 0.87
2 3 -8 1.95 0.78
2 3 -7 59.36 3.3
2 3 -7 60.63 3.58
2 3 -7 61.11 3.82
-2 -3 7 65.41 3.98
2 3 -6 2.95 0.94
-2 -3 6 5.36 1
-2 -3 6 3.74 0.72
-2 -3 6 3.33 0.62
2 3 -6 3.53 0.86
2 3 -6 2.35 0.65
-2 -3 5 70.54 3.17
-2 -3 5 75.22 3.39
2 3 -5 68.06 2.9
2 3 -5 72.06 3.53
2 3 -5 73.47 3.9
2 3 -5 69.99 3.1
-2 -3 5 72.38 3.75
-2 -3 4 516.16 10.99
2 3 -4 506.59 10.18
-2 -3 4 496.45 10.85
2 3 -4 523.35 11.13
-2 -3 4 474.08 10.45
2 3 -4 515.57 11.88
-2 -3 4 528.69 11.46
-2 -3 3 90.64 3.64
2 3 -3 85.06 2.99
-2 -3 3 82.26 3.36
-2 -3 3 89.99 3.38
2 3 -3 87.73 3.54
-2 -3 3 90.89 3.6
2 3 -3 88.26 4
-2 -3 3 82.24 3.01
-2 -3 2 275.96 6.43
-2 -3 2 296.09 7.91
-2 -3 2 278.71 6.28
-2 -3 2 271 5.96
2 3 -2 275.33 6.88
-2 -3 2 282.89 6.75
2 3 -2 268.8 7.46
-2 -3 2 280.94 7.11
-2 -3 1 156.05 4.25
-2 -3 1 166.67 5.42
-2 -3 1 159.18 4.21
-2 -3 1 157.31 3.68
-2 -3 1 163.79 4.41
-2 -3 1 160.87 5.1
2 3 -1 159.56 3.9
2 3 -1 161.1 4.78
2 3 -1 161.6 4.3
2 3 0 379.03 7.17
2 3 0 356.45 7.63
-2 -3 0 373.69 6.21
-2 -3 0 357.43 7.29
2 3 0 362.51 8.04
-2 -3 0 358.07 7.43
2 3 0 364.61 7.29
-2 -3 0 363.64 8.7
-2 -3 0 361.92 8.75
2 3 1 407.1 7.85
2 3 1 405.02 8.63
-2 -3 -1 394.51 8.36
2 3 1 394.34 7.78
2 3 1 394.5 8.34
-2 -3 -1 411.27 7.88
-2 -3 -1 400.41 9.31
-2 -3 -1 399.94 7.84
-2 -3 -1 400.72 7.92
2 3 2 555 10.78
-2 -3 -2 568.7 10.5
-2 -3 -2 565.11 10.23
2 3 2 548.67 10.36
2 3 2 531.78 10.8
-2 -3 -2 548.15 10.78
-2 -3 -2 547.93 10.31
2 3 2 538.82 10.22
-2 -3 -2 539.84 12.23
-2 -3 -3 0.31 0.24
2 3 3 0.32 0.11
2 3 3 0.71 0.42
2 3 3 0.97 0.41
-2 -3 -3 0.39 0.32
2 3 3 0.39 0.34
-2 -3 -3 0.72 0.45
2 3 3 1.12 0.42
2 3 4 262.13 6.72
-2 -3 -4 258.78 6.89
2 3 4 264.89 6.83
2 3 4 269.69 7.82
-2 -3 -4 265.55 7.51
2 3 4 262.68 5
2 3 4 264.59 6.76
-2 -3 -4 269.85 5.85
2 3 5 114.7 4.21
2 3 5 113.31 3.16
2 3 5 110.99 4.27
-2 -3 -5 120.16 4.66
2 3 5 122.65 5
-2 -3 -5 122.85 3.5
2 3 6 49.74 2.81
2 3 6 41.99 2.7
-2 -3 -6 44.41 2.99
2 3 6 46.33 2.1
2 3 6 49.31 3.2
-2 -3 -6 45.75 2.09
2 3 6 48.2 2.22
2 3 7 35.14 2.5
2 3 7 33.84 2.58
-2 -3 -7 32.63 2.77
2 3 7 34.94 2.83
2 3 7 33.56 1.92
2 3 8 26.92 2.32
2 3 8 21.05 2.18
-2 -3 -8 28.36 2.93
-2 -3 -8 25.28 2.65
2 3 8 25.3 2.47
2 3 8 26.64 1.78
2 3 9 3.53 0.73
2 3 9 3.84 1.03
2 3 9 4.23 1.08
-2 -3 -9 4.1 1.26
2 3 9 3.7 1.18
-2 -3 -9 1.7 0.96
2 3 10 17.3 2.14
2 3 10 13.55 1.95
-2 -3 -10 14.9 2.36
2 3 10 14.24 2.04
-2 -3 -10 14.4 2.41
2 3 10 13.01 1.38
2 3 11 5.28 1.31
2 3 11 6.52 1.04
2 3 11 6.21 1.42
2 3 11 5.69 1.45
-2 -3 -11 9.45 2.17
2 3 12 1.99 0.95
2 3 12 2.44 1
-2 -3 -12 3.46 1.49
2 3 13 21.06 2.7
2 3 13 19.42 2.74
-2 -3 -13 21.4 3.47
2 3 14 1.21 0.98
-2 -3 -14 2.51 1.45
-2 -4 11 0.8 0.81
2 4 -11 1.64 0.95
2 4 -11 1.34 0.84
-2 -4 11 -0.23 0.84
2 4 -10 0.5 0.48
2 4 -10 1.42 0.86
-2 -4 10 2.16 1.1
-2 -4 10 1.99 0.88
-2 -4 9 1.49 0.81
2 4 -9 1.69 0.86
2 4 -9 0.87 0.62
-2 -4 9 3.75 1.19
2 4 -8 3.37 1.04
2 4 -8 3.93 0.99
-2 -4 8 2.49 1.01
2 4 -8 2 0.79
2 4 -7 -0.1 0.52
2 4 -7 0.68 0.53
2 4 -7 0.62 0.59
-2 -4 7 0.34 0.59
-2 -4 6 127.02 4.78
2 4 -6 119.1 4.78
2 4 -6 127.45 5.29
2 4 -6 123.84 5.59
-2 -4 6 119.96 5.57
2 4 -5 0.33 0.52
-2 -4 5 0.81 0.53
2 4 -5 1.29 0.54
2 4 -5 1.24 0.62
-2 -4 5 0.82 0.58
-2 -4 4 29.83 2.11
2 4 -4 25.88 1.88
2 4 -4 27.37 2.14
-2 -4 4 28.48 2.29
2 4 -4 25.87 2.27
-2 -4 4 24.76 1.53
2 4 -3 150.38 4.68
-2 -4 3 146.68 3.98
-2 -4 3 153.46 5.14
-2 -4 3 151.41 5.26
2 4 -3 150.26 5.11
2 4 -3 145.32 5.47
-2 -4 2 24.38 1.79
-2 -4 2 23.1 1.28
-2 -4 2 25.07 2.18
2 4 -2 26.01 1.9
-2 -4 2 27.63 1.98
-2 -4 2 23.45 1.38
-2 -4 2 23.06 1.83
-2 -4 1 14.06 1.3
-2 -4 1 12.56 0.9
-2 -4 1 12.94 1.58
2 4 -1 13.25 1.12
-2 -4 1 13.33 0.88
2 4 -1 13.85 1.35
-2 -4 1 15.61 1.4
2 4 -1 13.06 1.24
-2 -4 0 5.03 0.78
2 4 0 3.23 0.59
2 4 0 4.43 0.67
-2 -4 0 3.75 0.36
2 4 0 3.78 0.61
-2 -4 0 3.41 0.64
-2 -4 0 4.03 0.52
2 4 0 3.49 0.68
-2 -4 0 4.69 0.97
-2 -4 -1 30.18 1.45
2 4 1 28.49 1.68
2 4 1 24.35 1.57
2 4 1 24.09 1.73
-2 -4 -1 25.69 1.69
2 4 1 23.99 1.6
-2 -4 -1 27.45 2.07
2 4 2 701.91 12.93
2 4 2 680.45 12.9
2 4 2 687.84 13.3
-2 -4 -2 701.36 13.19
-2 -4 -2 709.58 14.21
2 4 2 681.62 13.03
-2 -4 -3 205.31 5.82
2 4 3 197.01 5.5
2 4 3 205.08 5.76
2 4 3 204 5.68
2 4 3 213.82 5.71
-2 -4 -3 204.66 6.73
-2 -4 -4 2.89 0.74
2 4 4 3.26 0.34
2 4 4 2.69 0.66
2 4 4 3.19 0.69
-2 -4 -4 2.49 0.7
2 4 5 158.27 3.77
2 4 5 157.43 5.12
2 4 5 164.8 5.43
-2 -4 -5 159.17 5.72
2 4 6 73.61 3.52
2 4 6 76.75 2.7
2 4 6 78.84 3.77
-2 -4 -6 71.69 3.98
2 4 6 73.31 3.95
2 4 6 75.38 3.12
2 4 7 0.75 0.45
2 4 7 0.77 0.51
2 4 7 0.85 0.53
2 4 7 1.62 0.76
-2 -4 -7 2.1 0.82
2 4 8 8.97 1.13
2 4 8 9.31 1.46
-2 -4 -8 12.21 1.9
2 4 8 9.12 1.51
2 4 8 8.43 1.33
2 4 9 54.39 3.78
2 4 9 42.91 3.31
-2 -4 -9 47.13 4.11
-2 -4 -9 52.2 4.12
2 4 9 52.13 3.5
2 4 9 49.17 2.77
2 4 10 6.99 1.12
-2 -4 -10 9.06 1.91
2 4 10 6.49 1.43
2 4 10 6.4 1.33
2 4 10 5.12 1.26
-2 -4 -10 4.49 1.4
2 4 11 10.09 1.37
2 4 11 7.18 1.47
2 4 11 9.12 1.69
-2 -4 -11 7.19 1.85
-2 -4 -11 6.29 1.71
2 4 12 0.07 0.4
2 4 12 -1.85 0.94
-2 -4 -12 -1.48 1.25
2 4 13 2.77 1.3
2 4 13 1.09 0.65
-2 -4 -13 0.26 0.75
2 5 -10 0.07 0.56
-2 -5 10 -0.06 0.57
-2 -5 10 0.68 0.8
-2 -5 9 4.37 1.35
2 5 -9 3.19 1.08
2 5 -9 2.1 0.94
-2 -5 9 2.16 1.01
2 5 -8 4.12 1.16
-2 -5 8 4.59 1.31
2 5 -8 5.48 1.18
2 5 -8 3.86 1.14
2 5 -7 4.42 1.03
2 5 -7 4.33 1.17
2 5 -7 2.67 0.86
-2 -5 7 5.42 1.37
-2 -5 6 36.05 2.46
2 5 -6 31.91 2.53
2 5 -6 32.19 2.7
-2 -5 6 33.15 2.98
2 5 -6 31.99 2.86
2 5 -5 9.08 1.49
2 5 -5 8.3 1.25
-2 -5 5 7.3 1.42
-2 -5 5 9.73 1.29
2 5 -5 8.59 1.39
-2 -5 4 65.41 3.3
-2 -5 4 57.47 1.95
2 5 -4 59.78 3.18
2 5 -4 58.62 3.35
-2 -5 4 61.92 3.71
2 5 -4 59.98 3.59
2 5 -3 23.35 1.99
-2 -5 3 19.16 0.89
-2 -5 3 22.82 2.11
-2 -5 3 21.43 1.89
-2 -5 2 0.61 0.5
-2 -5 2 0.17 0.18
-2 -5 2 0.17 0.11
2 5 -2 0.19 0.38
-2 -5 2 0.05 0.4
-2 -5 1 59.32 3.16
-2 -5 1 54.67 2.04
2 5 -1 53.94 2.64
-2 -5 1 61.19 3.55
-2 -5 1 61.71 1.73
2 5 -1 56.55 2.98
2 5 0 18.06 1.63
-2 -5 0 16.88 1.59
2 5 0 19.18 1.54
2 5 0 15.66 1.15
-2 -5 0 16.93 1.78
-2 -5 0 17.98 0.94
-2 -5 -1 154.51 5.52
2 5 1 145.8 4.67
2 5 1 144.5 4.29
2 5 1 144.85 4.89
-2 -5 -1 151.26 5.01
2 5 2 23.14 1.61
2 5 2 23.89 1.78
2 5 2 23.02 1.78
-2 -5 -2 21.53 1.82
-2 -5 -2 21.67 1.94
2 5 3 24.21 1.72
2 5 3 25.26 1.87
2 5 3 22.99 1.78
-2 -5 -3 23.36 1.92
-2 -5 -3 27.28 2.17
-2 -5 -4 517.59 11.75
-2 -5 -4 510.5 11.65
2 5 4 502.3 11.09
2 5 4 502.4 10.78
2 5 4 480.77 10.47
2 5 4 497.61 7.99
2 5 5 0.21 0.38
2 5 5 0.14 0.15
2 5 5 -0.01 0.43
-2 -5 -5 -0.07 0.39
2 5 6 18.44 1.22
2 5 6 20.97 1.86
2 5 6 19.71 1.92
-2 -5 -6 20.27 2.13
2 5 7 98.53 4.38
2 5 7 101.35 4.71
-2 -5 -7 96.76 5.11
2 5 7 78.29 3.66
2 5 8 14.54 1.88
2 5 8 15.92 1.84
2 5 8 16.45 1.92
2 5 8 13.82 1.5
-2 -5 -8 14.34 2.09
-2 -5 -9 42.49 3.79
2 5 9 43.11 3.2
2 5 9 40.69 3.16
2 5 9 43.54 3.41
2 5 9 43.32 2.78
2 5 10 31.88 2.87
-2 -5 -10 25.63 3.14
2 5 10 31.96 3.05
2 5 10 30.91 2.43
2 5 11 13.3 1.64
2 5 11 15.33 2.14
2 5 11 12.01 1.98
-2 -5 -11 11.15 2.23
-2 -5 -11 11.82 2.31
2 5 12 0.61 0.6
2 5 12 0.45 0.54
-2 -5 -12 1.94 1.33
-2 -5 -12 -0.53 0.88
2 5 13 0.4 0.71
2 5 13 1.62 0.91
-2 -5 -13 2.41 1.28
-2 -5 -13 1.53 1.09
-2 -6 10 0.98 0.92
-2 -6 10 -0.63 0.68
2 6 -9 -0.48 0.57
-2 -6 9 -0.74 0.74
2 6 -8 0.25 0.45
-2 -6 8 0.53 0.54
2 6 -8 0.29 0.53
-2 -6 7 -1.93 0.94
2 6 -7 0.81 0.65
2 6 -7 1.04 0.7
2 6 -7 0.56 0.62
2 6 -6 24.98 2.38
-2 -6 6 24.5 2.11
-2 -6 6 23.04 2.65
2 6 -6 26.4 2.57
2 6 -6 23.95 2.54
-2 -6 5 37.47 2.57
2 6 -5 37.65 2.82
2 6 -5 37.5 2.96
-2 -6 5 40.14 3.35
2 6 -5 40.45 3.09
-2 -6 4 58.31 3.25
2 6 -4 57.49 3.52
-2 -6 4 57.95 3.85
-2 -6 3 13.6 1.56
-2 -6 3 12.49 1.69
2 6 -3 9.4 1.39
-2 -6 2 14.95 1.76
2 6 -2 16.53 1.74
-2 -6 2 14.37 1.59
-2 -6 1 11.7 0.98
2 6 -1 13.16 1.44
2 6 -1 12.06 1.45
-2 -6 1 12.21 1.57
-2 -6 0 12.11 1.52
2 6 0 12.44 1
-2 -6 0 12.19 1.6
2 6 0 11.64 1.33
-2 -6 0 11.85 0.88
2 6 0 10.94 1.36
2 6 1 0.85 0.47
2 6 1 1.5 0.47
2 6 1 0.76 0.46
-2 -6 -1 0.07 0.46
-2 -6 -1 0.44 0.44
-2 -6 -2 73.21 3.78
2 6 2 67.28 2.9
2 6 2 64.79 3.27
2 6 2 68.67 3.34
-2 -6 -2 71.4 3.65
2 6 3 71.82 3.37
2 6 3 73.53 3.53
-2 -6 -3 72.19 3.76
2 6 3 67.5 3.03
-2 -6 -3 67.85 3.6
2 6 4 127.88 2.62
2 6 4 125.57 4.61
2 6 4 124.14 4.43
-2 -6 -4 123.97 5.27
-2 -6 -4 134.33 5.27
2 6 4 133.18 2.68
2 6 4 131.19 5
2 6 5 24.8 1.18
-2 -6 -5 24.87 2.38
2 6 5 20.54 1.98
-2 -6 -5 26.1 2.27
2 6 5 24.63 1.98
2 6 6 96.69 4.57
2 6 6 84.75 2.85
2 6 6 102.42 4.33
-2 -6 -6 97.8 5.02
2 6 7 -0.15 0.54
2 6 7 0.05 0.37
-2 -6 -7 -0.09 0.63
-2 -6 -8 19.72 2.54
2 6 8 24.32 2.31
2 6 8 19.19 2.19
2 6 9 12.12 1.6
2 6 9 10.51 1.63
2 6 9 11.46 1.79
-2 -6 -9 9.74 1.91
2 6 10 17.17 2.15
2 6 10 15.2 2.16
-2 -6 -10 17.46 2.63
2 6 10 19.15 2.03
2 6 11 2 0.68
2 6 11 2.13 0.98
2 6 11 2.08 0.82
-2 -6 -11 1.87 0.97
-2 -6 -12 2.15 1.17
2 6 12 4.27 1.34
-2 -6 -12 3.33 1.51
2 6 12 3.63 1.23
2 6 13 -0.59 0.74
-2 -6 -13 -0.26 0.98
-2 -6 -13 -0.73 0.94
-2 -7 9 -0.75 0.83
-2 -7 8 1.1 0.9
2 7 -8 2.08 0.9
-2 -7 7 0.52 0.75
2 7 -7 -1.44 0.74
2 7 -7 0.04 0.56
-2 -7 6 15.52 1.69
-2 -7 6 16.98 2.44
2 7 -6 13.09 1.83
2 7 -6 15.53 2.09
-2 -7 5 3.94 1.17
2 7 -5 3.23 0.99
-2 -7 5 2.56 0.75
-2 -7 4 -0.77 0.76
-2 -7 4 0.51 0.53
2 7 -4 -0.13 0.36
-2 -7 3 6.28 1.38
-2 -7 3 6.37 1.13
2 7 -3 8.68 1.4
-2 -7 2 10.7 1.67
-2 -7 2 9.46 1.37
2 7 -2 7.53 1.27
2 7 -1 37.1 2.72
-2 -7 1 39.83 3.09
2 7 -1 36.79 2.6
2 7 0 48.13 1.9
2 7 0 48.97 2.02
-2 -7 0 43.1 2.02
2 7 0 45.86 2.95
2 7 0 45.06 2.95
-2 -7 0 52.78 3.46
-2 -7 0 44.47 3.25
-2 -7 -1 69.71 3.94
2 7 1 61.18 2.02
2 7 1 64.83 3.49
-2 -7 -1 63.17 3.76
2 7 1 64.16 3.5
2 7 1 67.2 2.76
2 7 2 16.61 1.75
-2 -7 -2 16.71 1.87
2 7 2 14.64 1.6
2 7 2 14.37 0.72
-2 -7 -2 14.52 1.8
2 7 2 17.76 1.47
-2 -7 -3 16.6 1.82
2 7 3 14.25 1.64
2 7 3 13.28 0.56
2 7 3 13.88 1.54
-2 -7 -3 15.17 1.88
2 7 3 13.62 1.35
2 7 4 65.11 3.21
2 7 4 67.18 3.73
2 7 4 67.32 1.67
2 7 4 70.52 3.48
-2 -7 -4 70.47 4.11
-2 -7 -4 68.62 3.79
2 7 5 33.87 2.37
2 7 5 32.56 1.41
-2 -7 -5 30.23 2.81
2 7 5 36.02 2.75
2 7 5 35.33 2.41
-2 -7 -5 36.65 2.73
2 7 6 3.03 0.8
2 7 6 2.45 0.89
-2 -7 -6 3.4 0.92
-2 -7 -6 2.27 0.94
2 7 7 40.79 2.89
2 7 7 44.8 3.3
-2 -7 -7 49.12 3.87
-2 -7 -7 44.13 3.14
2 7 8 -0.43 0.56
2 7 8 0.44 0.5
-2 -7 -8 -0.02 0.68
2 7 9 35.07 2.99
2 7 9 35.84 3.25
-2 -7 -9 37.3 3.76
-2 -7 -10 29.25 3.49
2 7 10 25.01 2.63
2 7 10 26.87 2.93
2 7 11 3.56 1.15
2 7 11 3.29 0.91
2 7 11 4.94 1.33
-2 -7 -11 4.52 1.55
2 7 12 11.87 2.04
2 7 12 11.6 2.1
-2 -7 -12 15.63 2.87
-2 -8 8 0.41 0.7
-2 -8 7 0.75 0.91
2 8 -7 -0.04 0.58
-2 -8 6 0.37 0.73
2 8 -6 0.89 0.64
-2 -8 5 14.55 2.33
2 8 -5 17.58 2.25
-2 -8 4 14.88 1.72
-2 -8 4 17.96 2.51
2 8 -4 16.37 2.06
-2 -8 3 2.88 1.17
-2 -8 3 3.69 0.98
2 8 -3 3.89 1.1
-2 -8 2 5.89 1.37
-2 -8 2 4.68 1.06
2 8 -2 3.58 0.98
-2 -8 1 10.49 1.79
2 8 -1 14.04 1.77
2 8 -1 13.1 1.72
-2 -8 0 15.93 2.06
2 8 0 16.39 1.23
2 8 0 17.97 1.96
2 8 0 15.06 1.81
2 8 1 7.91 1.26
2 8 1 8.09 1.33
-2 -8 -1 7.53 1.37
2 8 1 8.03 0.94
-2 -8 -1 7.47 1.44
2 8 2 54.62 3.49
-2 -8 -2 53.07 3.54
2 8 2 50.99 2.63
2 8 2 52.29 3.25
-2 -8 -2 46.43 3.51
-2 -8 -3 163.69 6.34
2 8 3 155.64 6.19
2 8 3 152.59 5.74
-2 -8 -3 158.85 6.75
2 8 3 153.42 5.09
-2 -8 -4 134.37 5.64
2 8 4 129.95 5.68
2 8 4 127.96 4.79
2 8 4 132.32 5.18
-2 -8 -4 135.43 6.3
-2 -8 -5 2.57 0.81
2 8 5 2.64 0.86
2 8 5 3.11 0.78
2 8 5 3.32 0.83
-2 -8 -5 1.38 0.77
2 8 6 36.66 2.67
2 8 6 35.26 2.99
-2 -8 -6 36.57 3.37
-2 -8 -6 36.82 2.81
2 8 7 4.99 1.23
-2 -8 -7 6.43 1.56
-2 -8 -7 3.86 0.94
2 8 7 6.44 1.21
2 8 8 32.76 2.81
2 8 8 29.35 2.9
-2 -8 -8 32.74 3.49
-2 -8 -9 4.04 1.28
2 8 9 3.27 0.96
2 8 9 4.94 1.3
2 8 10 3.64 1.14
-2 -8 -10 4.13 1.38
2 8 10 4.73 1.27
2 8 11 7.71 1.75
2 8 11 8.78 1.7
-2 -8 -11 7.9 2.03
2 8 12 0.11 0.48
-2 -8 -12 -0.26 0.79
-2 -9 7 -0.17 0.67
-2 -9 6 1.69 1.01
2 9 -6 -0.61 0.6
-2 -9 5 2.35 1.11
2 9 -5 1.92 0.89
-2 -9 4 -1.85 0.99
2 9 -4 0.3 0.52
-2 -9 3 1.27 0.71
2 9 -3 3.17 1.01
-2 -9 2 9.56 1.84
-2 -9 2 6.98 1.29
2 9 -2 5.21 1.15
2 9 -2 7.1 1.36
-2 -9 1 9.37 1.85
2 9 -1 8.39 1.48
2 9 -1 7.5 1.37
2 9 0 56.83 3.78
2 9 0 61.23 3.85
-2 -9 0 60.45 4.37
2 9 1 59.23 3.73
2 9 1 60.35 3.91
-2 -9 -1 57.79 4.25
2 9 2 3.56 1.03
2 9 2 5.32 1.16
-2 -9 -2 3.24 1.06
2 9 3 110.35 4.35
-2 -9 -3 121.6 5.57
2 9 3 115.88 5.14
-2 -9 -3 111.15 6.01
2 9 3 120.91 5.69
2 9 4 0.69 0.42
2 9 4 0.92 0.73
2 9 4 1.68 0.71
-2 -9 -4 1.12 0.62
-2 -9 -4 0.58 0.74
-2 -9 -5 1.53 0.71
2 9 5 2.86 0.8
2 9 5 3.51 1.11
2 9 5 2.88 0.77
-2 -9 -5 0.88 0.74
2 9 6 4.83 1.03
2 9 6 4.11 1.15
-2 -9 -6 5.83 1.19
-2 -9 -6 9.11 1.83
2 9 7 13.75 1.79
2 9 7 11.5 1.85
-2 -9 -7 15.45 2.41
2 9 8 0.5 0.63
2 9 8 0.78 0.55
-2 -9 -8 0.2 0.71
2 9 9 5.49 1.25
2 9 9 7.72 1.65
-2 -9 -9 8.14 1.92
2 9 10 6.38 1.55
2 9 10 7.63 1.55
-2 -9 -10 7.02 1.96
2 9 11 0.85 0.82
2 9 11 1.7 0.9
-2 -9 -11 0.37 0.94
-2 -10 5 0.94 0.85
2 10 -5 0.42 0.41
-2 -10 4 3.66 1.47
2 10 -4 3.62 1.1
-2 -10 3 1.22 0.89
2 10 -3 -0.32 0.67
2 10 -3 0.66 0.57
-2 -10 2 -0.56 0.81
2 10 -2 -0.25 0.59
2 10 -2 -0.02 0.5
-2 -10 1 3.37 1.19
2 10 -1 3.24 1.03
2 10 -1 2.64 0.95
2 10 0 4.6 1.15
2 10 0 5.49 1.21
-2 -10 0 3.93 1.22
2 10 1 0.56 0.64
2 10 1 1.71 0.79
-2 -10 -1 1.05 0.82
2 10 2 47.9 3.7
2 10 2 44.59 3.34
-2 -10 -2 43.45 3.93
2 10 3 13.01 1.95
2 10 3 14.41 1.86
-2 -10 -3 13.04 2.18
-2 -10 -4 18.84 2.21
2 10 4 20.31 2.46
2 10 4 22.62 2.24
-2 -10 -4 19.94 2.71
2 10 5 3.24 1.09
2 10 5 2.73 0.8
-2 -10 -5 3.39 1.2
2 10 6 8.23 1.36
2 10 6 8.82 1.7
-2 -10 -6 9.48 1.96
2 10 7 6.82 1.29
2 10 7 6.36 1.47
-2 -10 -7 6.29 1.66
2 10 8 2.34 0.83
2 10 8 0.05 0.71
-2 -10 -8 0.34 0.86
2 10 9 -0.84 0.61
-2 -10 -9 -0.66 0.97
2 10 9 -0.36 0.71
2 10 10 0.1 0.46
-2 -10 -10 0.44 0.78
2 11 -4 0.87 0.71
-2 -11 3 2.51 1.12
2 11 -3 0.88 0.63
2 11 -3 2.71 1.03
-2 -11 2 0.87 0.72
2 11 -2 -1.31 0.77
2 11 -2 -2.77 1.08
2 11 -1 0.47 0.64
2 11 -1 0.2 0.48
-2 -11 1 -0.43 0.85
2 11 0 -0.08 0.52
2 11 0 -0.5 0.73
-2 -11 0 -1.47 0.89
2 11 1 -1.05 0.68
-2 -11 -1 -0.91 1.06
2 11 1 -1.02 0.74
2 11 2 -0.16 0.66
2 11 2 0.33 0.47
-2 -11 -2 0.79 0.79
2 11 3 26.33 2.93
2 11 3 21.02 2.35
-2 -11 -3 25.8 3.28
2 11 4 0.03 0.6
-2 -11 -4 0.21 0.69
2 11 5 1.63 0.84
-2 -11 -5 -1.18 0.89
2 11 6 3.7 1.27
-2 -11 -6 2.7 1.12
2 11 7 3.53 1.26
-2 -11 -7 5.05 1.63
-2 -11 -8 4.52 1.52
2 11 9 4 1.21
2 11 10 9.2 1.77
2 12 -2 -0.44 0.63
-2 -12 1 1.39 1.1
2 12 -1 -0.29 0.58
2 12 -1 -1.23 0.79
2 12 0 0.42 0.58
2 12 0 1.41 0.77
-2 -12 0 -1.35 1.02
2 12 1 0.67 0.63
2 12 1 1.08 0.68
-2 -12 -1 -0.09 0.62
2 12 2 0.68 0.61
-2 -12 -2 -0.33 0.76
2 12 3 0.06 0.53
-2 -12 -3 1.32 0.97
2 12 4 1.13 0.76
-2 -12 -4 1.57 1.15
-2 -12 -5 8.11 2.05
-2 -12 -6 17.27 2.91
-3 12 4 4.16 1.31
-3 12 3 6.21 1.5
-3 12 2 3.33 1.11
-3 12 1 2.44 0.94
-3 11 7 0.32 0.78
-3 11 7 0.02 0.63
-3 11 6 1.48 0.91
-3 11 6 -0.04 0.66
-3 11 5 2.7 1.1
-3 11 5 1.28 0.85
3 -11 -5 2.44 1.38
-3 11 4 0.94 0.73
3 -11 -4 4.46 1.43
-3 11 4 1.81 0.87
3 -11 -4 2.19 1.39
-3 11 3 -0.3 0.69
-3 11 3 -0.01 0.5
3 -11 -3 0.72 0.94
3 -11 -3 -0.28 0.94
-3 11 2 0.2 0.55
3 -11 -2 1.3 0.98
-3 11 2 0.06 0.46
3 -11 -2 0.49 0.85
-3 11 1 5.42 1.32
3 -11 -1 8.83 1.99
3 -11 -1 9.75 2.14
3 -11 0 -0.23 0.71
-3 11 0 -0.3 0.48
3 -11 0 -0.42 0.65
3 -11 0 -1.11 1
3 -11 1 2.4 1.19
3 -11 1 0.69 0.77
-3 11 -1 0.23 0.59
-3 11 -2 0.03 0.46
3 -11 3 -0.42 0.65
-3 10 9 -0.98 0.65
3 -10 -9 -0.26 0.68
3 -10 -9 -0.36 0.72
3 -10 -8 -0.11 0.85
-3 10 8 -0.39 0.73
3 -10 -8 -0.2 0.7
-3 10 8 1.22 0.76
-3 10 7 25.01 2.8
3 -10 -7 27.74 3.49
-3 10 7 30.87 3.39
3 -10 -7 24.19 3.07
3 -10 -7 30.05 3.82
-3 10 7 23.8 3.06
-3 10 6 0.54 0.86
3 -10 -6 4.11 1.43
-3 10 6 0.82 0.75
3 -10 -6 0.69 0.82
-3 10 6 0.9 0.64
3 -10 -6 1.39 1.11
3 -10 -5 1.82 1.15
-3 10 5 0.46 0.57
-3 10 5 0.84 0.65
3 -10 -5 1.61 0.9
3 -10 -5 1.04 0.9
-3 10 4 0.75 0.78
3 -10 -4 0.24 0.67
-3 10 4 -0.28 0.56
3 -10 -4 0.91 0.79
-3 10 3 -0.14 0.59
3 -10 -3 1.47 0.99
-3 10 3 0.66 0.67
3 -10 -3 -0.04 0.54
-3 10 2 0.24 0.55
3 -10 -2 0.58 0.64
3 -10 -2 0.18 0.66
-3 10 1 2.31 0.9
3 -10 -1 2.05 1
3 -10 -1 1.25 0.8
-3 10 0 2.52 0.88
3 -10 0 2.14 1.05
3 -10 0 1.36 0.93
3 -10 1 3.39 1.31
3 -10 1 0.93 0.82
-3 10 -1 1.13 0.59
3 -10 1 2.31 0.97
3 -10 1 1.59 0.98
3 -10 2 2.81 1.2
3 -10 2 7.98 1.87
-3 10 -2 7.17 1.43
3 -10 2 4.42 1.4
3 -10 2 5.25 1.49
3 -10 3 6.45 1.8
-3 10 -3 3.34 1.23
3 -10 3 4.9 1.43
-3 10 -3 4.73 1.2
3 -10 3 3.41 1.18
3 -10 3 6.63 1.73
3 -10 4 -1.03 0.85
3 -10 4 0.17 0.82
-3 10 -4 0.62 0.67
3 -10 4 0.61 0.7
3 -10 4 -0.28 0.63
3 -10 5 2.87 1.12
3 -10 5 3.97 1.46
3 -10 5 4.46 1.41
3 -9 -10 0.35 0.6
3 -9 -9 1.24 0.9
3 -9 -9 -0.15 0.63
-3 9 9 0.61 0.58
3 -9 -9 0 0.8
3 -9 -9 -0.35 0.73
3 -9 -8 4 1.15
-3 9 8 4.16 1.33
3 -9 -8 4.13 1.24
-3 9 8 4.42 1.19
3 -9 -8 5.39 1.62
3 -9 -8 4.06 1.44
3 -9 -7 0.88 0.59
-3 9 7 1.21 0.72
3 -9 -7 2.18 1.08
-3 9 7 1.03 0.72
3 -9 -7 1.3 0.9
-3 9 7 3.65 1.06
3 -9 -7 1.38 0.88
-3 9 6 -0.11 0.64
-3 9 6 1.48 0.77
-3 9 6 0.44 0.48
3 -9 -6 2.01 0.96
3 -9 -6 2.92 1.26
3 -9 -6 0.88 0.97
-3 9 5 19.58 2.35
3 -9 -5 16.43 2.53
3 -9 -5 18.31 2.49
-3 9 5 21.79 2.61
3 -9 -5 23.13 3.01
-3 9 5 22.11 2.66
-3 9 4 -0.66 0.73
3 -9 -4 1.34 1.08
-3 9 4 -1.09 0.83
3 -9 -4 1.16 0.83
-3 9 4 -1.16 0.72
3 -9 -4 0.12 0.63
-3 9 3 20.56 2.45
3 -9 -3 12.97 2.11
-3 9 3 11.73 1.87
3 -9 -3 12.06 2.15
-3 9 2 7.62 1.45
3 -9 -2 7.22 1.6
3 -9 -2 8.63 1.82
3 -9 -1 1.09 0.78
3 -9 -1 0 0.41
-3 9 1 0.21 0.42
3 -9 -1 0.59 0.61
3 -9 0 18.29 2.47
-3 9 0 20.09 2.3
3 -9 0 14.35 2.03
3 -9 0 12.16 2.18
3 -9 1 1.02 0.57
3 -9 1 0.64 0.65
3 -9 1 0.95 0.76
3 -9 1 1.28 0.8
-3 9 -1 1.76 0.88
3 -9 2 0.45 0.75
3 -9 2 -0.03 0.62
3 -9 2 0.95 0.88
-3 9 -2 0.69 0.66
3 -9 2 -0.13 0.53
-3 9 -2 0.49 0.53
3 -9 3 16.51 2.61
3 -9 3 11.52 2.09
-3 9 -3 19.51 2.29
-3 9 -3 14.1 2.37
3 -9 3 14.77 2.27
3 -9 3 16.22 2.48
3 -9 4 12.48 2.3
-3 9 -4 16.36 2.62
3 -9 4 15.83 2.44
-3 9 -4 13.87 1.98
3 -9 4 10.68 1.98
3 -9 4 15.33 2.52
3 -9 5 1.59 0.94
3 -9 5 -0.2 0.75
-3 9 -5 -0.4 0.71
-3 9 -5 0.59 0.62
3 -9 5 0.29 0.67
3 -9 5 2.09 1.03
3 -9 6 0.14 0.58
3 -9 6 0.39 0.69
3 -9 6 1.27 0.77
-3 9 -6 0.88 0.77
3 -8 -10 3.54 1.49
3 -8 -10 3.14 1.15
-3 8 9 0.64 0.69
3 -8 -9 0.83 0.71
3 -8 -9 3.71 1.34
-3 8 9 1.92 0.81
3 -8 -9 1.7 1.04
3 -8 -9 2.16 0.88
-3 8 8 4.26 1.23
3 -8 -8 5.16 1.44
-3 8 8 5.09 1.18
3 -8 -8 6.01 1.44
3 -8 -8 5.4 1.25
3 -8 -8 6.51 1.74
3 -8 -7 13.45 1.83
-3 8 7 11.54 1.96
3 -8 -7 13.54 2.21
3 -8 -7 13.82 2.11
-3 8 7 9.76 1.54
3 -8 -7 12.27 2.27
3 -8 -6 0.74 0.72
3 -8 -6 0.39 0.51
-3 8 6 0.31 0.54
3 -8 -6 -0.4 0.62
-3 8 6 0.19 0.4
3 -8 -6 0.67 0.64
3 -8 -5 65.69 4.49
3 -8 -5 70.68 4.9
-3 8 5 68.75 4.13
3 -8 -5 69.13 3.74
3 -8 -5 69.37 4.96
-3 8 5 73.58 4.59
-3 8 5 66.91 4.46
-3 8 4 1.77 0.82
3 -8 -4 2.89 0.74
-3 8 4 1.75 0.93
3 -8 -4 2.24 0.95
3 -8 -4 3.55 1.17
3 -8 -4 1.61 0.93
-3 8 4 2.95 0.94
-3 8 3 6.13 1.27
3 -8 -3 6.14 1.52
3 -8 -3 5.11 1.29
-3 8 3 6.96 1.3
-3 8 3 6.86 1.4
3 -8 -3 7.83 1.62
3 -8 -2 0.11 0.62
3 -8 -2 0.42 0.61
-3 8 2 0.56 0.67
3 -8 -2 0.26 0.38
3 -8 -2 0.12 0.55
3 -8 -1 2.06 0.94
3 -8 -1 1.17 0.82
-3 8 1 1.84 0.73
3 -8 -1 1.71 0.71
3 -8 -1 1.67 0.87
3 -8 0 0.3 0.76
-3 8 0 1.61 0.75
3 -8 0 1.46 0.82
3 -8 0 0.86 0.57
3 -8 0 0.84 0.73
3 -8 1 3.16 1.15
-3 8 -1 4.26 1.11
-3 8 -1 2 0.93
3 -8 1 1.88 0.84
3 -8 1 2.28 0.98
3 -8 1 2.15 0.94
3 -8 2 12.44 2.02
3 -8 2 11.83 1.95
-3 8 -2 14.53 1.9
-3 8 -2 12.78 2.05
3 -8 2 9.94 1.74
3 -8 2 9.62 1.76
3 -8 3 26.22 2.94
3 -8 3 22 2.59
3 -8 3 28.16 3.1
-3 8 -3 25.57 2.51
-3 8 -3 27.18 3.08
3 -8 3 24.52 2.91
3 -8 4 -0.34 0.6
3 -8 4 -0.47 0.67
3 -8 4 -0.16 0.59
-3 8 -4 -1.57 0.87
-3 8 -4 0.85 0.63
3 -8 4 0.85 0.82
3 -8 5 -0.15 0.73
3 -8 5 2.32 0.91
3 -8 5 0.86 0.68
-3 8 -5 0.5 0.64
-3 8 -5 0.81 0.69
3 -8 5 2.1 0.98
3 -8 6 0.29 0.52
3 -8 6 1.42 0.91
-3 8 -6 1.27 0.77
3 -8 6 -0.19 0.69
-3 8 -6 0.63 0.76
3 -8 6 0.33 0.65
3 -8 7 0.51 0.76
-3 8 -7 0.27 0.54
-3 8 -7 -0.01 0.64
3 -8 7 1.52 1.17
3 -7 -11 0.91 1.01
3 -7 -11 1.44 0.89
-3 7 10 3.87 1.24
3 -7 -10 6.63 1.79
3 -7 -10 4.3 1.28
-3 7 9 12.18 2.04
3 -7 -9 10.74 1.83
3 -7 -9 8.49 2.02
3 -7 -9 9.68 1.89
3 -7 -9 9.32 1.69
-3 7 9 10.77 1.63
-3 7 8 0.21 0.71
3 -7 -8 -0.44 0.56
-3 7 8 -0.23 0.52
3 -7 -8 0.5 0.63
3 -7 -8 0.66 1.01
3 -7 -8 -0.03 0.45
-3 7 7 10.27 1.74
3 -7 -7 13.3 2.08
3 -7 -7 11.54 1.86
-3 7 7 11.41 1.58
3 -7 -7 12.31 2.16
3 -7 -7 11.35 1.69
3 -7 -6 38 3.45
-3 7 6 32.2 2.64
3 -7 -6 33.95 2.73
3 -7 -6 38.21 3.62
3 -7 -6 37.08 3.2
-3 7 6 41.68 3.35
3 -7 -5 4.76 1
-3 7 5 5.2 1.26
3 -7 -5 3.51 1.07
3 -7 -5 5.39 1.27
-3 7 5 4.83 1.05
3 -7 -5 2.59 0.97
3 -7 -4 8.61 1.23
-3 7 4 7.49 1.38
3 -7 -4 6.68 1.51
3 -7 -4 8.73 1.59
-3 7 4 8 1.31
3 -7 -4 6.72 1.45
-3 7 4 9.34 1.6
3 -7 -3 15.37 2.15
-3 7 3 17.75 2.14
-3 7 3 15.21 1.81
3 -7 -3 17.89 2.17
3 -7 -3 16.83 1.61
3 -7 -3 15.8 1.66
3 -7 -3 15.03 2.1
-3 7 3 17.8 2.01
3 -7 -2 31.11 2.98
3 -7 -2 24.31 2.53
-3 7 2 27.31 2.58
3 -7 -2 28.32 2.42
3 -7 -2 24.77 2.63
-3 7 2 28.07 1.25
3 -7 -2 24.66 1.87
-3 7 2 26.09 2.39
3 -7 -1 -0.12 0.6
-3 7 1 1.08 0.72
3 -7 -1 0.36 0.5
3 -7 -1 0.3 0.42
3 -7 -1 0 0.21
3 -7 -1 1.27 0.81
-3 7 0 7.69 1.34
-3 7 0 4.8 1.18
3 -7 0 6.44 1.34
3 -7 0 7.59 1.47
3 -7 0 6.02 1.24
3 -7 0 5.34 1.24
-3 7 -1 25.29 2.36
3 -7 1 25.12 2.69
3 -7 1 23.82 2.51
-3 7 -1 22.08 2.46
3 -7 1 24.09 2.51
3 -7 1 22.33 2.52
3 -7 2 63.65 4.32
-3 7 -2 65.2 3.82
3 -7 2 68.13 4.45
3 -7 2 65.8 4.34
-3 7 -2 63.22 4.35
3 -7 2 61.47 4.1
3 -7 3 0.72 0.65
-3 7 -3 1.36 0.74
3 -7 3 0.9 0.67
-3 7 -3 2.4 1.12
3 -7 3 0.28 0.6
3 -7 3 1.59 0.91
3 -7 4 0.38 0.57
-3 7 -4 1.05 0.86
-3 7 -4 0.99 0.66
3 -7 4 0.69 0.69
3 -7 4 0.52 0.53
3 -7 4 -0.26 0.57
3 -7 5 13.38 2.14
3 -7 5 14.3 2.07
-3 7 -5 14.21 1.92
3 -7 5 11.39 1.83
-3 7 -5 9.63 1.96
3 -7 5 9.45 1.89
3 -7 6 0.3 0.69
-3 7 -6 0.31 0.6
3 -7 6 0.12 0.51
-3 7 -6 -0.11 0.61
3 -7 6 1.27 0.77
3 -7 6 -0.03 0.65
3 -7 7 1.51 1.1
-3 7 -7 -0.01 0.55
-3 7 -7 -0.56 0.95
3 -7 7 0.03 0.6
3 -7 7 -0.42 0.79
3 -7 8 0.34 0.76
-3 7 -8 0.55 0.78
-3 7 -8 1.29 0.77
3 -7 8 1.44 1.05
-3 6 11 8.89 1.81
3 -6 -11 10.05 2.39
3 -6 -11 8.13 1.77
-3 6 10 -0.86 0.69
3 -6 -10 0.91 0.87
3 -6 -10 0.4 0.62
-3 6 9 18.28 2.38
3 -6 -9 13.33 2.05
3 -6 -9 14.61 1.98
3 -6 -9 17.01 2.25
-3 6 9 16.03 1.88
3 -6 -9 11.14 2.17
3 -6 -8 26.89 2.86
3 -6 -8 19.31 2.26
-3 6 8 22.75 2.16
3 -6 -8 23.59 2.49
3 -6 -8 23.73 3.01
-3 6 8 23.53 2.58
3 -6 -7 9.75 1.64
-3 6 7 10.87 1.71
3 -6 -7 8.81 1.67
-3 6 7 13.24 1.59
3 -6 -7 8.91 1.83
3 -6 -7 10.41 1.59
3 -6 -6 7.16 1.3
-3 6 6 5.79 1.26
3 -6 -6 5.43 1.34
3 -6 -6 5.91 1.28
-3 6 6 6.71 1.13
3 -6 -6 4.61 1.36
3 -6 -5 92.18 5.14
3 -6 -5 91.65 5.17
-3 6 5 96.35 4.25
3 -6 -5 92.78 4.27
3 -6 -5 80.6 4.54
-3 6 5 87.7 4.57
3 -6 -4 0.69 0.5
-3 6 4 0.31 0.58
3 -6 -4 -0.48 0.75
3 -6 -4 0.33 0.62
-3 6 4 -0.11 0.32
3 -6 -4 -0.17 0.49
-3 6 3 10.29 1.48
3 -6 -3 11.31 1.79
-3 6 3 16 2.02
-3 6 3 9.55 1.34
3 -6 -3 8.2 1.21
3 -6 -3 9.62 1.55
3 -6 -3 13.92 1.48
3 -6 -3 9.04 1.56
-3 6 2 2.05 0.66
3 -6 -2 1.89 0.55
3 -6 -2 1.14 0.72
-3 6 2 2.45 0.79
-3 6 2 1.95 0.35
3 -6 -2 1.37 0.56
3 -6 -2 2.26 0.84
3 -6 -2 1.91 0.77
-3 6 1 0.02 0.39
3 -6 -1 0.39 0.34
3 -6 -1 0.22 0.59
3 -6 -1 0.43 0.24
-3 6 1 -0.23 0.68
3 -6 -1 0.29 0.5
3 -6 -1 -0.3 0.56
3 -6 -1 -0.57 0.6
3 -6 0 91.8 4.9
-3 6 0 96.01 4.54
3 -6 0 90.31 4.71
-3 6 0 86.72 4.53
3 -6 0 93.01 4.72
3 -6 0 85.79 4.51
3 -6 1 0.2 0.57
-3 6 -1 0.38 0.48
3 -6 1 -0.17 0.59
3 -6 1 1.56 0.76
-3 6 -1 0.07 0.58
3 -6 1 1.01 0.62
3 -6 2 178.61 7.07
-3 6 -2 173.02 6.25
3 -6 2 161.81 6.6
3 -6 2 168.12 6.76
-3 6 -2 167.03 6.98
3 -6 2 173.24 7.03
3 -6 3 414.69 11.69
-3 6 -3 395.83 12.02
3 -6 3 404.11 11.32
3 -6 3 397.24 11.62
-3 6 -3 425.12 10.74
3 -6 3 410.87 12.08
3 -6 4 79.22 4.64
-3 6 -4 77.11 5
3 -6 4 82.78 4.62
-3 6 -4 80.24 4.19
3 -6 4 83.26 4.9
3 -6 4 79.68 5.04
3 -6 5 0.96 0.83
-3 6 -5 1.05 0.72
3 -6 5 0.78 0.66
3 -6 5 0.19 0.52
-3 6 -5 2.38 1.14
3 -6 5 1.84 1.02
3 -6 6 14.8 2.22
3 -6 6 17.23 2.23
3 -6 6 14.61 1.83
3 -6 6 18.52 2.26
-3 6 -6 14.4 1.89
-3 6 -6 16.55 2.51
3 -6 6 17.84 2.61
3 -6 7 19.29 2.35
3 -6 7 18.79 2.59
3 -6 7 19.54 2.34
-3 6 -7 15.6 2.55
-3 6 -7 18.95 2.32
3 -6 7 21.15 2.93
3 -6 8 0.67 0.83
-3 6 -8 2.23 0.95
-3 6 -8 0.55 0.73
3 -6 8 2.09 1.03
3 -6 9 4.99 1.53
-3 6 -9 9.06 1.81
-3 6 -9 6.54 1.86
3 -6 9 7.31 2.01
3 -5 -12 3.85 1.61
-3 5 11 5.73 1.47
3 -5 -11 4.71 1.66
3 -5 -11 7.6 1.74
-3 5 10 2.62 1
3 -5 -10 3.67 1.42
3 -5 -10 2.47 0.93
-3 5 9 10.5 1.8
3 -5 -9 9.78 2.04
-3 5 9 13.06 1.59
3 -5 -9 10.41 1.58
3 -5 -9 10.82 1.81
-3 5 8 3.97 1.11
3 -5 -8 4.12 1.2
3 -5 -8 4.24 1.07
-3 5 8 4.52 0.94
3 -5 -8 3.39 1.16
3 -5 -8 3.5 1.06
3 -5 -7 14.6 1.85
3 -5 -7 16.23 1.95
3 -5 -7 13.11 1.89
3 -5 -7 14.51 2.13
-3 5 7 15.9 1.6
-3 5 7 16.53 2.01
3 -5 -6 16.99 2.1
3 -5 -6 17.97 2.01
-3 5 6 17.2 1.61
3 -5 -6 16.24 2.15
3 -5 -6 20.19 2.05
-3 5 6 18.77 2.04
3 -5 -5 6.26 1.09
-3 5 5 3.49 0.94
3 -5 -5 5.9 1.31
3 -5 -5 5.39 1.12
-3 5 5 5.34 0.9
3 -5 -5 4.78 1.18
3 -5 -4 78.06 4.45
-3 5 4 75.78 3.43
3 -5 -4 71.89 4.04
3 -5 -4 75.49 3.66
3 -5 -4 72.85 4.17
-3 5 4 74.82 3.84
3 -5 -3 34.96 2.86
3 -5 -3 30.55 2.55
-3 5 3 26.29 1.98
-3 5 3 28.38 0.87
3 -5 -3 32.22 2.21
3 -5 -3 29.32 2.49
3 -5 -3 29.79 2.12
-3 5 3 31.52 1.07
-3 5 3 32.26 2.36
-3 5 2 0.07 0.38
3 -5 -2 0.2 0.34
3 -5 -2 0.48 0.52
3 -5 -2 0.06 0.47
-3 5 2 0.72 0.65
-3 5 2 -0.1 0.2
3 -5 -2 1.18 0.76
3 -5 -2 0.79 0.54
3 -5 -1 80.43 3.04
3 -5 -1 99.26 4.84
-3 5 1 86.68 4.21
3 -5 -1 86.11 4.36
3 -5 -1 90.73 4.28
3 -5 -1 89.41 3.51
3 -5 -1 86.95 4.29
-3 5 1 89.83 4.07
-3 5 1 95.45 3.94
3 -5 0 5.53 1.03
-3 5 0 6.95 1.04
3 -5 0 8.61 1.46
-3 5 0 6.92 1.19
3 -5 0 7.09 1.22
-3 5 0 7.68 1.26
3 -5 0 9.36 1.45
3 -5 0 7.05 0.74
3 -5 1 9.16 1.38
3 -5 1 9.5 1.48
-3 5 -1 7.79 1.24
3 -5 1 7.76 1.35
-3 5 -1 7.99 1.29
3 -5 1 9.57 1.52
3 -5 2 0.12 0.51
3 -5 2 -0.49 0.47
-3 5 -2 0.35 0.5
3 -5 2 -0.36 0.48
-3 5 -2 -0.31 0.48
-3 5 -2 0.1 0.11
3 -5 2 -0.2 0.49
3 -5 3 81.53 4.45
-3 5 -3 89.17 4.89
-3 5 -3 83.26 3.97
3 -5 3 74.43 4.15
-3 5 -3 76.43 1.98
3 -5 3 82.07 4.37
3 -5 3 82.93 4.74
3 -5 4 24.45 2.44
-3 5 -4 27.29 2.29
3 -5 4 23.57 2.25
3 -5 4 21.98 2.28
-3 5 -4 28.66 2.91
3 -5 4 22.87 2.36
3 -5 4 28.44 2.88
3 -5 5 38.3 3.08
-3 5 -5 38.36 3.47
-3 5 -5 43.61 2.99
3 -5 5 37.88 3.04
3 -5 5 39.88 2.96
3 -5 5 35.65 3.08
3 -5 5 44.2 3.74
3 -5 6 -0.05 0.51
3 -5 6 0.08 0.42
3 -5 6 0.41 0.45
-3 5 -6 0.47 0.6
3 -5 6 -0.59 0.73
-3 5 -6 -0.38 0.71
3 -5 6 0.09 0.71
3 -5 7 0.41 0.57
3 -5 7 2.2 0.79
-3 5 -7 -0.12 0.45
3 -5 7 1.6 0.77
-3 5 -7 -0.2 0.73
3 -5 7 2.93 1.22
3 -5 7 1.36 0.71
3 -5 8 -0.03 0.51
-3 5 -8 0.57 0.62
3 -5 8 0.36 0.79
-3 5 -8 0.73 0.66
3 -5 8 1.5 0.97
3 -5 9 1.19 0.81
-3 5 -9 3.07 1.11
-3 5 -9 6.44 1.79
3 -5 9 6.44 1.84
-3 5 -10 2.13 0.94
3 -5 10 1.08 0.84
-3 5 -10 2.86 1.33
3 -5 10 3.26 1.41
3 -4 -12 12.92 2.63
3 -4 -11 17.39 2.47
-3 4 11 13.28 2.11
3 -4 -11 11.75 2.46
-3 4 10 3.23 1
3 -4 -10 3.84 1.3
3 -4 -10 4.85 1.33
3 -4 -9 31.61 2.61
3 -4 -9 30.61 3.39
3 -4 -9 33.24 3.09
-3 4 9 30.06 2.32
-3 4 9 30.08 2.88
3 -4 -8 54.65 3.67
3 -4 -8 55.07 3.48
-3 4 8 49.72 2.86
3 -4 -8 55.38 4.29
3 -4 -8 59.97 3.96
-3 4 8 62.94 4
3 -4 -7 32.12 2.78
-3 4 7 30.3 2.08
3 -4 -7 32.14 2.73
3 -4 -7 32.36 3.11
3 -4 -7 34.98 2.7
-3 4 7 34.73 2.82
3 -4 -6 68.26 4.07
3 -4 -6 61.3 3.62
-3 4 6 69.16 3.04
3 -4 -6 69.25 4.28
3 -4 -6 73.38 3.93
-3 4 6 67.35 3.79
3 -4 -5 236.01 7.89
-3 4 5 231.96 6.05
3 -4 -5 235.64 7.45
3 -4 -5 221.95 7.67
3 -4 -5 231.65 7.2
-3 4 5 220.13 5.57
-3 4 5 239.2 7.32
3 -4 -4 34.87 2.82
-3 4 4 38.17 2.13
3 -4 -4 40.46 2.86
3 -4 -4 36.6 2.51
3 -4 -4 35.58 2.66
-3 4 4 34.99 1.9
-3 4 4 39.34 2.6
3 -4 -3 25.91 2.38
-3 4 3 23.91 1.71
3 -4 -3 26.75 2.26
3 -4 -3 26.44 2.19
3 -4 -3 26.72 2.03
-3 4 3 22.93 1.58
-3 4 3 24.32 1.01
-3 4 3 27.98 2.09
-3 4 3 25.81 1.26
3 -4 -2 12.08 1.65
3 -4 -2 13.23 1.61
-3 4 2 11.28 0.85
3 -4 -2 11.34 1.39
3 -4 -2 10.89 1.25
3 -4 -2 9.95 1.33
-3 4 2 12.69 1.34
-3 4 1 11.93 1.3
3 -4 -1 12.33 1.53
-3 4 1 11.04 0.93
3 -4 -1 11.3 1.59
3 -4 -1 12.41 1.3
3 -4 -1 12.82 1.57
-3 4 1 11.84 1.47
-3 4 1 10.45 1.18
3 -4 -1 10.44 1.3
3 -4 -1 11.1 1.07
3 -4 0 66.5 3.78
-3 4 0 66.46 3.43
3 -4 0 68.06 3.67
-3 4 0 62 3.23
-3 4 0 62.18 2.23
3 -4 0 60.77 3.17
3 -4 0 65.53 3.71
3 -4 0 64.16 2.43
-3 4 0 64.52 2.83
3 -4 1 33.88 2.68
-3 4 -1 32.61 2.46
3 -4 1 29.25 2.4
-3 4 -1 31.33 1.5
3 -4 1 32.51 2.29
-3 4 -1 33.15 2.35
3 -4 1 30.26 2.59
-3 4 -1 28.72 1.79
3 -4 2 16.34 1.87
-3 4 -2 14.85 1.78
-3 4 -2 17.03 1.67
3 -4 2 15.74 1.79
-3 4 -2 14.96 1.07
3 -4 2 16.17 1.66
3 -4 2 15.99 1.93
3 -4 2 13.94 1.16
3 -4 3 248.57 7.86
3 -4 3 232.94 7.48
-3 4 -3 251.43 7.05
3 -4 3 228.05 7.48
-3 4 -3 238.01 8.07
3 -4 3 244.09 7.36
-3 4 -3 222.65 5.44
3 -4 3 239.37 8.22
3 -4 3 217.55 5.51
3 -4 4 85.93 4.45
-3 4 -4 95.92 4.12
-3 4 -4 89.9 4.98
3 -4 4 86.38 4.33
3 -4 4 89.73 4.4
3 -4 4 88.44 4.93
3 -4 4 91.02 4.52
3 -4 4 82.69 2.97
3 -4 5 26.74 2.44
3 -4 5 32.31 2.66
-3 4 -5 30.96 2.37
-3 4 -5 25.57 2.77
3 -4 5 28.7 2.52
3 -4 5 28.45 2.57
3 -4 5 29.31 2.96
3 -4 6 58.35 3.66
3 -4 6 55.24 3.64
3 -4 6 53.32 3.52
-3 4 -6 53.33 3.32
-3 4 -6 59.94 4.49
3 -4 6 55.35 3.8
3 -4 6 57.12 4.27
3 -4 7 26.57 2.44
3 -4 7 22.19 2.39
-3 4 -7 25.45 2.43
3 -4 7 23.6 2.33
-3 4 -7 23 2.92
3 -4 7 27.3 2.79
3 -4 7 27.78 3.11
3 -4 8 -0.05 0.52
3 -4 8 0.22 0.52
-3 4 -8 0.12 0.52
3 -4 8 -0.27 0.47
3 -4 8 0.2 0.53
-3 4 -8 0.01 0.62
3 -4 8 -0.16 0.63
3 -4 9 2.99 1.11
-3 4 -9 3.98 1.11
3 -4 9 3.79 1.2
-3 4 -9 2.2 1.05
3 -4 9 7.19 1.8
-3 4 -10 23.76 2.79
3 -4 10 20.19 2.59
3 -4 10 17.16 2.59
-3 4 -10 24.98 3.49
3 -4 10 23.8 3.31
3 -4 11 0.21 0.63
-3 4 -11 -0.15 0.58
-3 4 -11 0.21 0.91
3 -4 11 1.56 1.1
-3 3 12 4.2 1.29
3 -3 -11 0.87 0.81
-3 3 11 1.32 0.73
3 -3 -11 0.68 0.89
3 -3 -10 13.5 2.12
-3 3 10 16.36 2.22
3 -3 -10 17.34 2.73
3 -3 -9 0.56 0.58
-3 3 9 0.98 0.76
3 -3 -9 0.65 0.63
3 -3 -8 2.87 0.92
-3 3 8 3.62 1.02
3 -3 -8 5.77 1.14
3 -3 -8 3.97 0.89
-3 3 8 4.18 0.79
3 -3 -8 3.29 1.14
3 -3 -7 86.32 4.39
3 -3 -7 76.64 3.92
3 -3 -7 83.36 4.88
3 -3 -7 89.65 4.63
3 -3 -7 82.7 2.97
-3 3 7 88.29 4.46
-3 3 7 79.54 3.25
3 -3 -6 55.95 3.49
3 -3 -6 46.41 3.02
3 -3 -6 50.47 2.1
-3 3 6 55.58 2.48
3 -3 -6 49.57 3.48
3 -3 -6 59.08 3.55
-3 3 6 40.37 2.57
-3 3 6 55.34 3.36
-3 3 5 -0.18 0.54
3 -3 -5 -0.02 0.39
3 -3 -5 0 0.35
3 -3 -5 0.14 0.21
3 -3 -5 0.45 0.53
-3 3 5 -0.1 0.24
3 -3 -5 0.22 0.22
-3 3 5 0.35 0.37
3 -3 -5 0.22 0.46
3 -3 -4 27.62 2.22
3 -3 -4 30.5 2.52
3 -3 -4 26.28 1.65
-3 3 4 30.73 1.66
3 -3 -4 29.02 2.31
3 -3 -4 27.16 1.34
3 -3 -4 28.77 2.22
-3 3 4 30.05 2.06
-3 3 4 29.57 2.15
-3 3 3 7.22 0.77
3 -3 -3 6.41 1.15
-3 3 3 8.09 1.11
3 -3 -3 7.75 1.34
3 -3 -3 6.27 0.85
-3 3 3 4.96 0.69
-3 3 3 6.21 0.59
-3 3 3 5.46 0.89
3 -3 -3 6.78 1.06
3 -3 -3 7.1 1.11
3 -3 -2 78.93 4.05
3 -3 -2 78.59 3.17
-3 3 2 81.29 2.89
3 -3 -2 76.76 3.82
3 -3 -2 80.02 3.42
3 -3 -2 78.52 3.54
3 -3 -2 77.32 3.7
-3 3 2 78.58 3.41
-3 3 2 76.22 2.47
-3 3 2 80.27 3.27
-3 3 1 89.48 3.36
3 -3 -1 96.89 4.46
3 -3 -1 90.28 3.68
3 -3 -1 91.55 4.19
-3 3 1 89.26 3.06
-3 3 1 92.31 2.99
3 -3 -1 92.32 3.52
-3 3 1 92.83 4
-3 3 1 86.83 3.39
3 -3 -1 87.43 3.66
3 -3 -1 85.09 4.11
-3 3 1 86.72 3.61
-3 3 1 89.99 3.3
3 -3 -1 84.26 3.22
3 -3 0 0.96 0.5
3 -3 0 1.39 0.41
-3 3 0 1.07 0.36
-3 3 0 1.62 0.45
-3 3 0 0.75 0.36
3 -3 0 1.05 0.68
-3 3 0 1.22 0.55
-3 3 0 1.26 0.34
-3 3 0 1.04 0.36
-3 3 0 0.86 0.46
3 -3 0 1.8 0.54
3 -3 0 0.87 0.47
3 -3 0 0.04 0.56
-3 3 -1 12.21 0.83
3 -3 1 14.22 1.73
-3 3 -1 11.77 1.34
3 -3 1 13.61 1.63
-3 3 -1 10.49 1.31
3 -3 1 10.82 1.16
-3 3 -1 12.26 1.09
-3 3 -1 12.86 1.26
3 -3 1 14.18 1.73
3 -3 1 11.64 0.99
-3 3 -1 13.1 1.06
-3 3 -2 463.33 8.03
3 -3 2 489.45 11.67
3 -3 2 462.99 11.32
-3 3 -2 450.68 11.12
-3 3 -2 475.46 10.37
3 -3 2 459.31 11.28
3 -3 2 483.48 10.32
-3 3 -2 450.09 9.43
3 -3 2 463.03 11.96
3 -3 2 447.44 8.55
3 -3 3 84.12 4.21
3 -3 3 86.89 4.2
-3 3 -3 81.64 3.58
3 -3 3 85.11 4.19
3 -3 3 82.94 3.68
3 -3 3 74.33 4.31
-3 3 -3 75.95 4.16
-3 3 -3 76.22 3.08
3 -3 3 72.58 2.4
-3 3 -3 84.43 2.26
3 -3 4 6.62 1.11
-3 3 -4 6.65 1.03
3 -3 4 6.78 1.23
3 -3 4 8.62 1.34
-3 3 -4 5.21 1.16
3 -3 4 8.12 1.33
3 -3 4 8.38 1.53
3 -3 4 7.72 0.69
3 -3 5 78.55 4.05
3 -3 5 69.11 3.97
3 -3 5 70.85 3.87
-3 3 -5 72.15 3.49
-3 3 -5 67.9 4.41
3 -3 5 67.71 3.76
3 -3 5 62.04 4.2
3 -3 5 65.49 2.23
3 -3 6 1.36 0.78
-3 3 -6 1.8 0.67
3 -3 6 1.52 0.68
3 -3 6 0.14 0.46
-3 3 -6 1.61 0.9
3 -3 6 1.3 0.7
3 -3 6 1.69 0.82
-3 3 -7 19.59 2.02
3 -3 7 20.08 2.03
3 -3 7 22.44 2.13
-3 3 -7 21.26 2.75
3 -3 7 18.77 2.22
3 -3 7 21.36 2.37
3 -3 7 18.94 2.54
3 -3 8 -0.57 0.76
3 -3 8 0.8 0.53
-3 3 -8 0.13 0.48
3 -3 8 0.23 0.5
-3 3 -8 -0.18 0.74
3 -3 8 0.68 0.73
3 -3 8 0.56 0.7
-3 3 -9 1.58 0.89
3 -3 9 2.94 1.13
-3 3 -9 1.13 1.09
3 -3 9 -0.52 0.76
3 -3 9 0.25 0.46
3 -3 10 34.4 3.38
-3 3 -10 33.86 3.99
-3 3 -10 38.11 3.39
3 -3 10 33.34 3.46
3 -3 10 38.63 4.06
3 -3 11 16.32 2.59
3 -3 11 17.5 2.53
-3 3 -11 15.39 2.28
-3 3 -11 23.47 3.46
3 -3 11 12.91 2.47
3 -3 12 0.74 0.8
3 -3 12 -1.22 1.03
-3 2 12 0.41 0.72
3 -2 -12 2.61 1.06
-3 2 11 2.59 0.98
3 -2 -11 3.87 1.32
-3 2 10 6.43 1.41
3 -2 -10 6.74 1.53
-3 2 9 4.77 1.26
3 -2 -9 5.65 1.37
3 -2 -9 4.63 0.87
3 -2 -9 3.81 1.31
3 -2 -8 39.95 2.7
3 -2 -8 42.43 2.42
3 -2 -8 36.71 2.43
-3 2 8 37.44 2.11
3 -2 -8 36.6 3.38
3 -2 -8 38.3 3.16
-3 2 8 38.75 3.06
-3 2 7 0.93 0.55
3 -2 -7 1.74 0.77
3 -2 -7 3.16 0.78
-3 2 7 1.21 0.41
3 -2 -7 1.43 0.49
3 -2 -7 2.36 0.72
3 -2 -7 0.06 0.68
3 -2 -7 1.18 0.49
3 -2 -6 68.82 3.68
3 -2 -6 67.57 2.78
3 -2 -6 66.43 3.43
3 -2 -6 67.3 3.82
-3 2 6 64.24 2.48
3 -2 -6 64.05 3.91
3 -2 -6 64.91 2.73
-3 2 6 65.59 3.6
3 -2 -5 230.28 7.3
3 -2 -5 232.02 5.04
3 -2 -5 218.29 6.82
-3 2 5 230.19 5.1
3 -2 -5 239.01 7.36
3 -2 -5 214.82 6.08
3 -2 -5 228.19 5.54
3 -2 -5 230.76 7.29
-3 2 5 215.17 6.86
-3 2 5 245.45 7.14
3 -2 -4 16.45 1.82
-3 2 4 16.97 1.36
3 -2 -4 19.09 1.82
3 -2 -4 16.24 1.04
3 -2 -4 16.42 1.62
3 -2 -4 15.52 1.14
3 -2 -4 17.32 1.77
-3 2 4 15.62 1.08
-3 2 4 14.39 1.58
-3 2 4 16 0.99
-3 2 4 16.54 1.58
-3 2 3 256.58 6.19
3 -2 -3 274.92 7.88
3 -2 -3 242.54 7.27
-3 2 3 257.39 5.24
3 -2 -3 258.27 6.7
3 -2 -3 251.47 5.66
-3 2 3 244.82 5.35
-3 2 3 246.12 6.38
3 -2 -3 252.02 7.28
3 -2 -3 245.71 5.39
-3 2 3 240.13 7.12
-3 2 3 268.19 6.82
-3 2 2 36.37 1.96
3 -2 -2 36.26 2.6
3 -2 -2 35.46 1.75
3 -2 -2 37.03 2.53
3 -2 -2 38.16 1.78
-3 2 2 33.88 1.63
-3 2 2 32.87 1.83
3 -2 -2 39.31 2.08
-3 2 2 33.42 1.92
3 -2 -2 37.44 2.45
-3 2 2 33.93 2.38
-3 2 2 38.97 2.12
-3 2 1 3.71 0.59
-3 2 1 3.38 0.54
3 -2 -1 4.72 0.77
-3 2 1 3.54 0.59
3 -2 -1 2.81 0.75
-3 2 1 4.57 0.63
3 -2 -1 3.67 0.91
3 -2 -1 4 0.79
-3 2 1 3.73 0.59
3 -2 -1 3.06 0.59
3 -2 -1 3.84 0.93
-3 2 1 3.4 0.8
3 -2 -1 3.75 0.62
3 -2 -1 3.52 0.62
-3 2 0 184.07 4.65
3 -2 0 196.07 6.5
-3 2 0 192.78 4.96
3 -2 0 178.37 5.43
3 -2 0 181.99 6.13
3 -2 0 191.82 4.76
-3 2 0 184.58 5.21
-3 2 0 188.37 4.71
3 -2 0 185.61 6.43
-3 2 0 185.44 5.11
-3 2 0 190.92 5.66
3 -2 0 180.98 5.53
3 -2 0 176.74 4.6
-3 2 0 182.46 4.57
-3 2 -1 17.65 1.2
3 -2 1 20.19 1.95
3 -2 1 19.26 1.89
-3 2 -1 16.52 1.47
3 -2 1 18.18 1.83
-3 2 -1 16.14 1.55
3 -2 1 17.13 1.66
-3 2 -1 15.45 1.25
3 -2 1 18.3 1.31
-3 2 -1 18.04 1.5
-3 2 -1 17.56 1.29
3 -2 1 17.71 1.9
3 -2 1 16.78 1.07
-3 2 -1 17.35 1.09
3 -2 2 766.34 15.87
3 -2 2 735.99 15.54
-3 2 -2 770.9 15.39
-3 2 -2 790.23 14.38
3 -2 2 776.73 15.73
3 -2 2 756.49 13.77
3 -2 2 749.8 16.47
-3 2 -2 722.98 14.17
3 -2 2 734.82 12.18
-3 2 -2 749.91 12.98
-3 2 -2 754.71 12.3
3 -2 3 1.21 0.23
3 -2 3 1.23 0.5
3 -2 3 0.79 0.47
3 -2 3 1.13 0.6
-3 2 -3 1.02 0.44
3 -2 3 0.61 0.52
-3 2 -3 1.2 0.68
3 -2 3 0.85 0.63
-3 2 -4 25.6 1.83
3 -2 4 22.14 2.04
3 -2 4 25.74 2.28
-3 2 -4 25.13 2.42
3 -2 4 23.38 2.1
3 -2 4 25 1.96
3 -2 4 26.74 2.59
3 -2 4 23.48 0.87
3 -2 5 88.03 4.13
3 -2 5 81.51 4.35
3 -2 5 83.85 4.1
-3 2 -5 89.38 4.9
3 -2 5 82.21 3.94
3 -2 5 85.5 4.85
-3 2 -5 87.44 3.7
3 -2 5 86.77 1.97
3 -2 6 38.58 2.65
-3 2 -6 43.2 2.67
3 -2 6 36.45 2.64
3 -2 6 40.13 3.11
-3 2 -6 37.56 3.38
3 -2 6 38.68 2.81
3 -2 6 41.01 3.43
3 -2 6 40.73 1.34
3 -2 6 40.55 1.34
3 -2 7 0.42 0.47
-3 2 -7 1.06 0.65
3 -2 7 0.52 0.54
3 -2 7 -1.48 0.75
3 -2 7 0.25 0.49
-3 2 -7 -0.76 0.86
3 -2 7 0.17 0.72
3 -2 7 -0.03 0.16
3 -2 8 1.87 0.61
-3 2 -8 2.08 0.8
3 -2 8 3.02 1
-3 2 -8 0.86 1.03
3 -2 8 0.91 0.56
-3 2 -9 2.66 0.92
3 -2 9 2.07 0.97
-3 2 -9 2.44 1.14
3 -2 9 1.08 0.79
-3 2 -10 -0.11 0.53
3 -2 10 0.82 0.78
-3 2 -10 0.45 1.06
3 -2 10 0.76 0.95
-3 2 -11 10.13 1.83
-3 2 -11 7.74 2.05
3 -2 11 12.17 2.11
3 -2 11 9.1 2.05
3 -2 12 4.23 1.38
-3 2 -12 4.62 1.72
3 -2 12 1.83 1.04
3 -2 13 0.3 0.49
-3 1 12 0.73 0.77
3 -1 -12 -0.08 0.7
-3 1 11 6.7 1.51
3 -1 -11 8.48 1.85
-3 1 10 9.33 1.67
3 -1 -10 9.48 1.83
3 -1 -10 9.72 1.42
-3 1 9 2.97 1
3 -1 -9 1.04 0.76
3 -1 -9 1.02 0.55
-3 1 8 1.46 0.8
3 -1 -8 1.8 0.9
3 -1 -8 2.84 0.72
-3 1 8 1.23 0.39
3 -1 -8 0.64 0.39
3 -1 -7 154.63 5.43
3 -1 -7 151.35 4.51
-3 1 7 143.44 4
3 -1 -7 153.21 6.61
3 -1 -7 165.02 5.2
3 -1 -7 153.58 6.39
-3 1 7 157.3 6.19
3 -1 -6 29.98 2.57
3 -1 -6 36.01 2.14
3 -1 -6 36.05 2.49
3 -1 -6 32.82 2.24
3 -1 -6 33.76 1.66
-3 1 6 30.26 1.45
3 -1 -6 33.58 2.77
-3 1 6 32.47 2.55
3 -1 -5 15.88 1.67
3 -1 -5 14.6 1.54
3 -1 -5 16.32 0.92
-3 1 5 14.9 0.85
3 -1 -5 15.94 1.72
3 -1 -5 16.26 1.36
3 -1 -5 14.53 1.72
-3 1 5 14.68 1.6
-3 1 4 53.02 2.72
3 -1 -4 58.25 3.21
3 -1 -4 53.05 2.96
3 -1 -4 53.24 2.88
-3 1 4 49.85 2.62
3 -1 -4 50.51 2.36
-3 1 4 51.72 2.23
3 -1 -4 50.49 3.11
-3 1 4 50.74 2.71
-3 1 4 53.63 1.52
-3 1 4 59.19 3.03
-3 1 3 14.16 0.65
-3 1 3 13.36 1.29
-3 1 3 14.29 1.35
3 -1 -3 12.39 1.5
3 -1 -3 15.54 1.66
3 -1 -3 14.95 1.58
3 -1 -3 12.77 1.24
3 -1 -3 14.17 1.19
-3 1 3 13.01 1.17
-3 1 3 13.44 1.05
-3 1 3 12.79 1.54
-3 1 3 15.32 1.43
-3 1 2 80.17 3.15
3 -1 -2 77.45 3.79
3 -1 -2 75.42 3.62
3 -1 -2 77.6 2.11
3 -1 -2 80.55 2.8
3 -1 -2 76.16 2.82
-3 1 2 77.17 2.71
-3 1 2 78.37 2.63
-3 1 2 73.05 3.76
-3 1 2 80.51 3.27
3 -1 -2 86.01 3.88
-3 1 2 80.51 3.14
-3 1 1 5.41 0.72
-3 1 1 6.01 0.59
3 -1 -1 5.53 1.05
-3 1 1 6.18 0.86
3 -1 -1 6.36 0.68
3 -1 -1 7.03 1.14
3 -1 -1 6.1 1.03
3 -1 -1 7.45 0.7
-3 1 1 6.04 0.75
3 -1 -1 6.73 0.83
-3 1 1 4.88 0.53
-3 1 1 6.42 1.09
3 -1 -1 6.79 0.81
-3 1 0 11.72 1.12
3 -1 0 10.32 1.37
3 -1 0 11.17 1.41
-3 1 0 11.97 1.19
-3 1 0 11.27 1.01
3 -1 0 9.66 0.99
-3 1 0 10.91 0.91
-3 1 0 10.79 1.05
3 -1 0 11.33 0.78
-3 1 0 11.09 1.22
-3 1 0 11.47 0.77
3 -1 0 11.5 1.54
3 -1 0 11.85 0.96
-3 1 0 11.46 0.92
-3 1 -1 1.18 0.28
3 -1 1 0.96 0.31
-3 1 -1 1.05 0.41
3 -1 1 0.77 0.54
3 -1 1 0.78 0.61
-3 1 -1 0.93 0.42
-3 1 -1 0.77 0.42
3 -1 1 1.53 0.64
-3 1 -1 0.92 0.36
-3 1 -1 0.63 0.42
3 -1 1 0.5 0.6
3 -1 1 0.88 0.39
-3 1 -1 0.74 0.25
3 -1 1 2.24 0.38
3 -1 2 155.43 5.52
3 -1 2 146.8 5.45
3 -1 2 150.93 5.46
-3 1 -2 160.16 5.33
-3 1 -2 161.67 4.61
-3 1 -2 147.26 4.67
3 -1 2 151.7 3.96
3 -1 2 153.92 6.06
3 -1 2 150.24 5.24
-3 1 -2 153.91 3.15
3 -1 3 32 2.36
3 -1 3 30.31 2.3
3 -1 3 29.88 2.37
-3 1 -3 28.19 2.32
3 -1 3 32.24 1.83
3 -1 3 28.57 2.55
-3 1 -3 31.46 1.86
3 -1 4 4.46 0.94
-3 1 -4 3.62 0.71
3 -1 4 4.43 0.94
3 -1 4 2.74 0.79
-3 1 -4 3.31 0.97
3 -1 4 2.6 0.63
3 -1 4 3.18 1.01
3 -1 5 148.74 5.37
-3 1 -5 159.69 4.93
-3 1 -5 152.6 6.39
3 -1 5 154.41 5.54
3 -1 5 152.8 6.57
3 -1 5 149.28 5.97
3 -1 6 5.6 0.98
-3 1 -6 7.89 1.12
-3 1 -6 7.28 1.53
3 -1 6 7.1 1.34
3 -1 6 6.32 1.46
-3 1 -7 27.63 2.21
3 -1 7 28.81 2.14
3 -1 7 27.43 2.63
-3 1 -7 30.7 3.15
3 -1 7 28.07 2.93
3 -1 7 29.31 0.94
3 -1 8 0.89 0.51
-3 1 -8 0.93 0.56
-3 1 -8 0.94 0.78
3 -1 8 1.85 0.89
3 -1 8 1.58 0.91
3 -1 9 6.64 1.49
-3 1 -9 9.94 1.56
-3 1 -9 7.12 1.73
3 -1 9 5.64 1.51
-3 1 -10 49.17 3.63
-3 1 -10 46.45 4.52
3 -1 10 47.13 3.89
3 -1 10 43.9 4.2
3 -1 11 6.67 1.61
-3 1 -11 8.27 2.09
3 -1 11 7.05 1.81
3 -1 12 0.98 0.76
-3 1 -12 3.18 1.54
3 -1 12 1.43 0.99
3 -1 13 1.53 0.92
3 -1 13 1.64 1
3 -1 14 0.27 0.49
-3 0 12 -0.79 0.75
3 0 -12 1.38 1
-3 0 11 -0.87 0.93
3 0 -11 0.14 0.56
3 0 -11 0.64 0.52
-3 0 10 4.32 1.24
3 0 -10 5.91 1.46
3 0 -10 8.33 1.39
3 0 -9 39.93 3.55
3 0 -9 21.78 2.16
-3 0 9 35.35 3.16
3 0 -8 40.43 3.4
3 0 -8 41.14 2.79
-3 0 8 43.33 3.33
3 0 -7 135.87 4.73
3 0 -7 127.9 3.82
3 0 -7 127.75 5.86
3 0 -7 125.22 4.83
-3 0 7 126.96 5.64
3 0 -6 5.41 1.17
3 0 -6 7.6 0.68
3 0 -6 8.35 1.14
3 0 -6 7.68 0.62
-3 0 6 6.49 0.83
3 0 -6 7.5 1.06
-3 0 6 8.19 1.33
-3 0 5 79.81 3.61
3 0 -5 78.61 3.64
-3 0 5 71.52 3.04
3 0 -5 73.09 3.22
3 0 -5 74.51 4.07
-3 0 5 76.65 3.81
-3 0 4 24.1 1.85
-3 0 4 22.31 1.88
-3 0 4 18.12 1.54
3 0 -4 19.27 1.52
3 0 -4 19.73 2.01
-3 0 4 23.79 1.97
3 0 -4 22.89 1.94
-3 0 3 68.36 3.13
3 0 -3 65.25 3.34
3 0 -3 69.62 3.32
-3 0 3 67.02 2.67
3 0 -3 67.25 2.86
3 0 -3 74.06 3.78
-3 0 3 67.4 3.15
-3 0 3 70.97 3.31
3 0 -2 1.01 0.53
-3 0 2 0.43 0.42
3 0 -2 0.05 0.47
3 0 -2 -0.24 0.38
3 0 -2 0.36 0.34
-3 0 2 0.49 0.31
3 0 -2 0.46 0.27
-3 0 2 0.15 0.34
-3 0 2 0.39 0.21
-3 0 2 0.56 0.33
-3 0 1 3.38 0.68
3 0 -1 5.55 1.01
-3 0 1 4.26 0.41
3 0 -1 3.73 0.83
-3 0 1 3.86 0.35
3 0 -1 4.68 0.93
3 0 -1 4.51 0.42
3 0 -1 4.24 0.72
-3 0 1 4.45 0.81
-3 0 1 5.16 0.71
-3 0 1 4.32 0.39
-3 0 1 4.03 0.67
3 0 0 152.21 5.36
3 0 0 161.92 5.49
-3 0 0 154.98 3.58
3 0 0 143.16 5.15
-3 0 0 156.53 4.05
3 0 0 154.25 4.55
-3 0 0 151.02 4.53
3 0 0 150.01 5.77
-3 0 0 152.44 3.98
-3 0 0 152.98 4.7
3 0 1 9.21 1.29
-3 0 -1 7.72 0.89
3 0 1 8.41 1.24
3 0 1 8.01 1.19
-3 0 -1 7.28 0.79
3 0 1 7.22 0.48
3 0 1 8.36 0.47
-3 0 -1 7.84 0.96
3 0 1 7.3 1.32
-3 0 -1 8.12 0.69
-3 0 -2 2068.41 32.65
3 0 2 2077.22 33.13
3 0 2 2088.8 34.8
3 0 2 2103.77 34.85
3 0 2 2095.58 35.16
-3 0 -2 2138.34 34.32
-3 0 -2 2146.79 33.07
3 0 2 2185.39 34.15
3 0 2 2135.73 33.11
3 0 2 2060.65 31.89
3 0 2 2105.45 31.53
3 0 2 2036.58 36.27
-3 0 -2 2107.18 30.95
3 0 3 24.14 1.98
3 0 3 22.29 1.57
3 0 3 20.15 1.95
-3 0 -3 17.58 1.77
3 0 3 20.81 1.64
3 0 3 17.98 1.35
-3 0 -3 21.77 1.4
3 0 3 20.02 2.21
3 0 4 19.04 1.95
3 0 4 20.06 1.81
-3 0 -4 16.46 1.27
3 0 4 19.19 1.69
3 0 4 15.22 1.43
-3 0 -4 16.83 1.91
3 0 4 16.17 2.05
3 0 5 251.64 7.86
3 0 5 239.36 6.97
-3 0 -5 253.74 6.25
-3 0 -5 237.21 8.15
3 0 5 232.96 7.11
3 0 5 242.25 8.48
3 0 6 226.55 7.66
3 0 6 234.31 6.72
-3 0 -6 217.49 6.13
-3 0 -6 214.92 8.13
3 0 6 228.57 7.31
3 0 6 211.97 8.16
3 0 7 20.04 1.76
3 0 7 21.37 2.28
-3 0 -7 20.43 1.82
3 0 7 20.77 2.17
3 0 7 22.22 2.59
-3 0 -7 17.44 2.35
3 0 7 18.33 0.67
-3 0 -8 1.91 0.71
3 0 8 1.73 0.77
3 0 8 0.77 0.63
-3 0 -8 2.26 0.99
3 0 8 2.14 0.99
-3 0 -9 255.95 8.07
3 0 9 241.3 8.9
-3 0 -9 246.27 10.28
3 0 9 233.09 8.7
3 0 9 249.34 9.83
3 0 10 41.38 3.6
-3 0 -10 45.65 4.41
3 0 10 38.7 3.88
3 0 11 10.21 1.89
-3 0 -11 7.21 1.97
3 0 11 6.76 1.72
3 0 12 6.97 1.64
-3 0 -12 4.29 1.73
3 0 12 4.15 1.47
3 0 13 1.97 0.96
-3 0 -13 0.69 1.12
3 0 13 0.44 0.82
3 0 14 0.51 0.88
3 1 -12 -0.03 0.4
-3 -1 11 0.47 0.49
3 1 -11 -0.12 0.7
3 1 -11 0.38 0.45
-3 -1 10 -0.53 0.83
3 1 -10 0.07 0.71
3 1 -10 -0.62 0.64
3 1 -9 0.55 0.63
3 1 -9 1.11 0.64
-3 -1 9 0.61 0.6
3 1 -8 3.77 1.12
3 1 -8 4.44 1.05
-3 -1 8 4.02 1.18
3 1 -7 1.15 0.79
3 1 -7 3.58 0.93
-3 -1 7 0.6 0.58
-3 -1 6 92.9 4.11
3 1 -6 81.17 2.53
-3 -1 6 80.87 3.18
3 1 -6 86.53 3.94
3 1 -6 83.52 4.61
-3 -1 6 85.72 4.44
-3 -1 5 63.26 3.29
3 1 -5 62.33 1.68
-3 -1 5 56.62 2.8
3 1 -5 60.34 3.1
3 1 -5 60.94 3.76
3 1 -5 61.42 1.5
-3 -1 5 65.22 3.6
3 1 -4 13.86 1.75
-3 -1 4 14.59 1.55
3 1 -4 14.19 1.51
-3 -1 4 12.14 1.57
-3 -1 4 11.7 1.3
3 1 -4 15.13 1.46
-3 -1 4 12.37 1.46
3 1 -3 0.39 0.68
3 1 -3 0.07 0.39
-3 -1 3 -0.11 0.4
3 1 -3 0.07 0.27
-3 -1 3 0.02 0.36
-3 -1 3 0.19 0.23
-3 -1 3 -0.1 0.44
-3 -1 2 70.31 3.22
-3 -1 2 59.97 3.18
3 1 -2 68.83 3.33
-3 -1 2 60.02 2.22
3 1 -2 58.88 2.78
3 1 -2 65.43 3.6
-3 -1 2 63.14 2.91
-3 -1 1 62.55 1.47
3 1 -1 69.07 3.34
-3 -1 1 63.75 1.83
-3 -1 1 62.82 1.66
3 1 -1 63.18 2.83
-3 -1 1 64.75 1.62
3 1 -1 60.13 3.35
-3 -1 1 63.46 3.21
-3 -1 1 66.03 3.11
3 1 0 7.62 1.15
3 1 0 8.55 1.2
3 1 0 6.48 0.59
-3 -1 0 7.65 0.76
-3 -1 0 6.44 0.56
-3 -1 0 8.09 1.19
3 1 0 7.13 0.94
3 1 1 274.4 7.55
-3 -1 -1 283.36 6.04
3 1 1 279.77 5.91
-3 -1 -1 270.72 5.85
3 1 1 286.94 6.98
3 1 1 272.76 8.45
3 1 1 276.62 7.6
-3 -1 -1 278.24 6.54
3 1 2 25.5 2.14
3 1 2 26.61 2.1
-3 -1 -2 27.72 1.41
-3 -1 -2 26.74 1.92
3 1 2 27.05 1.62
-3 -1 -2 24.19 1.54
3 1 2 26.55 1.12
3 1 2 28.31 2.55
3 1 3 6.88 1.08
-3 -1 -3 6.01 0.65
3 1 3 6.13 0.77
3 1 3 5.33 0.8
3 1 3 7.69 0.81
3 1 3 6.46 1.13
3 1 3 5.91 1.37
-3 -1 -3 6.76 1.06
3 1 4 90.1 4.2
3 1 4 86.32 3.8
-3 -1 -4 81.47 4.12
-3 -1 -4 81.93 2.77
3 1 4 80.62 3
3 1 4 77.6 3.43
3 1 4 82.82 3.25
3 1 4 79.6 4.5
3 1 5 19.85 2
3 1 5 23.45 1.94
-3 -1 -5 22.41 1.51
-3 -1 -5 22.53 2.31
3 1 5 20.28 1.85
3 1 5 19.7 2.25
3 1 6 11.56 1.62
-3 -1 -6 9.76 1.12
3 1 6 8.14 1.27
3 1 6 10.92 1.77
-3 -1 -6 11.43 1.75
-3 -1 -7 0.51 0.45
3 1 7 -0.06 0.51
-3 -1 -7 0.59 0.8
3 1 7 -0.1 0.54
3 1 7 0.9 0.72
3 1 8 63.96 4.08
-3 -1 -8 67.12 3.5
-3 -1 -8 67.07 4.84
3 1 8 59.18 3.89
3 1 8 69 4.72
3 1 8 63.71 2.04
3 1 9 2.92 1.1
3 1 9 2.91 1.09
-3 -1 -9 0.49 0.71
3 1 9 1.3 0.91
-3 -1 -10 33.94 3.83
3 1 10 34.98 3.3
3 1 10 30.54 3.09
3 1 10 34.33 3.58
3 1 11 0.36 0.49
3 1 11 1.32 0.93
3 1 11 0.75 0.68
3 1 12 0.36 0.89
3 1 12 -2.76 1.15
-3 -1 -12 -0.69 0.85
3 1 12 -2.01 1.15
-3 -1 -13 0.55 0.84
3 1 13 -0.22 0.76
3 2 -12 -0.03 0.4
3 2 -11 -0.01 0.83
3 2 -11 0.99 0.78
3 2 -10 2.18 0.99
3 2 -10 2.41 0.98
-3 -2 10 1.08 0.62
3 2 -9 24.73 2.9
3 2 -9 24.9 2.53
-3 -2 9 23.26 2.69
3 2 -8 17.47 2.03
3 2 -8 21.13 2.58
-3 -2 8 13.96 2
3 2 -7 222.48 7.41
3 2 -7 217.24 8.29
-3 -2 7 231.75 8.23
-3 -2 6 89.47 4.14
3 2 -6 86.53 4.14
3 2 -6 83.96 2.87
3 2 -6 85.64 4.84
-3 -2 6 87.05 4.6
3 2 -5 0.88 0.7
-3 -2 5 0.22 0.38
3 2 -5 0.4 0.23
3 2 -5 0.29 0.18
3 2 -5 0.58 0.45
-3 -2 5 0.3 0.27
-3 -2 5 1.01 0.64
-3 -2 4 151.69 5.36
-3 -2 4 145.6 3.7
3 2 -4 148.62 3.03
3 2 -4 150.89 5.19
3 2 -4 148.17 6.12
-3 -2 3 1.82 0.59
-3 -2 3 5.79 1.13
3 2 -3 3.55 0.3
3 2 -3 3.83 1.05
-3 -2 3 4.23 0.71
3 2 -3 2.72 0.72
-3 -2 3 3.45 0.44
-3 -2 3 3.77 0.72
3 2 -3 3.52 0.28
-3 -2 2 37.02 2.43
-3 -2 2 33.36 2.5
-3 -2 2 30.78 1.29
3 2 -2 32.56 1
-3 -2 2 32.11 1.78
3 2 -2 31.35 2.1
-3 -2 2 32.13 1.64
3 2 -2 31.34 2.57
-3 -2 1 1.03 0.29
-3 -2 1 1.34 0.56
-3 -2 1 1.32 0.62
3 2 -1 1.17 0.25
3 2 -1 0.9 0.43
3 2 0 27.1 1.3
3 2 0 29.94 2.12
-3 -2 0 26.93 1.26
3 2 0 25.25 1.86
-3 -2 0 28.6 0.99
-3 -2 0 25.3 2.12
3 2 1 41.97 2.6
-3 -2 -1 37.63 1.61
3 2 1 42.51 1.86
-3 -2 -1 41.64 1.8
-3 -2 -1 39.78 1.24
3 2 1 42.16 2.4
3 2 1 40.29 1.18
-3 -2 -2 127.52 3.08
3 2 2 123.35 4.83
3 2 2 129.02 3.89
-3 -2 -2 130.4 3.87
3 2 2 134.52 4.58
-3 -2 -2 129.25 3.18
3 2 2 128.82 3.08
-3 -2 -3 28.94 1.29
3 2 3 30.37 1.9
-3 -2 -3 30.84 1.67
3 2 3 31.72 1.63
3 2 3 32.53 1.54
3 2 3 31.45 2.77
3 2 3 34.43 2.48
3 2 4 189.59 5.19
3 2 4 182.59 4.52
-3 -2 -4 187.98 4.3
3 2 4 181.56 5.57
-3 -2 -4 181.94 6.36
-3 -2 -4 178.03 5.22
3 2 4 190.95 7.21
3 2 4 186.64 6.32
-3 -2 -4 179.75 3.97
3 2 5 81.7 4.09
3 2 5 81.49 2.87
-3 -2 -5 85.17 2.9
3 2 5 85.82 3.84
-3 -2 -5 83.13 4.42
-3 -2 -5 79.64 3.65
3 2 5 83.07 4.74
-3 -2 -5 83.4 2.26
3 2 6 116.85 5.13
-3 -2 -6 127.99 4.05
3 2 6 119.03 4.92
-3 -2 -6 116.9 5.69
-3 -2 -6 118.34 4.98
3 2 6 121.03 5.88
-3 -2 -6 119.97 2.99
3 2 7 17.52 2.03
-3 -2 -7 18.65 1.6
-3 -2 -7 22.1 2.57
3 2 7 21.66 2.15
3 2 7 19.79 2.39
-3 -2 -7 18.28 1.14
3 2 8 44.53 3.38
-3 -2 -8 43.59 3.81
3 2 8 39.6 3.1
3 2 8 42.36 3.79
3 2 8 38.75 1.79
3 2 9 452.24 12.57
-3 -2 -9 419.34 13.79
3 2 9 409.82 12
3 2 9 430.29 13.3
3 2 10 6.36 1.56
3 2 10 7.85 1.56
-3 -2 -10 5.75 1.59
3 2 10 6.81 1.66
3 2 11 22.98 2.76
3 2 11 22.62 2.74
-3 -2 -11 19.15 3.01
3 2 11 23.44 3.05
3 2 12 3.76 1.17
3 2 12 2.52 1.13
-3 -2 -12 2.1 1.13
3 2 12 2.83 1.26
3 2 13 -1.31 0.92
3 2 13 1.22 0.86
-3 -2 -13 2.35 1.15
3 2 13 1.87 1.09
-3 -3 11 2.31 1.16
3 3 -11 -0.38 0.54
3 3 -11 -2.05 1.18
-3 -3 11 0.63 0.88
3 3 -10 0.84 0.59
3 3 -10 0.59 0.8
-3 -3 10 1.22 0.81
3 3 -9 0.11 0.58
3 3 -9 1.58 1.01
-3 -3 9 2.07 1
3 3 -8 1.57 1.01
3 3 -8 1.26 0.63
-3 -3 8 2.23 0.95
-3 -3 7 74.79 3.96
3 3 -7 84.82 4.48
3 3 -7 72.07 4.79
-3 -3 7 80.96 4.79
-3 -3 6 239.83 7.35
3 3 -6 192.65 5.37
3 3 -6 194.35 7
3 3 -6 240.81 8.66
-3 -3 6 223.82 7.42
-3 -3 5 31.58 2.42
-3 -3 5 26.48 1.89
3 3 -5 29.47 2.4
3 3 -5 30.06 2.84
-3 -3 5 28.01 2.27
-3 -3 4 13.42 1.58
-3 -3 4 12.16 1.18
3 3 -4 12.82 0.95
3 3 -4 12.73 1.83
3 3 -4 14.43 1.61
-3 -3 4 12.78 1.41
-3 -3 3 14.93 1.67
-3 -3 3 15.72 1.22
3 3 -3 16.82 0.99
-3 -3 3 15.66 1.9
3 3 -3 14.81 1.58
-3 -3 3 17.64 1.49
3 3 -3 16 1.94
-3 -3 2 2.87 0.57
-3 -3 2 3.01 0.79
-3 -3 2 3.29 0.73
-3 -3 2 2.42 0.78
-3 -3 2 2.52 0.49
3 3 -2 3.33 0.45
3 3 -2 2.52 0.79
3 3 -2 2.73 0.71
-3 -3 1 10.22 1.33
-3 -3 1 10.99 1.23
-3 -3 1 11.46 0.97
3 3 -1 10.34 0.8
-3 -3 1 11.28 1.52
3 3 -1 10.18 1.23
-3 -3 1 10.61 0.93
3 3 0 290.58 7.59
3 3 0 305.27 6.18
3 3 0 296.48 7.68
-3 -3 0 302.07 7.46
-3 -3 0 292.16 6.01
3 3 0 291.41 5.95
-3 -3 0 299 8.5
3 3 1 -0.1 0.16
-3 -3 -1 0.06 0.11
3 3 1 0.26 0.37
3 3 1 0.05 0.26
-3 -3 -1 0.18 0.19
3 3 1 0.43 0.5
-3 -3 -1 -0.27 0.62
-3 -3 -1 0.08 0.17
3 3 2 80.18 3.7
-3 -3 -2 75.07 1.74
3 3 2 78.54 2.99
-3 -3 -2 76.66 2.96
3 3 2 81.84 3.58
-3 -3 -2 75.93 2.64
3 3 2 74.1 2.53
-3 -3 -3 397.32 6.64
3 3 3 410.47 8.91
3 3 3 403.29 9.88
-3 -3 -3 382.48 8.28
3 3 3 403.43 9.46
3 3 3 382.21 8.12
3 3 4 130.26 5.05
-3 -3 -4 118.86 3
-3 -3 -4 124.72 4.3
3 3 4 123.12 4.14
3 3 4 116.17 5.55
-3 -3 -4 120.2 3.52
3 3 4 115.39 4.34
3 3 4 123.05 3.17
3 3 5 0.44 0.54
-3 -3 -5 0.14 0.16
3 3 5 0.27 0.2
-3 -3 -5 0.39 0.23
3 3 5 -0.14 0.44
-3 -3 -5 0.06 0.33
3 3 5 0.91 0.61
-3 -3 -6 4.03 0.58
3 3 6 5.79 1.18
3 3 6 4.95 0.68
3 3 6 7.59 1.26
-3 -3 -6 3.28 0.86
3 3 6 4.27 1.18
-3 -3 -7 26.32 2.8
3 3 7 27.34 2.52
3 3 7 23.48 2.26
-3 -3 -7 26.66 2.52
3 3 7 22.88 2.62
-3 -3 -7 23.84 1.45
3 3 8 1.62 0.77
3 3 8 1.57 0.82
-3 -3 -8 1.9 0.88
3 3 8 1.93 0.89
-3 -3 -8 1.34 0.88
3 3 9 37.25 3.24
3 3 9 33.36 3.04
-3 -3 -9 42.21 3.65
3 3 9 38.7 3.59
-3 -3 -9 33.75 3.59
3 3 9 34.58 1.99
3 3 10 72.26 4.75
-3 -3 -10 62.97 5.24
3 3 10 73.9 4.77
3 3 10 77.54 5.35
3 3 11 0.74 0.66
3 3 11 1.47 1.04
3 3 11 0.9 0.77
-3 -3 -11 1.13 1.17
3 3 12 8.78 1.85
3 3 12 9.89 1.9
3 3 12 7.26 1.8
-3 -3 -12 7.53 2.04
3 3 13 -0.28 0.66
-3 -3 -13 1.08 0.87
-3 -4 11 0.33 0.74
3 4 -11 2.4 1.14
-3 -4 10 0.62 0.83
3 4 -10 -0.77 0.76
3 4 -10 1.4 0.88
-3 -4 10 0.1 0.6
-3 -4 9 0.94 0.81
3 4 -9 -0.5 0.84
3 4 -9 0.95 0.66
-3 -4 9 0.69 0.67
-3 -4 8 4.91 1.32
3 4 -8 4.58 1.36
3 4 -8 2.14 0.91
-3 -4 8 4.04 1.28
-3 -4 7 2.61 0.95
3 4 -7 4.25 1.25
-3 -4 7 2.07 0.75
3 4 -7 3.73 1.05
-3 -4 6 66.83 3.72
3 4 -6 61.54 2.98
3 4 -6 72.29 4.16
3 4 -6 66.97 4.5
-3 -4 6 66.36 4
-3 -4 5 24.74 2.23
3 4 -5 24.06 2.31
-3 -4 5 23.94 2.21
3 4 -5 26.59 2.72
-3 -4 4 52.1 3.17
-3 -4 4 39.88 2.45
-3 -4 4 40.72 2.53
3 4 -4 44.46 2.99
-3 -4 4 45.52 2.86
3 4 -4 43.45 3.38
-3 -4 3 0.31 0.34
-3 -4 3 0.51 0.44
-3 -4 3 0.16 0.37
3 4 -3 0.87 0.34
3 4 -3 0.73 0.53
-3 -4 3 0.97 0.42
3 4 -3 0.2 0.43
-3 -4 3 1.16 0.75
-3 -4 2 58.27 2.82
-3 -4 2 63.51 3.87
-3 -4 2 56.19 2.39
3 4 -2 63.07 3.38
3 4 -2 63.57 2.45
-3 -4 2 58.28 2.86
-3 -4 2 58.87 2.77
-3 -4 2 65.51 3.57
-3 -4 1 3.61 0.68
-3 -4 1 4.17 0.99
-3 -4 1 2.76 0.58
-3 -4 1 2.98 0.46
-3 -4 1 3.1 0.6
3 4 -1 4.11 0.62
3 4 -1 2.09 0.65
-3 -4 0 73.74 4.01
-3 -4 0 73.07 3.04
-3 -4 0 75.15 2.07
3 4 0 76.52 2.8
3 4 0 73.27 3.57
-3 -4 0 72.02 2.82
3 4 0 67.79 3.18
3 4 0 75.84 2.85
3 4 1 16.87 1.58
-3 -4 -1 18.19 0.67
-3 -4 -1 17.19 0.59
3 4 1 17.99 1.37
3 4 1 14.79 1.56
-3 -4 -1 16.61 1.29
3 4 1 16.48 1.26
-3 -4 -1 18.86 1.98
3 4 2 145.81 4.52
3 4 2 145.08 5.18
3 4 2 142.04 5.11
-3 -4 -2 145.6 4.32
3 4 2 136.1 4.15
-3 -4 -2 156.33 5.95
3 4 3 24.99 2.09
3 4 3 29.14 1.98
3 4 3 25.36 2.06
-3 -4 -3 26.79 1.83
3 4 3 25.43 1.71
3 4 4 176.25 6.13
3 4 4 182.44 3.49
3 4 4 181.74 5.76
3 4 4 185.1 6.02
-3 -4 -4 173.67 5.57
3 4 5 13.57 1.66
3 4 5 15.73 0.95
3 4 5 15.3 1.64
-3 -4 -5 13.43 1.53
3 4 6 6.76 1.26
3 4 6 8.23 1.3
3 4 6 7.57 0.74
3 4 6 6.25 1.39
-3 -4 -6 6.98 1.23
3 4 7 4.34 1.07
3 4 7 5.32 1.11
-3 -4 -7 4.22 1.03
3 4 7 3.36 1.11
3 4 8 28.46 2.68
-3 -4 -8 33.94 3.41
3 4 8 32.67 2.83
-3 -4 -8 32.9 3.02
3 4 8 33.87 3.23
3 4 9 11.61 1.84
3 4 9 17.27 2.17
-3 -4 -9 13.98 2.15
3 4 9 17.16 2.39
-3 -4 -9 16.61 2.54
3 4 10 3.25 1.14
3 4 10 2.42 1.06
-3 -4 -10 1.63 0.9
3 4 10 2.33 1
-3 -4 -10 1.92 1.14
3 4 11 40.36 3.7
-3 -4 -11 38.48 4.25
3 4 11 36.56 3.5
-3 -4 -11 32.51 3.69
3 4 11 35.99 3.69
3 4 12 3.67 1.29
3 4 12 2.03 0.91
-3 -4 -12 2.27 1.32
3 4 13 2.33 1.05
3 4 13 1.95 0.94
-3 -4 -13 1.32 1.28
3 5 -10 -1.03 0.87
-3 -5 10 0.34 0.7
-3 -5 9 0.61 0.86
3 5 -9 0.24 0.66
3 5 -9 0.57 0.71
-3 -5 9 -0.09 0.77
-3 -5 8 9.43 1.79
3 5 -8 6.23 1.57
3 5 -8 7.74 1.59
-3 -5 7 7.23 1.53
3 5 -7 6.11 1.47
-3 -5 7 8.72 1.42
3 5 -7 7.44 1.49
-3 -5 6 2.83 0.95
-3 -5 6 5.4 1.12
3 5 -6 4.52 1.27
3 5 -6 2.74 0.9
-3 -5 5 16.97 1.91
3 5 -5 21.37 2.25
-3 -5 5 18.77 2.11
3 5 -5 20.18 2.44
-3 -5 4 1.36 0.6
-3 -5 4 3.23 0.86
3 5 -4 1.1 0.64
3 5 -4 2.02 0.78
-3 -5 3 24.82 2.26
3 5 -3 23.12 1.65
-3 -5 3 20.28 1.48
3 5 -3 20.01 2.05
-3 -5 3 19.79 1.93
-3 -5 2 7.24 1.25
-3 -5 2 8.09 1.51
-3 -5 2 8.14 1.17
3 5 -2 9.36 1.04
3 5 -2 8.97 1.38
-3 -5 2 8.25 0.92
3 5 -1 50.74 2.47
-3 -5 1 46.01 2.16
-3 -5 1 46.92 1.85
3 5 -1 50.31 3.09
-3 -5 1 50.4 2.76
-3 -5 1 54.34 3.62
-3 -5 0 144.43 3.18
-3 -5 0 166.44 6.44
-3 -5 0 145.04 4.18
3 5 0 158.13 4.98
3 5 0 157.03 5.67
-3 -5 0 151.85 4.9
3 5 0 147.08 4.59
3 5 1 163.19 5.36
3 5 1 162.07 4.94
3 5 1 165 5.79
-3 -5 -1 154.8 4.95
-3 -5 -1 160.11 6.32
-3 -5 -2 0.17 0.44
3 5 2 -0.04 0.37
3 5 2 0.39 0.45
3 5 2 0.35 0.42
-3 -5 -2 0.11 0.33
3 5 3 183.51 5.73
3 5 3 179.57 6.08
-3 -5 -3 172.51 5.56
3 5 3 184.05 6.12
-3 -5 -3 190.65 6.96
3 5 4 14.05 1.63
3 5 4 13.26 1.47
-3 -5 -4 12.93 1.75
-3 -5 -4 11.83 1.47
3 5 4 11.25 1.43
3 5 5 23.8 2.17
3 5 5 27.59 0.97
3 5 5 25.48 2.19
-3 -5 -5 25.32 2.24
3 5 6 0.56 0.51
3 5 6 0.27 0.18
3 5 6 0.14 0.47
-3 -5 -6 -0.36 0.52
3 5 7 16.14 1.93
3 5 7 15.65 1.91
-3 -5 -7 19.29 2.22
3 5 8 25.76 2.58
3 5 8 26.04 2.58
-3 -5 -8 30.51 2.97
3 5 8 24.1 2.67
3 5 9 10.62 1.75
3 5 9 12.07 1.84
-3 -5 -9 6.82 1.58
3 5 9 11.39 1.91
3 5 10 3.3 1.1
3 5 10 1.55 0.81
-3 -5 -10 1.93 0.9
3 5 10 0.87 0.68
-3 -5 -10 4.2 1.45
3 5 11 1.15 1.1
3 5 11 0.48 0.7
-3 -5 -11 1.17 0.88
-3 -5 -11 -1.49 1.06
3 5 12 5.19 1.46
-3 -5 -12 7.42 1.98
-3 -5 -12 6.38 1.87
3 5 12 3.77 1.23
3 5 13 -0.15 0.75
-3 -5 -13 1.82 1.2
-3 -6 10 -3.04 1.2
-3 -6 9 1.18 0.84
-3 -6 9 2.24 1.17
-3 -6 8 13 2.22
3 6 -8 18.74 2.67
3 6 -8 17.66 2.45
-3 -6 7 9.25 1.76
-3 -6 7 11.02 1.59
3 6 -7 8.76 1.84
3 6 -7 10.11 1.8
-3 -6 6 5.47 1.35
-3 -6 6 7.63 1.36
3 6 -6 8.04 1.67
3 6 -6 7.22 1.47
-3 -6 5 4.41 1.09
-3 -6 5 7.76 1.3
3 6 -5 7.1 1.5
3 6 -5 6.91 1.38
-3 -6 4 0.59 0.57
-3 -6 4 0.37 0.49
3 6 -4 -0.27 0.73
-3 -6 3 12.89 1.76
-3 -6 3 9.37 1.43
3 6 -3 10.89 1.7
-3 -6 2 0.91 0.48
-3 -6 2 1.47 0.76
3 6 -2 0.38 0.39
3 6 -2 0.17 0.38
-3 -6 1 0.26 0.44
-3 -6 1 0.38 0.24
-3 -6 1 -0.15 0.15
-3 -6 1 -0.18 0.5
3 6 -1 -0.14 0.29
3 6 -1 0.18 0.46
-3 -6 0 20.15 2.29
3 6 0 20.52 1.63
-3 -6 0 21 1.02
3 6 0 20.84 1.75
3 6 0 24.69 2.24
-3 -6 0 21.68 1.92
-3 -6 -1 45.75 3.38
3 6 1 45.69 2.65
3 6 1 50.35 2.79
3 6 1 48.79 3.13
-3 -6 -1 43.25 2.72
3 6 2 119.98 4.77
3 6 2 133.1 4.85
3 6 2 131.46 5.28
-3 -6 -2 121.43 4.81
-3 -6 -2 131.01 5.78
-3 -6 -3 5.13 1.18
3 6 3 5.7 1.03
3 6 3 5.47 1.04
3 6 3 7.18 1.23
-3 -6 -3 4.95 1.01
3 6 4 69.62 3.73
3 6 4 72.83 3.74
3 6 4 73.13 3.8
-3 -6 -4 73.06 3.83
-3 -6 -4 74.32 4.35
3 6 5 20.57 2.06
3 6 5 20.8 2.05
3 6 5 21.34 2.04
-3 -6 -5 20.48 2.14
-3 -6 -5 23.72 2.46
3 6 6 7.58 1.38
3 6 6 7.51 1.38
-3 -6 -6 5.06 1.24
3 6 7 22.5 2.35
3 6 7 27.49 2.58
-3 -6 -7 30.52 2.9
3 6 8 24.46 2.55
3 6 8 29.61 2.79
-3 -6 -8 29.3 3.02
3 6 9 9.72 1.71
3 6 9 11.73 1.9
-3 -6 -9 9.15 1.83
3 6 10 0.93 0.73
3 6 10 0.55 0.65
-3 -6 -10 0.34 0.69
3 6 11 5.64 1.47
3 6 11 4.21 1.26
-3 -6 -11 6.73 1.82
-3 -6 -11 3.18 1.39
3 6 12 5.7 1.58
3 6 12 8.2 1.82
-3 -6 -12 5.59 1.77
-3 -6 -12 8.27 2.21
-3 -6 -13 0.87 0.95
-3 -7 9 -0.1 0.8
-3 -7 8 -0.81 0.81
-3 -7 7 2.81 1.11
-3 -7 7 1.37 0.67
3 7 -7 2.65 1.1
-3 -7 6 2.28 0.87
-3 -7 6 2.61 0.86
3 7 -6 1.19 0.76
-3 -7 5 0.08 0.56
-3 -7 5 0.9 0.67
3 7 -5 -0.17 0.58
-3 -7 4 0 0.52
-3 -7 4 0.2 0.54
3 7 -4 -0.87 0.64
-3 -7 3 2.57 0.92
-3 -7 3 2.47 0.9
3 7 -3 2.87 0.71
3 7 -3 3.37 0.99
-3 -7 2 9.49 1.51
-3 -7 2 8.21 1.43
3 7 -2 9.68 1.32
3 7 -2 10.44 1.59
-3 -7 1 10.27 1.52
3 7 -1 8.4 1.24
3 7 -1 8.59 1.46
-3 -7 1 10.83 1.82
-3 -7 0 2.94 0.86
3 7 0 1.47 0.45
-3 -7 0 1.83 0.81
3 7 0 3.31 0.81
3 7 0 0.71 0.61
3 7 1 -0.08 0.31
-3 -7 -1 0.37 0.48
3 7 1 0.58 0.45
3 7 1 0.06 0.51
-3 -7 -1 -0.03 0.41
-3 -7 -2 29.2 2.78
3 7 2 29.77 2.36
3 7 2 27.5 2.19
3 7 2 27.98 2.47
-3 -7 -2 30.66 2.51
-3 -7 -3 5.43 1.24
3 7 3 6.39 1.16
3 7 3 4.89 1.02
3 7 3 4.03 0.88
-3 -7 -3 6.66 1.22
3 7 4 20.75 2.02
3 7 4 19.07 1.99
3 7 4 17.88 1.94
-3 -7 -4 18.25 2.03
-3 -7 -4 20.24 2.31
3 7 5 33.41 2.67
3 7 5 35.31 2.82
3 7 5 39.06 2.86
-3 -7 -5 34.78 2.94
-3 -7 -5 32.95 2.95
3 7 6 -1.27 0.65
3 7 6 -0.52 0.63
-3 -7 -6 0.7 0.59
-3 -7 -6 -0.03 0.49
3 7 7 4.76 1.15
-3 -7 -7 6.04 1.36
3 7 7 6.25 1.33
-3 -7 -7 5.76 1.37
3 7 8 30.95 2.93
3 7 8 32.53 3.02
-3 -7 -8 33.34 3.32
3 7 9 2.13 0.89
3 7 9 1.36 0.73
-3 -7 -9 3.13 1.19
3 7 10 9.22 1.77
3 7 10 6.04 1.49
-3 -7 -10 6.29 1.61
3 7 11 0.2 0.48
3 7 11 0.91 0.69
-3 -7 -11 1.25 0.97
3 7 12 0.59 0.72
3 7 12 -0.31 0.61
-3 -7 -12 -0.67 0.8
-3 -7 -12 -1.99 1.22
-3 -8 8 5.81 1.71
-3 -8 7 0.32 0.65
-3 -8 6 0.24 0.7
3 8 -6 1.25 0.72
-3 -8 5 0.3 0.42
3 8 -5 -0.08 0.5
-3 -8 4 3.16 1.1
-3 -8 4 3.42 0.99
3 8 -4 2.75 0.83
3 8 -4 2.79 0.96
-3 -8 3 3.37 1.02
-3 -8 3 3.42 0.95
3 8 -3 3.21 0.88
3 8 -3 3.17 1.11
3 8 -2 39.37 2.87
3 8 -2 36.98 3.18
-3 -8 2 38.19 3.24
-3 -8 2 39.81 3.23
-3 -8 1 1.9 0.83
-3 -8 1 2.6 0.97
3 8 -1 1.2 0.61
3 8 -1 2.51 0.89
3 8 0 73.43 3.94
-3 -8 0 66.6 4.57
3 8 0 63.48 4.05
-3 -8 0 65.2 4.09
-3 -8 -1 1.08 0.86
3 8 1 0.41 0.52
3 8 1 -0.34 0.66
-3 -8 -1 -0.06 0.54
-3 -8 -2 -0.3 0.6
3 8 2 0.54 0.49
3 8 2 0.83 0.5
3 8 2 0 0.49
-3 -8 -2 0.43 0.5
-3 -8 -3 30.09 2.91
3 8 3 31.55 2.48
3 8 3 27.72 2.51
3 8 3 31.02 2.72
-3 -8 -3 27.57 2.63
3 8 4 13.06 1.67
-3 -8 -4 11.09 1.78
3 8 4 12.75 1.72
3 8 4 12.08 1.66
-3 -8 -4 11.85 1.83
-3 -8 -5 7.22 1.44
3 8 5 5.07 1.11
3 8 5 7.06 1.36
3 8 5 5.17 1.1
-3 -8 -5 5.04 1.28
3 8 6 29.6 2.67
3 8 6 26.53 2.64
-3 -8 -6 29.07 2.95
-3 -8 -6 31.19 2.97
3 8 7 7.29 1.43
3 8 7 6.52 1.43
-3 -8 -7 5.6 1.34
-3 -8 -7 7 1.58
3 8 8 3.57 1.11
3 8 8 2.82 0.98
-3 -8 -8 2.36 0.95
-3 -8 -8 3.1 1.21
-3 -8 -9 -1.15 0.76
3 8 9 0.68 0.68
3 8 9 -0.11 0.55
-3 -8 -9 -0.04 0.6
3 8 10 6.36 1.52
3 8 10 6.94 1.59
-3 -8 -10 6.33 1.76
3 8 11 0.92 0.86
3 8 11 0.62 0.5
-3 -8 -11 1.19 0.96
-3 -8 -12 1.9 1.19
-3 -9 7 -0.97 0.87
-3 -9 6 1.31 1.02
-3 -9 5 7.84 1.79
3 9 -5 4.57 1.3
-3 -9 4 -0.25 0.55
3 9 -4 -0.18 0.67
-3 -9 3 3.87 1.21
-3 -9 3 4.38 1.14
3 9 -3 3.25 0.93
3 9 -3 2.17 0.94
3 9 -2 34.8 2.92
3 9 -2 35.15 3.26
-3 -9 2 39.19 3.53
-3 -9 2 36.41 3.2
-3 -9 1 3.48 1.18
-3 -9 1 2.31 0.9
3 9 -1 3.29 0.95
3 9 -1 4.83 1.22
3 9 0 105.83 5.14
3 9 0 103.46 5.5
-3 -9 0 95.84 5.43
-3 -9 -1 9.38 1.79
3 9 1 11.16 1.7
3 9 1 11.09 1.78
-3 -9 -1 7.08 1.54
-3 -9 -2 26.93 2.89
3 9 2 26.05 2.56
3 9 2 29.58 2.83
-3 -9 -2 28.83 2.89
3 9 3 4.01 1.07
-3 -9 -3 3.22 1.1
3 9 3 1.58 0.85
-3 -9 -3 2.83 0.99
-3 -9 -4 5.5 1.27
3 9 4 5.38 1.17
3 9 4 5.96 1.29
3 9 4 5.42 1.22
-3 -9 -4 4.52 1.25
-3 -9 -5 23.59 2.65
3 9 5 22.01 2.32
3 9 5 26.94 2.73
3 9 5 29.01 2.65
-3 -9 -5 22.35 2.68
3 9 6 4.97 1.18
-3 -9 -6 3.49 1.14
3 9 6 2.69 1.03
-3 -9 -6 2.8 1.09
-3 -9 -7 15.86 2.18
3 9 7 18.49 2.26
3 9 7 17.51 2.34
-3 -9 -7 14.73 2.34
3 9 8 13.38 2.03
3 9 8 13.49 2.14
-3 -9 -8 16.56 2.58
3 9 9 -1.41 0.78
3 9 9 0.16 0.65
-3 -9 -9 0.48 0.88
3 9 10 0.99 0.71
3 9 10 -1.34 0.87
-3 -9 -10 -0.01 0.65
3 9 11 0.99 0.72
-3 -9 -11 1.35 1.2
-3 -10 5 -0.79 0.75
-3 -10 4 0.47 0.52
3 10 -4 -1.8 0.96
-3 -10 3 3.02 1.21
3 10 -3 7.06 1.66
-3 -10 2 21.31 2.82
3 10 -2 18.63 2.27
3 10 -2 22.37 2.74
-3 -10 1 6.36 1.44
3 10 -1 5.14 1.25
3 10 -1 5.74 1.43
-3 -10 1 7.12 1.66
3 10 0 9.14 1.62
3 10 0 10.25 1.85
-3 -10 0 10.23 1.89
3 10 1 12.25 1.86
3 10 1 15.95 2.21
-3 -10 -1 12.33 2.07
3 10 2 12.5 1.96
3 10 2 10.03 1.69
-3 -10 -2 8.08 1.63
3 10 3 -0.53 0.55
3 10 3 0.21 0.42
-3 -10 -3 -0.19 0.67
-3 -10 -3 -0.69 0.86
3 10 4 0.1 0.46
3 10 4 0.65 0.51
-3 -10 -4 1.56 0.81
-3 -10 -4 0.13 0.59
-3 -10 -5 3.34 1.05
3 10 5 2.13 0.88
3 10 5 4.15 1.06
-3 -10 -5 3.15 1.17
3 10 6 11.54 1.96
-3 -10 -6 12.02 2.17
3 10 7 -0.19 0.6
3 10 7 -0.22 0.78
-3 -10 -7 -0.37 0.73
3 10 8 2.87 1.05
3 10 8 2.72 1.1
-3 -10 -8 4.35 1.47
3 10 9 -0.07 0.53
3 10 9 0.53 0.64
-3 -10 -9 -0.77 0.74
3 10 10 0.35 0.72
-3 -10 -10 -0.04 0.74
-3 -11 3 0.68 0.7
-3 -11 2 4.79 1.57
3 11 -2 3.42 1.18
3 11 -2 4.32 1.3
3 11 -1 3.3 1.1
3 11 -1 4.1 1.33
-3 -11 1 4.62 1.48
3 11 0 39.58 3.47
3 11 0 37.86 3.6
-3 -11 0 33.8 3.63
3 11 1 0.51 0.68
3 11 1 1.92 0.99
-3 -11 -1 0.14 0.6
3 11 2 3.24 1.07
3 11 2 2.48 1.01
-3 -11 -2 3.93 1.27
3 11 3 1.49 0.76
3 11 3 1.85 0.86
-3 -11 -3 -0.25 0.73
3 11 4 7.23 1.61
3 11 4 5.91 1.37
-3 -11 -4 2.24 0.95
3 11 5 11.88 2.04
3 11 5 12.83 1.91
-3 -11 -5 10.18 2.06
3 11 6 0.06 0.64
-3 -11 -6 -1 0.84
3 11 7 17.85 2.58
-3 -11 -7 13.54 2.46
-3 -11 -8 4.27 1.66
-3 -11 -9 -0.61 0.87
3 12 -1 0.85 0.72
-3 -12 1 1.03 0.86
3 12 0 1 0.73
3 12 0 2.04 0.97
-3 -12 0 0.8 0.84
3 12 1 3.14 1.17
3 12 1 0.84 0.7
-3 -12 -1 1.06 1.04
3 12 2 10.86 1.98
3 12 2 8.53 1.72
-3 -12 -2 13.42 2.44
3 12 3 2.55 1.04
-3 -12 -3 3.43 1.36
-3 -12 -4 -0.53 0.79
-3 -12 -5 -0.76 0.83
-3 -12 -6 0.69 0.88
-4 11 5 3.98 1.27
-4 11 4 9.92 1.92
-4 11 3 1.44 0.89
-4 10 7 3.98 1.15
-4 10 6 0.76 0.89
-4 10 6 4.18 1.23
4 -10 -6 5.67 1.81
-4 10 5 7.54 1.68
4 -10 -5 5.62 1.74
-4 10 5 6.57 1.63
4 -10 -5 4.83 1.56
-4 10 5 5.52 1.37
4 -10 -5 0.67 0.83
-4 10 4 -0.33 0.65
4 -10 -4 -0.58 0.81
4 -10 -4 -0.59 0.96
-4 10 4 -0.33 0.55
4 -10 -4 -0.96 0.89
-4 10 3 0.61 0.75
4 -10 -3 0.28 0.74
-4 10 3 -0.02 0.4
4 -10 -3 -0.76 1
4 -10 -3 1.68 1.07
-4 10 2 1.17 0.74
4 -10 -2 0.78 0.69
4 -10 -2 2.77 1.17
4 -10 -2 0.88 0.84
-4 10 1 0.03 0.52
4 -10 -1 0.48 0.78
4 -10 -1 0.54 0.86
-4 10 0 7.26 1.58
4 -10 0 3.89 1.59
4 -10 0 8.07 2.01
4 -10 0 5.27 1.62
4 -10 1 1.55 1.16
-4 10 -1 0.38 0.65
4 -10 1 2.12 1.26
4 -10 1 -0.65 0.9
4 -10 2 4.11 1.5
4 -10 2 6.24 1.81
4 -10 2 5.26 1.62
-4 10 -2 6.4 1.49
4 -10 2 5.64 1.66
4 -10 3 4.12 1.44
4 -10 3 5.1 1.72
4 -10 3 5.53 1.67
4 -10 3 3.96 1.54
4 -10 4 0.59 0.82
4 -9 -9 12.28 2.35
4 -9 -8 3.75 1.5
4 -9 -8 2.32 1.16
4 -9 -8 1.87 1.23
-4 9 7 2.74 1.13
4 -9 -7 3.64 1.45
-4 9 7 4.25 1.39
4 -9 -7 5.82 1.67
-4 9 7 5.64 1.3
4 -9 -7 5.88 1.71
-4 9 6 0.33 0.63
4 -9 -6 0.84 0.95
-4 9 6 0.59 0.83
4 -9 -6 1.1 0.89
-4 9 6 2.73 0.97
4 -9 -6 2.87 1.23
-4 9 5 -1.06 0.76
-4 9 5 0.78 0.8
4 -9 -5 1.47 1.02
4 -9 -5 0.57 0.85
-4 9 5 -0.16 0.53
4 -9 -5 0.48 0.76
-4 9 4 2.98 1.05
4 -9 -4 3.34 1.2
-4 9 4 4.3 1.29
4 -9 -4 3.33 1.36
-4 9 4 3.24 1.06
4 -9 -4 4.84 1.41
4 -9 -3 2.64 1.21
-4 9 3 1.35 0.86
4 -9 -3 1.49 0.96
-4 9 3 -0.12 0.61
4 -9 -3 1.26 0.87
-4 9 2 0.28 0.6
4 -9 -2 -0.46 0.66
4 -9 -2 0.07 0.72
4 -9 -2 1.27 0.91
4 -9 -1 9.85 2.15
-4 9 1 9.97 1.73
4 -9 -1 12.19 2.27
4 -9 -1 8.34 1.81
-4 9 0 9.5 1.76
4 -9 0 8.81 1.92
4 -9 0 7.63 1.97
4 -9 0 6.97 1.62
4 -9 0 8.23 1.82
4 -9 1 1.62 0.97
-4 9 -1 5.01 1.31
4 -9 1 3.88 1.34
4 -9 1 2.16 1.05
4 -9 1 3.77 1.34
4 -9 2 0.3 0.7
4 -9 2 0.77 0.79
-4 9 -2 -0.21 0.73
-4 9 -2 1.59 0.93
4 -9 2 0 0.61
4 -9 2 0.37 0.72
4 -9 3 10.09 2.04
4 -9 3 7.97 1.91
-4 9 -3 8.43 1.7
-4 9 -3 11.8 2.24
4 -9 3 10.15 2.1
4 -9 3 8.91 2.1
4 -9 4 -0.31 0.67
4 -9 4 0.39 0.75
-4 9 -4 1.01 0.68
4 -9 4 -0.72 0.75
-4 9 -4 -1.47 0.91
4 -9 4 0.25 0.67
4 -9 5 4.17 1.55
4 -9 5 2.13 1.15
4 -9 5 2.42 1.13
4 -9 5 3.65 1.51
4 -9 6 1.12 0.84
4 -9 6 0.53 0.7
4 -8 -9 8.78 1.92
4 -8 -9 9.01 1.99
4 -8 -9 9.07 2.26
-4 8 8 2.53 1.09
4 -8 -8 0.7 0.55
4 -8 -8 0.48 0.82
4 -8 -8 0.46 0.75
4 -8 -8 2.4 1.22
-4 8 7 4.97 1.36
4 -8 -7 5.55 1.39
4 -8 -7 9.25 2.06
4 -8 -7 6.26 1.61
-4 8 7 6.87 1.33
4 -8 -7 9.09 2.02
-4 8 6 0.87 0.66
4 -8 -6 -0.28 0.63
4 -8 -6 -0.41 0.65
-4 8 6 -0.31 0.91
4 -8 -6 0.06 0.75
-4 8 6 0.83 0.54
4 -8 -6 1.42 0.85
4 -8 -5 11.09 2.25
-4 8 5 13.35 2.05
-4 8 5 13.2 2.15
4 -8 -5 10.02 1.98
-4 8 5 13.18 1.8
4 -8 -5 13.29 2.27
-4 8 4 8.46 1.62
4 -8 -4 7.22 1.77
-4 8 4 13.11 2.14
4 -8 -4 5.96 1.57
-4 8 4 12.35 1.76
4 -8 -4 8.5 1.8
-4 8 3 0.3 0.51
4 -8 -3 1.72 1.09
-4 8 3 0.56 0.58
4 -8 -3 0.34 0.56
-4 8 3 -0.09 0.48
4 -8 -3 1.36 0.87
4 -8 -2 28.82 3.42
-4 8 2 30.36 3.02
4 -8 -2 27.93 3.18
4 -8 -2 23.43 2.84
-4 8 2 25.35 2.57
4 -8 -1 10.66 2.15
-4 8 1 10.54 1.73
4 -8 -1 7.51 1.7
4 -8 -1 7.27 1.52
4 -8 -1 9.76 1.84
-4 8 0 4.71 1.18
4 -8 0 3.74 1.44
4 -8 0 4.04 1.38
4 -8 0 2.12 0.96
4 -8 0 3.61 1.22
4 -8 1 22.82 3.05
-4 8 -1 23.06 2.54
4 -8 1 21.09 2.81
-4 8 -1 19.99 2.58
4 -8 1 23.65 2.92
4 -8 1 18.56 2.55
4 -8 2 9.78 1.87
-4 8 -2 12.52 1.9
4 -8 2 13.27 2.35
-4 8 -2 11.17 2.02
4 -8 2 12.41 2.24
4 -8 2 12.57 2.22
4 -8 3 5 1.37
4 -8 3 8.86 1.85
-4 8 -3 7.49 1.77
-4 8 -3 7.65 1.51
4 -8 3 7.55 1.78
4 -8 3 4.85 1.4
4 -8 4 1.66 0.96
4 -8 4 1.21 0.95
-4 8 -4 1.11 0.8
-4 8 -4 2.19 0.87
4 -8 4 2.34 1.06
4 -8 4 1.54 0.93
4 -8 5 1.22 1.03
4 -8 5 0.17 0.66
-4 8 -5 0.78 0.7
4 -8 5 -0.11 0.65
-4 8 -5 0.07 0.95
4 -8 5 1.06 0.83
4 -8 6 -0.18 0.66
-4 8 -6 0.94 0.7
4 -8 6 1.64 0.83
4 -8 6 1.92 1.02
-4 8 -6 2.24 1.26
4 -8 6 1.3 1.06
4 -8 7 -0.59 0.71
4 -7 -10 6.87 1.72
4 -7 -10 4.8 1.7
-4 7 9 1.01 0.77
4 -7 -9 1.17 0.88
4 -7 -9 0.37 0.6
4 -7 -9 2.71 1.17
-4 7 8 -0.05 0.56
4 -7 -8 2.06 0.98
4 -7 -8 1.77 0.94
4 -7 -8 1.52 0.89
4 -7 -8 0.07 0.62
4 -7 -7 48.77 4.41
4 -7 -7 49.47 4.19
-4 7 7 48.71 3.26
4 -7 -7 42.87 4.09
4 -7 -7 51.49 4.06
-4 7 7 52.01 4.04
-4 7 6 0.27 0.49
4 -7 -6 0.16 0.51
4 -7 -6 -0.89 0.9
4 -7 -6 -0.33 0.72
-4 7 6 0.06 0.36
4 -7 -6 1.23 0.91
-4 7 5 13.68 1.97
4 -7 -5 15.23 1.97
4 -7 -5 15.74 2.51
-4 7 5 11.76 2.04
4 -7 -5 13.08 2.13
-4 7 5 11.97 1.61
4 -7 -5 11.76 2.04
4 -7 -4 10.55 2.09
4 -7 -4 9.23 1.47
-4 7 4 10.26 1.81
-4 7 4 13.61 1.72
4 -7 -4 10.15 1.85
4 -7 -4 11.22 1.89
-4 7 4 16.69 2.1
-4 7 3 1 0.69
4 -7 -3 -0.36 0.84
-4 7 3 -0.39 0.73
4 -7 -3 0.15 0.39
4 -7 -3 -0.34 0.61
-4 7 3 0.69 0.53
4 -7 -3 0.78 0.74
-4 7 2 5.54 1.19
4 -7 -2 7.56 1.7
4 -7 -2 7.01 1.57
4 -7 -2 4.83 1
4 -7 -2 7.02 1.39
-4 7 2 6.18 1.37
4 -7 -2 5.16 1.27
4 -7 -1 28.17 3.17
4 -7 -1 21.66 2.66
4 -7 -1 20.65 2.42
4 -7 -1 20 2.47
-4 7 1 21.5 2.41
-4 7 1 19.95 2.09
-4 7 0 19.67 2.26
4 -7 0 16.97 2.51
4 -7 0 15 2.27
-4 7 0 18.24 2.26
4 -7 0 17.67 2.41
4 -7 0 17.7 2.26
4 -7 1 55.36 4.5
-4 7 -1 57.46 4.11
4 -7 1 56.26 4.3
4 -7 1 53.23 3.97
4 -7 1 52.66 4.27
-4 7 -1 55.89 3.8
4 -7 2 3.96 1.16
-4 7 -2 6.31 1.32
4 -7 2 3.56 1.19
-4 7 -2 4.04 1.14
4 -7 2 4.45 1.4
4 -7 2 4.44 1.33
4 -7 3 0.63 0.52
4 -7 3 2.19 1.05
4 -7 3 2.62 1.03
-4 7 -3 2.94 1.03
-4 7 -3 1.68 0.81
4 -7 3 1.78 0.96
4 -7 4 0.01 0.66
4 -7 4 -0.13 0.69
-4 7 -4 1.26 0.69
4 -7 4 0.6 0.67
-4 7 -4 1.23 0.95
4 -7 4 1.1 0.88
4 -7 5 6.48 1.54
4 -7 5 9.15 1.86
-4 7 -5 10.59 1.75
4 -7 5 7.49 1.67
-4 7 -5 4.63 1.48
4 -7 5 9.22 2.08
4 -7 6 2.03 1.08
4 -7 6 0.76 0.85
4 -7 6 1.04 0.73
-4 7 -6 3.77 1.38
-4 7 -6 2.79 0.98
4 -7 6 0.78 0.91
4 -7 7 -0.24 0.66
4 -7 7 0.08 0.49
-4 7 -7 0.06 0.48
4 -7 7 -0.62 0.68
-4 7 -7 0.36 0.76
4 -7 7 -0.45 0.83
4 -7 8 -0.38 0.73
4 -6 -11 -0.08 0.54
4 -6 -10 1.24 0.81
4 -6 -10 0.8 0.98
-4 6 9 10.17 1.89
4 -6 -9 13.99 2.31
4 -6 -9 10.71 1.93
4 -6 -9 8.54 1.93
-4 6 8 9.09 1.73
4 -6 -8 10.02 1.88
4 -6 -8 10.55 1.89
4 -6 -8 8.18 1.77
4 -6 -8 8.06 1.81
-4 6 7 0.12 0.53
4 -6 -7 0.46 0.65
4 -6 -7 0.24 0.7
4 -6 -7 -0.52 0.52
-4 6 7 -0.13 0.3
4 -6 -7 0.91 0.8
-4 6 6 9.26 1.6
4 -6 -6 7.94 1.57
4 -6 -6 8.6 1.69
-4 6 6 7.33 1.13
4 -6 -6 11.41 2.08
4 -6 -6 8.42 1.73
4 -6 -5 8.36 1.75
-4 6 5 11.28 1.71
4 -6 -5 6.58 1.36
4 -6 -5 5.79 1.38
-4 6 5 6.3 1.07
4 -6 -5 7.35 1.53
-4 6 4 9.75 1.74
-4 6 4 8.99 1.46
4 -6 -4 11.32 2.03
4 -6 -4 8.21 1.62
-4 6 4 8.39 1.25
4 -6 -4 10.62 1.76
4 -6 -4 7.67 1.41
-4 6 3 1.53 0.59
4 -6 -3 -0.06 0.62
-4 6 3 0.88 0.61
4 -6 -3 0.7 0.45
4 -6 -3 1.48 0.85
4 -6 -3 0.25 0.43
4 -6 -3 1.03 0.6
-4 6 2 5.45 1.13
-4 6 2 6.33 1.42
4 -6 -2 6.35 1.53
4 -6 -2 5.95 1.11
4 -6 -2 8.06 1.62
4 -6 -2 8.02 1.47
4 -6 -2 7.7 1.41
4 -6 -1 71.24 4.9
-4 6 1 75.24 4.39
4 -6 -1 76.26 4.81
4 -6 -1 73.12 4.27
4 -6 -1 73.48 4.63
4 -6 -1 64.14 3.36
-4 6 1 76.23 3.87
4 -6 0 33.86 3.31
-4 6 0 36.25 2.97
-4 6 0 37.35 3.04
4 -6 0 34.11 3.21
4 -6 0 33.32 2.85
4 -6 0 38.62 3.43
-4 6 0 31.76 2.41
-4 6 -1 21.04 2.24
4 -6 1 18.98 2.43
4 -6 1 17.18 2.38
-4 6 -1 16.5 2.07
4 -6 1 18.85 2.16
4 -6 1 16.91 2.37
4 -6 2 13.39 1.87
4 -6 2 15.21 2.28
-4 6 -2 14.71 1.86
4 -6 2 18.29 2.37
-4 6 -2 16.11 2.19
4 -6 2 17.65 2.48
4 -6 3 10.25 1.7
4 -6 3 11.8 2.03
-4 6 -3 10.05 1.56
4 -6 3 9.38 1.76
-4 6 -3 11.62 1.95
4 -6 3 7.92 1.77
4 -6 4 1.97 0.81
4 -6 4 2.2 1
-4 6 -4 1.82 0.83
4 -6 4 1.25 0.71
-4 6 -4 1.87 0.91
4 -6 4 2.13 1.1
4 -6 5 0.3 0.52
4 -6 5 0.92 0.77
-4 6 -5 0.55 0.53
4 -6 5 0.79 0.73
-4 6 -5 0.1 0.67
4 -6 5 -0.18 0.71
4 -6 6 15.79 2.35
-4 6 -6 13.61 1.95
4 -6 6 15.37 2.29
4 -6 6 14.27 2.22
-4 6 -6 13.3 2.36
4 -6 6 13.47 2.53
4 -6 7 -0.51 0.96
4 -6 7 0.29 0.6
-4 6 -7 -0.16 0.67
4 -6 7 1.21 0.79
-4 6 -7 1.2 1.01
4 -6 7 -1.23 0.9
4 -6 8 -1.08 0.92
-4 6 -8 -0.26 0.51
-4 6 -8 1.45 1.23
4 -6 8 1.88 1.03
4 -6 9 1.71 0.98
4 -5 -11 3.44 1.47
-4 5 10 3.56 1.17
4 -5 -10 5.36 1.55
4 -5 -10 3.58 1.34
-4 5 9 0.68 0.58
4 -5 -9 -0.56 0.71
4 -5 -9 -0.46 0.83
-4 5 8 0.88 0.83
4 -5 -8 1.19 0.85
4 -5 -8 0.54 0.58
4 -5 -8 2.15 0.97
4 -5 -8 0.26 0.63
4 -5 -7 44.76 3.85
4 -5 -7 34.5 3.41
4 -5 -7 41.24 3.56
4 -5 -7 36.11 3.29
-4 5 7 40.74 3.32
-4 5 6 4.08 1.14
4 -5 -6 2.85 1
4 -5 -6 3.16 1.14
4 -5 -6 2 0.84
-4 5 6 2.54 0.63
4 -5 -6 2.97 1.07
-4 5 5 9.27 1.48
4 -5 -5 10.01 1.61
4 -5 -5 6.39 1.43
-4 5 5 7.5 1.06
4 -5 -5 8.69 1.73
4 -5 -5 10.01 1.63
-4 5 4 -0.16 0.56
4 -5 -4 0.21 0.52
4 -5 -4 0.28 0.57
4 -5 -4 -0.1 0.66
-4 5 4 0.71 0.45
4 -5 -4 -0.2 0.56
-4 5 3 0.97 0.48
-4 5 3 1.54 0.43
4 -5 -3 -0.03 0.51
-4 5 3 0.27 0.6
4 -5 -3 1.49 0.7
4 -5 -3 1.44 0.74
4 -5 -3 0.81 0.6
4 -5 -2 54.79 4.13
4 -5 -2 51.7 3.81
-4 5 2 58.56 3.83
4 -5 -2 55.21 3.46
4 -5 -2 58.63 3.46
4 -5 -2 58.56 3.81
-4 5 2 61.33 3.38
-4 5 1 2.24 0.68
4 -5 -1 1.84 1
-4 5 1 2.64 0.92
-4 5 1 1.26 0.63
4 -5 -1 1.43 0.69
4 -5 -1 2.82 0.75
4 -5 -1 1.66 0.74
4 -5 -1 0.72 0.69
4 -5 0 233.73 8.8
-4 5 0 219.55 7.36
-4 5 0 230.27 7.72
4 -5 0 229.05 8.41
4 -5 0 217.84 7.28
4 -5 0 215.75 8.45
-4 5 0 221.52 6.56
4 -5 1 486.88 13.6
-4 5 -1 461.97 12.18
4 -5 1 464.75 13.1
4 -5 1 474.08 11.87
4 -5 1 486.67 13.87
-4 5 -1 501.79 12.31
4 -5 2 115.14 5.99
-4 5 -2 117.74 5.71
-4 5 -2 124.94 5.37
4 -5 2 118.97 5.96
4 -5 2 118.64 5.24
4 -5 2 122.56 6.46
4 -5 3 0.67 0.6
-4 5 -3 0.87 0.63
4 -5 3 0.35 0.68
-4 5 -3 1.16 0.81
4 -5 3 -0.05 0.78
4 -5 3 -0.46 0.84
4 -5 4 13.1 1.84
4 -5 4 15.22 2.18
-4 5 -4 11.77 1.63
4 -5 4 12.74 1.95
-4 5 -4 15.56 2.24
4 -5 4 16.65 2.5
4 -5 5 69 4.68
4 -5 5 65.51 4.32
-4 5 -5 66.16 3.91
4 -5 5 68.66 4.62
-4 5 -5 69.21 4.96
4 -5 5 62.74 4.2
4 -5 5 62.29 5.03
4 -5 6 0.33 0.46
4 -5 6 0.6 0.49
4 -5 6 0.44 0.62
-4 5 -6 0.66 0.66
4 -5 6 -0.08 0.54
-4 5 -6 1.8 0.93
4 -5 6 -0.16 0.66
4 -5 7 5.77 1.44
4 -5 7 4.35 1.23
4 -5 7 6.18 1.53
-4 5 -7 7.3 1.47
4 -5 7 3.6 1.09
-4 5 -7 7.15 1.84
4 -5 7 6.93 1.86
4 -5 8 3.28 1.23
4 -5 8 4.16 1.22
-4 5 -8 3.77 1.17
-4 5 -8 4.2 1.47
4 -5 8 5.74 1.78
4 -5 9 0.96 0.66
-4 5 -9 0.42 0.71
4 -5 9 -1.63 1.12
4 -5 10 -0.04 0.47
4 -4 -11 0.16 0.6
-4 4 10 8.16 1.65
4 -4 -10 5.53 1.57
4 -4 -10 4.39 1.44
-4 4 9 1.2 0.79
4 -4 -9 3.65 1.32
4 -4 -9 1.78 0.88
-4 4 8 9.12 1.69
4 -4 -8 5.93 1.47
4 -4 -8 6.53 1.46
4 -4 -8 5.53 1.27
4 -4 -8 4.11 1.32
-4 4 7 10.81 1.72
4 -4 -7 11.6 1.89
4 -4 -7 11.25 1.88
4 -4 -7 12.56 1.87
4 -4 -7 11.81 1.94
4 -4 -6 36.97 3.31
4 -4 -6 28.87 2.8
-4 4 6 34.22 2.04
4 -4 -6 32.25 2.95
4 -4 -6 31.28 3
-4 4 6 34.18 2.84
-4 4 5 0.01 0.39
4 -4 -5 -0.38 0.6
4 -4 -5 0.6 0.53
4 -4 -5 0.57 0.56
-4 4 5 0.21 0.25
4 -4 -5 -0.55 0.5
-4 4 4 3.05 0.85
4 -4 -4 2.94 0.95
4 -4 -4 3.19 1.08
4 -4 -4 3.09 1.07
-4 4 4 2.95 0.61
-4 4 4 2.41 0.51
4 -4 -4 2.66 0.81
4 -4 -3 22.56 2.55
4 -4 -3 25.27 2.57
-4 4 3 25.97 1.79
4 -4 -3 29.55 2.39
-4 4 3 22.92 1.32
4 -4 -3 26.35 2.44
-4 4 3 28.13 1.75
-4 4 3 26.34 2.18
-4 4 2 0.34 0.37
4 -4 -2 0.65 0.66
-4 4 2 0.96 0.62
4 -4 -2 0.14 0.48
4 -4 -2 1.08 0.66
-4 4 2 0.44 0.25
4 -4 -2 0.26 0.53
4 -4 -2 0.6 0.43
-4 4 1 7.24 1.06
4 -4 -1 10.01 1.72
-4 4 1 10.52 1.52
4 -4 -1 8.94 1.61
4 -4 -1 7.75 1.21
-4 4 1 6.97 1.06
4 -4 -1 9.97 1.66
4 -4 -1 7.92 1.18
-4 4 0 14.48 1.61
-4 4 0 12.57 1.67
4 -4 0 16.09 2.16
4 -4 0 12.24 1.83
4 -4 0 13.09 1.48
4 -4 0 12.1 1.91
-4 4 0 14.61 1.39
4 -4 1 162.84 7.05
-4 4 -1 167.91 6.14
4 -4 1 169.69 6.99
-4 4 -1 163.79 6.17
4 -4 1 162.49 5.65
4 -4 1 165.44 7.32
-4 4 -1 168.16 4.97
4 -4 2 1.94 0.72
4 -4 2 1.17 0.85
-4 4 -2 1.26 0.63
-4 4 -2 1.07 0.27
4 -4 2 2.49 1.02
-4 4 -2 1.46 0.8
4 -4 2 3.44 1.25
-4 4 -3 52.89 1.67
4 -4 3 52.74 3.88
-4 4 -3 61.64 4.05
-4 4 -3 49.45 3.15
4 -4 3 59.76 4.03
4 -4 3 50.51 3.21
4 -4 3 60.14 4.46
-4 4 -4 6.09 0.46
4 -4 4 6.75 1.27
4 -4 4 9.15 1.66
4 -4 4 6.48 1.47
-4 4 -4 9.83 1.44
4 -4 4 9.26 1.68
-4 4 -4 5.96 1.41
4 -4 4 4.93 1.49
4 -4 5 13.78 1.84
4 -4 5 11.03 1.8
4 -4 5 14.6 2.09
-4 4 -5 12.1 1.64
4 -4 5 11.14 1.79
-4 4 -5 12.02 1.99
4 -4 5 12.65 2.23
4 -4 6 6.95 1.38
4 -4 6 9.05 1.69
4 -4 6 6.9 1.45
-4 4 -6 6.8 1.3
4 -4 6 5.33 1.31
-4 4 -6 7.94 1.74
4 -4 6 6.04 1.66
4 -4 7 5.39 1.32
4 -4 7 7.2 1.52
4 -4 7 6.32 1.39
-4 4 -7 6.07 1.24
4 -4 7 5.56 1.25
-4 4 -7 6.22 1.65
4 -4 7 2.92 1.27
4 -4 8 16.15 2.32
-4 4 -8 19.42 2.25
4 -4 8 15.86 2.14
4 -4 8 16.93 2.23
4 -4 8 15.38 2.24
-4 4 -8 13.36 2.43
4 -4 8 18.38 2.98
4 -4 9 2.23 0.97
4 -4 9 4.7 1.36
-4 4 -9 1.67 0.76
-4 4 -9 2.07 1.21
4 -4 9 3.02 1.44
4 -4 10 1.38 0.87
4 -4 10 2.7 1.1
-4 4 -10 2.15 1
-4 4 -10 1.55 0.76
4 -4 10 0.01 0.65
4 -4 11 1.5 0.83
-4 3 10 2.52 1
4 -3 -10 0.86 0.66
4 -3 -10 2.53 1.09
-4 3 9 2.26 1.01
4 -3 -9 0.28 0.68
4 -3 -9 3.26 1.17
-4 3 8 13.85 1.97
4 -3 -8 10.87 1.95
4 -3 -8 10.94 1.73
4 -3 -8 11.44 1.67
4 -3 -8 12.43 1.99
4 -3 -7 46.74 3.58
4 -3 -7 46.7 3.41
4 -3 -7 44.66 3.59
4 -3 -7 47.3 3.82
-4 3 7 51.46 3.63
-4 3 6 -0.27 0.55
4 -3 -6 -0.29 0.56
4 -3 -6 0.42 0.51
4 -3 -6 -0.62 0.69
-4 3 6 0.06 0.22
4 -3 -6 -0.11 0.28
4 -3 -6 -0.06 0.47
4 -3 -5 22.03 2.44
4 -3 -5 16.9 2.03
-4 3 5 19.06 1.29
4 -3 -5 18.18 2
4 -3 -5 17.86 1.35
4 -3 -5 19.35 2.24
-4 3 5 17.13 1.9
-4 3 4 2.37 0.69
4 -3 -4 3.24 1.09
4 -3 -4 3.17 0.92
4 -3 -4 3.3 1.01
-4 3 4 2.42 0.49
-4 3 4 1.79 0.53
4 -3 -4 2.45 0.51
-4 3 4 2.49 0.46
4 -3 -4 1 0.54
-4 3 3 -0.36 0.36
4 -3 -3 -0.07 0.58
-4 3 3 0 0.27
4 -3 -3 0.2 0.38
4 -3 -3 0.08 0.51
-4 3 3 0.34 0.29
4 -3 -3 0.59 0.35
-4 3 3 -0.33 0.22
4 -3 -3 -0.2 0.45
-4 3 2 18.08 1.49
4 -3 -2 17.73 2.2
4 -3 -2 17.16 1.53
4 -3 -2 18.35 2.15
4 -3 -2 16.42 1.54
-4 3 2 16.85 1.31
-4 3 2 19.38 1.65
4 -3 -2 16.35 1.89
-4 3 2 18.76 1.67
-4 3 1 46.87 2.32
4 -3 -1 40.7 3.29
-4 3 1 40.87 2.89
4 -3 -1 45.88 3.37
4 -3 -1 47.14 2.54
-4 3 1 46.17 2.44
4 -3 -1 47.49 3.46
4 -3 -1 48.1 3.14
-4 3 1 44.18 2.45
-4 3 0 9.15 0.96
4 -3 0 10.08 1.69
-4 3 0 8.28 1.29
4 -3 0 9.9 1.58
-4 3 0 9.01 1.18
4 -3 0 10.01 1.65
-4 3 0 9.8 1.06
4 -3 0 9.8 1.12
-4 3 -1 279.99 6.43
4 -3 1 308.76 9.67
-4 3 -1 285.97 8.14
-4 3 -1 283.91 8.12
4 -3 1 285.42 9.18
4 -3 1 292.39 7.34
4 -3 1 296.25 9.94
-4 3 -1 285.87 6.59
-4 3 -2 24.18 1.46
4 -3 2 28.58 2.75
-4 3 -2 24.29 2.29
4 -3 2 24.85 2.54
4 -3 2 26.11 1.95
-4 3 -2 23.22 2.06
4 -3 2 23.78 2.73
4 -3 2 22 1.37
-4 3 -2 24.76 1.46
-4 3 -3 54.74 2.22
4 -3 3 58.52 3.95
4 -3 3 45.73 3.45
-4 3 -3 55.93 3.74
4 -3 3 53.04 3.72
-4 3 -3 58.07 3.19
4 -3 3 54.73 3.03
4 -3 3 50.09 4.02
4 -3 3 47.64 1.87
4 -3 4 38.84 3.2
-4 3 -4 33.01 2.43
-4 3 -4 35.65 3.14
4 -3 4 29.5 2.79
4 -3 4 30.51 2.39
4 -3 4 35.81 3.5
4 -3 4 29.71 2.84
-4 3 -4 34.25 1.73
4 -3 5 44.99 3.49
4 -3 5 51.58 3.8
-4 3 -5 44.93 2.91
-4 3 -5 41.88 3.63
4 -3 5 41.26 3.31
4 -3 5 45.26 3.08
4 -3 5 46.57 4.1
4 -3 6 1.44 0.68
4 -3 6 1.72 0.9
4 -3 6 2.03 0.82
-4 3 -6 2.57 0.81
4 -3 6 1.26 0.63
-4 3 -6 1.71 0.94
4 -3 6 2.01 1.22
4 -3 7 7.93 1.48
4 -3 7 7.31 1.58
4 -3 7 6.77 1.36
-4 3 -7 6.79 1.3
4 -3 7 8.62 1.57
-4 3 -7 5.41 1.49
4 -3 7 5.12 1.62
4 -3 8 58.14 3.83
4 -3 8 57.34 4.46
-4 3 -8 57.13 3.75
-4 3 -8 57.41 4.91
4 -3 8 59.37 3.99
4 -3 8 50.21 3.91
4 -3 8 51.39 4.84
4 -3 9 1.14 0.82
4 -3 9 0.5 0.52
-4 3 -9 -0.4 0.5
-4 3 -9 -0.94 0.98
4 -3 9 -1.56 1.21
4 -3 10 1.05 0.76
4 -3 10 -0.7 0.71
-4 3 -10 0.64 0.62
-4 3 -10 1.42 0.99
4 -3 10 0.77 0.88
4 -3 11 0.07 0.75
4 -3 11 -0.3 0.54
-4 3 -11 0.09 0.49
-4 3 -11 0.97 1.01
4 -3 11 0.2 0.76
-4 2 11 1.21 0.89
-4 2 10 3.94 1.24
4 -2 -10 2.82 1.26
-4 2 9 7.27 1.5
4 -2 -9 9.06 1.85
4 -2 -8 35.06 2.91
4 -2 -8 37.73 2.87
4 -2 -8 32.58 3.22
4 -2 -8 35.07 3.46
-4 2 8 41.45 3.4
-4 2 7 3.56 1.04
4 -2 -7 3.85 1.14
4 -2 -7 2.93 1
4 -2 -7 3.31 0.94
4 -2 -7 4.12 0.81
4 -2 -7 2.67 0.97
-4 2 6 4.12 1.04
4 -2 -6 6.39 1.43
4 -2 -6 4.22 1.07
4 -2 -6 5.66 1.17
4 -2 -6 4.98 0.81
4 -2 -6 6.14 1.26
-4 2 5 10.7 1.5
4 -2 -5 10.66 1.71
4 -2 -5 9.96 1.67
-4 2 5 11.2 0.75
4 -2 -5 8.72 1.42
4 -2 -5 10.95 1.18
4 -2 -5 10.55 1.44
4 -2 -4 44.41 3.34
-4 2 4 40.77 2.54
4 -2 -4 42.65 1.52
4 -2 -4 43.24 3.17
-4 2 4 43.75 1.59
4 -2 -4 42.69 2.67
4 -2 -4 46.06 2.38
4 -2 -4 46.49 3.38
-4 2 4 47.54 2.95
-4 2 3 -0.02 0.36
4 -2 -3 0.56 0.63
4 -2 -3 0.39 0.5
-4 2 3 0.15 0.29
4 -2 -3 1.02 0.68
-4 2 3 0.4 0.41
-4 2 3 0.07 0.16
4 -2 -3 0.25 0.31
4 -2 -3 0.32 0.18
4 -2 -3 0.37 0.36
-4 2 3 0.32 0.28
-4 2 2 13.03 1.34
4 -2 -2 15.11 1.99
4 -2 -2 13.5 1.14
4 -2 -2 13.15 1.73
4 -2 -2 17.61 1.99
4 -2 -2 13.91 1.27
-4 2 2 14.91 1.22
-4 2 2 14.42 1.51
-4 2 2 15.4 1.48
-4 2 1 33.21 2.1
4 -2 -1 35.22 2.97
-4 2 1 34.38 1.85
4 -2 -1 32.04 2.72
4 -2 -1 32.63 2.03
4 -2 -1 34.11 1.88
-4 2 1 33.57 1.76
4 -2 -1 32.01 2.85
4 -2 -1 35 2.71
-4 2 1 34.89 2.52
-4 2 1 36.61 2.1
-4 2 0 277.42 6.89
4 -2 0 296.98 9.24
-4 2 0 273.89 6.98
4 -2 0 263.55 8.59
4 -2 0 269.37 7.35
-4 2 0 242.49 6.22
4 -2 0 284.86 6.36
-4 2 0 257.74 6.04
4 -2 0 295.27 9.49
-4 2 0 281.88 7.84
-4 2 0 285.04 6.49
-4 2 -1 75.31 3.11
4 -2 1 83.1 4.58
-4 2 -1 72.92 3.58
-4 2 -1 74.27 3.57
4 -2 1 70.75 4.17
4 -2 1 73.53 2.84
-4 2 -1 78.18 2.86
4 -2 1 70.89 4.56
4 -2 1 69.69 2.65
-4 2 -1 78.54 2.71
4 -2 2 2.96 0.59
-4 2 -2 2.2 0.41
4 -2 2 2.58 0.91
-4 2 -2 2.58 0.58
4 -2 2 2.64 1.02
-4 2 -2 3.79 0.85
4 -2 2 2.06 0.76
-4 2 -2 3.82 0.95
4 -2 2 4.08 1.25
4 -2 2 2.16 0.41
4 -2 3 27.79 2.63
4 -2 3 24.69 2.5
-4 2 -3 25.27 2.46
4 -2 3 27.88 2.59
-4 2 -3 27.47 2.07
4 -2 3 29.29 1.95
4 -2 3 26.51 2.93
4 -2 3 25.82 1.12
-4 2 -3 28.96 1.82
4 -2 4 1.4 0.72
4 -2 4 1.47 0.49
4 -2 4 0.77 0.63
-4 2 -4 1.14 0.56
4 -2 4 0.32 0.53
-4 2 -4 0.67 0.63
4 -2 4 1.88 0.92
4 -2 5 24.67 2.44
4 -2 5 19.63 2.35
-4 2 -5 20.48 1.84
-4 2 -5 21.2 2.52
4 -2 5 22.55 2.36
4 -2 5 20 1.91
4 -2 5 20.7 2.67
4 -2 6 2.16 0.76
4 -2 6 1.18 0.59
-4 2 -6 1.86 0.61
4 -2 6 0.21 0.62
4 -2 6 1.36 0.7
-4 2 -6 2.12 0.99
4 -2 6 1.77 0.95
4 -2 7 7.37 1.35
4 -2 7 10.34 1.58
-4 2 -7 6.15 1.16
4 -2 7 6.12 1.46
-4 2 -7 6.23 1.55
4 -2 7 7.49 1.8
4 -2 7 5.94 1.24
4 -2 8 114.49 5.25
-4 2 -8 112.41 5.19
-4 2 -8 100.09 6.49
4 -2 8 108.58 6.22
4 -2 8 116.48 5.77
4 -2 8 117.76 7.16
4 -2 9 14.06 2.3
-4 2 -9 12.02 1.76
4 -2 9 11.82 1.92
-4 2 -9 15.54 2.69
4 -2 9 14.44 2.59
4 -2 10 1.04 0.63
4 -2 10 0.26 0.49
-4 2 -10 0.66 0.52
-4 2 -10 2.34 1.14
4 -2 10 0.17 0.81
4 -2 11 -0.45 0.63
4 -2 11 3.28 1.28
-4 2 -11 2.5 1
-4 2 -11 1.78 1.05
4 -2 11 -0.11 0.74
4 -2 12 -0.05 0.63
4 -2 12 -0.22 0.55
-4 2 -12 -0.86 0.87
4 -2 13 1.87 0.97
-4 1 11 -0.13 0.58
-4 1 10 -0.61 0.73
4 -1 -10 0.19 0.73
-4 1 9 2.46 0.98
4 -1 -9 3.03 1.18
-4 1 8 0.65 0.77
4 -1 -8 -0.1 0.67
4 -1 -8 1.51 0.65
4 -1 -7 19.76 2.12
4 -1 -7 16.79 2.32
4 -1 -7 18.16 1.79
-4 1 7 16.21 2.05
-4 1 6 0.55 0.51
4 -1 -6 0.22 0.74
4 -1 -6 1 0.57
4 -1 -6 0.32 0.4
4 -1 -6 0.53 0.34
-4 1 5 59.59 3.34
4 -1 -5 68.91 4.03
4 -1 -5 61.08 3.64
4 -1 -5 58.81 3.38
4 -1 -5 62.14 3.07
4 -1 -5 65.14 4.23
-4 1 5 70.48 3.84
-4 1 4 9.17 1.32
-4 1 4 11.28 1.43
4 -1 -4 6.58 1.31
4 -1 -4 10.54 1.66
4 -1 -4 7.6 1.31
-4 1 4 9.71 1.32
4 -1 -4 10.56 1.21
4 -1 -4 8.34 1.14
-4 1 3 14.63 1.57
-4 1 3 13.91 1.5
4 -1 -3 15.4 1.93
4 -1 -3 12.96 1.7
4 -1 -3 15.54 1.35
4 -1 -3 14.51 1.39
-4 1 3 14.08 1.2
4 -1 -3 16.16 2.01
-4 1 3 15.38 1.58
-4 1 2 3.38 0.53
-4 1 2 4.56 0.83
4 -1 -2 4.55 1.1
-4 1 2 4.66 0.84
4 -1 -2 3.49 0.91
4 -1 -2 4.95 1.12
-4 1 2 3.02 0.36
4 -1 -2 4.53 0.82
4 -1 -2 3.73 0.6
-4 1 2 2.74 0.72
-4 1 1 0.72 0.38
-4 1 1 0.18 0.14
4 -1 -1 1.29 0.73
-4 1 1 0.61 0.48
4 -1 -1 1 0.64
-4 1 1 0.29 0.17
-4 1 1 0.31 0.43
-4 1 1 0.1 0.17
4 -1 -1 0.28 0.46
4 -1 -1 0.28 0.37
4 -1 -1 0.32 0.22
4 -1 -1 0.49 0.3
-4 1 0 443.97 9.76
-4 1 0 426.74 9.92
-4 1 0 419.97 8.89
4 -1 0 401.05 11.01
-4 1 0 389.54 8.24
4 -1 0 401.74 9.05
4 -1 0 429.21 11.45
4 -1 0 443.14 7.59
-4 1 0 410 7.39
4 -1 0 420.5 11.9
-4 1 0 414 8.6
-4 1 -1 5.07 0.64
4 -1 1 3.89 1.04
-4 1 -1 4.59 0.85
4 -1 1 4.49 1.11
-4 1 -1 4.36 0.81
4 -1 1 4.42 1.01
-4 1 -1 4.17 0.68
-4 1 -1 4.19 0.86
4 -1 1 4.55 1.2
4 -1 1 3.67 0.78
4 -1 1 4.45 0.53
-4 1 -2 0.29 0.15
4 -1 2 0.46 0.26
4 -1 2 0.92 0.65
-4 1 -2 1.19 0.54
4 -1 2 0.01 0.57
4 -1 2 0.55 0.47
-4 1 -2 0.09 0.39
4 -1 2 -0.19 0.56
4 -1 3 204.26 7.54
4 -1 3 214.32 7.47
-4 1 -3 209.69 6
4 -1 3 201.59 7.3
-4 1 -3 217.29 7.32
4 -1 3 205.19 5.34
4 -1 3 216.45 8.51
-4 1 -3 204.4 3.77
4 -1 4 8.45 1.53
4 -1 4 6.69 1.28
-4 1 -4 9.62 1.16
4 -1 4 9.12 1.49
-4 1 -4 8.09 1.48
4 -1 4 8.68 1.06
4 -1 4 9.4 1.74
4 -1 5 4.76 1.21
4 -1 5 6.31 1.02
4 -1 5 5.21 1.15
-4 1 -5 5.49 0.94
4 -1 5 7.15 1.36
-4 1 -5 4.58 1.15
4 -1 5 5.29 1.45
-4 1 -6 15.99 1.6
4 -1 6 17.64 2.3
4 -1 6 14.32 1.8
-4 1 -6 16.03 2.29
4 -1 6 13.74 1.62
4 -1 6 15.7 2.4
4 -1 7 4.12 1.2
4 -1 7 5.11 1.11
-4 1 -7 5.44 1.04
-4 1 -7 6.36 1.56
4 -1 7 7.06 1.78
4 -1 8 -0.57 0.82
4 -1 8 -0.38 0.63
-4 1 -8 0.08 0.48
-4 1 -8 1.78 1.07
4 -1 8 0.01 1
4 -1 9 7.49 1.26
-4 1 -9 6.07 1.23
-4 1 -9 7.62 1.87
4 -1 9 5.37 1.41
4 -1 9 5.76 1.7
4 -1 10 2.88 1.25
-4 1 -10 2.92 1.01
-4 1 -10 1.1 1.02
4 -1 10 0.86 0.79
-4 1 -11 -0.16 0.56
4 -1 11 0.18 0.55
-4 1 -11 0.2 0.88
4 -1 11 -1.6 1.16
4 -1 12 -0.88 0.77
-4 1 -12 0.88 0.92
4 -1 12 -0.06 0.73
4 -1 13 0.56 0.67
-4 0 10 -1.05 0.91
4 0 -10 -1.61 1.01
-4 0 9 4.85 1.4
4 0 -9 5.94 1.69
4 0 -9 5.35 1.15
4 0 -8 19.24 2.64
4 0 -8 23.93 2.27
-4 0 8 24.11 2.67
-4 0 7 1.42 0.75
4 0 -7 2.92 1.17
4 0 -7 2.42 0.78
4 0 -7 3.18 0.84
-4 0 6 3.26 0.99
4 0 -6 3 0.89
4 0 -6 2.72 0.76
4 0 -6 3.31 1.15
-4 0 5 5.6 1.19
4 0 -5 7.46 1.3
4 0 -5 7.66 1.53
-4 0 5 7.96 1.27
4 0 -5 7.87 1.16
-4 0 4 44.92 2.88
4 0 -4 42.14 3.07
-4 0 4 43.63 3
4 0 -4 42.01 2.58
-4 0 4 37.95 2.23
4 0 -4 40.91 3.32
-4 0 4 42.39 2.87
-4 0 3 59.51 3.26
-4 0 3 64.18 3.57
4 0 -3 55.2 3.56
4 0 -3 61.03 3.07
-4 0 3 59.08 2.44
4 0 -3 54.47 3.79
-4 0 3 62.44 3.28
-4 0 2 23.33 2
4 0 -2 28.06 2.52
4 0 -2 23.84 1.91
-4 0 2 23.07 1.19
4 0 -2 25.68 2.51
-4 0 2 27.6 2.03
-4 0 2 26.64 2.23
-4 0 1 106.44 4.42
-4 0 1 116.99 2.89
4 0 -1 110.33 5.02
4 0 -1 113.01 5.18
-4 0 1 119.68 2.74
4 0 -1 104.02 4.15
-4 0 1 112.26 4.85
4 0 -1 111.98 5.19
-4 0 1 112.63 3.99
-4 0 0 0.98 0.56
4 0 0 0.52 0.54
-4 0 0 0.75 0.46
4 0 0 0.32 0.59
-4 0 0 0.04 0.16
4 0 0 0.75 0.5
-4 0 0 0.21 0.26
-4 0 0 0.24 0.32
-4 0 -1 5.19 0.68
-4 0 -1 6.38 1.03
4 0 1 5.19 1.14
-4 0 -1 5.47 0.87
4 0 1 5.89 1.24
4 0 1 3.9 1.03
-4 0 -1 5.33 0.72
-4 0 -1 5.4 0.9
4 0 1 5.89 1.35
4 0 2 4.47 1.08
-4 0 -2 5.02 0.79
4 0 2 6.87 0.62
4 0 2 6.59 0.55
-4 0 -2 8 1.19
4 0 2 6.79 1.46
4 0 2 6.76 1.23
-4 0 -2 7.11 0.65
4 0 3 12.44 1.79
-4 0 -3 13.6 1.28
4 0 3 12.73 1.72
4 0 3 12.42 1.07
4 0 3 12.74 0.99
-4 0 -3 11.65 1.59
4 0 3 11.49 1.95
-4 0 -3 11.95 0.61
4 0 4 114.16 5.54
4 0 4 115.42 5.16
-4 0 -4 108.66 3.85
-4 0 -4 113.11 5.35
4 0 4 101.74 3.89
4 0 4 107.92 3.71
4 0 4 115.52 6.14
4 0 5 0.84 0.61
4 0 5 1.52 0.67
-4 0 -5 2.04 0.55
-4 0 -5 2.07 0.92
4 0 5 1.58 0.93
4 0 6 38.34 2.88
4 0 6 37.75 3.32
-4 0 -6 40.98 2.46
-4 0 -6 41.3 3.57
4 0 6 42.05 3.88
4 0 7 44.01 3.71
4 0 7 43.67 3.05
-4 0 -7 44.72 2.75
-4 0 -7 45.74 3.93
4 0 7 41.13 3.96
4 0 8 91.43 5.55
4 0 8 101.89 4.71
-4 0 -8 85.7 4.21
-4 0 -8 82.53 5.68
4 0 8 87.35 5.97
4 0 9 5.13 1.38
-4 0 -9 5.21 1.12
-4 0 -9 7.87 1.88
4 0 9 4.75 1.56
4 0 10 1.5 0.8
-4 0 -10 0.92 0.65
-4 0 -10 0.77 0.82
4 0 10 1.11 0.85
-4 0 -11 2.02 0.9
4 0 11 0.94 0.82
-4 0 -11 1.61 1.02
4 0 11 3.77 1.5
4 0 12 1.16 0.65
-4 0 -12 3 1.48
4 0 12 2.68 1.22
4 0 13 -0.28 0.65
4 0 13 -0.44 0.9
-4 -1 10 0.95 0.7
4 1 -10 1.06 0.94
4 1 -10 0.11 0.45
4 1 -9 47.84 3.58
4 1 -9 51.57 4.59
-4 -1 9 57.13 4.39
4 1 -8 4.42 1.43
4 1 -8 3.83 0.99
-4 -1 8 2.64 1.01
4 1 -7 1.02 0.76
4 1 -7 0.01 0.45
-4 -1 7 0.33 0.58
4 1 -6 11.72 1.99
-4 -1 6 8.81 1.39
4 1 -6 9.57 1.41
-4 -1 6 10.56 1.64
4 1 -5 11.83 1.57
4 1 -5 6.85 1.47
-4 -1 5 7.73 1.27
4 1 -5 8.13 1.25
-4 -1 5 9.85 1.54
-4 -1 4 39.67 2.79
4 1 -4 45.18 3.08
-4 -1 4 40.54 3.06
-4 -1 4 35.78 2.21
4 1 -4 38.69 2.66
4 1 -4 46.09 3.59
-4 -1 4 44.59 3.02
-4 -1 3 35.7 2.59
-4 -1 3 34.75 2.74
4 1 -3 36.9 2.83
-4 -1 3 30.3 1.71
4 1 -3 29.35 2.25
4 1 -3 33.49 3.03
-4 -1 3 33.61 2.45
-4 -1 2 22.67 2.16
-4 -1 2 20.3 1.94
4 1 -2 18.57 2.02
4 1 -2 19.15 1.77
-4 -1 2 19.74 1.06
-4 -1 2 20.23 1.02
4 1 -2 18.62 2.22
-4 -1 2 22.49 1.89
4 1 -1 4.49 1.07
-4 -1 1 5.29 0.53
-4 -1 1 5.81 0.43
-4 -1 1 5.04 1
4 1 -1 5.77 0.97
-4 -1 1 5.41 1.06
-4 -1 1 5.97 0.93
4 1 0 434.06 11.22
-4 -1 0 432.01 8.9
-4 -1 0 438.57 7.92
4 1 0 414.31 10.04
-4 -1 0 439.85 11.28
-4 -1 0 437.05 9.22
-4 -1 0 451.19 10.67
4 1 1 0.82 0.71
4 1 1 0.95 0.61
-4 -1 -1 0.22 0.26
4 1 1 0.9 0.36
-4 -1 -1 0.72 0.28
4 1 1 -0.33 0.54
-4 -1 -1 0.87 0.43
-4 -1 -1 0.82 0.3
-4 -1 -2 8.07 0.91
4 1 2 8.76 1.39
4 1 2 7.59 0.96
4 1 2 8.23 1.56
-4 -1 -2 8.58 1.23
-4 -1 -2 7.9 0.76
4 1 2 9.43 1.47
4 1 3 302.8 9.38
4 1 3 301.02 8.86
-4 -1 -3 306 6.8
-4 -1 -3 304.66 8.66
4 1 3 305.89 7.69
4 1 3 296.41 6.15
4 1 3 307.96 10.37
-4 -1 -3 290.78 5.66
4 1 4 81.66 4.24
-4 -1 -4 78.39 2.93
-4 -1 -4 73.07 4.17
4 1 4 72.3 3.54
4 1 4 74.45 4.41
4 1 4 70.51 2.9
4 1 4 71.62 4.82
-4 -1 -4 70.93 1.56
-4 -1 -4 72.11 1.57
4 1 5 2.03 0.88
4 1 5 2.17 0.77
-4 -1 -5 0.61 0.35
4 1 5 1.09 0.64
4 1 5 1.91 0.95
-4 -1 -5 2.97 1.02
4 1 6 35.67 3.2
4 1 6 39.85 2.96
-4 -1 -6 36.27 2.19
-4 -1 -6 37.87 3.37
4 1 6 38.25 2.89
4 1 6 38.45 3.7
4 1 7 320.57 10.69
-4 -1 -7 337.86 8.38
-4 -1 -7 321.35 11.17
4 1 7 325.56 9.87
4 1 7 317.76 11.7
4 1 8 25.01 2.82
-4 -1 -8 22.35 2.02
-4 -1 -8 24.01 3.03
4 1 8 22.61 2.46
4 1 8 25 3.22
-4 -1 -9 10.27 1.46
4 1 9 9.08 1.68
-4 -1 -9 9.08 1.96
4 1 9 10.73 2.22
4 1 9 10.97 1.99
-4 -1 -10 8.81 1.45
4 1 10 7.01 1.56
-4 -1 -10 6.31 1.89
4 1 10 3.01 1.34
4 1 10 5.98 1.55
4 1 11 8.94 1.94
4 1 11 6.6 1.63
-4 -1 -11 9.1 2.2
4 1 11 4.24 1.49
4 1 12 -0.13 0.56
-4 -1 -12 1.16 1.12
4 1 12 2.03 1.24
4 1 13 4.37 1.59
4 1 13 4.33 1.72
4 2 -11 4.94 1.4
4 2 -10 0.32 0.75
4 2 -10 1.72 0.86
-4 -2 10 3.49 1.3
4 2 -9 22.78 3.13
4 2 -9 23.31 2.62
-4 -2 9 32.22 3.38
4 2 -8 1.83 1.12
4 2 -8 3.03 1.05
-4 -2 8 3.97 1.22
4 2 -7 -0.24 0.63
-4 -2 7 0.49 0.47
4 2 -7 0.38 0.49
-4 -2 7 0.6 0.71
4 2 -6 1.88 0.88
-4 -2 6 2.28 0.78
4 2 -6 2.57 0.86
-4 -2 6 1.9 0.94
-4 -2 5 4.7 1.03
4 2 -5 6.65 1.47
4 2 -5 3.85 0.9
-4 -2 5 4.43 1.1
-4 -2 4 23.12 2.21
-4 -2 4 19.19 2.19
4 2 -4 24.03 2.16
-4 -2 4 18.89 1.53
4 2 -4 24.47 2.72
-4 -2 4 24.26 2.28
-4 -2 3 31.76 2.54
-4 -2 3 29.75 2.67
-4 -2 3 26.82 1.73
4 2 -3 28.53 2.32
-4 -2 3 25.67 1.58
4 2 -3 28.14 2.81
-4 -2 3 25.48 2.25
-4 -2 2 49.11 3.16
-4 -2 2 49.96 3.42
-4 -2 2 42.94 1.25
-4 -2 2 42.63 1.31
-4 -2 2 43.63 1.86
4 2 -2 48.51 2.93
-4 -2 2 43.22 1.72
4 2 -2 40.53 3.3
-4 -2 1 10.53 1.59
4 2 -1 14.85 1.8
4 2 -1 11.15 0.71
-4 -2 1 12.66 0.95
-4 -2 1 11.64 0.6
-4 -2 1 11.42 0.56
4 2 -1 12.55 1.45
-4 -2 1 13.34 1.63
4 2 0 48.73 3.23
4 2 0 53.64 3.43
4 2 0 45.35 1.87
-4 -2 0 48.06 2.25
-4 -2 0 45.01 1.78
4 2 0 43.17 2.75
-4 -2 0 50.5 3.38
-4 -2 0 44.57 2.92
4 2 1 3.41 0.84
4 2 1 8.6 1.4
-4 -2 -1 6.18 0.77
4 2 1 7.13 0.83
-4 -2 -1 6.23 0.73
-4 -2 -1 6.91 1.31
4 2 1 5.85 1.02
-4 -2 -1 6.54 0.95
4 2 2 15.2 1.87
4 2 2 14.84 1.81
-4 -2 -2 13.95 1.07
4 2 2 14.33 1.29
-4 -2 -2 14.36 1.52
4 2 2 13.58 1.59
4 2 3 11.84 1.67
-4 -2 -3 11.32 0.93
4 2 3 12.76 1.72
4 2 3 10.71 1.24
4 2 3 10.98 0.84
4 2 3 8.86 1.73
-4 -2 -3 8.72 1.31
4 2 4 185.24 7.13
4 2 4 183 5.13
-4 -2 -4 192.53 4.68
4 2 4 186.98 6.01
-4 -2 -4 178.83 6.78
4 2 4 191.8 5
4 2 4 192.17 8.08
-4 -2 -4 181.52 4.12
4 2 5 44.77 3.44
-4 -2 -5 42.29 2.04
-4 -2 -5 36.92 3.11
4 2 5 42.75 2.84
4 2 5 42.63 2.46
4 2 5 37.59 3.59
-4 -2 -5 43.1 1.4
4 2 6 300.04 9.9
-4 -2 -6 318.3 7.3
-4 -2 -6 298.13 10.17
4 2 6 289.56 8.81
4 2 6 294.44 10.86
-4 -2 -6 306.13 5.12
-4 -2 -7 2.37 0.65
4 2 7 1.2 0.7
4 2 7 1.09 0.76
4 2 7 3.58 1.35
-4 -2 -7 3.22 1.13
4 2 8 76.9 4.99
-4 -2 -8 89.28 3.92
-4 -2 -8 84.05 5.64
4 2 8 80.1 4.7
4 2 8 85.69 5.86
4 2 9 -0.01 0.56
-4 -2 -9 -0.15 0.39
4 2 9 -0.14 0.46
4 2 9 0.32 0.84
-4 -2 -9 -0.76 0.84
4 2 10 1.68 0.94
4 2 10 3.43 1.08
-4 -2 -10 3.07 1.29
4 2 10 2.22 1.19
4 2 11 0.18 0.57
4 2 11 0.81 0.73
-4 -2 -11 -0.02 0.59
4 2 11 -0.1 0.74
4 2 12 4.24 1.47
4 2 12 3.97 1.37
-4 -2 -12 4.15 1.71
4 2 12 2.46 1.21
4 2 13 -0.31 0.82
4 3 -10 0.81 0.97
-4 -3 10 0.96 0.67
4 3 -10 0.06 0.6
4 3 -9 35.56 3.38
4 3 -9 37.64 4.06
-4 -3 9 36.67 3.32
-4 -3 9 39.2 3.82
-4 -3 8 2.48 0.77
4 3 -8 3.62 1.3
4 3 -8 2.69 0.94
-4 -3 8 2.47 1.11
-4 -3 7 4.44 1.1
4 3 -7 2.62 1.19
-4 -3 7 3.95 1.08
4 3 -7 3.35 1.03
-4 -3 7 3.75 1.21
-4 -3 6 8.99 1.37
-4 -3 6 8.63 1.51
4 3 -6 11.82 2.09
4 3 -6 7.8 1.43
-4 -3 6 9.65 1.7
-4 -3 5 0.78 0.47
-4 -3 5 -0.14 0.45
4 3 -5 -0.26 0.78
4 3 -5 0.05 0.46
-4 -3 5 -0.05 0.57
-4 -3 4 0.89 0.42
-4 -3 4 0.82 0.56
-4 -3 4 0.05 0.52
4 3 -4 1.3 0.88
4 3 -4 -0.13 0.58
-4 -3 3 8.4 1.53
-4 -3 3 8.91 1.44
-4 -3 3 7.82 0.74
4 3 -3 7.52 1.57
4 3 -3 7.62 1.29
-4 -3 3 8.89 0.99
-4 -3 3 7.99 1.05
-4 -3 2 46.57 3.45
-4 -3 2 43 1.85
4 3 -2 46.16 1.51
-4 -3 2 42.18 2.16
4 3 -2 45.02 3.01
-4 -3 2 44.07 2.01
-4 -3 2 51.2 3.37
-4 -3 1 114.86 5.49
-4 -3 1 115.99 3.39
4 3 -1 114.75 3.09
4 3 -1 117.77 4.92
-4 -3 1 105.21 2.94
-4 -3 1 120.07 5.2
-4 -3 0 1.65 0.81
4 3 0 0.38 0.4
4 3 0 1.18 0.36
4 3 0 1.52 0.66
-4 -3 0 0.96 0.23
4 3 1 12.39 1.64
-4 -3 -1 13.04 1
4 3 1 12.72 1.15
-4 -3 -1 12.25 1.1
-4 -3 -1 12.29 0.72
4 3 1 11.97 1.5
-4 -3 -1 15.15 1.99
4 3 2 82.39 4.4
-4 -3 -2 87.2 2.51
4 3 2 83.5 3.34
-4 -3 -2 80.81 2.43
4 3 2 85.52 4.11
-4 -3 -2 89.94 4.85
4 3 2 83 2.33
-4 -3 -3 83.17 2.34
4 3 3 79.8 4.41
4 3 3 76.59 3.46
-4 -3 -3 80.63 2.81
4 3 3 78.96 3.99
4 3 3 81.08 2.71
4 3 4 14.64 1.89
-4 -3 -4 10.66 0.83
4 3 4 9.7 1.26
-4 -3 -4 9.56 1.08
4 3 4 11.31 1.1
4 3 4 8.48 1.72
-4 -3 -4 9.27 0.9
4 3 5 8.14 1.54
-4 -3 -5 5.9 0.69
4 3 5 5.89 0.79
4 3 5 7.4 1.17
-4 -3 -5 3.7 0.82
4 3 5 6.21 1.53
-4 -3 -5 7.83 1.47
-4 -3 -5 6.78 0.72
4 3 6 10.97 1.79
-4 -3 -6 10.94 1.05
4 3 6 12.51 1.66
-4 -3 -6 11.43 1.51
4 3 6 11.49 2.03
-4 -3 -6 12.13 1.92
-4 -3 -6 10.09 0.85
4 3 7 265.45 9.47
-4 -3 -7 280.14 6.91
4 3 7 253.85 8.51
-4 -3 -7 263.99 9.98
4 3 7 279.44 10.64
4 3 8 4.38 1.33
4 3 8 5.12 1.28
4 3 8 5.9 1.63
-4 -3 -8 5.84 1.5
4 3 9 6.15 1.48
4 3 9 6.84 1.45
4 3 9 4.9 1.55
-4 -3 -9 5.05 1.55
4 3 10 7.7 1.64
4 3 10 6.18 1.56
4 3 10 8.61 2.01
-4 -3 -10 8.36 2.02
4 3 11 1.66 0.94
4 3 11 0.9 0.71
4 3 11 -0.42 0.74
-4 -3 -11 -0.14 0.75
4 3 12 0.75 0.69
4 3 12 2.91 1.22
4 3 12 0.76 0.93
-4 -3 -12 3.31 1.59
4 4 -10 -1.69 1.21
4 4 -9 43.78 3.93
-4 -4 9 48.92 4
4 4 -9 51.28 4.84
-4 -4 9 51.68 4.48
-4 -4 8 29.49 2.92
4 4 -8 45.96 4.42
-4 -4 8 45.47 3.99
-4 -4 7 -0.01 0.43
-4 -4 7 -0.3 0.42
4 4 -7 1.3 0.99
4 4 -7 0.82 0.95
-4 -4 7 -0.21 0.56
-4 -4 6 14.43 1.91
4 4 -6 17.01 2.53
4 4 -6 17.32 2.21
-4 -4 6 14.98 1.82
-4 -4 5 4.02 0.92
-4 -4 5 3.22 0.99
4 4 -5 5.3 1.43
4 4 -5 3.96 1.05
-4 -4 4 0 0.32
-4 -4 4 -0.33 0.58
4 4 -4 -0.16 0.67
4 4 -4 1.3 0.78
-4 -4 3 55.31 3.66
-4 -4 3 63.96 4.32
4 4 -3 56.69 2.01
4 4 -3 53.71 3.54
-4 -4 3 49.2 2.66
-4 -4 2 195.13 7.7
4 4 -2 187.74 4.4
-4 -4 2 167.95 4.96
4 4 -2 188.33 6.83
-4 -4 2 170.06 4.98
-4 -4 2 189.02 7.01
-4 -4 1 129.11 6.02
-4 -4 1 116.52 3.95
4 4 -1 127.77 3.69
4 4 -1 122.59 5.29
-4 -4 1 114.57 3.66
-4 -4 1 132.39 5.67
4 4 0 9.31 1.38
-4 -4 0 10.68 1.71
4 4 0 11.4 1.06
-4 -4 0 10.82 0.94
4 4 0 10.23 1.49
4 4 1 25.16 2.29
-4 -4 -1 24.72 1.18
4 4 1 24.98 1.71
4 4 1 22.79 2.16
-4 -4 -1 24.28 1.42
4 4 1 24.26 1.37
-4 -4 -1 25.15 2.57
4 4 2 3.33 0.52
4 4 2 2.72 0.86
-4 -4 -2 2.73 0.29
4 4 2 3.22 0.7
4 4 2 2.47 0.83
-4 -4 -2 2.66 0.99
-4 -4 -2 2.53 0.53
4 4 3 6.98 0.83
4 4 3 9.84 1.56
-4 -4 -3 7.76 0.44
-4 -4 -3 7.87 1.48
4 4 3 7.14 1.09
-4 -4 -3 8.43 0.97
4 4 3 7.96 1.29
4 4 4 58.73 3.83
-4 -4 -4 47.45 1.47
4 4 4 51.79 3.02
-4 -4 -4 46.73 2.59
4 4 4 44.17 2.41
4 4 5 1.52 0.79
4 4 5 3.52 0.86
-4 -4 -5 2.93 0.75
4 4 6 83 4.84
4 4 6 79.15 4.24
-4 -4 -6 85.28 4.21
4 4 6 76.94 5.25
4 4 7 12.87 1.96
4 4 7 12.87 1.8
-4 -4 -7 13.12 1.8
4 4 7 12.91 2.24
-4 -4 -7 15.19 2.3
4 4 8 166.05 7.52
4 4 8 154.6 6.74
-4 -4 -8 165.77 8.09
-4 -4 -8 166.26 7.04
4 4 8 164.43 8.17
4 4 9 4.42 1.36
4 4 9 2.85 1.05
-4 -4 -9 2.09 0.9
4 4 9 3.37 1.34
-4 -4 -9 0.49 0.64
4 4 10 16.33 2.34
4 4 10 14.98 2.41
4 4 10 14.97 2.55
-4 -4 -10 13.26 2.46
4 4 11 -1.98 1.07
4 4 11 -1.51 1.06
-4 -4 -11 0.4 0.85
4 4 12 13.09 2.31
4 4 12 13.62 2.65
-4 -4 -12 13.71 2.86
4 4 12 12.87 2.41
-4 -5 9 1.01 0.86
4 5 -9 2.55 1.26
4 5 -9 1.87 0.98
-4 -5 8 1.33 0.87
4 5 -8 0.23 0.72
4 5 -8 1.49 0.85
-4 -5 8 1.21 0.82
-4 -5 7 8.18 1.53
-4 -5 7 11.05 1.73
4 5 -7 5.72 1.64
4 5 -7 8.87 1.7
-4 -5 6 -0.28 0.62
-4 -5 6 -0.23 0.63
4 5 -6 -0.76 0.97
4 5 -6 0.32 0.63
-4 -5 5 4.05 0.96
-4 -5 5 3.41 0.96
4 5 -5 4.4 1.38
4 5 -5 3.12 1.11
-4 -5 4 10.57 1.42
-4 -5 4 6.96 1.37
4 5 -4 6.5 1.39
-4 -5 3 1.89 0.63
-4 -5 3 1.47 0.84
-4 -5 3 3.58 1.17
4 5 -3 1.66 0.87
-4 -5 2 7.33 1.04
-4 -5 2 8.55 1.69
-4 -5 2 8.07 1.45
4 5 -2 8.32 0.95
4 5 -2 6.94 1.38
-4 -5 1 10.72 1.8
-4 -5 1 9.6 1.61
-4 -5 1 7.92 0.79
4 5 -1 8.87 0.99
-4 -5 1 8.88 1.08
4 5 -1 10.76 1.66
4 5 0 3.12 0.82
-4 -5 0 5.42 0.53
4 5 0 6.22 0.87
4 5 0 7.08 1.28
-4 -5 0 6.82 1.44
-4 -5 0 5.94 0.85
4 5 1 21.2 2.09
-4 -5 -1 22.3 0.7
-4 -5 -1 23.45 0.78
4 5 1 24.25 1.8
4 5 1 22.84 2.27
-4 -5 -1 24.42 1.68
4 5 1 21.37 1.57
-4 -5 -1 23.53 2.56
4 5 2 46.08 3.26
4 5 2 49.37 2.72
4 5 2 50.16 3.33
-4 -5 -2 44.38 2.39
4 5 2 48.16 2.43
-4 -5 -2 46.86 3.66
4 5 3 3.62 0.97
4 5 3 4.73 0.93
4 5 3 2.84 0.79
-4 -5 -3 3.88 1.11
-4 -5 -3 4.17 0.81
4 5 4 1.79 0.8
-4 -5 -4 1.57 0.92
4 5 4 2.7 0.75
4 5 4 1.75 0.66
-4 -5 -4 2.12 0.63
4 5 5 89.86 4.93
4 5 5 83.71 4.23
-4 -5 -5 89.83 4.2
4 5 6 0.55 0.67
4 5 6 -0.34 0.51
-4 -5 -6 0.02 0.43
4 5 7 25.52 2.8
4 5 7 27.85 2.68
-4 -5 -7 28.63 2.67
4 5 8 20.47 2.6
4 5 8 25.79 2.68
-4 -5 -8 26.16 2.74
4 5 9 3.01 1.12
4 5 9 2.8 0.98
-4 -5 -9 4.07 1.19
4 5 9 3.3 1.36
-4 -5 -9 4.45 1.51
4 5 10 2.33 1.07
4 5 10 6.41 1.57
-4 -5 -10 5.76 1.5
4 5 10 5.05 1.47
-4 -5 -10 7.14 1.97
4 5 11 -0.39 0.63
4 5 11 0.89 0.8
-4 -5 -11 0.44 0.66
4 5 11 1.23 0.91
-4 -5 -11 -0.23 1.08
4 5 12 13.55 2.49
4 5 12 11.09 2.12
-4 -5 -12 13.3 2.87
-4 -6 8 -1.55 0.86
4 6 -8 0.95 0.9
-4 -6 7 -0.73 0.68
-4 -6 7 -0.03 0.46
4 6 -7 0.86 0.8
4 6 -7 0.29 0.79
-4 -6 6 4.09 1.13
-4 -6 6 2.44 0.83
4 6 -6 3.16 1.1
-4 -6 5 0.39 0.48
-4 -6 5 0.51 0.63
4 6 -5 0.2 0.54
-4 -6 4 -0.12 0.35
-4 -6 4 0.14 0.63
4 6 -4 -0.08 0.52
-4 -6 3 15.06 2.02
-4 -6 3 17.98 1.86
4 6 -3 14.08 2.01
-4 -6 2 96.73 5.73
4 6 -2 100.91 3.87
4 6 -2 102.46 5.32
-4 -6 2 90.63 4.15
-4 -6 2 104.68 5.4
-4 -6 1 163.2 7.45
4 6 -1 153.11 5.01
4 6 -1 153.17 6.53
-4 -6 1 153.53 5.36
-4 -6 1 154.11 6.67
-4 -6 0 46.8 3.82
4 6 0 45.12 2.89
4 6 0 44.17 2.57
4 6 0 46.72 3.42
-4 -6 0 39.69 2.5
4 6 1 2.72 0.8
4 6 1 2.81 0.68
-4 -6 -1 2.19 0.9
4 6 1 4.21 1.06
-4 -6 -1 3 0.7
-4 -6 -2 11.25 1.86
4 6 2 11.98 1.64
4 6 2 12.17 1.42
4 6 2 12.61 1.82
-4 -6 -2 10.16 1.25
4 6 3 23.84 2.4
4 6 3 25.13 2.16
4 6 3 25.46 2.46
-4 -6 -3 24.31 2.02
-4 -6 -3 25.47 2.74
4 6 4 -0.3 0.56
4 6 4 1.6 0.68
4 6 4 0.81 0.59
-4 -6 -4 0.89 0.74
-4 -6 -4 0.91 0.47
4 6 5 3.54 1.04
4 6 5 1.02 0.65
-4 -6 -5 2.12 0.92
-4 -6 -5 3.23 0.95
4 6 6 5.7 1.37
4 6 6 4.92 1.1
-4 -6 -6 8.77 1.46
4 6 7 5.41 1.44
4 6 7 5.09 1.2
-4 -6 -7 1.59 0.77
4 6 8 17.41 2.38
4 6 8 13.92 2.03
-4 -6 -8 18.99 2.41
4 6 9 6.37 1.5
4 6 9 9.11 1.78
-4 -6 -9 7.99 1.67
4 6 10 1.4 0.83
-4 -6 -10 2.18 1.05
4 6 10 2.27 1.01
-4 -6 -10 1.58 1.36
4 6 11 -0.73 0.97
4 6 11 0.8 0.71
-4 -6 -11 -0.32 0.67
-4 -6 -11 -2.35 1.29
-4 -6 -12 5.14 1.78
-4 -7 7 2.64 0.98
-4 -7 6 1.95 0.83
-4 -7 6 1.9 0.86
4 7 -6 2.12 1.1
-4 -7 5 1.19 0.69
-4 -7 5 1.99 0.83
4 7 -5 3.35 1.22
-4 -7 4 -0.06 0.39
-4 -7 4 0.95 0.64
4 7 -4 -0.02 0.74
-4 -7 3 0.17 0.44
-4 -7 3 2.46 0.95
4 7 -3 0.99 0.69
4 7 -2 33.89 2.37
4 7 -2 30.19 2.98
-4 -7 2 26.45 2.4
-4 -7 2 33.47 3.12
-4 -7 1 0.59 0.53
-4 -7 1 -0.62 0.78
4 7 -1 0.19 0.43
-4 -7 1 0.17 0.66
4 7 -1 -0.27 0.66
4 7 0 0.19 0.35
4 7 0 0.66 0.6
-4 -7 0 0.21 0.68
-4 -7 0 -1.21 0.57
-4 -7 -1 61.61 4.48
4 7 1 49.4 3.15
4 7 1 58.78 3.28
4 7 1 52.03 3.75
-4 -7 -1 47.87 3.04
4 7 2 4.95 1.09
4 7 2 3.98 0.91
-4 -7 -2 4.49 1.26
4 7 2 4.9 1.16
-4 -7 -2 5.2 1.03
4 7 3 1.99 0.81
-4 -7 -3 0.74 0.69
4 7 3 0.53 0.48
4 7 3 1.59 0.69
-4 -7 -3 0.74 0.57
-4 -7 -4 1.82 0.91
4 7 4 0.92 0.7
4 7 4 0.75 0.57
4 7 4 0.64 0.58
-4 -7 -4 1.4 0.63
4 7 5 64.86 4.29
4 7 5 64.3 3.96
4 7 5 65.43 4.13
-4 -7 -5 59.34 3.8
-4 -7 -5 73.23 4.94
4 7 6 6.78 1.45
4 7 6 7.98 1.48
-4 -7 -6 7.19 1.6
-4 -7 -6 6.38 1.34
4 7 7 83.5 5.2
4 7 7 91.09 5.12
-4 -7 -7 95.97 5.37
-4 -7 -7 92.45 5.73
4 7 8 3.83 1.3
4 7 8 3.57 1.09
-4 -7 -8 2.63 1.07
4 7 9 1.51 0.89
4 7 9 2.34 0.95
-4 -7 -9 2.93 1.04
4 7 10 -0.02 0.82
4 7 10 1.74 0.92
-4 -7 -10 1.49 0.98
4 7 11 0.24 0.72
4 7 11 1.24 0.86
-4 -7 -11 -0.14 0.73
-4 -7 -11 -0.46 1.22
-4 -7 -12 2.24 1.15
-4 -8 6 0.57 0.59
-4 -8 5 0.59 0.58
-4 -8 5 2.93 1.08
4 8 -5 2 0.94
-4 -8 4 7.43 1.5
-4 -8 4 8.37 1.64
4 8 -4 8.75 1.77
-4 -8 3 -0.75 0.56
-4 -8 3 0.32 0.79
4 8 -3 0.18 0.58
-4 -8 2 -0.31 0.62
-4 -8 2 0.26 0.7
4 8 -2 -0.04 0.48
-4 -8 1 2.4 0.85
-4 -8 1 1.61 0.84
4 8 -1 3.55 0.94
-4 -8 1 4.95 1.44
4 8 -1 0.7 0.63
-4 -8 0 48.98 4.21
4 8 0 49.76 3.21
4 8 0 48.68 3.84
-4 -8 0 44.66 3.21
4 8 1 14.31 1.72
-4 -8 -1 16.96 2.48
4 8 1 15.2 2.16
-4 -8 -1 14.54 1.82
-4 -8 -2 2.19 0.99
4 8 2 5.07 1.07
4 8 2 6.32 1.42
-4 -8 -2 5.41 1.14
4 8 3 7.07 1.36
4 8 3 6.58 1.25
4 8 3 5.55 1.26
-4 -8 -3 7.22 1.6
-4 -8 -3 7.87 1.35
-4 -8 -4 0.04 0.59
4 8 4 0.72 0.66
4 8 4 0.64 0.52
4 8 4 0.19 0.51
-4 -8 -4 1.35 0.76
-4 -8 -5 17.48 2.46
4 8 5 18.87 2.37
4 8 5 12.8 1.87
4 8 5 17.42 2.19
-4 -8 -5 19.15 2.29
4 8 6 2.74 1.03
4 8 6 3.62 1.07
-4 -8 -6 1.88 0.77
-4 -8 -6 1.6 0.87
4 8 7 16.35 2.28
4 8 7 14.34 2.1
-4 -8 -7 13.1 2.2
-4 -8 -7 12.68 2.04
4 8 8 18.6 2.56
4 8 8 18.45 2.46
-4 -8 -8 26.02 3.1
-4 -8 -8 19.6 2.64
4 8 9 -0.08 0.71
4 8 9 -0.14 0.57
-4 -8 -9 -0.36 0.76
-4 -8 -9 0.14 0.66
4 8 10 0.74 0.69
4 8 10 3.11 1.28
-4 -8 -10 3.05 1.31
4 8 11 10.39 2.21
-4 -8 -11 11.12 2.37
-4 -8 -12 2.95 1.43
-4 -9 4 0.89 0.73
4 9 -4 3.18 1.13
-4 -9 3 5.5 1.32
-4 -9 3 6.04 1.5
4 9 -3 6.16 1.53
-4 -9 2 15.05 2.13
-4 -9 2 16.69 2.38
4 9 -2 11.96 2.04
-4 -9 1 6.2 1.55
4 9 -1 4.48 1.06
4 9 -1 5.54 1.41
-4 -9 1 3.7 1.09
4 9 0 3.77 1
4 9 0 4.56 1.26
-4 -9 0 2.56 1.02
-4 -9 0 2.91 0.91
-4 -9 -1 40.86 3.97
4 9 1 43.56 3.25
4 9 1 42.09 3.68
-4 -9 -1 39.52 3.25
4 9 2 0.65 0.59
4 9 2 0.76 0.63
-4 -9 -2 0.7 0.95
-4 -9 -2 -0.08 0.5
-4 -9 -3 -0.52 0.69
4 9 3 0.34 0.53
4 9 3 -0.54 0.72
-4 -9 -3 0.47 0.56
4 9 4 6.1 1.36
4 9 4 6.08 1.36
-4 -9 -4 5.69 1.52
-4 -9 -4 4.47 1.22
4 9 5 13.19 2.01
-4 -9 -5 12.25 2.13
4 9 5 15.93 2.16
4 9 5 12.39 1.91
-4 -9 -5 10.89 1.83
4 9 6 0.25 0.64
-4 -9 -6 1.56 0.77
4 9 6 1.44 0.82
-4 -9 -6 0.67 0.64
-4 -9 -7 15.07 2.4
4 9 7 11.84 2.03
4 9 7 15.77 2.28
-4 -9 -7 14.49 2.23
4 9 8 0.82 0.74
4 9 8 -0.11 0.56
-4 -9 -8 -0.06 0.55
-4 -9 -8 0.04 0.63
4 9 9 6.52 1.64
4 9 9 8.23 1.81
-4 -9 -9 9.52 2.03
4 9 10 7.77 1.84
-4 -9 -10 8.93 2.08
-4 -9 -11 0.2 0.68
-4 -10 2 21.58 2.76
4 10 -2 21.76 2.88
-4 -10 1 1.57 0.82
4 10 -1 1.77 0.9
-4 -10 1 2.38 0.87
4 10 0 26.08 2.65
4 10 0 32.97 3.42
-4 -10 0 22.3 2.64
-4 -10 0 28.51 3.21
-4 -10 -1 8.82 1.95
4 10 1 9.35 1.64
4 10 1 11.47 2.03
-4 -10 -1 9.7 1.75
4 10 2 1.19 0.71
4 10 2 3.86 1.29
-4 -10 -2 0.64 0.68
-4 -10 -2 4.6 1.24
4 10 3 1.59 0.77
4 10 3 0.83 0.65
-4 -10 -3 2.08 0.92
-4 -10 -3 1.32 0.9
-4 -10 -4 -0.88 0.77
4 10 4 0.27 0.52
4 10 4 -0.05 0.52
-4 -10 -4 -1.89 0.9
4 10 5 6.77 1.51
4 10 5 5.27 1.34
-4 -10 -5 6.4 1.53
-4 -10 -5 7.37 1.71
4 10 6 -0.15 0.64
-4 -10 -6 -0.2 0.54
-4 -10 -6 1.36 0.95
4 10 7 -0.26 0.65
-4 -10 -7 0.37 0.68
4 10 8 15.96 2.49
4 10 8 19.77 2.72
-4 -10 -8 21.23 2.98
4 10 9 -0.31 0.63
-4 -10 -9 1.24 1.05
-4 -10 -10 1.97 1.09
-4 -11 0 2.4 1.19
4 11 0 2.35 1.02
4 11 1 2.91 1.01
4 11 1 3.04 1.17
4 11 2 2.28 0.91
4 11 2 1.95 0.97
-4 -11 -2 1.07 0.87
-4 -11 -3 1.83 0.99
4 11 3 0.82 0.51
4 11 3 0.38 0.54
-4 -11 -3 -1.66 0.87
-4 -11 -4 -0.33 0.62
4 11 4 0.29 0.6
4 11 4 0.8 0.68
-4 -11 -4 -0.14 0.43
4 11 5 0.6 0.57
4 11 5 0.51 0.61
-4 -11 -5 -0.03 0.4
4 11 6 -0.41 0.58
-4 -11 -6 -0.14 0.56
-4 -11 -7 6.09 1.63
-4 -11 -8 -1.36 0.98
-4 -11 -9 6.82 1.86
4 12 2 9.14 1.77
4 12 2 4.75 1.45
4 12 3 1.5 0.86
4 12 4 -1.87 0.93
-5 10 4 0.54 0.59
5 -10 -4 0.47 0.54
-5 10 3 3.11 1.01
5 -10 -3 1.99 1.13
-5 10 2 -0.27 0.57
5 -10 -2 0.58 0.81
5 -10 -1 4.03 1.35
5 -10 0 1.16 0.85
5 -10 1 1.95 1.03
5 -9 -7 6.06 1.7
5 -9 -6 2.89 1.18
-5 9 5 0.44 0.61
5 -9 -5 -0.68 0.77
-5 9 4 -0.05 0.62
5 -9 -4 0.27 0.86
-5 9 4 -1.09 0.88
5 -9 -4 1.31 1
-5 9 4 0.2 0.43
5 -9 -4 0.91 0.84
-5 9 3 -0.1 0.79
5 -9 -3 -0.6 0.99
-5 9 3 0.74 0.86
5 -9 -3 0.92 1.04
-5 9 3 -0.65 0.62
5 -9 -3 -0.03 0.5
5 -9 -2 4.07 1.57
-5 9 2 3.57 1.15
5 -9 -2 3.61 1.45
5 -9 -2 2.41 1.11
5 -9 -1 1.05 0.93
5 -9 -1 -0.12 0.69
5 -9 -1 1.17 0.79
-5 9 0 8.53 1.7
5 -9 0 5.5 1.82
5 -9 0 8 2.06
5 -9 0 9.13 1.92
-5 9 -1 13.08 2.12
5 -9 1 11.1 2.37
5 -9 1 15.74 2.91
5 -9 1 11.56 2.23
5 -9 2 3.61 1.49
-5 9 -2 2.14 1.09
5 -9 2 1.41 0.97
5 -9 2 3.47 1.41
5 -9 2 0.36 0.68
5 -9 3 0.6 0.81
5 -9 3 0.22 0.93
-5 9 -3 0.86 0.8
5 -9 3 2.07 1.17
5 -9 4 1.47 1.02
5 -9 4 -1.82 1.21
5 -8 -8 -0.87 0.95
5 -8 -8 -0.32 0.57
5 -8 -7 5.66 1.82
5 -8 -7 3.67 1.52
5 -8 -7 5.58 1.66
-5 8 6 2.09 1.04
5 -8 -6 2.24 1.46
-5 8 6 1.39 0.89
5 -8 -6 1.34 0.96
5 -8 -6 2.71 1.18
5 -8 -5 14.01 2.75
-5 8 5 12.18 2.05
-5 8 5 8.13 1.91
5 -8 -5 7.97 2
5 -8 -5 10.33 2.09
-5 8 4 1.05 0.75
5 -8 -4 0.17 1.01
-5 8 4 0.74 0.72
5 -8 -4 -1.61 1.01
-5 8 4 -0.94 0.6
5 -8 -4 -0.34 0.6
-5 8 3 0.58 0.49
-5 8 3 -0.02 0.77
5 -8 -3 1.67 1.09
-5 8 3 1 0.62
5 -8 -3 1.32 1.14
5 -8 -3 2.19 0.99
-5 8 2 10.19 1.72
-5 8 2 12.95 2.16
5 -8 -2 14.39 2.68
5 -8 -2 17.91 2.85
5 -8 -2 10.94 2
5 -8 -1 0.58 0.89
-5 8 1 2.47 1
5 -8 -1 2.13 1.04
5 -8 -1 0.98 0.74
5 -8 0 1.05 1.07
-5 8 0 1.7 0.91
5 -8 0 2.18 1.09
5 -8 0 1.42 0.96
5 -8 0 -0.14 0.56
5 -8 1 1.54 0.97
-5 8 -1 1.3 0.89
-5 8 -1 1.93 0.91
5 -8 1 1.82 1.15
5 -8 1 1.21 0.92
5 -8 1 3 1.17
5 -8 2 -1.23 1.02
-5 8 -2 -0.07 0.6
5 -8 2 -1.57 0.95
-5 8 -2 -0.33 0.68
5 -8 2 0.96 0.94
5 -8 2 0.14 0.61
5 -8 3 -0.27 0.62
5 -8 3 -0.52 1.02
-5 8 -3 0.81 0.71
5 -8 3 0.18 0.73
-5 8 -3 0.83 0.69
5 -8 3 -0.19 0.94
5 -8 4 1.54 0.97
5 -8 4 3.33 1.38
-5 8 -4 2.69 0.96
5 -8 4 2.46 1.33
-5 8 -4 1.95 1.03
5 -8 4 2.03 1.29
5 -8 5 1.06 0.74
5 -8 5 2.95 1.42
5 -8 5 1.43 0.97
-5 8 -5 2.18 1.14
5 -8 5 5.22 1.9
5 -8 6 8.87 1.97
5 -8 6 9.44 2.18
5 -8 6 7.95 1.97
5 -7 -9 0.82 0.84
5 -7 -8 0.4 0.82
5 -7 -8 -0.58 0.72
5 -7 -8 -1.06 0.89
5 -7 -8 0.74 0.86
-5 7 7 1.79 0.82
5 -7 -7 0.86 0.76
5 -7 -7 3.64 1.41
5 -7 -7 2.35 1.18
5 -7 -7 2.59 1.17
-5 7 6 1.53 0.84
5 -7 -6 0.38 0.76
5 -7 -6 1.02 0.87
-5 7 6 1.5 0.88
5 -7 -6 -0.09 0.59
5 -7 -6 0.79 0.69
-5 7 5 -0.67 0.65
5 -7 -5 -0.64 0.78
-5 7 5 0.51 0.66
5 -7 -5 -0.03 0.51
5 -7 -5 1.45 0.98
5 -7 -5 1.5 0.96
-5 7 4 0.27 0.57
5 -7 -4 0.14 0.78
-5 7 4 -0.9 0.78
5 -7 -4 -0.79 0.63
5 -7 -4 -1.66 0.97
-5 7 4 -0.43 0.44
5 -7 -4 -0.12 0.53
-5 7 3 12.35 1.85
-5 7 3 13.72 2.2
5 -7 -3 14.92 2.52
-5 7 3 11.32 1.63
5 -7 -3 14.1 2.57
5 -7 -3 12.04 1.97
-5 7 2 7.67 1.43
5 -7 -2 6.24 1.78
-5 7 2 10.17 1.85
5 -7 -2 8.11 1.89
5 -7 -2 7.45 1.58
-5 7 1 12.99 1.78
-5 7 1 13.75 2.11
5 -7 -1 14.75 2.61
5 -7 -1 14.68 2.48
5 -7 -1 19.61 2.7
5 -7 -1 11.23 1.88
5 -7 0 10.57 2.24
-5 7 0 11.91 1.94
-5 7 0 10.65 1.78
5 -7 0 13.01 2.33
5 -7 0 9.57 1.99
5 -7 0 8.78 1.7
-5 7 -1 11.33 1.85
5 -7 1 11.41 2.25
5 -7 1 11.33 2.24
-5 7 -1 10.35 1.83
5 -7 1 12.37 2.33
5 -7 1 11.46 1.89
5 -7 2 0.64 0.72
5 -7 2 0.6 0.74
-5 7 -2 0.63 0.55
5 -7 2 0.19 0.85
-5 7 -2 0.95 0.64
5 -7 3 0.01 0.49
5 -7 3 -0.29 0.97
-5 7 -3 -0.44 0.64
5 -7 3 1.16 0.91
-5 7 -3 -0.06 0.66
5 -7 3 1.14 0.98
5 -7 4 0.22 0.71
5 -7 4 1.23 0.89
-5 7 -4 -0.16 0.44
5 -7 4 -0.56 0.6
-5 7 -4 1.9 1.04
5 -7 4 -0.18 0.75
5 -7 5 3 1.08
5 -7 5 3.13 1.27
-5 7 -5 1.06 0.67
5 -7 5 1.78 1.06
-5 7 -5 0.88 0.73
5 -7 5 0.63 0.96
5 -7 6 0.54 0.71
5 -7 6 0.48 0.59
-5 7 -6 1.45 0.91
5 -7 6 0.78 0.85
-5 7 -6 0.12 0.86
5 -7 6 -0.38 0.79
5 -7 7 1.91 1.07
5 -7 7 0.88 0.71
5 -6 -9 6.27 1.79
-5 6 8 1.55 0.96
5 -6 -8 0.79 0.65
5 -6 -8 -0.49 0.74
5 -6 -8 0.96 0.88
5 -6 -8 -0.36 0.68
-5 6 7 10.04 1.79
5 -6 -7 11.51 2.23
5 -6 -7 10.11 2.02
5 -6 -7 11.39 2.12
5 -6 -7 15.22 2.43
-5 6 6 6.15 1.45
5 -6 -6 3.78 1.42
5 -6 -6 6.12 1.56
5 -6 -6 5.82 1.5
5 -6 -6 4.72 1.35
-5 6 5 11.2 1.83
5 -6 -5 7.73 1.94
5 -6 -5 8.18 1.71
5 -6 -5 8.7 1.91
5 -6 -5 8.46 1.69
-5 6 4 2.38 0.91
5 -6 -4 1.48 0.96
-5 6 4 2.23 0.93
5 -6 -4 1.31 0.87
5 -6 -4 3.51 1.26
-5 6 4 2.24 0.68
5 -6 -4 3.37 1.04
-5 6 3 0.17 0.57
5 -6 -3 0.31 0.84
-5 6 3 1.37 1.22
5 -6 -3 -0.3 0.84
5 -6 -3 -0.14 0.44
-5 6 3 -0.31 0.4
5 -6 -3 0.47 0.55
5 -6 -2 15.07 2.58
-5 6 2 17.89 2.34
5 -6 -2 14.74 2.39
5 -6 -2 15.98 1.98
5 -6 -2 17.77 2.19
5 -6 -2 14.86 2.24
-5 6 2 16.68 1.97
5 -6 -1 20.32 2.93
-5 6 1 20.67 2.48
5 -6 -1 25.01 3.1
5 -6 -1 22.51 2.41
5 -6 -1 22.3 2.86
-5 6 1 19.64 2.04
-5 6 0 9.53 1.39
-5 6 0 12.15 1.9
-5 6 0 11.29 1.71
5 -6 0 12.03 2.17
5 -6 0 8.75 1.93
5 -6 0 12.46 2.23
5 -6 0 9.5 1.59
5 -6 1 0.95 0.91
-5 6 -1 1.03 0.72
5 -6 1 1.44 0.93
-5 6 -1 0.72 0.69
5 -6 1 -0.36 0.72
5 -6 1 1.35 0.73
5 -6 2 5.94 1.36
5 -6 2 5.01 1.49
-5 6 -2 9.37 1.67
5 -6 2 5.24 1.49
-5 6 -2 4.89 1.34
5 -6 2 8.29 1.92
5 -6 3 -0.19 0.57
5 -6 3 0.24 0.66
-5 6 -3 -0.34 0.55
5 -6 3 -0.37 0.61
-5 6 -3 0.09 0.73
5 -6 3 0.2 0.67
5 -6 4 4.83 1.25
5 -6 4 5.26 1.54
-5 6 -4 8.14 1.58
5 -6 4 7.05 1.74
-5 6 -4 6.62 1.61
5 -6 4 5.4 1.68
5 -6 5 2.34 1.01
5 -6 5 2.89 1.12
-5 6 -5 4.9 1.26
5 -6 5 0.53 0.84
-5 6 -5 1.89 1.02
5 -6 5 1.24 1.08
5 -6 6 0.71 0.76
5 -6 6 0.98 0.79
-5 6 -6 3.49 1.1
5 -6 6 1.94 0.96
-5 6 -6 2.1 1.06
5 -6 6 1.11 1.08
5 -6 7 2.47 1.13
5 -6 7 0.52 0.72
-5 6 -7 1.78 0.95
5 -6 7 2.16 1.06
-5 6 -7 0.76 0.91
5 -6 7 2.52 1.48
5 -6 8 5.8 1.64
5 -5 -9 1.52 1.07
-5 5 8 -0.36 0.65
5 -5 -8 -1.73 1.01
5 -5 -8 0.82 0.77
5 -5 -8 0.5 0.63
-5 5 7 -0.18 0.55
5 -5 -7 -0.3 0.7
5 -5 -7 -0.06 0.89
5 -5 -7 -0.03 0.65
5 -5 -7 -0.16 0.54
-5 5 6 1.33 0.81
5 -5 -6 1.97 0.97
5 -5 -6 0.2 0.63
5 -5 -6 1.49 0.91
5 -5 -6 0.74 0.74
-5 5 5 1.31 0.65
5 -5 -5 1.05 0.91
5 -5 -5 0.98 0.64
5 -5 -5 0.44 0.67
5 -5 -5 1.21 0.72
5 -5 -4 17.53 2.67
5 -5 -4 20.04 2.51
5 -5 -4 17.88 2.54
-5 5 4 18.38 1.68
5 -5 -4 16.72 2.06
-5 5 4 21.33 2.29
5 -5 -3 103.87 6.36
-5 5 3 105.5 5.74
5 -5 -3 105.41 6.18
-5 5 3 103.08 4.28
5 -5 -3 104 5.11
5 -5 -3 96.65 5.34
-5 5 3 110.95 5.09
5 -5 -2 95.99 6.08
-5 5 2 101.49 5.48
5 -5 -2 91.84 5.75
5 -5 -2 88.59 4.6
-5 5 2 89.68 3.97
5 -5 -2 85.38 5.25
5 -5 -2 81.89 4.72
-5 5 2 90 4.41
5 -5 -1 46.3 4.21
-5 5 1 48.76 3.66
-5 5 1 47.25 3.1
5 -5 -1 50.92 4.22
5 -5 -1 50.33 3.36
5 -5 -1 44.95 3.96
-5 5 1 46.4 2.98
-5 5 0 27.74 2.49
5 -5 0 23.11 2.97
-5 5 0 28.71 2.76
5 -5 0 23.61 2.89
5 -5 0 25.69 2.38
5 -5 0 32.13 3.51
-5 5 0 24.31 2.06
-5 5 -1 3.08 0.74
5 -5 1 2.25 1.05
-5 5 -1 4.23 1.15
5 -5 1 1.44 0.85
-5 5 -1 5.01 1.19
5 -5 1 3.25 1.18
5 -5 1 2.55 0.88
5 -5 2 5.08 1.12
5 -5 2 4.31 1.52
-5 5 -2 5.25 1.21
5 -5 2 7.3 1.73
-5 5 -2 6.38 1.33
5 -5 2 3.72 1.21
5 -5 3 10.61 1.62
5 -5 3 10.33 1.97
-5 5 -3 12.18 1.73
5 -5 3 12.3 2.19
-5 5 -3 12.31 2.01
5 -5 3 10.21 2.16
5 -5 4 2.09 0.87
5 -5 4 2.31 1.12
-5 5 -4 1.64 0.66
5 -5 4 2.32 0.92
-5 5 -4 2.76 1.07
5 -5 4 2.16 1.12
5 -5 5 0.32 0.48
5 -5 5 0.06 0.67
-5 5 -5 0.7 0.61
5 -5 5 -1.19 0.84
-5 5 -5 1.24 0.88
5 -5 5 -0.51 1.27
5 -5 6 5.99 1.42
5 -5 6 4.22 1.27
5 -5 6 6.29 1.61
-5 5 -6 5.8 1.35
5 -5 6 4.3 1.44
-5 5 -6 4.3 1.45
5 -5 6 4.59 1.67
5 -5 7 5.53 1.42
5 -5 7 4.51 1.42
5 -5 7 6.29 1.59
-5 5 -7 3.29 1.02
5 -5 7 2.7 1.04
-5 5 -7 4.56 1.42
5 -5 7 5.34 1.84
5 -5 8 -0.03 0.89
5 -5 8 -0.03 0.51
-5 5 -8 -0.47 0.52
5 -5 8 -0.46 0.76
5 -5 9 4.33 1.37
-5 4 9 -0.37 0.59
5 -4 -9 -3.7 1.49
-5 4 8 4.81 1.24
5 -4 -8 6.87 1.83
5 -4 -8 5.17 1.44
5 -4 -8 5.91 1.43
-5 4 7 3.03 1.04
5 -4 -7 3.03 1.18
5 -4 -7 2.55 1.13
5 -4 -7 3.96 1.32
5 -4 -7 3.81 1.11
-5 4 6 0.36 0.49
5 -4 -6 0.95 0.77
5 -4 -6 0.87 0.79
5 -4 -6 0.5 0.65
5 -4 -6 0.47 0.55
-5 4 5 13.54 1.83
5 -4 -5 9.37 1.86
5 -4 -5 9.7 1.86
5 -4 -5 9.04 1.77
5 -4 -5 7.97 1.4
5 -4 -4 29.83 3.31
5 -4 -4 25.26 2.92
-5 4 4 31.81 1.95
5 -4 -4 30.56 2.63
5 -4 -4 29.83 3.05
-5 4 4 29.82 2.6
5 -4 -3 68.79 4.99
5 -4 -3 60.29 4.51
-5 4 3 64.24 2.97
5 -4 -3 64.06 3.64
5 -4 -3 64.61 4.38
-5 4 3 64.72 3.26
-5 4 3 70.83 3.84
5 -4 -2 108.05 6.32
-5 4 2 116.06 5.73
5 -4 -2 120.54 6.42
5 -4 -2 122.26 4.97
-5 4 2 119.81 4.85
5 -4 -2 111.17 5.65
-5 4 2 115.97 4.84
-5 4 1 98.16 4.21
5 -4 -1 106.99 6.21
-5 4 1 98.09 5.14
5 -4 -1 106.31 5.99
5 -4 -1 95.78 4.31
5 -4 -1 103.71 5.97
-5 4 1 97.49 4.23
-5 4 0 55.35 2.61
5 -4 0 59.09 4.56
-5 4 0 57.46 3.37
-5 4 0 60.74 3.91
5 -4 0 49.34 4.1
5 -4 0 54.79 3.15
5 -4 0 60.53 4.72
-5 4 0 56.71 2.98
-5 4 -1 -0.04 0.3
5 -4 1 0.24 0.55
-5 4 -1 -0.56 0.71
-5 4 -1 0.06 0.23
5 -4 1 0.22 0.67
-5 4 -1 0.02 0.46
5 -4 1 -0.26 0.77
5 -4 1 0.21 0.51
5 -4 2 11.94 1.52
-5 4 -2 12.31 1.08
5 -4 2 11.97 2.13
-5 4 -2 13.03 1.74
5 -4 2 13.36 2.13
-5 4 -2 14.21 1.96
5 -4 2 11 2.14
5 -4 3 10.27 1.47
5 -4 3 10.5 1.95
-5 4 -3 9.46 1.52
5 -4 3 8.26 1.72
-5 4 -3 10.05 1.75
5 -4 3 10.7 2.17
5 -4 4 7.81 1.33
5 -4 4 6.39 1.58
5 -4 4 5.47 1.52
-5 4 -4 6.54 1.26
5 -4 4 8.52 1.72
-5 4 -4 9.85 1.82
5 -4 4 7.17 1.93
5 -4 5 58.09 4.54
5 -4 5 58.95 4.57
-5 4 -5 64.16 3.9
-5 4 -5 60.55 4.71
5 -4 5 56.48 4.46
5 -4 5 63.66 4.03
5 -4 5 54.88 5.09
5 -4 6 1.5 0.81
5 -4 6 0.52 0.54
5 -4 6 1.84 0.99
-5 4 -6 1.37 0.71
5 -4 6 0.42 0.53
-5 4 -6 1.85 0.98
5 -4 6 0.52 1.07
5 -4 7 -0.08 0.46
5 -4 7 1.01 0.73
5 -4 7 0.77 0.77
-5 4 -7 0.65 0.68
5 -4 7 -0.56 0.66
-5 4 -7 0.37 0.76
5 -4 7 -0.52 1.19
5 -4 8 0.35 0.51
5 -4 8 0.15 0.64
5 -4 8 -1.7 0.87
-5 4 -8 -0.69 0.57
5 -4 8 1.82 0.92
-5 4 -8 -0.95 0.91
5 -4 8 -0.21 1.32
5 -4 9 0.17 0.58
5 -4 9 2.15 1.04
-5 4 -9 0.49 0.62
-5 4 -9 2.15 1.38
5 -4 9 1.93 1.3
5 -4 10 0.48 0.61
5 -4 10 0.88 0.8
-5 3 9 8.41 1.76
5 -3 -9 6.28 1.78
-5 3 8 0.06 0.48
5 -3 -8 0.59 0.82
-5 3 7 2.25 0.88
5 -3 -7 1.67 1
5 -3 -7 3.57 1.23
5 -3 -7 2.13 0.95
5 -3 -7 2.1 0.9
-5 3 6 4.22 1.13
5 -3 -6 1.88 0.95
5 -3 -6 3.34 1.2
5 -3 -6 1.33 0.7
5 -3 -6 2.54 0.87
-5 3 5 6.83 1.11
-5 3 5 7.2 1.37
5 -3 -5 12.63 2.12
5 -3 -5 8.26 1.75
5 -3 -5 10.13 1.76
5 -3 -5 9.9 1.51
5 -3 -4 40.3 3.7
-5 3 4 43.07 2.77
5 -3 -4 45.04 3.71
5 -3 -4 41.33 2.84
5 -3 -4 42.82 3.72
-5 3 4 44.82 3.12
5 -3 -3 29.57 3.18
5 -3 -3 26.44 2.9
-5 3 3 27.67 1.64
5 -3 -3 28.17 2.18
5 -3 -3 21.86 2.61
-5 3 3 28.42 2.35
-5 3 3 26.32 2.18
-5 3 2 23.94 1.94
5 -3 -2 22.18 2.76
-5 3 2 24.14 2.47
5 -3 -2 27.16 2.89
5 -3 -2 22.3 1.84
-5 3 2 24.41 2.17
5 -3 -2 24.78 2.67
-5 3 2 25.19 2.09
-5 3 1 204.4 6.02
5 -3 -1 212.65 8.7
-5 3 1 201.66 5.85
-5 3 1 188.18 7.18
5 -3 -1 190.14 8.07
5 -3 -1 190.12 5.78
5 -3 -1 199.76 8.45
-5 3 1 204.43 6.14
-5 3 0 0.62 0.42
5 -3 0 0.87 0.85
-5 3 0 -0.19 0.66
-5 3 0 0.96 0.49
5 -3 0 0.89 0.66
-5 3 0 1.99 0.66
5 -3 0 1.77 0.93
5 -3 0 0.66 0.36
-5 3 -1 39.23 2.27
5 -3 1 37.42 3.54
-5 3 -1 33.34 2.6
-5 3 -1 39.54 2.95
5 -3 1 33.29 3.25
5 -3 1 35.21 2.25
5 -3 1 32.02 3.48
-5 3 -1 35.58 2.07
-5 3 -2 25.93 1.81
5 -3 2 33.27 3.3
-5 3 -2 27.66 2.43
-5 3 -2 24.51 2.4
5 -3 2 21.75 2.62
5 -3 2 26.12 1.99
5 -3 2 23.34 3.02
-5 3 -2 24.83 1.57
-5 3 -3 88.57 3.44
5 -3 3 87.35 5.4
5 -3 3 81.37 5.25
-5 3 -3 86.94 4.39
-5 3 -3 86.2 4.92
5 -3 3 84.12 5.24
5 -3 3 91.48 4.04
5 -3 3 82.79 5.86
5 -3 4 1.73 0.6
5 -3 4 1.52 0.74
5 -3 4 1.41 0.81
-5 3 -4 0.61 0.32
-5 3 -4 1.84 0.76
5 -3 4 1.24 0.84
-5 3 -4 1.58 0.99
5 -3 4 1.12 1.09
5 -3 5 30.21 3.26
5 -3 5 28.53 3.09
-5 3 -5 31.49 2.59
-5 3 -5 31.66 3.34
5 -3 5 27.5 3.01
5 -3 5 29.92 2.51
5 -3 5 31.87 3.83
5 -3 6 2.79 0.89
5 -3 6 1.44 0.74
5 -3 6 3.31 1.13
-5 3 -6 2.37 0.8
5 -3 6 1.8 0.82
-5 3 -6 3.09 1.31
5 -3 6 3.81 1.43
5 -3 7 8.38 1.55
5 -3 7 7.56 1.73
5 -3 7 6.18 1.4
-5 3 -7 9.9 1.57
5 -3 7 6.6 1.53
-5 3 -7 8.72 2.02
5 -3 7 7.03 1.97
5 -3 8 -0.2 0.54
5 -3 8 0.6 0.69
5 -3 8 0.67 0.69
-5 3 -8 0.27 0.54
-5 3 -8 0.17 0.57
5 -3 8 1.08 1.04
5 -3 9 -1.51 0.89
5 -3 9 0.46 0.91
-5 3 -9 0.93 0.72
-5 3 -9 -0.05 0.66
5 -3 9 -0.88 1.04
5 -3 10 0.23 0.53
5 -3 10 -1.4 0.98
-5 3 -10 2.13 1.01
-5 3 -10 0.18 0.74
5 -3 10 0.69 0.93
5 -3 11 0.15 0.63
5 -3 11 -0.36 0.68
-5 2 9 0.7 0.85
5 -2 -9 1.46 1.03
-5 2 8 1.76 0.89
5 -2 -8 3.55 1.4
-5 2 7 0.33 0.62
5 -2 -7 -1.33 0.77
5 -2 -7 -0.4 0.8
5 -2 -7 1.01 0.73
-5 2 6 1.72 0.71
5 -2 -6 4.79 1.29
5 -2 -6 2.88 1.09
5 -2 -6 4.1 1.15
5 -2 -6 2.47 0.83
-5 2 5 9.37 1.51
-5 2 5 8.83 1.36
5 -2 -5 6.79 1.56
5 -2 -5 6.02 1.55
5 -2 -5 6.79 1.38
5 -2 -5 9.94 1.26
5 -2 -5 9.64 1.42
-5 2 4 26.77 2.28
5 -2 -4 25.65 2.87
-5 2 4 28.54 2.4
5 -2 -4 24.9 2.71
5 -2 -4 28.87 2.21
5 -2 -4 25.34 1.98
5 -2 -4 25.4 2.98
-5 2 4 25.32 2.31
-5 2 3 206.83 6.69
5 -2 -3 208.87 8.46
5 -2 -3 197.67 8.03
-5 2 3 206.3 4.4
5 -2 -3 211.42 6.02
5 -2 -3 195.83 6.13
5 -2 -3 213.5 8.43
-5 2 3 209.28 6.84
-5 2 3 209.04 6.99
-5 2 2 3.01 0.74
5 -2 -2 2.63 1.07
-5 2 2 1.52 0.59
5 -2 -2 2.94 1.02
5 -2 -2 3.18 1.1
5 -2 -2 1.75 0.49
-5 2 2 2.63 0.78
-5 2 1 9.21 1.18
5 -2 -1 8.65 1.73
-5 2 1 7.75 1.34
-5 2 1 6.85 1.12
5 -2 -1 4.7 1.26
-5 2 1 9.61 1.49
-5 2 1 5.25 0.72
-5 2 1 6.33 0.85
-5 2 1 6.06 0.7
5 -2 -1 6.48 0.84
-5 2 0 1.91 0.55
-5 2 0 1.57 0.39
5 -2 0 1.32 0.92
-5 2 0 3.18 0.91
-5 2 0 1.85 0.61
5 -2 0 2.41 1.02
-5 2 0 2.33 0.61
5 -2 0 2.08 1.06
5 -2 0 1.78 0.44
-5 2 -1 23.85 1.95
5 -2 1 24.8 2.77
-5 2 -1 26.03 2.29
-5 2 -1 26.39 2.18
5 -2 1 22.26 2.63
5 -2 1 24.44 1.57
5 -2 1 24.34 2.96
-5 2 -1 22.69 1.55
-5 2 -2 25.5 1.99
5 -2 2 25.56 2.82
-5 2 -2 26.04 2.26
-5 2 -2 22.3 2.24
5 -2 2 19.54 2.44
5 -2 2 21.38 1.57
5 -2 2 23.87 3.05
-5 2 -2 21.54 1.36
5 -2 3 0.23 0.3
-5 2 -3 0.15 0.16
5 -2 3 0.1 0.63
-5 2 -3 0.12 0.32
5 -2 3 1.18 0.89
-5 2 -3 0.32 0.38
5 -2 3 -0.11 0.73
-5 2 -3 0.22 0.61
5 -2 3 1.53 1.18
5 -2 4 15.92 2.32
5 -2 4 18.93 2.42
-5 2 -4 17.44 1.82
-5 2 -4 19.84 2.44
5 -2 4 16.64 2.29
5 -2 4 18.77 1.71
5 -2 4 20.62 2.92
-5 2 -4 17.41 1.63
5 -2 5 101.22 6.07
5 -2 5 125.76 6.32
-5 2 -5 114.26 4.85
-5 2 -5 117.21 6.33
5 -2 5 100.09 5.73
5 -2 5 110.8 4.7
5 -2 5 118.25 7.32
5 -2 6 15.83 2.41
5 -2 6 17.67 2.37
-5 2 -6 17.64 1.9
5 -2 6 16.78 2.34
-5 2 -6 13.55 2.29
5 -2 6 17.92 1.96
5 -2 6 17.48 2.9
5 -2 7 9.33 1.55
5 -2 7 11.49 2.13
5 -2 7 8.93 1.7
-5 2 -7 12.39 1.64
-5 2 -7 14.38 2.45
5 -2 7 8.3 2.12
5 -2 8 4.73 1.22
5 -2 8 3.91 1.4
5 -2 8 4.56 1.23
-5 2 -8 4.48 1.06
-5 2 -8 4 1.29
5 -2 8 5.59 1.73
5 -2 9 0.43 0.67
5 -2 9 1.31 0.97
-5 2 -9 -0.22 0.56
-5 2 -9 -0.08 0.85
5 -2 9 0.13 0.74
5 -2 10 -0.1 0.5
5 -2 10 0 0.6
-5 2 -10 0.28 0.59
-5 2 -10 -0.4 0.91
5 -2 10 -0.54 0.98
5 -2 11 0.56 0.71
-5 2 -11 -0.38 0.58
5 -2 12 -0.42 0.79
-5 1 9 3.51 1.24
5 -1 -9 3.82 1.51
-5 1 8 6.91 1.52
5 -1 -8 4.77 1.6
-5 1 7 12.96 2
5 -1 -7 10.81 1.8
5 -1 -7 13.51 2.36
5 -1 -7 13.48 1.66
-5 1 6 4.01 1.13
5 -1 -6 3.68 1.14
5 -1 -6 -0.4 0.69
5 -1 -6 1.98 0.67
-5 1 5 -0.23 0.45
5 -1 -5 0.82 0.73
-5 1 5 0.8 0.58
5 -1 -5 1.2 0.94
-5 1 5 1 0.62
5 -1 -5 0.61 0.46
-5 1 4 74.97 3.99
5 -1 -4 72.64 4.71
-5 1 4 70.95 4.07
5 -1 -4 73.67 4.56
5 -1 -4 69.19 3.56
5 -1 -4 74.06 4.99
-5 1 4 69.7 3.96
-5 1 3 7.59 1.24
5 -1 -3 7.08 1.53
-5 1 3 8.44 1.32
5 -1 -3 5.49 1.35
5 -1 -3 10.74 1.92
-5 1 3 10.93 1.57
5 -1 -3 8.1 1.21
5 -1 -3 7.49 0.94
-5 1 2 2.28 0.67
-5 1 2 2.91 0.9
-5 1 2 2.17 0.38
5 -1 -2 2.32 0.97
-5 1 2 2.69 0.78
5 -1 -2 2.1 0.98
-5 1 2 2.94 0.36
5 -1 -2 3.03 1.16
5 -1 -2 2.54 0.71
5 -1 -2 2 0.43
-5 1 1 109.51 4.64
5 -1 -1 106.11 5.68
-5 1 1 100.19 3.15
-5 1 1 106.73 4.76
5 -1 -1 103.59 5.54
-5 1 1 92.25 2.94
5 -1 -1 109.39 2.68
-5 1 1 94.43 2.37
-5 1 1 114.35 5.28
-5 1 1 109.83 4.13
-5 1 0 25.53 2.17
5 -1 0 27.8 2.89
-5 1 0 26.55 2.28
-5 1 0 25.76 1.81
5 -1 0 28.45 2.84
-5 1 0 22.24 1.49
5 -1 0 26.23 1.03
-5 1 0 28.22 1.87
-5 1 -1 -0.12 0.27
-5 1 -1 1.64 0.7
5 -1 1 -0.41 0.69
-5 1 -1 -0.35 0.48
5 -1 1 -0.46 0.69
-5 1 -1 -0.15 0.36
5 -1 1 -0.24 0.6
5 -1 1 0.04 0.13
-5 1 -2 7.12 1.14
5 -1 2 5.96 1.4
5 -1 2 6.58 1.47
-5 1 -2 6.65 1.1
5 -1 2 5.8 1.36
-5 1 -2 7.33 1.23
5 -1 2 7.77 1.77
-5 1 -2 5.46 0.66
5 -1 2 5.48 0.64
5 -1 3 76.46 4.93
5 -1 3 78.12 4.87
-5 1 -3 71.42 3.58
-5 1 -3 74.05 4.34
5 -1 3 77.65 4.85
5 -1 3 79.89 2.94
5 -1 3 77.76 5.54
-5 1 -3 74.71 2.14
5 -1 4 21.35 2.74
5 -1 4 25.12 2.7
-5 1 -4 27.38 2.15
5 -1 4 25.24 2.75
-5 1 -4 23.3 2.58
5 -1 4 23.83 1.74
5 -1 4 24.57 3.22
5 -1 5 1.75 0.56
5 -1 5 1.93 0.97
5 -1 5 1.56 0.73
-5 1 -5 1.48 0.62
-5 1 -5 0.82 0.57
5 -1 5 1.98 1.04
5 -1 6 39.51 3.77
5 -1 6 46.16 3.65
-5 1 -6 45.23 2.91
-5 1 -6 41.03 3.85
5 -1 6 45.93 2.96
5 -1 6 46.94 4.57
5 -1 7 34.29 3.65
5 -1 7 33.44 3.06
-5 1 -7 31.6 2.52
-5 1 -7 34.44 3.69
5 -1 7 30.69 2.64
5 -1 7 35.72 4.09
5 -1 8 0.89 0.6
5 -1 8 -0.45 0.67
5 -1 8 0.44 0.47
-5 1 -8 0.75 0.59
-5 1 -8 -0.29 0.78
5 -1 8 -0.19 0.79
5 -1 9 2.93 1.28
5 -1 9 4.76 1.24
5 -1 9 5.92 1.31
-5 1 -9 3.42 0.97
-5 1 -9 2.41 1.37
5 -1 9 4.67 1.56
5 -1 10 0.6 0.62
5 -1 10 -0.4 0.84
-5 1 -10 1.72 0.84
-5 1 -10 -0.09 0.81
5 -1 10 1.43 1.37
5 -1 11 7.74 1.75
5 -1 11 7.97 1.97
-5 1 -11 7.54 1.58
-5 1 -11 4.64 1.75
5 -1 11 11.22 2.62
5 -1 12 3.23 1.22
5 -1 12 3.14 1.46
-5 1 -12 3 1.11
-5 0 9 1.47 0.95
5 0 -9 4.31 1.61
-5 0 8 -0.05 0.6
5 0 -8 0.87 0.87
5 0 -8 0.67 0.53
-5 0 7 0.3 0.55
5 0 -7 -1.38 0.73
5 0 -7 -0.34 0.84
5 0 -7 0.42 0.57
-5 0 6 5.52 1.3
5 0 -6 3.54 1.08
5 0 -6 3.53 1.29
-5 0 6 4 1.05
5 0 -6 2.14 0.73
-5 0 5 3.77 1.04
5 0 -5 4.37 1.2
5 0 -5 3.1 1.12
-5 0 5 4.95 1.14
5 0 -5 3.55 0.95
-5 0 5 4 1.09
-5 0 4 13.52 1.74
5 0 -4 8.68 1.6
-5 0 4 11 1.57
5 0 -4 9.8 1.88
-5 0 4 11.72 1.7
5 0 -4 8.39 1.31
-5 0 3 40.59 3.18
-5 0 3 39.54 2.92
5 0 -3 45.83 3.61
5 0 -3 42.47 2.85
5 0 -3 43.44 3.75
-5 0 3 45.17 3.02
-5 0 2 264.51 8.05
5 0 -2 253.94 8.96
5 0 -2 246.08 7.4
5 0 -2 255.17 9.32
-5 0 2 263.57 7.42
-5 0 2 255.82 8.37
-5 0 1 62.76 3.67
5 0 -1 64.52 4.33
-5 0 1 65.09 2.12
-5 0 1 63.39 1.95
5 0 -1 62.35 3.45
-5 0 1 64.07 4.03
-5 0 1 60.19 3.12
-5 0 0 52.72 3.32
5 0 0 48.72 3.72
-5 0 0 52.77 3.06
-5 0 0 46.65 2.4
-5 0 0 42.1 1.93
5 0 0 48.53 3.04
-5 0 0 50.05 3.61
-5 0 0 48.64 2.53
5 0 1 41.06 3.47
5 0 1 49.99 3.77
-5 0 -1 47.24 2.82
-5 0 -1 46.12 2.74
5 0 1 45.88 4.05
-5 0 -1 43.79 2.19
-5 0 -1 42.87 2.96
-5 0 -2 3.23 0.53
-5 0 -2 3.87 0.98
5 0 2 2.38 0.93
5 0 2 2.4 0.92
-5 0 -2 5.28 0.95
-5 0 -2 3.7 0.95
5 0 2 3.65 1.24
5 0 3 36.06 3.32
5 0 3 36.62 3.22
-5 0 -3 33.67 2.25
-5 0 -3 37.6 2.95
5 0 3 34.29 1.56
5 0 3 40.36 3.98
-5 0 -3 34.15 1.41
5 0 4 7.69 1.67
5 0 4 10.17 1.76
-5 0 -4 9.03 1.18
5 0 4 9.37 0.98
-5 0 -4 10.22 1.71
5 0 4 6.06 1.68
5 0 5 15.14 2.26
-5 0 -5 15.1 1.52
5 0 5 13.23 1.95
5 0 5 17.91 1.55
-5 0 -5 15 2.15
5 0 5 17.3 2.73
5 0 6 41.27 3.89
5 0 6 39.15 3.28
-5 0 -6 46.59 2.78
-5 0 -6 38.81 3.69
5 0 6 38.67 2.59
5 0 6 37.73 4.1
5 0 7 31.45 3.44
5 0 7 39.38 3.28
-5 0 -7 38.82 2.64
-5 0 -7 32.87 3.58
5 0 7 37.2 2.78
5 0 7 31.66 3.86
5 0 8 0.96 0.77
5 0 8 0.82 0.7
-5 0 -8 0.91 0.56
-5 0 -8 -0.07 0.81
5 0 8 0.63 0.81
-5 0 -9 0.38 0.39
-5 0 -9 -1.29 1.01
5 0 9 -2.01 1.21
5 0 10 6.06 1.7
-5 0 -10 4.61 1.15
-5 0 -10 3.17 1.45
5 0 10 1.77 1.07
5 0 11 0.46 0.97
-5 0 -11 0.59 0.63
-5 0 -11 0.2 0.8
5 0 11 -0.74 1.11
5 0 12 1.34 1.16
-5 0 -12 1.87 0.92
-5 -1 9 1.12 0.9
5 1 -9 -0.3 0.73
5 1 -9 1.61 0.82
-5 -1 8 4.48 1.41
5 1 -8 7.55 1.86
5 1 -8 4.23 1.16
-5 -1 7 3.37 1.15
5 1 -7 5.19 1.58
5 1 -7 2.11 0.88
5 1 -6 0.83 0.71
-5 -1 6 0.49 0.52
5 1 -6 0.65 0.63
-5 -1 6 0.47 0.61
-5 -1 5 16.2 2.01
5 1 -5 18.09 2.26
-5 -1 5 14.04 2
5 1 -5 15.27 2.46
5 1 -5 13.83 1.77
-5 -1 5 14.77 2
-5 -1 4 34.94 2.87
5 1 -4 34.28 3.07
-5 -1 4 35.15 3.1
5 1 -4 34.47 2.75
5 1 -4 35.7 3.56
-5 -1 4 35.58 2.9
5 1 -3 13.7 2
-5 -1 3 13.2 1.79
5 1 -3 13.6 2.2
5 1 -3 11.83 1.57
-5 -1 3 11.07 0.82
-5 -1 3 11.11 1.79
-5 -1 3 13.93 1.74
-5 -1 2 117.59 5.4
5 1 -2 123.79 5.98
5 1 -2 116.48 5.06
-5 -1 2 126.7 5.05
-5 -1 2 124.44 5.88
-5 -1 1 38.48 2.98
5 1 -1 39.71 3.31
-5 -1 1 36.91 1.47
-5 -1 1 35.75 1.19
5 1 -1 31.7 2.55
-5 -1 1 33.39 2.98
-5 -1 1 35.94 2.45
5 1 0 54.76 3.93
-5 -1 0 58.44 3.09
-5 -1 0 56.9 2.68
-5 -1 0 56.46 2.11
5 1 0 54.85 3.34
-5 -1 0 56.54 3.95
-5 -1 0 57.67 2.89
-5 -1 0 60.97 3.68
-5 -1 -1 11.13 1.57
5 1 1 12.59 1.92
-5 -1 -1 13.25 1.4
5 1 1 11.38 1.8
-5 -1 -1 14.67 1.53
-5 -1 -1 10.79 1.03
5 1 1 11.88 1.58
-5 -1 -1 12.73 1.23
5 1 2 80.34 4.91
5 1 2 90.16 5.05
-5 -1 -2 89.02 3.64
-5 -1 -2 88.54 4.23
5 1 2 86.89 5.71
-5 -1 -2 85.75 3.04
5 1 3 14.79 2.18
-5 -1 -3 15.09 1.4
5 1 3 18.34 2.23
5 1 3 14.28 1.55
5 1 3 15.39 0.72
-5 -1 -3 13.16 1.75
5 1 3 15.86 2.48
-5 -1 -3 14.53 1.02
5 1 4 160.45 7.39
5 1 4 165.4 6.95
-5 -1 -4 155.96 4.88
-5 -1 -4 160.38 6.73
5 1 4 153.34 5.8
5 1 4 160.06 4.18
5 1 4 154.74 8.01
-5 -1 -4 157.06 3.18
5 1 5 0.24 0.72
5 1 5 -0.08 0.63
-5 -1 -5 0.12 0.32
5 1 5 -0.34 0.74
-5 -1 -5 1.17 1.28
5 1 5 -0.41 0.9
5 1 6 4.69 1.46
5 1 6 6.89 1.42
-5 -1 -6 8.96 1.15
5 1 6 7.46 1.42
-5 -1 -6 7.86 1.65
5 1 6 7.6 2
5 1 7 66.69 4.98
-5 -1 -7 63.45 3.28
-5 -1 -7 70.37 5.16
5 1 7 61.07 4.12
5 1 7 66.47 5.51
5 1 8 25.05 3.16
-5 -1 -8 22.17 2.03
-5 -1 -8 29.59 3.51
5 1 8 23.77 2.64
5 1 8 19.63 3.18
5 1 9 -0.66 0.81
-5 -1 -9 1.19 0.62
5 1 9 0.97 0.98
-5 -1 -9 0.18 0.77
5 1 9 0.54 0.71
5 1 10 2.05 1
-5 -1 -10 2.03 0.84
-5 -1 -10 -0.08 1.04
5 1 10 0.81 0.9
-5 -1 -11 3.08 0.97
5 1 11 2.82 1.39
-5 -1 -11 5.15 1.8
5 1 11 3.82 1.63
5 1 12 6.3 1.9
5 1 12 3.25 1.51
5 2 -10 0.64 0.81
5 2 -9 2.46 1.29
5 2 -9 2.89 1.1
5 2 -8 2.55 1.31
5 2 -8 2.69 0.96
-5 -2 8 3.18 1.09
5 2 -7 2.91 1.29
-5 -2 7 3.06 1.01
5 2 -7 2.49 0.9
-5 -2 7 3.49 1.13
-5 -2 6 7.11 1.39
5 2 -6 9.4 2
5 2 -6 8.04 1.52
-5 -2 6 7.38 1.5
-5 -2 5 0.4 0.52
5 2 -5 -1.32 0.93
5 2 -5 0.48 0.51
-5 -2 5 0.33 0.63
-5 -2 4 0.75 0.33
-5 -2 4 1.24 0.8
-5 -2 4 0.89 0.87
5 2 -4 2.33 1.06
5 2 -4 0.66 0.49
-5 -2 4 1.64 0.74
-5 -2 3 10.46 1.79
-5 -2 3 11.78 1.76
5 2 -3 11.65 2.08
5 2 -3 11.81 1.67
-5 -2 3 10.36 0.83
-5 -2 3 10.47 1.57
-5 -2 2 168.01 6.81
-5 -2 2 176.34 7.4
5 2 -2 206.28 7.88
5 2 -2 159.08 6.32
-5 -2 2 176.83 6.38
5 2 -1 89.4 5.02
-5 -2 1 83.41 2.66
5 2 -1 74.62 4.12
-5 -2 1 78.12 3.83
-5 -2 1 74.58 4.66
-5 -2 1 85.56 4.64
5 2 0 34.04 3.11
-5 -2 0 34.57 2.22
-5 -2 0 31.87 1.99
-5 -2 0 29.82 1.51
5 2 0 33.8 2.68
-5 -2 0 35.82 3.19
-5 -2 0 36.72 2.38
-5 -2 0 34.41 2.89
5 2 1 5.31 1.32
5 2 1 5.95 1.47
-5 -2 -1 4.03 0.75
5 2 1 4.83 0.77
-5 -2 -1 5.7 0.76
-5 -2 -1 4.51 1.23
5 2 1 5.42 1.14
-5 -2 -1 5.11 0.91
-5 -2 -1 5.8 0.9
5 2 2 10.1 1.81
5 2 2 11.34 1.85
-5 -2 -2 7.74 0.95
5 2 2 7.96 1.07
5 2 2 8.28 1.39
-5 -2 -2 7.58 1.22
-5 -2 -2 8.15 0.95
5 2 3 1.86 1.02
5 2 3 1.72 0.83
-5 -2 -3 1.77 0.48
5 2 3 1.46 0.54
-5 -2 -3 2.64 0.83
-5 -2 -3 2.77 0.52
5 2 4 15.25 2.22
-5 -2 -4 16.71 1.34
5 2 4 16.95 1.82
5 2 4 17.36 2.68
-5 -2 -4 13.3 1.9
-5 -2 -4 16.39 1.09
5 2 5 167.85 7.67
-5 -2 -5 173.31 4.95
-5 -2 -5 168.89 7.32
5 2 5 173.22 6.45
5 2 5 180.17 8.78
-5 -2 -5 169.51 3.46
5 2 6 138.14 7.05
-5 -2 -6 133.33 4.45
-5 -2 -6 131.98 6.79
5 2 6 136.86 5.95
5 2 6 122.63 7.42
5 2 7 58.19 4.66
-5 -2 -7 58.86 3
-5 -2 -7 56.96 4.6
5 2 7 58.29 4
5 2 7 49.95 4.84
5 2 8 0.5 0.72
-5 -2 -8 1.35 0.57
5 2 8 1.32 0.78
5 2 8 0.82 1.07
-5 -2 -8 0.01 0.59
5 2 9 3.08 1.24
-5 -2 -9 2.95 0.84
5 2 9 3.47 1.16
-5 -2 -9 1.66 0.96
5 2 9 2.91 1.43
5 2 10 8.43 2.04
-5 -2 -10 6.01 1.24
5 2 10 4.56 1.3
-5 -2 -10 6.87 1.94
5 2 10 4.51 1.75
5 2 11 15.88 2.8
5 2 11 13.03 2.32
-5 -2 -11 19.63 3.31
5 2 11 13.81 2.87
5 2 12 0.95 1.17
5 3 -9 0.78 0.7
5 3 -8 2.96 1.21
5 3 -8 4.92 1.37
-5 -3 8 6.42 1.63
-5 -3 7 0.37 0.55
5 3 -7 0.27 0.88
5 3 -7 1.56 0.82
-5 -3 7 0.59 0.66
-5 -3 6 2.05 0.84
5 3 -6 1.41 0.82
5 3 -6 0.61 0.53
-5 -3 6 2.1 0.94
-5 -3 5 6.83 1.32
5 3 -5 7.56 1.8
5 3 -5 3.72 1.09
-5 -3 5 4.38 1.24
-5 -3 4 3.64 1.04
5 3 -4 2.03 1.04
5 3 -4 3.87 1.12
-5 -3 4 1.77 0.86
-5 -3 4 4.21 1.1
-5 -3 3 0.58 0.57
-5 -3 3 0.55 0.55
5 3 -3 0.42 0.57
-5 -3 3 0.35 0.6
-5 -3 2 86.43 4.85
-5 -3 2 81.93 5.12
5 3 -2 77.28 4.42
-5 -3 1 18.81 1.37
5 3 -1 20.39 2.22
-5 -3 1 19.81 2.28
-5 -3 1 22.54 2.67
5 3 0 46.86 2.15
-5 -3 0 50 2.6
5 3 0 47.52 3.33
-5 -3 0 49.78 3.89
-5 -3 0 49.09 3.57
5 3 1 57.71 3.97
-5 -3 -1 57.21 2.56
5 3 1 51.61 2.55
-5 -3 -1 54.33 3.02
5 3 1 54.68 3.57
-5 -3 -1 51.83 4.01
5 3 2 91.79 5.23
-5 -3 -2 100.87 3.27
5 3 2 96.57 3.9
-5 -3 -2 95.38 4.45
5 3 2 110 5.1
-5 -3 -2 95.84 5.58
5 3 3 7.02 1.5
-5 -3 -3 4.63 0.61
5 3 3 4.42 0.89
-5 -3 -3 5.05 1.07
5 3 4 286.09 10.08
-5 -3 -4 282.46 6.16
5 3 4 280.3 8.2
-5 -3 -4 287.54 9.41
5 3 5 112.01 6.19
-5 -3 -5 116.27 3.57
5 3 5 110.17 5.03
-5 -3 -5 113.24 5.9
5 3 5 107.45 6.73
5 3 6 136.44 7
-5 -3 -6 137.59 4.22
-5 -3 -6 125.17 6.63
5 3 6 129.34 5.79
5 3 6 128.21 7.56
5 3 7 61.25 4.74
-5 -3 -7 58.58 2.82
-5 -3 -7 62.38 4.81
5 3 7 51.05 3.75
5 3 7 55.27 4.98
5 3 8 0.04 0.68
-5 -3 -8 1.12 0.5
5 3 8 0.56 0.61
5 3 8 1.53 1.02
-5 -3 -8 1.01 0.85
5 3 9 -0.18 0.52
5 3 9 -0.11 0.58
5 3 9 -0.76 1.01
-5 -3 -9 -0.31 0.77
5 3 10 -1.19 0.96
5 3 10 1.25 0.86
5 3 10 1.02 0.93
-5 -3 -10 2.89 1.56
5 3 11 0.98 0.72
5 3 11 2.87 1.12
5 3 11 0.73 0.8
-5 -3 -11 1.86 1.19
5 3 12 1.03 1.17
5 3 13 2.53 1.51
-5 -4 8 2.94 1.05
5 4 -8 -0.97 1.04
5 4 -8 1.46 0.71
-5 -4 7 5.16 1.3
5 4 -7 7.39 1.9
5 4 -7 3.97 1.34
-5 -4 7 6.46 1.55
-5 -4 6 0.88 0.53
5 4 -6 -0.07 0.71
5 4 -6 0.09 0.42
-5 -4 6 0.83 0.8
-5 -4 5 5.36 1.27
5 4 -5 2.73 1.18
5 4 -5 1.87 0.91
-5 -4 5 4.02 1.18
-5 -4 4 2.88 1.2
-5 -4 4 2.33 0.91
5 4 -4 1.77 0.81
-5 -4 3 14.96 2.29
-5 -4 3 15.86 2.14
5 4 -3 13.56 1.94
-5 -4 2 5.1 1.42
-5 -4 2 7.83 1.54
5 4 -2 5.29 1.25
-5 -4 1 57.63 4.37
5 4 -1 47.01 3.51
-5 -4 1 57.37 4.01
5 4 0 76.73 3.02
5 4 0 77.59 4.49
-5 -4 0 80.93 5.15
-5 -4 0 71.9 4.45
-5 -4 -1 1.46 0.81
5 4 1 2.37 0.98
-5 -4 -1 3.1 0.52
5 4 1 3.73 0.72
5 4 1 4.48 1.14
5 4 2 0.98 0.63
-5 -4 -2 0.92 0.26
5 4 2 1.37 0.51
5 4 2 0.44 0.51
-5 -4 -2 1.34 0.74
-5 -4 -2 1.28 0.27
5 4 3 0.4 0.67
-5 -4 -3 0.35 0.19
5 4 3 0.5 0.42
-5 -4 -3 -0.29 0.85
5 4 3 -0.14 0.54
-5 -4 -3 0.39 0.29
5 4 4 14.94 2.21
-5 -4 -4 13.23 0.85
5 4 4 13.29 1.66
-5 -4 -4 13.51 1.24
-5 -4 -4 14.35 2.02
5 4 5 117.72 6.38
-5 -4 -5 127.48 3.35
5 4 5 118.02 5.27
-5 -4 -5 118.73 6.16
-5 -4 -5 126.11 4.6
5 4 6 14.42 2.28
5 4 6 12.52 1.79
-5 -4 -6 10.44 1.42
-5 -4 -6 10.61 1.94
5 4 7 8.71 1.82
5 4 7 8.17 1.55
5 4 7 10.51 2.22
-5 -4 -7 9.4 1.95
5 4 8 8.19 1.88
5 4 8 8.62 1.59
5 4 8 8.41 2.01
-5 -4 -8 10.82 2.18
5 4 9 1.51 0.91
5 4 9 1.72 0.94
5 4 9 1.93 1.25
-5 -4 -9 2.75 1.35
5 4 10 7.06 1.86
5 4 10 6.44 1.51
5 4 10 8.17 2.08
-5 -4 -10 8.33 2.16
5 4 11 9.79 2.23
5 4 11 8.02 1.82
5 4 11 9.14 2.22
-5 -4 -11 11.45 2.58
5 4 12 -2.97 1.47
5 5 -8 3.08 1.48
-5 -5 7 0.9 0.63
5 5 -7 2.15 1.16
5 5 -7 0.81 0.6
-5 -5 7 -0.18 0.55
-5 -5 6 3.06 1.12
5 5 -6 2.89 1.27
5 5 -6 3.21 1.21
-5 -5 6 1.35 0.75
-5 -5 5 3.22 1.06
5 5 -5 2.76 1.02
-5 -5 4 11.99 1.89
5 5 -4 11.72 1.95
-5 -5 3 13.63 2.07
5 5 -3 14.27 2.08
-5 -5 3 14.74 2.37
-5 -5 2 4.86 1.26
5 5 -2 3.18 1.01
-5 -5 2 7.57 1.74
-5 -5 1 28.26 3.15
5 5 -1 24.33 2.61
-5 -5 1 28.92 2.92
-5 -5 0 28.53 3.17
5 5 0 28.95 1.93
5 5 0 28.57 2.83
-5 -5 0 28.38 2.9
5 5 1 28.31 2.75
5 5 1 31.23 2.15
5 5 1 29.68 2.82
-5 -5 -1 30.77 3.23
5 5 2 0 0.51
5 5 2 -0.02 0.35
5 5 2 0.01 0.46
-5 -5 -2 0.19 0.25
-5 -5 -2 -0.57 0.77
5 5 3 2.26 0.96
5 5 3 2.48 0.75
5 5 3 1.64 0.84
-5 -5 -3 3.52 1.33
-5 -5 -3 3.58 0.67
5 5 4 20.41 2.51
5 5 4 23.74 2.2
-5 -5 -4 20.54 1.72
-5 -5 -4 22.92 2.84
5 5 4 17.23 2.14
5 5 5 66.63 4.74
5 5 5 69.98 4.07
-5 -5 -5 71.69 3.56
5 5 6 119.33 6.57
5 5 6 122.81 5.73
-5 -5 -6 119.09 5.16
5 5 7 7.21 1.68
5 5 7 10.37 1.71
-5 -5 -7 13.81 1.85
-5 -5 -7 10.66 2.08
5 5 8 1.56 1.06
5 5 8 1.71 0.84
-5 -5 -8 3.11 1.1
-5 -5 -8 2.75 1.19
5 5 9 1.9 1.08
5 5 9 1 0.64
-5 -5 -9 2.41 0.87
-5 -5 -9 4.34 1.66
5 5 10 5.15 1.61
5 5 10 3.63 1.23
5 5 10 2.72 1.25
-5 -5 -10 7.31 2.11
5 5 11 11.19 2.38
5 5 11 10.75 2.07
5 5 11 7.67 2.05
-5 -5 -11 12.59 2.66
-5 -6 7 5.3 1.38
-5 -6 6 2.54 1.02
5 6 -6 5.4 1.56
-5 -6 5 6.27 1.43
5 6 -5 4.58 1.27
-5 -6 4 -0.79 0.74
5 6 -4 0.49 0.65
-5 -6 3 3.1 1.14
-5 -6 3 1.89 0.88
5 6 -3 2.08 0.92
-5 -6 2 -0.94 0.9
-5 -6 2 1.07 0.92
5 6 -2 0.35 0.48
-5 -6 1 11.58 1.97
-5 -6 1 11.31 2.1
5 6 -1 12.17 1.97
-5 -6 0 33.37 3.56
5 6 0 31.23 3.08
-5 -6 0 34.15 3.27
5 6 1 7.05 1.39
-5 -6 -1 6.55 1.66
5 6 1 7.89 1.16
5 6 1 8.87 1.7
5 6 2 5.19 1.27
-5 -6 -2 5.13 1.51
5 6 2 6.76 1.11
5 6 2 8.14 1.53
5 6 3 9.59 1.7
5 6 3 10.9 1.49
5 6 3 10.92 1.79
-5 -6 -3 12.21 2.15
5 6 4 1.65 0.97
5 6 4 0.97 0.64
5 6 4 2.89 1
-5 -6 -4 1.22 0.83
-5 -6 -4 1.14 0.42
5 6 5 13.5 2.13
5 6 5 10.9 1.64
-5 -6 -5 12.96 1.6
-5 -6 -5 15.11 2.45
5 6 6 0.11 0.6
-5 -6 -6 -0.4 0.63
5 6 6 0.16 0.6
-5 -6 -6 -0.33 0.46
5 6 7 -0.4 0.6
5 6 7 0.4 0.44
5 6 8 40.63 4
5 6 8 43.66 3.71
-5 -6 -8 43.2 4.37
-5 -6 -8 44.23 3.66
5 6 9 0.39 0.75
5 6 9 1.58 0.81
-5 -6 -9 2.95 1.13
-5 -6 -9 2.35 1.41
5 6 10 30.3 3.74
5 6 10 22.99 2.93
-5 -6 -10 23.44 3.04
-5 -6 -10 27.06 3.8
5 6 11 1.14 0.86
-5 -7 6 1.67 0.85
-5 -7 5 -0.89 0.69
5 7 -5 -1.86 0.97
-5 -7 4 3.1 1.21
5 7 -4 3.11 1.17
-5 -7 3 16.93 2.43
5 7 -3 15.22 2.34
-5 -7 2 0.48 0.67
-5 -7 2 2.08 1.17
5 7 -2 0.77 0.83
-5 -7 1 4.31 1.41
-5 -7 1 3.31 1.16
5 7 -1 3.45 1.15
-5 -7 0 13.06 2.14
-5 -7 0 16.85 2.62
5 7 0 14.91 2.22
-5 -7 -1 26.82 3.25
5 7 1 27.34 2.64
5 7 1 25.52 2.22
5 7 1 27.26 2.92
5 7 2 15.47 2.06
5 7 2 15.18 1.76
-5 -7 -2 15.1 2.5
5 7 2 19.16 2.42
5 7 3 6.03 1.42
-5 -7 -3 8.85 1.89
5 7 3 6.83 1.27
5 7 3 5.9 1.33
-5 -7 -4 4.04 1.43
5 7 4 2.41 1.04
5 7 4 2.56 0.86
5 7 4 3.78 1.12
5 7 5 0.34 0.61
5 7 5 -0.02 0.48
5 7 5 0.24 0.52
-5 -7 -5 0.18 0.71
5 7 6 7.31 1.66
5 7 6 5.44 1.28
-5 -7 -6 7.83 1.82
5 7 7 0.22 0.52
5 7 7 0.67 0.64
5 7 8 0.27 0.81
-5 -7 -8 0.52 0.8
5 7 8 -0.4 0.55
5 7 9 9.04 2.02
5 7 9 7.26 1.68
5 7 10 1.33 1.11
5 7 10 0.78 0.85
-5 -7 -10 -0.17 0.79
-5 -8 5 0.57 0.63
-5 -8 4 3.25 1.2
-5 -8 3 6.39 1.59
5 8 -3 5.94 1.5
-5 -8 2 -0.55 0.67
5 8 -2 1.06 0.83
-5 -8 1 4.61 1.5
-5 -8 1 2.97 1.15
5 8 -1 3.92 1.23
-5 -8 0 3.95 1.49
-5 -8 0 4.45 1.33
5 8 0 3.51 1.16
-5 -8 -1 0.16 0.7
5 8 1 0.59 0.67
5 8 2 0.61 0.33
5 8 2 0.42 0.7
-5 -8 -2 0.4 0.59
5 8 3 1.15 0.61
-5 -8 -3 1.31 0.78
5 8 3 0.49 0.6
5 8 4 13.11 2.08
-5 -8 -4 12.47 2.27
5 8 4 10.43 1.65
5 8 4 11.6 1.92
-5 -8 -5 15.74 2.59
5 8 5 11.44 2.03
5 8 5 14.64 2.03
5 8 5 13.88 2.12
5 8 6 0.72 0.77
5 8 6 -0.72 0.58
-5 -8 -6 -0.19 0.72
5 8 7 -0.39 0.71
5 8 7 0.39 0.69
-5 -8 -7 0.16 0.72
5 8 8 8.62 1.94
5 8 8 7.78 1.7
-5 -8 -8 6.15 1.77
5 8 9 0.36 0.91
5 8 9 1.09 0.87
-5 -8 -9 1.08 0.94
5 8 10 1.81 1.11
-5 -8 -10 4.06 1.4
-5 -9 4 3.35 1.18
-5 -9 3 0.79 0.73
-5 -9 2 -0.33 0.69
5 9 -2 1.09 0.75
-5 -9 1 4.3 1.44
5 9 -1 1.42 0.93
-5 -9 0 0.61 0.81
5 9 0 0.99 0.73
-5 -9 0 -1.62 1.04
-5 -9 -1 8.93 2.05
5 9 1 6.85 1.62
-5 -9 -2 7.33 1.82
5 9 2 5.78 1.26
5 9 2 3.24 1.21
5 9 3 11.64 1.81
5 9 3 8.72 1.8
-5 -9 -3 12.2 2.3
5 9 4 2.25 0.87
5 9 4 2.97 1.03
-5 -9 -4 2.29 1.27
-5 -9 -5 4.68 1.53
5 9 5 3.1 1.04
5 9 5 2.5 1.08
-5 -9 -6 0.73 0.82
5 9 6 1.35 0.9
5 9 6 0.07 0.57
-5 -9 -7 2.45 1.17
5 9 7 2.66 1.19
5 9 7 2.16 0.92
5 9 8 1.06 0.79
5 9 8 -1.22 0.8
-5 -9 -8 0.69 0.71
5 9 9 21.83 3.19
-5 -9 -9 21.34 3.16
-5 -10 2 -1.49 0.92
-5 -10 1 1.43 0.94
-5 -10 0 -0.43 0.75
-5 -10 -1 0.69 0.97
5 10 1 -1.43 0.9
-5 -10 -2 2.1 1.13
5 10 2 1.78 0.98
5 10 3 0.95 0.7
-5 -10 -3 -0.64 0.75
5 10 3 0.62 0.62
-5 -10 -4 0.27 0.74
5 10 4 0.81 0.68
5 10 4 -0.09 0.55
5 10 5 -0.07 0.39
5 10 5 0.09 0.59
-5 -10 -5 0.67 0.86
5 10 6 -0.42 0.59
-5 -10 -6 -0.86 0.84
-5 -10 -7 2.01 1.08
5 10 7 2.33 1.02
5 11 4 3.72 1.15
5 11 4 7.08 1.76
-5 -11 -4 5.42 1.75
-5 -11 -5 -1.14 0.97
5 11 5 -0.35 0.62
5 11 5 -0.04 0.46
-6 9 3 3.59 1.13
-6 8 4 3.45 1.23
-6 8 3 1.11 0.69
-6 8 2 5.35 1.32
-6 8 -1 4.78 1.46
-6 8 -2 5.68 1.53
6 -8 2 6.44 1.94
-6 8 -3 2.6 1.23
6 -8 3 0.28 0.78
6 -8 4 0.03 0.83
6 -7 -7 -0.62 0.76
-6 7 6 0.76 0.65
6 -7 -6 0.2 0.74
6 -7 -6 0.71 0.74
-6 7 5 2.36 0.95
6 -7 -5 5.29 1.97
6 -7 -5 3.82 1.57
6 -7 -4 45 4.94
-6 7 4 37.82 3.95
6 -7 -4 42.25 4.6
-6 7 4 39.47 3.54
-6 7 3 1.1 0.72
6 -7 -3 0.54 0.88
-6 7 3 -0.12 0.72
6 -7 -3 2.89 1.48
-6 7 2 4.82 1.21
6 -7 -2 4.75 1.66
-6 7 2 7.71 1.74
6 -7 -2 7.47 1.99
-6 7 1 -0.06 0.41
6 -7 -1 -0.34 0.66
-6 7 1 0.87 0.69
6 -7 -1 -0.01 0.61
6 -7 0 -0.18 0.61
-6 7 0 0.02 0.58
6 -7 0 1.56 1.09
6 -7 0 0.31 0.91
6 -7 1 1.41 1.29
-6 7 -1 1.16 0.76
6 -7 1 0.02 0.71
-6 7 -1 0.84 0.71
6 -7 1 -0.26 0.7
6 -7 2 0.34 0.73
-6 7 -2 0.72 0.67
6 -7 2 0.75 0.9
-6 7 -2 1.36 0.66
6 -7 2 2.38 1.48
6 -7 3 -0.03 0.88
-6 7 -3 -0.03 0.55
6 -7 3 -0.5 0.75
-6 7 -3 -0.86 0.76
6 -7 3 -0.66 0.87
6 -7 4 2.21 1.3
6 -7 4 -0.87 0.84
-6 7 -4 0.78 0.59
6 -7 4 1.05 0.93
6 -7 5 0.47 0.71
6 -7 5 0.34 0.68
-6 7 -5 1.6 1.03
6 -7 5 -0.04 0.71
6 -7 6 0.58 0.93
6 -6 -7 -0.61 0.84
6 -6 -7 0.31 0.81
6 -6 -7 2.1 1.3
-6 6 6 -0.27 0.54
6 -6 -6 0.1 1.12
6 -6 -6 0.4 0.77
6 -6 -6 0.03 0.73
6 -6 -5 43.12 4.64
-6 6 5 31.92 3.58
6 -6 -5 24.9 3.42
6 -6 -5 30.2 3.49
-6 6 5 32.99 3.21
-6 6 4 5.21 1.3
6 -6 -4 6.3 1.96
-6 6 4 7.64 1.81
6 -6 -4 6.84 1.93
6 -6 -4 3.69 1.24
-6 6 3 6.72 1.42
6 -6 -3 8.07 2.16
-6 6 3 7.29 1.73
6 -6 -3 7.28 1.88
6 -6 -3 8.46 1.77
-6 6 2 11.04 1.68
6 -6 -2 12.94 2.56
-6 6 2 12.37 2.16
6 -6 -2 11.25 2.33
-6 6 1 0.3 0.56
6 -6 -1 -0.52 1.01
-6 6 1 -0.08 0.6
6 -6 -1 -0.58 0.83
6 -6 -1 2.46 1.15
6 -6 0 2.18 1.34
-6 6 0 1.64 0.94
6 -6 0 -0.02 0.6
-6 6 0 1.17 0.68
6 -6 0 0.79 0.86
6 -6 1 1.57 1.02
-6 6 -1 1.46 0.87
6 -6 1 0.39 0.69
-6 6 -1 2.63 0.98
6 -6 1 2.56 1.29
6 -6 2 0.73 0.75
-6 6 -2 1.87 0.99
6 -6 2 1.35 0.9
-6 6 -2 1.49 0.88
6 -6 2 3.27 1.49
6 -6 3 3.69 1.33
-6 6 -3 3.14 1.09
6 -6 3 1.82 1.14
-6 6 -3 2.67 1.1
6 -6 3 2.22 1.45
6 -6 4 11.28 2.36
-6 6 -4 13.7 2.07
6 -6 4 12.08 2.46
-6 6 -4 14.52 2.48
6 -6 4 16.39 3.15
6 -6 5 21 3.19
-6 6 -5 21.56 2.61
6 -6 5 21.45 3.22
-6 6 -5 19.51 2.91
6 -6 5 20.16 3.52
6 -6 6 8.02 1.98
6 -6 6 7 1.83
-6 6 -6 6.04 1.71
6 -6 6 7.19 2.28
6 -6 7 1.58 1.21
6 -6 7 -0.85 0.85
-6 5 7 1.48 0.87
6 -5 -7 3.39 1.44
6 -5 -7 1.04 0.83
6 -5 -7 0.61 0.75
-6 5 6 -0.8 0.7
6 -5 -6 1.01 0.99
6 -5 -6 -0.56 0.73
6 -5 -6 -1.03 0.93
-6 5 5 -0.12 0.58
6 -5 -5 0.07 0.88
6 -5 -5 1.5 1.06
6 -5 -5 -0.31 0.65
-6 5 4 -0.23 0.45
6 -5 -4 0.76 0.94
-6 5 4 1.72 0.85
6 -5 -4 -1.63 0.96
6 -5 -4 0.46 0.86
-6 5 3 15.4 1.93
6 -5 -3 13.01 2.52
-6 5 3 14.34 2.24
6 -5 -3 14.75 2.55
6 -5 -3 8.72 1.78
-6 5 2 8.52 1.43
6 -5 -2 7.58 1.96
-6 5 2 9.94 1.87
6 -5 -2 3.01 1.28
-6 5 1 2.25 0.77
6 -5 -1 4.12 1.58
-6 5 1 4.11 1.28
6 -5 -1 3.55 1.35
6 -5 -1 4.05 1.43
-6 5 0 0.28 0.35
6 -5 0 1.15 0.95
-6 5 0 -0.14 0.58
6 -5 0 0.21 0.6
-6 5 0 -0.75 0.54
6 -5 0 1.01 0.93
6 -5 1 0.52 0.63
-6 5 -1 1.88 0.82
6 -5 1 0.35 0.61
-6 5 -1 0.42 0.6
6 -5 1 0.03 0.87
-6 5 -2 19.74 2.48
6 -5 2 17.56 2.83
-6 5 -2 23.92 2.64
6 -5 2 18.1 2.81
6 -5 2 13.11 2.66
6 -5 3 1.48 0.96
-6 5 -3 2.53 0.98
6 -5 3 1.29 0.93
-6 5 -3 1.44 0.81
6 -5 3 2.2 1.3
6 -5 4 4.47 1.49
-6 5 -4 5.07 1.2
6 -5 4 1.63 1.02
-6 5 -4 3.68 1.31
6 -5 4 3.86 1.48
6 -5 5 1.58 0.99
-6 5 -5 0.55 0.59
6 -5 5 -1.09 0.87
-6 5 -5 -0.43 0.87
6 -5 5 -0.61 0.94
6 -5 6 0.93 0.94
-6 5 -6 1.09 0.67
6 -5 6 0.54 0.66
-6 5 -6 0.79 1.07
6 -5 6 1.01 1.25
6 -5 7 2.2 1.16
-6 5 -7 1.75 0.9
6 -5 7 1.92 1.13
-6 5 -7 3.18 1.39
6 -5 7 0.44 0.96
6 -5 8 1.87 1.06
6 -4 -8 -0.17 0.84
-6 4 7 1.46 0.86
6 -4 -7 1.91 0.89
6 -4 -7 1.74 1.12
6 -4 -7 0.4 0.78
-6 4 6 3 1.01
6 -4 -6 1.9 1.02
6 -4 -6 2.35 1.23
6 -4 -6 1.26 0.78
6 -4 -5 72.71 5.63
6 -4 -5 66.67 5.23
6 -4 -5 74.17 5.59
-6 4 5 84.31 4.86
6 -4 -4 19.95 2.95
6 -4 -4 14.02 2.37
6 -4 -4 19.52 2.8
-6 4 4 19.24 2.23
6 -4 -3 120.44 7.22
-6 4 3 108.33 6.03
6 -4 -3 98.04 6.37
6 -4 -3 104.92 6.21
-6 4 3 107.69 5.13
6 -4 -2 38.48 4.05
-6 4 2 38.22 3.47
6 -4 -2 40.12 3.99
-6 4 2 38.55 2.86
6 -4 -1 37.4 4.02
-6 4 1 36.52 3.33
6 -4 -1 31.76 3.58
-6 4 1 37.02 3.05
6 -4 -1 38.13 4
-6 4 1 35.47 2.63
-6 4 0 10.53 1.37
6 -4 0 10.12 2.12
-6 4 0 10.64 1.81
6 -4 0 8.87 1.96
-6 4 0 9.28 1.18
-6 4 0 12.33 1.6
6 -4 0 9.24 2.1
6 -4 1 9.22 2.08
-6 4 -1 4.9 1.22
6 -4 1 5.59 1.61
-6 4 -1 5.8 0.9
-6 4 -1 7.15 1.32
6 -4 1 6.12 1.72
6 -4 2 15.36 2.55
-6 4 -2 12.62 1.87
6 -4 2 13.15 2.33
-6 4 -2 11.77 1.84
6 -4 2 11.89 2.46
6 -4 3 8.56 1.96
-6 4 -3 4.11 1.12
6 -4 3 3.69 1.34
-6 4 -3 4.84 1.31
6 -4 3 8.48 2.25
6 -4 4 1.3 1
-6 4 -4 0.01 0.44
6 -4 4 -0.27 0.75
-6 4 -4 0.18 0.52
6 -4 4 0.31 0.96
6 -4 5 0.57 1.04
-6 4 -5 1.37 0.73
6 -4 5 0.39 0.73
-6 4 -5 1.5 1.08
6 -4 5 -0.27 0.76
6 -4 6 6.7 1.76
6 -4 6 5.46 1.55
-6 4 -6 5.38 1.33
6 -4 6 5.03 1.51
-6 4 -6 5.53 1.58
6 -4 6 5.31 1.83
6 -4 7 11.27 2.29
6 -4 7 10.68 2.14
-6 4 -7 10.57 1.76
6 -4 7 11.02 2.21
-6 4 -7 15.02 2.74
6 -4 7 10.26 2.57
6 -4 8 0.48 0.65
6 -4 8 0.95 0.79
-6 4 -8 -0.04 0.49
-6 4 -8 0.4 0.84
6 -4 9 3.16 1.41
-6 3 8 10.42 1.94
6 -3 -8 10.53 2.41
-6 3 7 0.4 0.58
6 -3 -7 -1.59 0.96
6 -3 -7 1.01 1.18
6 -3 -7 0.27 0.79
-6 3 6 0.14 0.54
6 -3 -6 1.6 0.96
6 -3 -6 0.79 0.83
6 -3 -6 2.87 1.29
6 -3 -5 22.75 3.07
6 -3 -5 26.5 3.19
6 -3 -5 23.43 3.13
-6 3 5 21.61 2.41
6 -3 -4 31.62 3.59
6 -3 -4 30.22 3.37
6 -3 -4 28 3.33
-6 3 4 32.25 2.84
6 -3 -3 33.52 3.68
-6 3 3 35.42 3.31
6 -3 -3 34.66 3.65
6 -3 -3 34.43 3.52
-6 3 3 27.19 2.49
-6 3 3 30.87 2.7
-6 3 2 2.56 0.77
6 -3 -2 4.67 1.54
-6 3 2 2.11 0.92
6 -3 -2 2.57 1.3
-6 3 2 3.64 0.9
-6 3 2 2.68 0.92
-6 3 1 0.54 0.45
6 -3 -1 1.28 0.86
-6 3 1 1.39 0.82
-6 3 1 1.57 0.67
6 -3 -1 0.47 0.63
-6 3 1 1.53 0.81
-6 3 0 8.93 1.21
-6 3 0 11.5 1.44
6 -3 0 10.41 2.15
-6 3 0 6.97 1.47
-6 3 0 8.64 1.26
6 -3 0 8.33 1.83
6 -3 0 9.42 2.02
-6 3 -1 2 0.56
6 -3 1 2.79 1.25
-6 3 -1 3 0.99
-6 3 -1 1.15 0.48
6 -3 1 1.85 0.95
-6 3 -1 1.99 0.75
6 -3 1 1.09 0.74
-6 3 -2 12.65 1.44
6 -3 2 14.11 2.4
-6 3 -2 14.08 1.87
6 -3 2 13.12 2.33
-6 3 -2 13.91 1.92
6 -3 2 12.88 2.54
-6 3 -3 24.35 1.96
6 -3 3 23.57 3.12
-6 3 -3 20.6 2.29
-6 3 -3 26.92 2.82
6 -3 3 19.92 2.79
6 -3 3 26.29 3.64
6 -3 4 6.25 1.64
6 -3 4 5.74 1.61
-6 3 -4 6.33 1.26
6 -3 4 4.66 1.51
-6 3 -4 8.04 1.77
6 -3 4 5.83 1.84
6 -3 5 9.45 2.08
6 -3 5 14.28 2.41
-6 3 -5 11.48 1.71
6 -3 5 12.99 2.34
-6 3 -5 11.6 2.13
6 -3 5 10.28 2.43
6 -3 6 5.45 1.67
6 -3 6 3.18 1.37
-6 3 -6 4.01 1.06
6 -3 6 1.73 0.92
-6 3 -6 6.46 1.77
6 -3 6 4.55 1.7
6 -3 7 7.92 1.9
6 -3 7 5.46 1.53
-6 3 -7 8.76 1.55
-6 3 -7 7.92 2.01
6 -3 7 7.85 2.12
6 -3 8 0.79 1.1
6 -3 8 -0.54 0.68
-6 3 -8 0.2 0.46
6 -3 8 -1.84 1.36
-6 3 -9 1.19 0.67
-6 3 -9 -0.2 0.75
6 -3 10 2.42 1.32
-6 2 8 0.55 0.71
6 -2 -8 -1.8 1.1
-6 2 7 4.61 1.25
6 -2 -7 1.68 0.94
6 -2 -7 1.99 1.23
-6 2 6 2.3 0.89
6 -2 -6 2.77 0.99
6 -2 -6 5.31 1.73
-6 2 5 2.47 0.89
6 -2 -5 1.47 0.95
6 -2 -5 3.3 1.23
6 -2 -5 2.06 1.15
-6 2 5 1.6 0.71
-6 2 4 0.77 0.61
-6 2 4 0.05 0.46
6 -2 -4 0.47 0.68
6 -2 -4 0.3 0.7
-6 2 4 0.15 0.45
6 -2 -4 1.87 1.01
6 -2 -4 0.38 0.41
-6 2 3 138.76 6.15
-6 2 3 135.95 5.73
6 -2 -3 131.58 7.25
6 -2 -3 131.47 7.03
6 -2 -3 119.82 6.85
-6 2 3 134.51 5.62
-6 2 2 11.93 1.78
-6 2 2 10.93 1.5
6 -2 -2 13.92 2.34
-6 2 2 10.76 1.81
-6 2 2 13.47 1.69
6 -2 -2 13.03 2.24
-6 2 1 92.31 4.46
6 -2 -1 84.98 5.77
-6 2 1 93.95 5.01
6 -2 -1 84.15 5.61
-6 2 1 89.27 5.1
-6 2 1 90.98 4.07
-6 2 0 15.66 1.79
-6 2 0 15.46 1.56
6 -2 0 17.76 2.6
-6 2 0 15.09 1.95
6 -2 0 15.84 2.42
-6 2 0 16.79 1.59
-6 2 -1 29.04 2.38
6 -2 1 28.9 3.33
-6 2 -1 24.7 2.41
-6 2 -1 22.96 2.16
6 -2 1 24.01 3
6 -2 1 27.06 3.47
-6 2 -1 27.63 1.87
6 -2 2 6.14 1.6
-6 2 -2 3.12 0.81
-6 2 -2 4.76 1.12
6 -2 2 3.52 1.27
-6 2 -2 4.3 1.07
6 -2 2 4.26 1.53
-6 2 -3 33.13 2.54
6 -2 3 30.4 3.39
-6 2 -3 32.84 2.72
-6 2 -3 29.77 2.92
6 -2 3 25.79 3.14
6 -2 3 27.27 3.69
6 -2 4 29.67 3.49
6 -2 4 26.85 3.2
-6 2 -4 30.56 2.61
-6 2 -4 32.23 3.24
6 -2 4 24.76 3.1
6 -2 4 24.66 3.52
-6 2 -4 29.29 2.38
-6 2 -5 0.64 0.6
6 -2 5 0.54 0.75
6 -2 5 0.89 0.88
-6 2 -5 0.42 0.56
-6 2 -5 0.16 0.81
6 -2 5 0.57 1.14
6 -2 6 14.47 2.48
6 -2 6 12.38 2.2
-6 2 -6 13.88 1.8
-6 2 -6 16.72 2.6
6 -2 6 16.71 3.08
6 -2 7 7.16 1.93
6 -2 7 4.6 1.29
-6 2 -7 7.54 1.41
-6 2 -7 8.18 1.99
6 -2 7 7.79 2.29
6 -2 8 1.04 0.85
6 -2 8 0.91 0.79
-6 2 -8 0.96 0.78
-6 2 -8 0.77 0.83
6 -2 8 1.72 1.16
6 -2 9 0.42 0.97
-6 2 -9 0.5 0.59
-6 2 -9 0.29 0.69
6 -2 9 -0.41 0.99
6 -2 10 -2.89 1.37
-6 2 -10 -0.45 0.73
-6 1 8 9.5 1.87
6 -1 -8 6.67 1.91
-6 1 7 -0.32 0.48
6 -1 -7 0.53 0.72
6 -1 -7 0.52 0.81
-6 1 6 -0.17 0.62
6 -1 -6 -0.67 0.67
6 -1 -6 -0.27 0.85
-6 1 5 42.41 3.29
6 -1 -5 35.84 3.61
-6 1 5 38.7 3.26
6 -1 -5 37.92 2.9
6 -1 -5 42.31 4.26
-6 1 5 42.66 3.41
-6 1 4 0.02 0.45
6 -1 -4 -0.69 0.77
-6 1 4 -0.15 0.56
-6 1 4 0.24 0.58
6 -1 -4 -0.36 0.69
6 -1 -4 -0.41 0.46
-6 1 3 6.4 1.27
6 -1 -3 6.67 1.56
-6 1 3 4.87 1.12
-6 1 3 7.11 1.46
6 -1 -3 5.94 1.57
6 -1 -3 5.79 1.14
-6 1 2 38.2 2.99
6 -1 -2 36.84 3.68
-6 1 2 35.99 3.19
-6 1 2 35.78 2.67
-6 1 1 18.23 2.06
6 -1 -1 21.25 2.81
-6 1 1 19.24 2.17
6 -1 -1 15.75 2.46
-6 1 1 17.98 2.33
-6 1 1 17.87 1.73
-6 1 0 15.2 1.42
6 -1 0 16.1 2.47
-6 1 0 13.42 1.76
-6 1 0 13.45 1.8
6 -1 0 12.3 2.15
-6 1 0 11.83 1.88
-6 1 0 11.48 1.31
-6 1 -1 1.64 0.48
-6 1 -1 0.46 0.51
6 -1 1 1.81 0.93
-6 1 -1 0.81 0.55
-6 1 -1 1.74 0.62
6 -1 1 0.78 0.97
-6 1 -2 5.2 0.7
-6 1 -2 7.12 1.29
6 -1 2 6.56 1.66
-6 1 -2 5.81 1.11
-6 1 -2 6.9 1.3
6 -1 2 6.34 1.84
6 -1 3 67.23 5.12
6 -1 3 71.48 5.11
-6 1 -3 68.27 3.8
-6 1 -3 69.3 4.41
6 -1 3 70.32 5.8
-6 1 -3 66.94 3.88
-6 1 -4 1.54 0.68
6 -1 4 2.39 1.21
6 -1 4 0.86 0.87
-6 1 -4 2.09 0.77
-6 1 -4 1.85 0.95
6 -1 4 1.24 1.2
6 -1 5 3 1.27
6 -1 5 1.32 0.86
-6 1 -5 1.41 0.69
-6 1 -5 2.92 1.18
6 -1 5 2.26 1.39
6 -1 6 28.03 3.16
6 -1 6 25.61 3.34
-6 1 -6 25.02 2.3
-6 1 -6 22.61 3
6 -1 6 27.39 3.9
6 -1 7 7.88 1.88
6 -1 7 6.51 1.52
-6 1 -7 7.37 1.29
-6 1 -7 4.92 1.62
6 -1 7 10.39 2.57
6 -1 8 3.03 1.29
6 -1 8 -0.36 0.63
-6 1 -8 2.57 0.9
-6 1 -8 -1.63 1.08
6 -1 8 2.07 1.36
6 -1 9 0.33 0.68
6 -1 9 0.7 0.76
-6 1 -9 0.26 0.52
-6 1 -9 0.08 0.83
6 -1 9 0.8 1.27
6 -1 10 -0.82 0.98
-6 1 -10 -0.27 0.56
-6 1 -10 1.01 0.94
-6 1 -11 13.01 2.14
-6 0 8 0.1 0.49
-6 0 7 8.73 1.77
6 0 -7 10.07 2.29
-6 0 6 7.88 1.64
6 0 -6 6.63 1.6
-6 0 6 9.93 1.7
6 0 -6 9.87 2.18
6 0 -6 5.53 1.22
-6 0 5 30.07 2.87
6 0 -5 34.14 3.44
-6 0 5 31.14 3.1
6 0 -5 31.04 2.8
6 0 -5 25.18 3.35
-6 0 5 26.1 2.77
-6 0 4 -0.47 0.6
6 0 -4 2.01 0.94
-6 0 4 0.9 0.68
-6 0 4 0.36 0.52
6 0 -4 -0.98 0.82
6 0 -4 0.08 0.45
-6 0 3 35.81 3.29
-6 0 3 31.05 2.82
6 0 -3 29.31 3.24
6 0 -3 27.89 2.55
6 0 -3 27.18 3.28
-6 0 3 33.14 2.75
-6 0 2 2.31 0.8
-6 0 2 2.78 1.12
6 0 -2 3.67 1.2
-6 0 2 3.49 0.97
6 0 -2 3.57 0.94
-6 0 1 39.94 3.17
6 0 -1 34.46 3.49
-6 0 1 34.22 2.75
6 0 -1 34.4 2.85
-6 0 1 35.9 3.36
-6 0 1 35.46 2.53
-6 0 0 5.28 0.95
-6 0 0 7.01 1.41
6 0 0 4.36 1.38
-6 0 0 5.33 1.11
-6 0 0 3.96 1.27
-6 0 -1 1.09 0.44
-6 0 -1 2.58 0.95
6 0 1 1.83 0.89
-6 0 -1 2.61 0.79
-6 0 -1 2.88 0.79
6 0 2 9.05 1.92
-6 0 -2 7.77 1.36
6 0 2 6.96 1.64
-6 0 -2 9.59 1.37
-6 0 -2 9.4 1.45
6 0 2 11.43 2.32
-6 0 -2 8.03 0.89
-6 0 -3 3.22 0.89
6 0 3 3.56 1.25
6 0 3 3.55 1.22
-6 0 -3 4.08 0.92
-6 0 -3 2.18 0.79
6 0 3 1.51 0.89
6 0 4 73.8 5.41
6 0 4 79 5.29
-6 0 -4 85.03 3.98
-6 0 -4 80.83 4.97
6 0 4 81.66 6.36
6 0 5 31.6 3.58
6 0 5 31.94 3.32
-6 0 -5 36.96 2.59
-6 0 -5 34.24 3.4
6 0 5 29.06 3.87
6 0 6 5.09 1.59
6 0 6 8.12 1.71
-6 0 -6 6.71 1.16
-6 0 -6 4.83 1.41
6 0 6 6.31 2.01
6 0 7 2.12 1.09
6 0 7 1.2 0.88
-6 0 -7 1.26 0.59
-6 0 -7 -0.24 0.88
6 0 7 1.35 1.2
6 0 8 4.58 1.63
6 0 8 1.68 0.9
-6 0 -8 3.08 0.9
-6 0 -8 2.37 1.22
6 0 8 5.77 2.02
6 0 9 4.53 1.62
-6 0 -9 4.56 1.09
-6 0 -9 5.63 1.8
6 0 9 4.69 1.87
6 0 10 1.18 0.82
-6 0 -10 0.55 0.65
-6 0 -10 0.67 0.85
6 0 10 2.74 1.56
-6 0 -11 11.96 1.92
-6 -1 7 3.88 1.26
6 1 -7 2.13 1.29
6 1 -7 4.37 1.26
-6 -1 6 0.46 0.56
-6 -1 6 1.57 0.72
6 1 -6 -1.27 1.08
6 1 -6 0.07 0.5
-6 -1 5 0.17 0.6
6 1 -5 -0.36 0.76
-6 -1 5 -0.41 0.52
6 1 -5 0.84 0.85
6 1 -5 0.49 0.64
-6 -1 5 -1.23 0.76
6 1 -4 18.66 2.55
-6 -1 4 17.66 2.23
6 1 -4 18.44 2.2
6 1 -4 17.7 2.7
-6 -1 4 15.93 2.31
-6 -1 4 21.01 2.39
6 1 -3 8.91 1.73
-6 -1 3 2.88 0.96
6 1 -3 4.84 1.17
-6 -1 3 6.74 1.52
-6 -1 3 5.58 1.2
-6 -1 2 23.65 2.78
-6 -1 2 27.98 2.78
6 1 -2 23.66 2.87
6 1 -2 19.54 2.23
-6 -1 2 20.72 2.13
-6 -1 1 11.63 1.96
-6 -1 1 9.29 1.61
6 1 -1 15.76 2.36
-6 -1 1 10.4 1.47
6 1 -1 11.6 1.71
-6 -1 1 11.8 1.5
-6 -1 0 10.81 1.75
-6 -1 0 14.18 1.65
6 1 0 13.22 2.2
6 1 0 14.32 1.9
-6 -1 0 15.71 2.29
-6 -1 0 13.47 1.52
-6 -1 -1 10.01 1.66
-6 -1 -1 12.67 1.52
6 1 1 10.78 1.94
-6 -1 -1 11.97 2
-6 -1 -1 10.15 1.31
-6 -1 -1 12.17 1.3
-6 -1 -2 1.51 0.47
-6 -1 -2 0.83 0.62
6 1 2 0.92 0.89
6 1 2 1.9 1.01
-6 -1 -2 1.5 0.61
-6 -1 -2 2.17 0.77
6 1 3 0.26 0.84
6 1 3 0.33 0.52
-6 -1 -3 0.01 0.3
-6 -1 -3 -0.3 0.47
6 1 4 15.44 2.45
-6 -1 -4 19.45 1.75
6 1 4 19 2.55
-6 -1 -4 19.25 2.39
6 1 4 17.37 2.92
6 1 5 1.34 0.94
6 1 5 0.67 0.67
-6 -1 -5 0.66 0.45
-6 -1 -5 1.04 0.72
6 1 5 0.47 1.12
6 1 6 4.07 1.4
6 1 6 8.31 1.77
-6 -1 -6 5.7 0.99
-6 -1 -6 6.08 1.58
6 1 6 7.82 2.09
6 1 7 5.2 1.61
-6 -1 -7 6.75 1.14
-6 -1 -7 5.56 1.52
6 1 7 5.3 1.8
6 1 8 0.78 0.8
-6 -1 -8 0.39 0.4
-6 -1 -8 0.14 0.7
6 1 9 2.63 1.11
-6 -1 -9 3.83 1.01
-6 -1 -9 3.85 1.57
6 1 9 1.84 1.4
6 1 10 9.62 2.37
-6 -1 -10 7.34 1.41
-6 -1 -10 7.25 2.15
6 1 10 4.05 1.84
6 2 -8 0.22 0.62
-6 -2 7 7.7 1.69
6 2 -7 6.13 1.82
6 2 -7 6.84 1.53
-6 -2 7 9.59 1.92
-6 -2 6 0.42 0.61
6 2 -6 0.41 0.67
6 2 -6 0.65 0.49
-6 -2 6 1.86 1.01
-6 -2 5 29.72 3
-6 -2 5 30.16 3.31
6 2 -5 29.15 3
6 2 -5 32.86 3.88
-6 -2 5 25.56 2.84
-6 -2 4 9.67 1.86
-6 -2 4 11.57 1.87
6 2 -4 12.12 2.31
6 2 -4 12.23 1.91
-6 -2 4 12.81 1.93
-6 -2 3 2.7 1.07
-6 -2 3 1.61 0.78
6 2 -3 1.52 0.9
-6 -2 3 1.14 0.75
-6 -2 2 9.26 1.67
6 2 -2 9.38 1.59
-6 -2 2 9.74 1.84
-6 -2 2 12 1.65
-6 -2 1 15.58 2.31
-6 -2 1 16.35 2.21
6 2 -1 18.84 2.55
6 2 -1 17.58 2.18
-6 -2 1 18.42 1.95
6 2 0 55.23 4.39
-6 -2 0 49.68 2.98
6 2 0 45.69 3.45
-6 -2 0 54.37 4.33
-6 -2 0 48.91 3.03
-6 -2 0 44.78 3.62
-6 -2 -1 0.18 0.45
6 2 1 2.67 1.15
-6 -2 -1 1.61 0.57
6 2 1 1.23 0.73
-6 -2 -1 2.55 1.15
-6 -2 -1 2.63 0.76
-6 -2 -1 1.35 0.47
6 2 2 90.06 5.69
6 2 2 95.26 5.78
-6 -2 -2 92.48 3.82
-6 -2 -2 82.09 4.29
-6 -2 -2 83.35 5.53
-6 -2 -2 87.02 3.57
-6 -2 -2 79.23 4.67
6 2 3 15.13 2.39
-6 -2 -3 13.05 1.36
6 2 3 13.9 2.2
-6 -2 -3 16.55 2.06
6 2 3 13.3 1.59
-6 -2 -3 12.95 1.2
6 2 4 13.25 2.3
-6 -2 -4 15.72 1.44
6 2 4 15.26 1.82
-6 -2 -4 14.37 2.06
6 2 5 40 3.99
-6 -2 -5 39.15 2.33
-6 -2 -5 34.13 3.39
6 2 5 41.62 3.19
6 2 5 34.52 4.2
6 2 6 4.38 1.46
-6 -2 -6 4.45 0.83
6 2 6 4.34 1.14
6 2 6 4.05 1.59
-6 -2 -6 6.2 1.55
6 2 7 3.93 1.45
-6 -2 -7 1.79 0.62
6 2 7 1.04 0.66
6 2 7 0.89 0.97
-6 -2 -7 0.54 0.57
6 2 8 3.99 1.48
-6 -2 -8 7.5 1.21
6 2 8 5.37 1.41
-6 -2 -8 6.62 1.8
6 2 8 7.45 1.98
6 2 9 -1.52 1.11
6 2 9 -0.76 0.7
-6 -2 -9 0.57 1.1
6 2 9 0.27 1.1
6 2 10 0.92 1.06
6 2 10 1.71 0.88
-6 -2 -10 1.34 0.83
6 2 10 1.51 1.22
6 2 11 1.61 1.07
6 3 -8 0 0.59
6 3 -7 0 0.85
6 3 -7 0.05 0.65
-6 -3 6 8.55 1.71
6 3 -6 14.89 2.78
6 3 -6 8.23 1.75
-6 -3 6 8.65 1.8
-6 -3 5 4.47 1.29
6 3 -5 3.11 1.29
6 3 -5 1.97 0.99
-6 -3 5 3.29 1.09
-6 -3 4 2.53 1.06
-6 -3 4 2.5 1
6 3 -4 0.66 0.65
-6 -3 4 1.62 0.89
-6 -3 3 8.8 1.69
-6 -3 3 10.43 2.04
6 3 -3 7.46 1.57
-6 -3 3 8.36 1.54
-6 -3 2 -0.08 0.6
6 3 -2 0.93 0.6
-6 -3 2 0.59 0.67
-6 -3 2 -0.12 0.47
-6 -3 1 1.4 0.94
-6 -3 1 -0.1 0.62
6 3 -1 2.01 0.97
-6 -3 1 1.18 0.62
-6 -3 0 6.1 1.57
-6 -3 0 5.15 1.32
-6 -3 0 6.91 1.06
6 3 0 5.58 1.35
-6 -3 0 6.61 1.2
-6 -3 -1 7.77 1.55
-6 -3 -1 4.46 0.83
6 3 1 6.52 1.43
-6 -3 -1 5.16 1.03
-6 -3 -1 5.24 1.44
-6 -3 -1 4.01 0.91
6 3 2 103.1 6.15
-6 -3 -2 114.92 3.97
-6 -3 -2 105.95 4.97
6 3 2 115.92 4.53
6 3 2 111.07 5.7
-6 -3 -2 111.87 6.57
-6 -3 -2 106.72 4.26
6 3 3 128.83 7.01
-6 -3 -3 139.86 4.3
-6 -3 -3 129.63 5.96
6 3 3 143.79 5.47
-6 -3 -3 148.27 7.65
-6 -3 -3 131.3 4.5
6 3 4 19.69 2.75
-6 -3 -4 21.67 2.54
6 3 4 22.39 2.24
6 3 5 18.66 2.72
6 3 5 15.84 2
-6 -3 -5 17.61 2.42
6 3 6 1.2 0.91
6 3 6 0.49 0.52
6 3 6 -1.59 1.18
-6 -3 -6 0.07 0.67
6 3 7 7.2 1.92
6 3 7 7.18 1.49
6 3 7 5.75 1.86
-6 -3 -7 5.44 1.47
6 3 8 1.96 1.25
6 3 8 1.22 0.83
6 3 8 0.54 0.89
-6 -3 -8 1.64 1.07
6 3 9 17.52 2.94
6 3 9 19.52 2.68
6 3 9 21.9 3.55
-6 -3 -9 21.46 3.28
6 3 10 5.58 1.92
6 3 10 4.21 1.38
6 3 10 3.42 1.53
-6 -3 -10 1.78 1.36
6 3 11 6.54 2.25
6 4 -7 -0.3 0.59
-6 -4 6 1.02 0.81
6 4 -6 1.03 0.82
-6 -4 6 0.55 0.59
-6 -4 5 9.97 1.93
6 4 -5 11.05 2.01
-6 -4 5 11.28 1.94
-6 -4 4 4.13 1.24
-6 -4 4 2.37 1.2
6 4 -4 2.98 1.18
-6 -4 4 1.98 0.9
-6 -4 3 1.07 0.82
6 4 -3 0.75 0.66
-6 -4 3 1.93 0.84
-6 -4 3 1.01 0.76
-6 -4 2 6.74 1.71
-6 -4 2 8.57 1.73
6 4 -2 8.64 1.7
-6 -4 2 6.13 1.31
-6 -4 1 4.52 1.31
6 4 -1 3.15 1.04
-6 -4 1 5.66 1.58
6 4 0 35.71 3.27
-6 -4 0 40.49 3.96
-6 -4 0 36.75 3.43
-6 -4 -1 7.31 1.76
-6 -4 -1 6.73 1.52
6 4 1 5.57 1.41
6 4 1 3.85 1.18
6 4 2 83.96 5.48
-6 -4 -2 71.35 4.14
6 4 2 81.75 4.93
-6 -4 -2 81.96 5.74
6 4 3 15.61 2.44
6 4 3 18.52 1.89
-6 -4 -3 15.82 2.56
6 4 3 17 2.26
-6 -4 -3 16.73 2.11
6 4 4 24.72 3.07
6 4 4 28.75 2.54
-6 -4 -4 23.66 2.7
-6 -4 -4 30.13 3.46
6 4 5 5.09 1.45
6 4 5 5.55 1.24
-6 -4 -5 9.46 1.88
6 4 6 0.76 0.8
6 4 6 -0.35 0.54
-6 -4 -6 -0.22 0.6
6 4 7 0.3 0.62
6 4 7 -0.16 0.49
-6 -4 -7 0.69 0.82
6 4 8 2.4 1.25
6 4 8 4.05 1.22
6 4 8 2.81 1.47
-6 -4 -8 6.2 1.81
6 4 9 -0.63 0.85
6 4 9 0.45 0.73
6 4 9 0.4 0.92
-6 -4 -9 1.4 1.18
6 4 10 -0.87 0.85
6 4 10 0.72 0.73
6 4 10 0.54 0.78
-6 -4 -10 1.32 1.17
6 4 11 -2.56 1.42
-6 -5 5 2.46 1.04
6 5 -5 0.85 0.88
-6 -5 5 0.88 0.71
-6 -5 4 3.22 1.34
-6 -5 4 4.55 1.41
6 5 -4 1.54 0.89
-6 -5 4 3.06 1.13
-6 -5 3 1.58 0.84
-6 -5 3 2.33 1.12
6 5 -3 3.78 1.24
-6 -5 2 0.99 0.74
-6 -5 2 1.29 0.88
6 5 -2 0.27 0.72
-6 -5 1 6.48 1.69
-6 -5 1 4.64 1.34
6 5 -1 5.27 1.34
-6 -5 0 1.34 0.74
-6 -5 0 0.04 0.61
6 5 0 1.13 0.81
-6 -5 -1 0.89 0.86
-6 -5 -1 2.32 1.15
6 5 1 1.14 0.65
6 5 2 71.01 4.97
6 5 2 64.94 4.55
-6 -5 -2 77.45 5.68
6 5 3 63.13 4.83
6 5 3 69.64 3.87
-6 -5 -3 71.14 4.52
6 5 3 69.32 4.69
-6 -5 -3 71.98 5.5
6 5 4 4.12 1.38
6 5 4 7.72 1.37
-6 -5 -4 3.69 1.44
-6 -5 -4 5.22 1.38
6 5 5 6.98 1.77
6 5 5 8.17 1.45
-6 -5 -5 8.4 1.93
-6 -5 -5 10.46 1.95
6 5 6 0.83 0.97
6 5 6 1.28 0.68
-6 -5 -6 -0.72 0.73
6 5 7 1.23 0.84
6 5 7 0.41 0.65
-6 -5 -7 2.04 1.2
6 5 8 14.98 2.72
6 5 8 12.4 2.07
-6 -5 -8 17.08 2.92
6 5 9 15.48 2.81
6 5 9 12.06 2.12
-6 -5 -9 16.4 2.94
6 5 10 8.36 1.85
-6 -5 -10 10.7 2.48
-6 -6 4 0.6 0.59
6 6 -4 0.55 0.64
-6 -6 3 2.08 0.96
6 6 -3 -0.16 0.82
-6 -6 3 2.09 1.13
-6 -6 2 7.32 1.87
-6 -6 2 7.12 1.74
6 6 -2 4.3 1.39
-6 -6 1 -0.51 0.72
-6 -6 1 -0.89 0.97
6 6 -1 -0.5 0.69
-6 -6 0 1.29 0.82
6 6 0 -0.31 0.52
-6 -6 0 1.52 0.99
-6 -6 -1 3.24 1.15
-6 -6 -1 4.96 1.59
6 6 1 3 1.08
6 6 2 0.11 0.78
-6 -6 -2 0.09 0.83
6 6 2 0.27 0.47
-6 -6 -3 2.03 1.23
6 6 3 2.85 1.27
6 6 3 1.71 0.9
6 6 4 22.69 2.95
6 6 4 28.41 2.63
6 6 4 28.93 3.1
-6 -6 -4 31.59 3.74
6 6 5 7.5 1.82
6 6 5 4.21 1.12
-6 -6 -5 7.5 1.85
6 6 6 4.08 1.31
6 6 6 7.77 1.57
-6 -6 -6 8.09 2
-6 -6 -6 3.58 1.28
6 6 7 2.68 1.24
-6 -6 -7 1.41 1.18
6 6 7 1.96 0.92
-6 -6 -7 0.94 0.87
6 6 8 0.35 0.78
6 6 8 -0.02 0.39
-6 -6 -8 0.44 0.75
6 6 9 0.84 0.73
6 6 9 1.31 0.8
-6 -6 -9 1.06 1.14
-6 -7 3 -0.28 0.68
-6 -7 2 1.98 1.05
6 7 -2 1.29 0.88
-6 -7 2 0.8 0.93
-6 -7 1 2.77 1.18
6 7 -1 2.56 1.17
-6 -7 1 2.19 1.13
-6 -7 0 1.13 0.94
-6 -7 0 1.74 1
6 7 0 1.09 0.89
-6 -7 -1 0.05 0.69
6 7 1 1.79 1.04
-6 -7 -1 0.01 0.65
6 7 2 -0.14 0.57
-6 -7 -2 -0.16 0.78
6 7 2 -0.3 0.67
6 7 3 1.57 0.89
-6 -7 -3 1.24 0.84
6 7 3 1.89 0.88
-6 -7 -4 9.01 2.13
6 7 4 8.49 1.88
6 7 4 10.73 1.71
6 7 4 11.31 2.02
6 7 5 -0.02 0.6
6 7 5 -0.07 0.39
-6 -7 -5 0.63 0.74
6 7 6 3 1.17
6 7 6 4.54 1.24
-6 -7 -6 4.91 1.66
6 7 7 2.66 1.27
6 7 7 4.2 1.29
-6 -7 -7 3.22 1.41
6 7 8 16.67 2.85
6 7 8 12.95 2.19
-6 -7 -8 24.22 3.44
-6 -7 -8 18.35 3.12
6 7 9 1.36 1.06
6 7 9 3.04 1.26
-6 -7 -9 1.83 1.31
-6 -8 1 -0.58 0.7
-6 -8 0 10.25 2.1
6 8 0 7.77 1.9
-6 -8 0 9.16 2.23
-6 -8 -1 3.18 1.29
-6 -8 -1 1.55 1.03
6 8 1 2.78 1.12
6 8 2 7.45 1.73
-6 -8 -2 7.11 2.01
-6 -8 -3 3.44 1.31
6 8 3 3.95 1.35
-6 -8 -4 -0.28 0.74
6 8 4 0.64 0.57
-6 -8 -5 10.93 2.36
6 8 5 13.52 2.38
6 8 5 8.68 1.67
6 8 6 0.64 0.9
6 8 6 0.08 0.51
-6 -8 -6 1.33 1.15
6 8 7 -0.76 0.84
6 8 7 -0.07 0.51
-6 -8 -7 0.32 0.82
6 8 8 2.6 1.31
6 8 8 2.41 1.05
-6 -8 -8 3.36 1.49
6 9 3 5.19 1.55
-6 -9 -3 1.93 1.18
6 9 4 11.11 2.14
-6 -9 -4 7.02 1.98
-6 -9 -5 0.79 0.95
6 9 5 0.78 0.74
-6 -9 -6 4.1 1.63
6 9 6 3.82 1.2
6 9 7 3.54 1.42
6 9 7 8.26 1.83
6 9 8 1.21 0.97
7 -7 2 5.19 1.89
-7 7 -3 3.35 1.19
7 -7 3 1.76 1.26
-7 6 5 -0.3 0.57
-7 6 4 1.28 0.73
7 -6 0 0.17 0.65
7 -6 1 5.91 2.02
7 -6 2 2.97 1.33
-7 6 -3 1.48 0.94
7 -6 3 0.77 0.88
-7 6 -4 1.69 1.03
7 -6 4 3.24 1.53
-7 6 -5 1.95 0.73
7 -5 -6 6.55 1.9
-7 5 5 0.86 0.75
7 -5 -5 0.33 0.74
7 -5 -5 1.26 1.01
-7 5 4 2.75 0.97
7 -5 -4 2.77 1.49
7 -5 -4 3.33 1.3
-7 5 3 -0.14 0.58
7 -5 -3 1.62 1.17
-7 5 3 -0.4 0.69
7 -5 -3 -1.57 1.11
7 -5 -2 10.04 2.43
-7 5 2 11.27 2.09
7 -5 -2 10.74 2.4
7 -5 -1 -0.41 1.08
-7 5 1 -0.24 0.67
7 -5 -1 0.01 0.88
7 -5 0 -0.22 0.74
-7 5 0 1.22 0.79
7 -5 0 0.74 0.9
7 -5 0 2.65 1.36
7 -5 1 0.32 1.05
-7 5 -1 -0.03 0.63
7 -5 1 0.2 0.64
7 -5 1 1.99 1.28
7 -5 2 7.45 2.03
-7 5 -2 10.54 1.93
7 -5 2 5.97 1.79
7 -5 2 6.84 2.13
7 -5 3 7.71 2.02
-7 5 -3 4.61 1.35
7 -5 3 5.46 1.72
-7 5 -3 3.79 1.32
7 -5 3 3.88 1.85
7 -5 4 16.47 2.9
-7 5 -4 12.21 2.03
7 -5 4 7.23 2.01
-7 5 -4 11.72 2.2
7 -5 4 5.71 2.06
7 -5 5 -0.19 0.73
-7 5 -5 -0.03 0.53
-7 5 -6 2 1.13
-7 4 6 7.07 1.59
7 -4 -6 6.71 1.96
7 -4 -6 5.48 1.65
7 -4 -6 7.82 2.12
-7 4 5 0.82 0.69
7 -4 -5 -0.4 0.92
7 -4 -5 0.88 0.89
7 -4 -5 0.69 0.92
-7 4 4 0.7 0.79
7 -4 -4 0.01 0.67
-7 4 4 0.8 0.73
7 -4 -4 -0.2 0.88
7 -4 -4 0.28 0.71
-7 4 3 2.14 0.84
7 -4 -3 0.25 0.68
-7 4 3 4.08 1.38
7 -4 -3 2.76 1.29
-7 4 2 -0.97 0.61
7 -4 -2 -0.54 0.89
-7 4 2 -0.95 0.78
7 -4 -2 -0.42 0.91
7 -4 -1 3.79 1.66
-7 4 1 2.88 1.01
7 -4 -1 4.27 1.49
7 -4 0 3.47 1.5
-7 4 0 4.81 1.33
7 -4 0 2.96 1.37
7 -4 0 3.62 1.44
7 -4 1 0.13 0.91
-7 4 -1 0.35 0.68
7 -4 1 1.01 0.96
7 -4 1 -1.07 0.95
7 -4 2 0.28 0.82
-7 4 -2 0.44 0.6
7 -4 2 -0.54 0.7
7 -4 2 -0.8 0.95
7 -4 3 1.98 1.15
-7 4 -3 -0.1 0.57
7 -4 3 0.96 0.87
-7 4 -3 1.67 0.85
7 -4 3 0.21 0.77
7 -4 4 3.53 1.43
-7 4 -4 4.05 1.17
7 -4 4 4.23 1.61
-7 4 -4 2.89 1.19
7 -4 4 2.37 1.44
7 -4 5 -1.02 0.93
-7 4 -5 -0.44 0.59
7 -4 5 2.11 1.2
-7 4 -5 0.66 0.74
7 -4 5 0.88 1.17
7 -4 6 0.47 0.88
-7 4 -6 0.3 0.59
7 -4 6 -0.4 0.78
-7 4 -6 0.07 0.66
7 -4 7 0.58 0.8
-7 4 -7 0.09 0.83
-7 3 6 15.19 2.28
7 -3 -6 13.58 2.56
7 -3 -6 13.84 2.84
-7 3 5 12.33 1.95
7 -3 -5 9.88 2.28
7 -3 -5 15.07 2.63
7 -3 -5 10.05 2.26
-7 3 4 6.02 1.35
7 -3 -4 2.71 1.35
-7 3 4 3.82 1.29
7 -3 -4 3.68 1.39
7 -3 -4 7.14 1.86
-7 3 3 9.9 1.6
7 -3 -3 11.02 2.31
-7 3 3 9.46 1.86
7 -3 -3 9.85 2.23
-7 3 2 6.08 1.19
7 -3 -2 12.59 2.49
-7 3 2 8.5 1.72
7 -3 -2 5.34 1.68
-7 3 2 5.36 1.14
7 -3 -1 0.31 0.85
-7 3 1 0.89 0.62
7 -3 -1 0.94 0.81
-7 3 1 -0.11 0.51
-7 3 1 1.08 0.81
7 -3 0 0.62 0.89
-7 3 0 -0.08 0.53
-7 3 0 0.13 0.35
7 -3 0 0.92 0.94
-7 3 0 0.14 0.55
7 -3 1 -0.75 0.93
-7 3 -1 -0.08 0.44
-7 3 -1 0.73 0.49
7 -3 1 1.51 0.99
7 -3 1 1.66 1.21
7 -3 2 6.01 1.86
-7 3 -2 3.41 1.05
7 -3 2 1.51 1.15
7 -3 2 5.33 1.87
7 -3 3 0.63 0.82
-7 3 -3 0.07 0.48
7 -3 3 0.04 0.59
-7 3 -3 0.84 0.76
7 -3 3 0.09 0.8
7 -3 4 4.97 1.61
-7 3 -4 3.12 1.05
7 -3 4 3.13 1.24
-7 3 -4 1.49 0.94
7 -3 4 2.74 1.51
7 -3 5 2.76 1.27
-7 3 -5 4.05 1.14
7 -3 5 4.9 1.71
-7 3 -5 1.64 0.83
7 -3 5 3.44 1.96
7 -3 6 2.73 1.37
7 -3 6 1.68 1.08
-7 3 -6 1.4 0.72
-7 3 -6 2.9 1.32
7 -3 6 1.42 1.21
7 -3 7 1.89 1.21
7 -3 7 1.31 0.98
-7 3 -7 1.69 0.91
-7 3 -7 1.71 1.1
7 -3 8 -0.76 0.71
7 -2 -6 36.88 4.08
-7 2 6 38.11 3.54
-7 2 5 -0.03 0.66
7 -2 -5 0.36 0.75
7 -2 -5 0.12 0.87
-7 2 4 -0.56 0.66
7 -2 -4 -0.85 0.96
-7 2 4 0.58 0.59
7 -2 -4 0.5 0.99
-7 2 3 1.13 0.63
7 -2 -3 1.27 0.92
-7 2 3 0.19 0.58
-7 2 3 0.58 0.58
-7 2 2 7.9 1.33
-7 2 2 9.8 1.79
7 -2 -2 8.3 1.96
-7 2 2 10.32 1.84
7 -2 -2 10.42 2.16
-7 2 2 12.49 1.8
-7 2 1 1.91 0.65
7 -2 -1 0.93 0.73
-7 2 1 2.95 1.18
-7 2 1 1.56 0.76
7 -2 -1 1.79 1.16
-7 2 1 1.68 0.89
7 -2 0 1.31 0.91
-7 2 0 2.03 0.79
-7 2 0 2.28 0.89
7 -2 0 0.96 0.86
-7 2 0 2.82 1.08
-7 2 -1 48.95 3.39
7 -2 1 41.5 4.32
-7 2 -1 45.01 3.54
7 -2 1 49.41 4.7
7 -2 2 0.71 1.06
-7 2 -2 -0.07 0.37
-7 2 -2 -0.1 0.67
7 -2 2 -0.61 0.69
7 -2 2 -0.94 1.04
-7 2 -3 0.01 0.35
7 -2 3 -0.09 0.73
-7 2 -3 -0.01 0.5
-7 2 -3 0.28 0.62
7 -2 3 -1.83 1.23
7 -2 4 1.12 1.09
-7 2 -4 -0.24 0.47
-7 2 -4 -0.12 0.63
7 -2 4 -0.62 0.91
7 -2 5 3.8 1.49
7 -2 5 4.43 1.53
-7 2 -5 7.55 1.43
-7 2 -5 1.29 1.01
7 -2 5 5.44 1.99
7 -2 6 0.94 0.65
-7 2 -6 -0.11 0.47
-7 2 -6 -0.19 0.82
7 -2 6 1.54 1.11
7 -2 7 0.06 0.73
7 -2 7 0.96 0.97
-7 2 -7 -0.36 0.58
-7 2 -7 -1.26 1.2
7 -2 7 2.09 1.46
7 -2 8 0.79 0.76
-7 2 -8 0 0.39
-7 2 -8 -0.66 0.99
-7 1 6 3.65 1.19
7 -1 -6 2.63 1.24
-7 1 5 8.45 1.63
7 -1 -5 8.77 1.99
-7 1 5 6.57 1.46
7 -1 -5 5.32 1.95
-7 1 4 -0.07 0.44
7 -1 -4 -1.1 0.88
-7 1 4 0.5 0.55
-7 1 4 1.59 0.86
-7 1 3 19.96 2.36
7 -1 -3 19.52 2.94
-7 1 3 16.61 2.32
-7 1 3 18.09 2.48
-7 1 3 20.03 2.24
-7 1 2 -0.3 0.53
-7 1 2 0.28 0.6
7 -1 -2 0 0.63
-7 1 2 -0.68 0.63
-7 1 2 0.36 0.65
-7 1 1 2.47 0.75
7 -1 -1 4.18 1.54
-7 1 1 2.16 0.85
-7 1 1 4.15 1.16
-7 1 1 2.93 1.12
7 -1 0 1.44 1
-7 1 0 0.54 0.59
-7 1 0 0.24 0.68
-7 1 0 0.56 0.79
-7 1 -1 0.46 0.56
7 -1 1 2.18 1.27
-7 1 -1 0.89 0.65
-7 1 -1 1.62 1.01
-7 1 -2 0.42 0.7
7 -1 2 -0.32 0.73
-7 1 -2 -0.01 0.51
-7 1 -3 5.19 1.2
7 -1 3 6.63 1.85
-7 1 -3 6.05 1.22
-7 1 -3 6.49 1.4
7 -1 3 9.94 2.45
7 -1 4 1.57 1.14
-7 1 -4 0.11 0.46
7 -1 4 0.1 0.6
-7 1 -4 -0.27 0.35
-7 1 -4 0.13 0.6
7 -1 4 0.49 0.81
7 -1 5 5.41 1.7
7 -1 5 1.85 1.08
-7 1 -5 4.2 1
-7 1 -5 5.28 1.52
7 -1 5 3.66 1.61
7 -1 6 1.36 1.18
7 -1 6 0.4 0.83
-7 1 -6 -0.12 0.45
-7 1 -6 -0.42 0.65
7 -1 6 -1.24 1.23
7 -1 7 0.69 1
7 -1 7 -0.91 0.96
-7 1 -7 -0.82 0.59
-7 1 -7 0.63 0.94
7 -1 7 1.77 1.15
7 -1 8 -0.2 0.74
7 -1 8 2.9 1.33
-7 1 -8 1.87 0.86
-7 1 -8 3.3 1.43
-7 1 -9 1.19 0.81
-7 0 6 9.7 1.88
7 0 -6 10.3 2.12
-7 0 5 2.09 0.9
-7 0 5 2.47 1.08
7 0 -5 0.57 0.84
-7 0 5 2.55 0.9
7 0 -5 3.22 1.26
-7 0 4 1.9 0.8
7 0 -4 1.54 1
-7 0 4 2.04 0.84
7 0 -4 2.31 0.88
-7 0 4 1.06 0.69
-7 0 3 0.41 0.42
7 0 -3 1.59 1.14
-7 0 3 0.47 0.59
7 0 -3 0.29 0.5
-7 0 3 0.88 0.8
-7 0 2 10.42 1.54
7 0 -2 9.54 2.07
-7 0 2 6.89 1.34
-7 0 2 7.87 1.59
-7 0 2 7.41 1.71
7 0 -2 5.03 1.26
-7 0 1 1.46 0.62
-7 0 1 -0.43 0.85
7 0 -1 -0.36 0.87
-7 0 1 -0.23 0.57
-7 0 1 0.05 0.6
-7 0 0 2.09 0.69
-7 0 0 4.59 1.25
7 0 0 1.58 1.04
-7 0 0 2.63 0.84
-7 0 0 2.55 1.16
-7 0 -1 86.74 5.07
7 0 1 87.78 6.09
-7 0 -1 93.14 4.74
-7 0 -1 87.71 5.91
-7 0 -2 6.58 1.4
7 0 2 9.51 1.95
-7 0 -2 7.21 1.32
7 0 3 6.41 1.84
-7 0 -3 5.14 1.27
7 0 3 5.31 1.6
-7 0 -3 3.86 0.93
-7 0 -3 4.87 1.23
-7 0 -4 10.21 1.66
7 0 4 9.88 2.13
7 0 4 14.2 2.43
-7 0 -4 10.48 1.5
-7 0 -4 9.98 1.85
7 0 4 12.03 2.67
-7 0 -5 0.41 0.5
7 0 5 0.73 0.86
7 0 5 0.5 0.66
-7 0 -5 -0.14 0.48
-7 0 -5 0.59 0.51
7 0 5 1.36 1.11
7 0 6 3.91 1.47
7 0 6 5.17 1.57
-7 0 -6 4.23 0.99
-7 0 -6 1.3 1
7 0 6 3.57 1.61
7 0 7 -1.14 1
7 0 7 1.33 0.98
-7 0 -7 0.45 0.54
-7 0 -7 0.48 0.7
7 0 7 -0.36 0.99
7 0 8 2.56 1.39
7 0 8 0.15 0.62
-7 0 -8 1.33 0.69
-7 0 -8 3.8 1.46
7 0 8 1.9 1.52
-7 0 -9 1.97 1.22
-7 -1 6 0.07 0.54
-7 -1 5 0.21 0.58
-7 -1 5 -0.02 0.52
-7 -1 5 0.62 0.7
-7 -1 4 12.61 1.97
7 1 -4 12.22 2.33
-7 -1 4 11.99 2
7 1 -4 16.91 2.29
-7 -1 4 12.94 2.27
-7 -1 3 8.39 1.56
-7 -1 3 7.06 1.64
7 1 -3 6.42 1.74
-7 -1 3 5.38 1.35
7 1 -3 5.75 1.37
-7 -1 2 4.17 1.06
7 1 -2 1.35 0.86
-7 -1 2 3.67 1.06
-7 -1 2 3.48 1.14
-7 -1 2 5.79 1.56
7 1 -2 3.54 1.11
-7 -1 1 -0.57 0.49
-7 -1 1 -0.33 0.63
-7 -1 1 0.44 0.47
7 1 -1 1.53 1.15
-7 -1 1 0.78 0.63
7 1 -1 0.11 0.43
-7 -1 0 8.27 1.27
-7 -1 0 7.76 1.61
7 1 0 8.68 2.02
-7 -1 0 7.39 1.32
-7 -1 0 5.46 1.56
-7 -1 -1 20 2.46
-7 -1 -1 21.12 2.13
7 1 1 23.5 3.17
-7 -1 -1 21.97 2.97
-7 -1 -2 7.16 1.51
7 1 2 4.69 1.46
-7 -1 -2 6.96 1.22
-7 -1 -2 8.63 1.9
-7 -1 -3 5.09 1.27
7 1 3 5.96 1.6
7 1 3 3.52 1.41
-7 -1 -3 3.52 0.91
-7 -1 -4 1.38 0.67
7 1 4 1.09 0.89
7 1 4 3.61 1.23
-7 -1 -4 2.32 0.73
-7 -1 -4 1.92 0.86
7 1 5 -0.07 1.11
7 1 5 2.7 1.32
-7 -1 -5 2.55 0.7
-7 -1 -5 1.53 0.97
7 1 5 2.32 1.42
7 1 6 2.02 1.22
7 1 6 -0.15 0.64
-7 -1 -6 0.48 0.42
-7 -1 -6 -0.05 0.79
7 1 6 0.04 0.87
7 1 7 0.65 0.83
7 1 7 1.14 1.44
7 1 8 1.5 1.13
-7 -1 -8 0.27 0.9
7 1 8 -0.45 1.41
-7 -1 -9 16.01 2.95
7 2 -6 0.77 0.79
-7 -2 5 7.04 1.6
-7 -2 5 6.96 1.78
7 2 -5 6.13 1.49
-7 -2 4 -1.72 1.01
-7 -2 4 0.56 0.53
7 2 -4 0.2 0.59
-7 -2 4 -1.7 0.81
-7 -2 3 4.34 1.52
-7 -2 3 8.06 1.71
7 2 -3 3.91 1.28
-7 -2 3 4.71 1.17
-7 -2 2 3.62 1.3
7 2 -2 4.78 1.33
-7 -2 2 3.57 1.28
-7 -2 2 1.94 0.76
-7 -2 1 0.23 0.76
-7 -2 1 0.4 0.42
-7 -2 1 1.05 0.86
7 2 -1 0.73 0.58
-7 -2 1 0.18 0.43
-7 -2 0 7.98 1.86
-7 -2 0 8.15 1.75
-7 -2 0 8.24 1.32
7 2 0 7.6 1.58
-7 -2 0 8.87 1.39
-7 -2 -1 1.05 0.67
-7 -2 -1 0.21 0.36
-7 -2 -1 0.71 0.74
-7 -2 -2 0.54 0.57
-7 -2 -2 -0.7 0.75
-7 -2 -3 12.21 1.92
7 2 3 14.35 2.53
-7 -2 -3 19.26 2.87
7 2 4 1.15 1.07
-7 -2 -4 0.19 0.54
7 2 5 3.26 1.31
-7 -2 -5 1.12 0.59
7 2 6 2.71 1.2
-7 -2 -6 3.97 1.46
7 2 6 0.5 0.64
-7 -2 -7 0.38 0.68
7 2 7 -0.01 0.97
7 2 8 12.39 2.58
-7 -2 -8 14.07 2.68
7 2 8 14.23 3.12
-7 -2 -9 1.38 1.06
7 3 -6 1.45 0.94
7 3 -5 1.17 0.78
-7 -3 5 1.8 0.9
-7 -3 4 10.54 2
7 3 -4 8.14 1.75
-7 -3 4 9.63 2.15
-7 -3 4 11.51 2
-7 -3 3 0.95 0.79
-7 -3 3 -1.57 0.94
7 3 -3 -0.84 0.79
-7 -3 3 0.28 0.62
-7 -3 2 1.06 0.84
7 3 -2 1.01 0.75
-7 -3 2 1.25 0.87
-7 -3 2 1.64 0.74
-7 -3 1 1.19 0.89
-7 -3 1 -0.25 0.81
7 3 -1 1.36 0.91
-7 -3 1 0.92 0.57
7 3 0 30.45 3.15
-7 -3 0 27.09 2.48
-7 -3 0 30.1 3.63
-7 -3 0 30.24 3.25
-7 -3 -1 17.36 2.4
7 3 1 19.13 2.5
-7 -3 -1 21.94 2.11
-7 -3 -1 22.67 3.21
-7 -3 -2 0.55 0.77
-7 -3 -2 0.77 1.02
7 3 3 8.16 1.94
-7 -3 -3 7.97 1.93
7 3 4 26.29 3.48
-7 -3 -4 26.71 2.93
-7 -3 -4 29.7 3.65
7 3 5 4.08 1.68
7 3 5 1.1 0.72
-7 -3 -5 5.73 1.55
7 3 6 -0.44 0.7
7 3 6 -0.06 0.44
-7 -3 -6 0.14 0.76
7 3 7 -0.13 0.81
7 3 7 2.36 0.95
-7 -3 -7 3.08 1.45
7 3 8 2.67 1.22
7 3 8 2.73 1.09
7 3 8 4.69 1.97
-7 -3 -8 4.73 1.6
7 3 9 3.48 1.23
-7 -3 -9 2.86 1.46
-7 -4 4 1.51 1.07
7 4 -4 1.54 1
-7 -4 4 1.51 0.69
-7 -4 3 13.13 2.55
-7 -4 3 19.66 2.77
7 4 -3 12.44 2.2
-7 -4 3 18.53 2.41
-7 -4 2 4.8 1.67
-7 -4 2 1.42 0.77
7 4 -2 1.79 0.98
-7 -4 2 2.44 0.93
-7 -4 1 15.93 2.46
7 4 -1 10.47 1.97
-7 -4 1 12.27 2.44
-7 -4 1 12.3 1.83
-7 -4 0 92.31 6.56
7 4 0 82.69 5.45
-7 -4 0 80.71 4.49
-7 -4 0 87.43 5.7
7 4 1 53.24 4.3
-7 -4 -1 46.45 3.2
-7 -4 -1 55.89 5.06
-7 -4 -1 53.27 4.35
-7 -4 -2 -0.11 0.63
7 4 2 0.78 0.92
7 4 2 -0.12 0.48
7 4 3 30.1 3.63
-7 -4 -3 31.42 3.82
7 4 4 0.45 0.86
-7 -4 -4 0.62 0.86
7 4 5 2.3 1.16
-7 -4 -5 2.82 1.32
-7 -4 -5 3.71 1.29
7 4 6 1.48 1.1
7 4 6 1.27 0.83
-7 -4 -6 2.32 1.23
7 4 7 5.43 1.81
7 4 7 8.4 1.74
-7 -4 -7 11.01 2.33
7 4 8 14.86 2.88
7 4 8 14.04 2.31
-7 -4 -8 11.74 2.44
7 4 9 -0.77 0.8
-7 -4 -9 0.77 0.91
7 5 -3 0.73 0.84
-7 -5 3 -0.42 0.57
7 5 -2 0.5 0.77
-7 -5 2 -0.15 0.93
-7 -5 2 2.54 1.01
-7 -5 1 -0.31 0.99
-7 -5 1 -0.22 0.64
7 5 -1 1.01 0.85
-7 -5 1 0.16 0.47
-7 -5 0 10.36 2.09
7 5 0 11 2.06
-7 -5 0 5.56 1.69
-7 -5 -1 -0.15 0.82
-7 -5 -1 2.69 1.46
7 5 1 2.75 1.13
-7 -5 -2 9.3 2.16
-7 -5 -2 5.29 1.47
7 5 2 6.57 1.79
7 5 2 7.37 1.78
7 5 3 0.64 0.82
-7 -5 -3 -0.69 0.97
7 5 4 11.54 2.32
-7 -5 -4 11.64 2.48
7 5 5 2.11 1.18
-7 -5 -5 1.21 1
-7 -5 -5 0.29 0.73
7 5 6 0.02 0.72
7 5 6 0.64 0.65
-7 -5 -6 0.23 0.99
-7 -5 -6 -0.03 0.78
7 5 7 9.01 2.22
7 5 7 6.13 1.47
-7 -5 -7 5.58 1.76
7 5 8 1.31 0.95
-7 -5 -8 -1.46 1.13
7 5 9 1.78 1.01
-7 -5 -9 1.25 1.16
7 6 -1 3.22 1.3
-7 -6 0 46.67 4.9
7 6 0 47.28 4.37
-7 -6 0 34.67 3.81
7 6 1 24.59 3.15
-7 -6 -1 27.22 3.75
-7 -6 -1 28.98 3.34
-7 -6 -2 7.12 1.73
-7 -6 -2 10.31 2.4
7 6 2 6.26 1.67
-7 -6 -3 9.42 2.22
7 6 3 10.79 2.25
7 6 3 9.01 2.04
7 6 4 1.23 0.93
-7 -6 -4 1.31 1.1
7 6 5 5.42 1.67
-7 -6 -5 7.49 2.06
7 6 6 13.22 2.59
-7 -6 -6 18.75 3.13
-7 -6 -6 23.07 3.28
7 6 7 8.66 2.21
7 6 7 8.01 1.74
-7 -6 -7 9.61 2.31
7 6 8 23.91 3.03
-7 -6 -8 25.76 3.75
7 7 4 0.83 0.85
7 7 5 -0.01 0.75
7 7 6 2.76 1.25
-7 -7 -6 1.62 1.1
7 7 7 4.16 1.64
-7 -7 -7 2.89 1.62
7 7 8 3.21 1.2
-7 -7 -8 3.94 1.64
7 8 6 9.78 2.31
-7 -8 -7 0.53 0.61
8 -5 1 2.72 1.42
8 -4 2 4.97 2.14
-8 3 1 1.49 0.81
-8 3 0 -0.86 0.7
-8 3 -1 5.43 1.49
-8 3 -2 1.11 0.74
8 -3 2 0.48 1.12
-8 3 -3 1.23 0.77
8 -3 3 -1.95 1.38
-8 3 -4 2.49 1.03
-8 2 3 3.68 1.28
-8 2 3 1.53 0.77
-8 2 2 0.36 0.66
-8 2 2 -0.62 0.56
-8 2 1 1.37 0.79
-8 2 1 -0.11 0.52
-8 2 0 5.3 1.33
-8 2 0 7.1 1.47
-8 2 0 8.02 1.85
-8 2 -1 -0.01 0.47
-8 2 -1 0.93 0.81
-8 2 -2 -0.13 0.55
-8 2 -3 9.51 1.69
8 -2 3 7.14 2.39
-8 2 -4 1.08 0.74
-8 2 -5 0.16 0.67
-8 2 -6 0.52 0.57
-8 2 -7 21.25 3.23
-8 1 4 10.47 1.81
-8 1 4 6.69 1.68
-8 1 3 1.24 0.79
-8 1 3 0.67 0.62
-8 1 2 -0.1 0.42
-8 1 2 -0.17 0.45
-8 1 2 0.97 0.83
-8 1 1 29.57 3.03
-8 1 1 26.48 3.29
-8 1 1 26.52 2.9
8 -1 -1 22.84 3.42
8 -1 0 0.62 0.61
-8 1 0 0.68 0.73
-8 1 0 1.53 0.81
-8 1 0 -0.98 0.78
8 -1 1 1.17 0.93
-8 1 -1 2.75 1
-8 1 -1 2.06 0.93
-8 1 -1 0.94 0.84
8 -1 2 0.58 0.81
-8 1 -2 1.08 0.76
-8 1 -2 2.2 0.82
-8 1 -2 1.8 0.93
8 -1 3 -0.33 0.77
-8 1 -3 2.09 0.86
8 -1 4 3.11 1.5
-8 1 -4 2.21 0.84
8 -1 4 4.23 1.82
-8 1 -5 0.75 0.56
-8 1 -6 0.33 0.56
-8 1 -7 0.76 0.75
-8 0 4 2.39 1
-8 0 4 2.48 1.14
-8 0 3 0.37 0.46
-8 0 3 1.09 0.9
-8 0 3 0.03 0.49
8 0 -2 0.8 0.83
-8 0 2 0 0.5
-8 0 2 0.25 0.65
-8 0 1 3.26 1.29
8 0 -1 3.14 1.39
-8 0 1 1.6 0.81
-8 0 1 3.16 1.09
8 0 0 4.35 1.67
-8 0 0 0.36 0.68
-8 0 0 2.14 0.83
-8 0 0 3.99 1.39
-8 0 -1 1.69 0.84
8 0 1 6.01 1.91
-8 0 -1 5.28 1.18
-8 0 -1 2.36 1.19
-8 0 -2 1.63 0.85
8 0 2 0.98 1
-8 0 -2 1.12 0.59
-8 0 -2 -0.15 0.64
-8 0 -3 5.96 1.43
8 0 3 10.34 2.31
-8 0 -4 0.64 0.7
8 0 4 2.45 1.31
8 0 5 1.21 0.98
-8 -1 4 3.55 1.17
-8 -1 4 2.76 1.22
-8 -1 3 -0.25 0.44
-8 -1 3 0 0.58
8 1 -3 -0.19 0.57
8 1 -2 1.36 1.23
-8 -1 2 0.56 0.64
-8 -1 2 -0.35 0.64
-8 -1 1 36.72 3.63
8 1 -1 40.98 4.51
-8 -1 1 33.27 3.93
-8 -1 0 8.84 2.08
-8 -1 0 8.88 1.83
8 1 0 9.99 2.36
-8 -1 -1 5.47 1.44
8 1 1 8.59 2.18
-8 -1 -1 7.63 1.88
-8 -1 -2 3.49 1.14
8 1 2 4.87 1.6
-8 -1 -2 5.08 1.75
-8 -1 -3 0.27 0.6
8 1 3 -0.94 1.07
-8 -1 -3 -0.21 0.61
8 1 4 10.3 2.47
-8 -1 -4 8.2 1.67
8 1 4 8.66 2.14
-8 -1 -5 1.16 0.63
8 1 5 2.23 1.33
-8 -1 -6 4.98 1.34
-8 -1 -8 0.79 0.71
-8 -2 3 -0.54 0.62
-8 -2 3 -1.51 1.01
8 2 -3 1.3 0.75
8 2 -2 3.35 1.24
-8 -2 2 3.4 1.26
-8 -2 1 15.79 2.45
-8 -2 1 16.41 2.91
8 2 -1 19.7 2.7
-8 -2 0 -2.43 1.24
-8 -2 0 0.28 0.69
-8 -2 -1 -0.2 0.59
-8 -2 -1 -0.16 0.97
-8 -2 -2 4.17 1.23
-8 -2 -2 5.07 1.65
-8 -2 -3 0.43 0.64
-8 -2 -3 0.23 0.77
-8 -2 -4 -0.4 0.76
8 2 4 -0.76 1.01
-8 -2 -4 0.53 0.82
-8 -2 -5 -0.73 0.65
-8 -2 -8 0.37 0.48
-8 -3 3 0.26 0.52
-8 -3 2 2.1 0.9
8 3 -1 0.2 0.66
-8 -3 1 2.77 1.32
-8 -3 0 2.07 1.1
-8 -3 0 0.95 0.85
8 3 0 2.34 1.21
-8 -3 -1 11.05 2.43
-8 -3 -1 8.64 1.83
-8 -3 -2 0.78 0.63
-8 -3 -2 0.13 1.02
-8 -3 -3 2.18 0.96
-8 -3 -3 3.47 1.49
-8 -3 -4 1.4 0.88
8 3 4 1.89 1.26
-8 -4 2 6.59 1.48
8 4 4 0.61 0.78
8 5 4 1.56 1.11

_cod_database_fobs_code 2243000
