#------------------------------------------------------------------------------
#$Date: 2021-07-10 07:41:05 +0300 (Sat, 10 Jul 2021) $
#$Revision: 267456 $
#$URL: file:///home/coder/svn-repositories/cod/cif/2/24/38/2243864.cif $
#------------------------------------------------------------------------------
#
# This file is available in the Crystallography Open Database (COD),
# http://www.crystallography.net/. The original data for this entry
# were provided by IUCr Journals, http://journals.iucr.org/.
#
# The file may be used within the scientific community so long as
# proper attribution is given to the journal article from which the
# data were obtained.
#
data_2243864
loop_
_publ_author_name
'Purandara, H.'
'Foro, Sabine'
'Thimme Gowda, B.'
_publ_section_title
;
 Crystal structures of three <i>N</i>-acylhydrazone isomers
;
_journal_coeditor_code           MW2177
_journal_issue                   8
_journal_name_full               'Acta Crystallographica Section E'
_journal_page_first              780
_journal_page_last               784
_journal_paper_doi               10.1107/S2056989021006885
_journal_volume                  77
_journal_year                    2021
_chemical_formula_iupac          'C15 H13 Cl2 N3 O3 S'
_chemical_formula_moiety         'C15 H13 Cl2 N3 O3 S'
_chemical_formula_sum            'C15 H13 Cl2 N3 O3 S'
_chemical_formula_weight         386.24
_chemical_name_systematic
(<i>E</i>)-4-Chloro-<i>N</i>-{2-[2-(3-chlorobenzylidene)hydrazinyl]-2-oxoethyl}benzenesulfonamide
_space_group_crystal_system      triclinic
_space_group_IT_number           2
_space_group_name_Hall           '-P 1'
_space_group_name_H-M_alt        'P -1'
_atom_sites_solution_hydrogens   mixed
_atom_sites_solution_primary     direct
_atom_sites_solution_secondary   difmap
_audit_creation_method           <i>SHELXL2014/6</i>
_cell_angle_alpha                67.220(10)
_cell_angle_beta                 66.800(10)
_cell_angle_gamma                86.320(10)
_cell_formula_units_Z            2
_cell_length_a                   9.4910(10)
_cell_length_b                   9.9760(10)
_cell_length_c                   10.4460(10)
_cell_measurement_reflns_used    2850
_cell_measurement_temperature    293(2)
_cell_measurement_theta_max      27.93
_cell_measurement_theta_min      2.55
_cell_volume                     833.59(18)
_computing_cell_refinement
;
CrysAlis RED (Oxford Diffraction, 2009)
;
_computing_data_collection
;
CrysAlis CCD (Oxford Diffraction, 2009)
;
_computing_data_reduction
;
CrysAlis RED (Oxford Diffraction, 2009)
;
_computing_molecular_graphics
;
PLATON (Spek, 2020)
;
_computing_publication_material
;
<i>SHELXL2014/6</i> (Sheldrick, 2015)
;
_computing_structure_refinement
;
<i>SHELXL2014/6</i> (Sheldrick, 2015)
;
_computing_structure_solution
;
<i>SHELXS2013/1</i> (Sheldrick, 2008)
;
_diffrn_ambient_temperature      293(2)
_diffrn_measured_fraction_theta_full 0.991
_diffrn_measured_fraction_theta_max 0.986
_diffrn_measurement_device_type
;
Oxford Diffraction Xcalibur with Sapphire CCD
;
_diffrn_measurement_method
;
Rotation method data acquisition using omega scans.
;
_diffrn_radiation_type           'Mo K\a'
_diffrn_radiation_wavelength     0.71073
_diffrn_reflns_av_R_equivalents  0.0183
_diffrn_reflns_av_unetI/netI     0.0261
_diffrn_reflns_limit_h_max       11
_diffrn_reflns_limit_h_min       -11
_diffrn_reflns_limit_k_max       12
_diffrn_reflns_limit_k_min       -12
_diffrn_reflns_limit_l_max       12
_diffrn_reflns_limit_l_min       -13
_diffrn_reflns_number            5759
_diffrn_reflns_theta_full        25.242
_diffrn_reflns_theta_max         26.370
_diffrn_reflns_theta_min         2.548
_diffrn_source                   'fine-focus sealed tube'
_exptl_absorpt_coefficient_mu    0.534
_exptl_absorpt_correction_T_max  0.9585
_exptl_absorpt_correction_T_min  0.8311
_exptl_absorpt_correction_type   multi-scan
_exptl_absorpt_process_details
;
(CrysAlis RED, Oxford Diffraction, 2009)
;
_exptl_crystal_colour            colourless
_exptl_crystal_density_diffrn    1.539
_exptl_crystal_description       prism
_exptl_crystal_F_000             396
_exptl_crystal_size_max          0.360
_exptl_crystal_size_mid          0.140
_exptl_crystal_size_min          0.080
_refine_diff_density_max         0.274
_refine_diff_density_min         -0.391
_refine_ls_extinction_method     none
_refine_ls_goodness_of_fit_ref   1.216
_refine_ls_hydrogen_treatment    mixed
_refine_ls_matrix_type           full
_refine_ls_number_parameters     223
_refine_ls_number_reflns         3354
_refine_ls_number_restraints     2
_refine_ls_restrained_S_all      1.216
_refine_ls_R_factor_all          0.0731
_refine_ls_R_factor_gt           0.0535
_refine_ls_shift/su_max          0.002
_refine_ls_shift/su_mean         0.000
_refine_ls_structure_factor_coef Fsqd
_refine_ls_weighting_details
'w=1/[\s^2^(Fo^2^)+(0.0148P)^2^+1.1114P] where P=(Fo^2^+2Fc^2^)/3'
_refine_ls_weighting_scheme      calc
_refine_ls_wR_factor_gt          0.0979
_refine_ls_wR_factor_ref         0.1078
_reflns_number_gt                2688
_reflns_number_total             3354
_reflns_threshold_expression     'I > 2\s(I)'
_cod_data_source_file            mw2177sup1.cif
_cod_data_source_block           II
_cod_original_cell_volume        833.59(17)
_cod_database_code               2243864
_shelx_space_group_comment
;
The symmetry employed for this shelxl refinement is uniquely defined
by the following loop, which should always be used as a source of
symmetry information in preference to the above space-group names.
They are only intended as comments.
;
_shelx_estimated_absorpt_t_min   0.831
_shelx_estimated_absorpt_t_max   0.959
_shelx_hkl_file
;
   0   0   2 91807.4 491.434   5
   0   0  -2 88999.8 430.747   6
   0   0   2 92792.7 523.102   2
   0   0   3 7514.93 44.1856   5
   0   0   3 7496.49 46.6747   2
   0   0  -3 7478.01 38.1641   6
   0   0   4 1474.13 24.0725   5
   0   0   4 1431.01 25.7735   2
   0   0  -4 1400.63 20.2436   6
   0   0  -5 377.762 13.2015   6
   0   0   5 347.615 16.7586   2
   0   0   6 47.2945 13.3330   2
   0   0  -6 50.4773 9.87691   6
   0   0   7 1113.57 31.4018   2
   0   0   8 123.714 17.7055   2
   0   0   9 28.1034 17.5683   2
   0   0  10 595.029 32.8370   2
   0   0  11 112.478 24.4616   2
   0  -1  10 323.152 29.2280   2
   0  -1   9 163.327 21.2986   2
   0  -1   8 17.0569 14.8435   2
   0  -1   7 272.085 19.9605   2
   0  -1   6 88.1673 13.6643   5
   0  -1   6 101.062 15.2982   2
   0  -1   5 5020.08 49.1220   5
   0   1  -5 5101.94 37.0645   6
   0  -1   5 4988.87 53.1476   2
   0   1  -4 2283.36 22.0950   6
   0  -1   4 2264.18 33.0223   2
   0  -1   4 2278.80 30.1892   5
   0  -1   3 6380.71 46.8763   2
   0   1  -3 6448.28 30.2404   6
   0  -1   3 6345.83 42.6673   5
   0  -1   2 17922.4 59.3856   5
   0  -1   2 18152.5 65.4262   2
   0  -1   1 33.4262 7.16340   2
   0  -1   1 31.8821 5.69427   5
   0   1   2 1055.41 15.0688   2
   0  -1  -2 1065.95 13.0519   1
   0  -1  -2 1025.93 14.7469   6
   0   1   3 608.626 15.4877   2
   0  -1  -3 659.367 14.8198   6
   0  -1  -4 2092.52 26.7722   6
   0   1   4 1984.03 28.2286   2
   0  -1  -5 1627.16 26.6453   6
   0   1   5 1718.12 29.6274   2
   0  -1  -6 68.7192 11.6070   6
   0   1   6 76.1513 14.4596   2
   0   1   7 59.6668 15.1609   2
   0  -1  -7 103.288 12.7698   6
   0   1   8 850.262 30.3421   2
   0   1   9 1407.28 39.9936   2
   0   1  10 1422.19 42.5998   2
   0   1  11 117.544 17.9336   2
   0  -2  10 77.2893 21.1353   2
   0  -2   9 302.199 25.1283   2
   0  -2   8 272.828 22.2220   2
   0  -2   7 153.783 18.0711   2
   0  -2   6 48.1496 13.3874   5
   0  -2   6 65.1746 15.5016   2
   0   2  -5 44.2074 10.4097   4
   0  -2   5 57.7987 13.7965   2
   0  -2   5 38.6963 12.5029   5
   0   2  -4 1382.64 21.1312   4
   0  -2   4 1274.07 25.1299   5
   0  -2   4 1379.29 28.9876   2
   0  -2   3 1085.10 22.7181   2
   0   2  -3 1093.83 16.7839   4
   0  -2   3 1087.91 20.4767   5
   0  -2   2 739.649 17.8174   2
   0   2  -2 754.089 12.4627   4
   0  -2   2 762.033 15.5784   5
   0  -2   1 6414.02 35.6948   5
   0   2  -1 6414.36 29.0932   4
   0  -2   1 6331.42 39.7797   2
   0   2   0 4087.68 23.4839   4
   0  -2   0 4149.11 29.0344   2
   0   2   1 27986.2 262.790   4
   0  -2  -1 26528.1 252.326   6
   0  -2  -2 2589.84 19.7595   1
   0  -2  -2 2575.60 24.8446   6
   0  -2  -3 1021.96 15.5197   1
   0   2   3 1024.99 18.4731   2
   0  -2  -3 1053.79 19.0871   6
   0  -2  -4 13535.0 60.5095   1
   0  -2  -4 13904.8 69.8819   6
   0   2   4 13755.0 70.7377   2
   0  -2  -5 10.8160 8.41833   1
   0  -2  -5 8.34774 10.6936   6
   0   2   5-2.98515 10.4316   2
   0  -2  -6 841.617 23.2935   6
   0   2   6 812.004 24.0007   2
   0  -2  -7 308.548 17.6623   6
   0   2   7 312.953 18.9482   2
   0  -2  -8 54.2164 13.4590   6
   0   2   8 67.0444 16.0181   2
   0   2   9 91.8634 16.7837   2
   0  -2  -9 65.2418 13.5486   1
   0   2  10 118.220 18.0410   2
   0   2  11 18.5651 17.0165   2
   0  -3   9 891.026 38.8529   2
   0  -3   8 23.2479 18.8003   2
   0  -3   7 1078.41 35.6291   2
   0  -3   6 507.489 25.3974   2
   0  -3   5 1033.72 26.7935   5
   0  -3   5 1089.58 30.4816   2
   0  -3   4 2005.05 32.9370   5
   0   3  -4 1985.59 25.5346   4
   0  -3   4 1976.43 35.6673   2
   0   3  -3 5325.23 36.9176   4
   0  -3   3 5699.57 53.6245   2
   0  -3   3 5350.54 46.7711   5
   0  -3   2 4536.16 43.6021   2
   0   3  -2 4578.25 31.7474   4
   0  -3   2 4626.69 39.9628   5
   0   3  -1 396.640 11.0213   4
   0  -3   1 400.802 14.5577   2
   0  -3   1 378.671 12.8032   5
   0   3   0 3452.04 26.8068   4
   0  -3   0 3407.66 21.5128   6
   0  -3   0 3495.49 33.1412   2
   0   3   1 71841.0 501.012   4
   0  -3  -1 72479.1 477.819   6
   0  -3  -2 383.582 12.5325   6
   0  -3  -3 18704.6 79.0616   6
   0  -3  -3 18997.7 63.0187   1
   0  -3  -4 353.810 16.1776   6
   0  -3  -4 334.430 11.7392   1
   0  -3  -5 2626.99 36.5936   6
   0   3   5 2536.90 35.3466   2
   0  -3  -5 2541.80 29.6454   1
   0  -3  -6 2136.59 35.7684   6
   0  -3  -6 2176.01 30.9683   1
   0   3   6 2072.96 35.7584   2
   0  -3  -7 162.648 12.4739   1
   0   3   7 168.591 15.4194   2
   0  -3  -7 238.615 17.4125   6
   0  -3  -8-4.78025 14.1132   6
   0   3   8-3.24921 13.4601   2
   0  -3  -8 15.2307 10.9215   1
   0   3   9 310.916 22.4869   2
   0  -3  -9 292.770 19.8087   6
   0   3  10-0.26502 12.6135   2
   0   3  11 578.309 29.7957   2
   0  -4   9 47.6233 23.3533   2
   0  -4   8-19.1703 18.0908   2
   0  -4   7 94.0198 20.9862   2
   0  -4   6 7.10782 16.5538   2
   0  -4   5-15.5262 14.6102   2
   0  -4   4 2247.44 37.0247   5
   0  -4   4 2205.90 40.9004   2
   0  -4   3 58.7463 11.2571   5
   0  -4   3 68.6132 14.0696   2
   0   4  -2 1749.96 22.8515   4
   0  -4   2 1721.72 31.4922   2
   0  -4   2 1743.68 28.6862   5
   0  -4   1 37.4521 10.4467   5
   0   4  -1 37.6144 8.41372   4
   0  -4   1 30.9981 11.1721   2
   0  -4   0 4.09856 11.1510   2
   0  -4   0 8.11199 9.92100   5
   0  -4   0 3.33557 5.20247   6
   0   4   0-3.14173 8.23112   4
   0  -4  -1 3253.23 29.1381   6
   0  -4  -1 3278.56 36.0965   2
   0   4   1 3342.89 31.4520   4
   0  -4  -2 0.96604 9.48790   6
   0   4   2 9.39489 10.1926   4
   0  -4  -3 1847.27 28.6347   6
   0  -4  -4 1403.64 21.4859   1
   0  -4  -4 1358.28 27.3088   6
   0  -4  -5 1888.90 33.9590   6
   0  -4  -5 1800.81 25.5702   1
   0  -4  -6 1389.04 24.9813   1
   0  -4  -6 1393.36 32.5462   6
   0  -4  -7 676.632 25.0422   6
   0  -4  -7 614.932 19.3047   1
   0   4   7 613.164 23.8542   2
   0   4   8 1150.14 33.0696   2
   0  -4  -8 1099.38 26.4313   1
   0  -4  -8 1103.75 31.6326   6
   0   4   9 36.9938 15.7356   2
   0  -4  -9 123.801 18.0618   6
   0  -4 -10-5.02860 19.5167   6
   0   4  10 8.76067 13.7884   2
   0   4  11 905.586 35.4876   2
   0   4  12 25.6741 15.2341   2
   0  -5   8 341.494 28.3839   2
   0  -5   7 36.0732 15.9868   2
   0  -5   6 173.187 20.8441   2
   0  -5   5 220.950 21.6988   2
   0  -5   4 50.0197 14.1492   5
   0  -5   4 52.4474 16.6392   2
   0  -5   3 32.7489 13.8328   2
   0  -5   3 73.1840 13.3164   5
   0  -5   2 1983.29 37.3228   2
   0  -5   2 1940.62 32.8502   5
   0  -5   1 1983.82 31.5479   5
   0   5  -1 2060.01 27.2609   4
   0  -5   1 1948.19 34.6356   2
   0  -5   0 9057.70 62.3803   5
   0  -5   0 8890.34 67.6073   2
   0   5   0 8977.58 54.4380   4
   0  -5   0 8714.09 43.0212   6
   0  -5  -1 19297.5 74.7236   6
   0   5   1 19400.5 81.9487   4
   0  -5  -1 19132.9 95.6518   2
   0  -5  -2 5053.39 43.5218   6
   0   5   2 5233.38 46.0782   4
   0  -5  -3 25327.1 104.151   6
   0  -5  -4 1902.32 33.0030   6
   0  -5  -5 290.057 18.2861   6
   0  -5  -5 321.330 13.0167   1
   0  -5  -6 480.986 22.1887   6
   0  -5  -6 496.624 15.9656   1
   0  -5  -7 887.062 29.3980   6
   0  -5  -7 824.135 21.8126   1
   0  -5  -8 448.702 24.3664   6
   0  -5  -9 491.347 26.7143   6
   0   5  10 1853.44 46.2831   2
   0  -5 -10 1783.51 44.7008   6
   0  -5 -11 1290.92 41.1170   6
   0   5  11 1097.47 40.1325   2
   0   5  12 208.751 20.2361   2
   0  -6   7 261.873 26.6545   2
   0  -6   6 453.638 29.0894   2
   0  -6   5 140.271 19.2548   2
   0  -6   4 97.6542 17.6897   2
   0  -6   3 552.316 23.6601   5
   0  -6   3 533.554 25.5509   2
   0  -6   2 131.707 17.9041   2
   0  -6   2 135.133 15.2958   5
   0  -6   1 9.46902 14.7251   2
   0  -6   1 1.02500 12.1548   5
   0  -6   0 186.696 15.5351   5
   0  -6   0 191.014 16.9281   2
   0   6   0 166.990 13.3395   4
   0   6   1 843.260 21.5915   4
   0  -6  -1 800.206 18.3904   6
   0  -6  -1 842.850 26.3312   2
   0   6   2 3764.27 43.4401   4
   0  -6  -2 3805.62 40.3235   6
   0  -6  -2 3730.75 47.2387   2
   0  -6  -3 1247.33 27.0087   6
   0  -6  -4 5532.59 56.5273   6
   0  -6  -5 32.3446 14.2986   6
   0  -6  -6 1102.84 31.8663   6
   0  -6  -7 2339.80 45.8599   6
   0  -6  -8 1281.84 37.5949   6
   0  -6  -9 656.797 30.3962   6
   0  -6 -10 7.82197 18.5747   6
   0  -6 -11 326.561 27.2445   6
   0  -7   6 185.267 24.6581   2
   0  -7   5 102.886 21.8969   2
   0  -7   4 92.6573 20.7411   2
   0  -7   3 218.462 21.9690   2
   0  -7   2 52.4053 17.8943   2
   0  -7   2 10.2099 15.0498   5
   0  -7   1 12.8632 15.5122   2
   0  -7   1-14.2405 14.2975   5
   0   7   0 191.787 15.2661   4
   0  -7   0 192.250 19.6523   2
   0  -7   0 204.657 17.3498   5
   0  -7  -1 397.711 22.3862   2
   0  -7  -1 370.654 20.0843   5
   0   7   1 417.011 19.0774   4
   0  -7  -2 87.0533 16.1659   2
   0   7   2 62.0975 14.6853   4
   0  -7  -2 57.8865 10.1301   6
   0  -7  -3 26.9075 15.4420   2
   0  -7  -3 38.9195 11.3071   6
   0  -7  -4 125.456 15.0076   6
   0  -7  -5 162.316 16.7829   6
   0  -7  -6 112.004 18.7659   6
   0  -7  -7 29.5028 16.9679   6
   0  -7  -8 328.488 23.9889   6
   0  -7  -9 44.4791 18.3103   6
   0  -7 -10 33.9935 18.0299   6
   0  -7 -11 84.5417 20.9241   6
   0  -7 -12 575.033 35.3483   6
   0  -8   5 404.809 29.9998   2
   0  -8   4 155.655 22.4564   2
   0  -8   3 302.006 25.3557   2
   0  -8   2 238.984 24.9257   2
   0  -8   1 191.513 20.6682   5
   0  -8   1 146.629 20.1381   2
   0  -8   0 393.689 25.9219   2
   0  -8   0 384.596 23.2556   5
   0  -8  -1 4552.38 63.2722   2
   0  -8  -1 4563.53 58.7585   5
   0  -8  -2 2085.05 44.3146   2
   0   8   2 2152.64 38.5498   4
   0  -8  -3 2021.14 43.4296   2
   0  -8  -3 2129.96 37.1215   6
   0  -8  -4 3787.68 51.7364   6
   0  -8  -5 989.319 30.3422   6
   0  -8  -6 878.597 30.5759   6
   0  -8  -7 631.514 29.1552   6
   0  -8  -8-6.56459 16.9586   6
   0  -8  -9 96.9468 23.1307   6
   0  -8 -10 11.5612 21.7939   6
   0  -8 -11 673.144 35.0218   6
   0  -9   4 6.04156 21.3081   2
   0  -9   3-69.6065 20.5420   2
   0  -9   2 28.6629 21.5953   2
   0  -9   1 247.339 23.8887   2
   0  -9   0 48.4663 18.4459   5
   0  -9   0 10.7506 17.5653   2
   0  -9  -1 50.9417 18.6684   2
   0  -9  -1 42.4816 17.6039   5
   0  -9  -2 31.2522 17.6677   5
   0  -9  -2-11.3943 18.1588   2
   0  -9  -3 28.5863 16.4795   2
   0  -9  -4 462.757 26.6674   2
   0  -9  -4 493.980 23.9898   6
   0  -9  -5 8.28098 14.9037   6
   0  -9  -6 73.7755 18.7323   6
   0  -9  -7 66.2821 18.2300   6
   0  -9  -8 683.115 33.3835   6
   0  -9  -9 113.663 23.7156   6
   0  -9 -10 295.499 30.1384   6
   0  -9 -11 188.926 30.1729   6
   0 -10   1 20.6597 19.7612   2
   0 -10   0 66.9297 20.6711   5
   0 -10   0 129.262 24.3928   2
   0 -10  -1 407.511 26.8824   5
   0 -10  -1 315.060 25.8811   2
   0 -10  -2 528.754 30.0887   2
   0 -10  -2 606.918 31.0516   5
   0 -10  -3 73.7740 20.3022   2
   0 -10  -4 24.8782 18.4323   2
   0 -10  -5 255.135 23.6581   2
   0 -10  -5 183.658 19.3505   6
   0 -10  -6 39.6040 17.3286   6
   0 -10  -7 22.9700 17.2771   6
   0 -10  -8 36.8178 21.5002   6
   0 -10 -10 88.7859 24.2389   6
   0 -11   1-5.80397 23.0220   2
   0 -11   0 13.3385 21.9361   2
   0 -11  -1 202.091 26.7408   2
   0 -11  -1 152.256 25.7658   5
   0 -11  -2 754.542 37.3369   2
   0 -11  -2 756.418 37.2028   5
   0 -11  -3 1576.13 46.5301   5
   0 -11  -3 1427.43 47.0883   2
   0 -11  -4 558.828 35.3537   2
   0 -11  -5 864.449 38.5129   2
   0 -11  -6 785.378 39.2375   2
   0 -11  -6 946.794 35.5677   6
   0 -11  -7 1267.48 43.5524   6
   0 -11  -8 1033.43 42.9965   6
   0 -11  -9 1057.88 43.7708   6
   0 -12  -2 88.2749 24.6392   2
   0 -12  -2 195.455 33.0809   5
   0 -12  -3-41.0877 23.2576   2
   0 -12  -3 152.444 32.9497   5
   0 -12  -4 136.177 26.0616   5
   0 -12  -4 21.9481 22.7280   2
   0 -12  -5-0.60317 22.9950   2
   0 -12  -6 51.6554 25.6400   2
   0 -12  -7 25.0611 24.3504   2
   0 -12  -8 58.5220 23.3872   6
   1 -12  -8-23.1686 27.2070   6
   1 -12  -7 115.892 24.4958   6
   1 -12  -6 54.3040 27.5612   2
   1 -12  -5 34.0110 21.8569   2
   1 -12  -4 310.504 30.8160   2
   1 -12  -4 370.438 34.0776   5
   1 -12  -3 430.428 35.1091   2
   1 -12  -3 523.917 37.7959   5
   1 -12  -2 82.1539 27.5447   2
   1 -12  -2 189.412 33.1303   5
   1 -12  -1 590.882 38.3823   5
   1 -11  -9 115.420 28.3024   6
   1 -11  -8 592.149 36.6287   6
   1 -11  -7 61.7339 21.9484   6
   1 -11  -6 415.385 28.9133   6
   1 -11  -5 60.1539 21.3615   2
   1 -11  -4 68.6619 22.9643   2
   1 -11  -3 21.7974 22.8811   2
   1 -11  -3-9.67289 22.5904   5
   1 -11  -2 16.6467 25.1770   5
   1 -11  -2 2.04703 20.0715   2
   1 -11  -1-6.86774 18.7668   2
   1 -11   0-35.1218 24.2847   5
   1 -11   0 71.0206 23.3033   2
   1 -11   1 56.3693 25.1761   2
   1 -10  -9 88.8990 21.6291   6
   1 -10  -8 265.353 26.1917   6
   1 -10  -6-23.1794 18.8900   6
   1 -10  -5 2.88643 17.3103   6
   1 -10  -4 113.865 21.9961   2
   1 -10  -3 1478.78 44.2678   2
   1 -10  -2 512.768 29.4411   2
   1 -10  -2 595.879 32.1358   5
   1 -10  -1 571.971 31.0571   2
   1 -10  -1 644.217 33.2548   5
   1 -10   0 544.750 32.6327   5
   1 -10   0 480.696 30.2388   2
   1 -10   1 24.3579 21.2072   5
   1 -10   1 44.3786 19.3328   2
   1 -10   2 370.586 30.7487   2
   1 -10   3-58.6512 23.3152   2
   1  -9 -10 490.530 33.1014   6
   1  -9  -9 727.816 36.5570   6
   1  -9  -8 1304.07 42.5370   6
   1  -9  -7 740.011 33.8700   6
   1  -9  -6 1675.93 43.1136   6
   1  -9  -5 747.618 29.1148   6
   1  -9  -4 930.529 34.4200   2
   1  -9  -4 994.929 31.9558   6
   1  -9  -3 6.06990 18.3821   2
   1  -9  -2 417.535 26.7471   5
   1  -9  -2 353.829 25.1038   2
   1  -9  -1 56.2141 19.7485   5
   1  -9  -1 55.6991 18.2698   2
   1  -9   0 615.551 30.0778   2
   1  -9   0 518.285 28.6653   5
   1  -9   1 69.3336 21.7518   5
   1  -9   1 31.9135 16.4679   2
   1  -9   2 166.836 24.6805   5
   1  -9   2 187.823 23.6024   2
   1  -9   3 32.4399 18.7922   2
   1  -9   4 32.5911 24.4588   2
   1  -8 -11 86.4157 24.7810   6
   1  -8 -10 165.657 23.5236   6
   1  -8  -9 14.4615 17.5977   6
   1  -8  -8 32.9500 19.1497   6
   1  -8  -7 27.2475 16.9728   6
   1  -8  -6 700.143 29.4850   6
   1  -8  -5 378.297 22.8044   6
   1  -8  -4 64.9681 15.5006   6
   1  -8  -3-3.39920 12.3268   6
   1  -8  -3-4.74757 16.5442   2
   1  -8  -2 234.060 21.8708   2
   1  -8  -1 1443.44 36.8346   5
   1  -8  -1 1403.89 36.9793   2
   1  -8   0 146.545 19.4794   5
   1  -8   0 98.0472 17.7895   2
   1  -8   1 171.941 19.8245   2
   1  -8   1 129.925 19.0281   5
   1  -8   2 4.25551 17.7345   5
   1  -8   2-5.45866 17.4183   2
   1  -8   3 35.6910 20.2918   5
   1  -8   3 15.5462 17.4964   2
   1  -8   4 323.731 27.9028   2
   1  -8   5 320.930 28.3479   2
   1  -8   6 128.686 24.9674   2
   1  -7 -11 701.249 34.3677   6
   1  -7 -10-13.5182 18.4736   6
   1  -7  -9 356.359 26.2585   6
   1  -7  -8 38.1512 20.0681   6
   1  -7  -7 30.7863 16.6300   6
   1  -7  -6 157.766 19.1997   6
   1  -7  -5 745.515 27.2303   6
   1  -7  -4 187.850 16.5554   6
   1  -7  -3 19.5694 12.6485   6
   1  -7  -2 789.086 26.6363   2
   1  -7  -2 814.741 22.4180   6
   1  -7  -1 238.701 19.6430   2
   1  -7  -1 188.401 17.7203   5
   1  -7   0 3936.33 54.9932   2
   1  -7   0 4054.09 53.7283   5
   1  -7   1 970.840 30.5899   2
   1  -7   1 998.942 30.0927   5
   1  -7   2 1183.61 32.1845   5
   1  -7   2 1175.88 34.3446   2
   1  -7   3 2511.80 50.0988   2
   1  -7   3 2579.68 48.6341   5
   1  -7   4 384.991 27.0792   2
   1  -7   4 374.249 24.7499   5
   1  -7   5 505.878 28.9975   2
   1  -7   6-0.77543 20.0946   2
   1  -7   7-17.8354 20.0547   2
   1  -6 -12 252.259 30.3484   6
   1  -6 -11 560.769 34.3027   6
   1  -6 -10 710.001 33.8578   6
   1  -6  -9 619.648 29.9940   6
   1  -6  -8 2454.20 50.5787   6
   1  -6  -7 1581.54 39.8516   6
   1  -6  -6 739.267 28.5513   6
   1  -6  -5 4491.66 56.5541   6
   1  -6  -4 1535.66 32.2397   6
   1  -6  -3 3514.50 43.9670   6
   1  -6  -2 5603.70 50.5221   6
   1  -6  -1 315.620 10.7113   0
   1  -6  -1 343.372 13.8881   6
   1  -6  -1 301.101 18.2190   2
  -1   6   0 127.397 11.7157   4
   1  -6   0 132.785 15.2395   2
   1  -6   0 122.425 15.3943   5
   1  -6   1 600.667 22.8816   5
   1  -6   1 555.221 22.6667   2
   1  -6   2 181.159 18.3025   2
   1  -6   2 196.885 17.6256   5
   1  -6   3 36.5242 15.1930   5
   1  -6   3 19.4414 15.8365   2
   1  -6   4 544.517 25.5905   5
   1  -6   4 545.427 27.1374   2
   1  -6   5-14.9838 16.3974   2
   1  -6   6-30.9595 19.1857   2
   1  -6   7-59.7015 16.9700   2
   1  -6   8 3.84426 19.5587   2
  -1   5  11 248.311 24.7898   2
   1  -5 -11 130.695 22.8901   6
  -1   5  10 432.133 27.8498   2
   1  -5 -10 476.335 28.8759   6
   1  -5  -9 525.177 27.9223   6
  -1   5   9 580.304 27.4605   2
   1  -5  -8 50.4431 16.7012   6
   1  -5  -7 25.1773 14.9873   6
   1  -5  -6 138.927 17.5247   6
   1  -5  -5 353.524 20.2137   6
   1  -5  -4 229.019 16.4605   6
   1  -5  -3 983.857 23.8790   6
   1  -5  -2 52.0758 10.9237   6
   1  -5  -1 2619.21 30.8053   6
   1  -5  -1 2544.31 36.1886   2
   1  -5  -1 2543.37 23.6947   0
   1  -5   0 9383.80 67.1107   5
   1  -5   0 9198.98 67.6215   2
  -1   5   0 9460.34 53.1722   4
   1  -5   0 9218.32 49.2242   6
   1  -5   1 3330.59 42.8736   2
  -1   5  -1 3206.98 29.9913   4
   1  -5   1 3245.99 41.3541   5
   1  -5   2 4657.56 52.8483   2
   1  -5   2 4680.78 51.3102   5
   1  -5   3 1607.72 33.9250   5
   1  -5   3 1570.10 34.4258   2
   1  -5   4 508.235 23.5071   2
   1  -5   4 559.771 24.2232   5
   1  -5   5 588.859 26.3811   2
   1  -5   5 614.156 26.6408   5
   1  -5   6 9.49069 15.8762   2
   1  -5   7 74.5898 21.2248   2
   1  -5   8-7.22878 18.2008   2
  -1   4  11 285.570 19.0271   2
   1  -4 -10 640.733 30.1913   6
  -1   4  10 644.058 31.7636   2
  -1   4   9 858.615 32.4104   2
   1  -4  -9 872.060 32.0729   6
  -1   4   8 1258.40 35.5031   2
   1  -4  -8 1269.21 34.8188   6
  -1   4   7 392.333 20.8693   2
   1  -4  -7 379.620 21.8896   6
   1  -4  -6 451.907 21.1726   6
   1  -4  -6 405.504 14.1068   1
  -1   4   6 407.994 19.3741   2
   1  -4  -5 7174.23 46.2095   1
   1  -4  -5 7121.66 63.4653   6
   1  -4  -4 1605.30 20.1913   1
   1  -4  -4 1570.65 29.6686   6
   1  -4  -3 23486.3 98.6986   6
  -1   4   3 22359.6 148.118   0
   1  -4  -2 1037.14 21.2619   6
   1  -4  -1 8096.01 48.7010   6
   1  -4  -1 8100.11 36.1168   0
   1  -4   0 1009.59 22.0470   2
  -1   4   0 999.878 16.9366   4
   1  -4   0 997.752 21.9122   5
   1  -4   0 982.558 16.0940   6
  -1   4  -1 1345.19 17.6539   4
   1  -4   1 1067.08 13.4014   6
   1  -4   1 1384.18 25.8583   2
   1  -4   1 1405.95 26.0405   5
  -1   4  -2 1616.17 18.3982   4
   1  -4   2 1643.96 29.3518   5
   1  -4   2 1622.95 29.1457   2
   1  -4   3 1368.24 29.1792   2
   1  -4   3 1423.17 29.2272   5
   1  -4   4 1280.53 31.0280   2
   1  -4   4 1287.92 30.5225   5
   1  -4   5 1659.46 36.3455   5
   1  -4   5 1657.83 37.3124   2
   1  -4   6 124.322 19.5122   2
   1  -4   6 106.228 17.9505   5
   1  -4   7 27.5005 17.3064   2
   1  -4   8 62.3232 21.1108   2
   1  -4   9 82.6257 19.4732   2
  -1   3  11 14.3793 16.8642   2
  -1   3  10 171.485 19.9895   2
   1  -3  -9 65.4048 18.1634   6
  -1   3   9 67.1130 18.5777   2
  -1   3   8-5.16886 15.4690   2
   1  -3  -8-42.3663 12.6905   6
   1  -3  -7 158.805 17.0530   6
  -1   3   7 88.0595 13.8960   2
   1  -3  -6 801.946 24.8265   6
  -1   3   6 792.986 25.3073   2
   1  -3  -6 752.351 18.6104   1
  -1   3   5-5.48333 10.1937   2
   1  -3  -5-2.21224 11.2454   6
   1  -3  -5-14.2256 6.27172   1
   1  -3  -4 3260.82 27.7163   1
   1  -3  -4 3017.78 37.4316   6
  -1   3   4 3043.15 36.9200   2
   1  -3  -3 3085.66 34.8345   6
   1  -3  -3 3101.19 23.2878   1
   1  -3  -2 15837.3 69.2896   6
   1  -3  -1 3155.81 28.3348   6
   1  -3   0 883.336 18.0745   5
   1  -3   0 930.528 14.3557   6
   1  -3   0 1056.60 19.5420   2
   1  -3   0 875.506 13.6428   0
  -1   3  -1 2310.71 18.0503   4
   1  -3   1 2308.29 17.2898   6
   1  -3   1 2342.20 28.1572   2
   1  -3   1 2344.99 28.7017   5
  -1   3  -2 1719.42 15.5717   4
   1  -3   2 1689.98 26.4603   2
   1  -3   2 1827.82 27.9937   5
   1  -3   3-1.27073 10.0960   5
   1  -3   3 2.48083 11.2914   2
  -1   3  -3-5.74591 5.29607   4
   1  -3   4 300.621 17.2028   5
   1  -3   4 266.076 15.9618   2
   1  -3   5 1971.43 36.7567   5
   1  -3   5 1959.39 37.8467   2
   1  -3   6 399.919 22.2051   2
   1  -3   6 405.114 22.3842   5
   1  -3   7 252.718 21.0950   5
   1  -3   7 276.684 21.3141   2
   1  -3   8 436.722 27.2623   2
   1  -3   9 97.9614 21.8663   2
   1  -3  10 92.0294 24.7594   2
  -1   2  11 45.3741 17.4878   2
  -1   2  10 64.6118 16.3364   2
  -1   2   9 76.1129 17.8022   2
  -1   2   8 1678.60 40.9628   2
   1  -2  -8 1596.07 35.7857   6
   1  -2  -7 112.246 14.7376   6
  -1   2   7 195.673 16.7811   2
  -1   2   6 61.6161 14.1024   2
   1  -2  -6 67.9938 12.2997   6
  -1   2   5 292.233 16.2784   2
   1  -2  -5 234.535 14.1765   6
   1  -2  -4 85.7775 10.7989   6
   1  -2  -4 106.295 8.24161   1
  -1   2   4 98.9558 10.8979   2
   1  -2  -3 5659.01 30.9577   1
   1  -2  -3 5739.87 43.8306   6
  -1   2   3 5917.82 44.3545   2
  -1   2   2 48.6619 7.41442   2
   1  -2  -2 61.9900 10.1343   6
   1  -2  -1 1115.74 17.1412   6
   1  -2   0 459.542 12.5697   5
   1  -2   0 422.588 8.74820   0
   1  -2   0 474.018 11.6964   2
   1  -2   0 448.966 9.94267   6
   1  -2   1 7357.62 42.2278   5
   1  -2   1 7269.74 39.3271   2
   1  -2   2 270.152 11.9190   5
   1  -2   2 255.575 11.3974   2
   1  -2   3 11068.8 64.4657   5
   1  -2   3 11133.9 62.5399   2
  -1   2  -3 11260.9 36.1074   4
   1  -2   4 290.623 15.5078   2
   1  -2   4 290.029 15.3414   5
  -1   2  -4 280.049 7.33263   6
  -1   2  -4 278.477 9.20055   4
   1  -2   5 941.037 25.6380   2
   1  -2   5 1004.86 25.9285   5
   1  -2   6 4088.18 53.6258   2
   1  -2   6 4106.32 52.5429   5
   1  -2   7 151.367 18.2626   5
   1  -2   7 147.857 18.5666   2
   1  -2   8 104.638 18.3512   2
   1  -2   8 105.686 19.0940   5
   1  -2   9 48.6648 20.4683   2
   1  -2  10 263.313 23.5830   2
  -1   1  10-46.5578 14.2945   2
  -1   1   9 310.349 24.3434   2
  -1   1   8 950.963 32.8570   2
   1  -1  -7 2959.59 42.0942   6
  -1   1   7 2838.39 48.8651   2
   1  -1  -6 65.4203 11.7397   6
  -1   1   6 30.7864 13.8516   2
   1  -1  -5 9609.72 63.4286   6
  -1   1   5 9699.17 71.7739   2
   1  -1  -4 16327.2 75.3797   6
  -1   1   4 16246.8 82.8345   2
   1  -1  -3 321.360 12.1517   6
  -1   1   3 318.218 13.8933   2
  -1   1   2 54737.5 446.360   2
   1  -1  -2 52217.4 432.095   6
  -1   1   1 4719.60 26.4702   2
   1  -1  -1 4770.60 28.9732   6
   1  -1   0 5731.03 26.3658   6
   1  -1   0 5899.18 27.2489   5
   1  -1   1 3294.12 24.4113   5
   1  -1   1 3177.38 21.6600   0
   1  -1   2 50707.9 431.149   5
   1  -1   2 51428.7 390.303   2
   1  -1   3 8325.30 49.3737   2
   1  -1   3 8306.71 50.9017   5
  -1   1  -4 2932.84 24.4048   6
   1  -1   4 2958.99 35.2833   5
   1  -1   4 2946.81 34.6150   2
   1  -1   5 2184.48 33.9175   2
  -1   1  -5 2162.10 24.2362   6
   1  -1   5 2190.89 34.6036   5
   1  -1   6 4043.34 49.9053   5
   1  -1   6 3996.61 49.5580   2
   1  -1   7 26.3511 13.6155   2
   1  -1   7 2.82311 11.6097   5
   1  -1   8 1684.84 39.8915   5
   1  -1   8 1656.67 40.8197   2
   1  -1   9 170.880 20.9308   2
   1  -1  10 18.8134 18.4354   2
   1  -1  11 71.9227 22.4465   2
  -1   0  10 4.23991 19.3197   2
  -1   0   9-1.10502 18.5360   2
  -1   0   8 73.9441 16.8301   2
  -1   0   7-10.7483 15.5586   2
  -1   0   6 6.93982 12.4408   2
   1   0  -6 8.65825 9.54365   6
   1   0  -5 1190.63 22.6267   6
  -1   0   5 1081.33 26.8758   2
   1   0  -4 1702.87 24.1302   6
  -1   0   4 1739.92 29.5892   2
  -1   0   3 65.2081 10.4660   2
   1   0  -3 92.4970 8.91960   6
  -1   0   2 5524.51 37.1633   2
   1   0  -2 5506.68 32.7201   6
  -1   0   1 2549.54 20.1459   2
   1   0  -1 2534.05 19.4751   6
  -1   0  -1 824.862 10.0140   0
   1   0   1 835.822 9.50646   0
   1   0   2 586.541 13.2436   5
   1   0   2 582.600 10.1574   2
   1   0   3 17987.0 71.0088   5
   1   0   3 18136.2 64.5697   2
   1   0   4 495.068 16.5342   5
  -1   0  -4 471.142 12.5505   6
   1   0   4 478.567 15.2830   2
  -1   0  -5 411.149 13.6036   6
   1   0   5 437.368 17.9588   5
   1   0   5 434.020 16.9248   2
  -1   0  -6 1176.40 22.9200   6
   1   0   6 1075.38 27.4727   5
   1   0   6 1101.53 26.7836   2
   1   0   7 699.618 24.7761   2
   1   0   8 1233.76 33.9912   2
   1   0   9 223.944 21.7341   2
   1   0  10 312.121 25.0499   2
   1   0  11 123.536 22.1529   2
  -1  -1  10 486.835 32.3018   2
  -1  -1   9 125.039 22.5302   2
  -1  -1   8 394.200 25.2430   2
  -1  -1   7 469.313 25.2134   2
  -1  -1   6 11.6483 13.7667   2
  -1  -1   5 477.565 21.4852   2
   1   1  -4 691.454 14.9223   6
  -1  -1   4 670.768 22.1043   2
  -1  -1   4 622.350 16.7899   5
   1   1  -3 4945.05 32.0363   6
  -1  -1   3 4872.88 44.5131   2
  -1  -1   3 4674.66 34.5512   5
  -1  -1   2 4239.12 26.7277   5
   1   1  -2 4410.10 26.3825   6
  -1  -1   2 4413.48 37.0774   2
  -1  -1   1 3049.91 25.5265   2
   1   1  -1 3008.84 23.5055   4
  -1  -1   0 744.295 10.8302   2
   1   1   0 765.687 11.6837   4
  -1  -1  -1 19.1826 5.25815   1
   1   1   1 14.0126 6.29020   4
  -1  -1  -2 18.5301 4.73034   0
   1   1   2 24.0060 5.88520   3
  -1  -1  -2 12.0630 6.86125   1
   1   1   2 24.3601 5.07729   0
   1   1   2 12.0763 5.30575   2
   1   1   2 11.6398 6.43324   4
   1   1   3 622.760 13.2778   2
  -1  -1  -3 613.226 14.1368   1
  -1  -1  -4 8884.02 50.6059   6
   1   1   4 8836.31 52.7866   2
   1   1   5 187.176 13.5845   2
  -1  -1  -5 187.994 12.2455   6
  -1  -1  -6 2794.80 35.3590   6
   1   1   6 2604.84 37.8003   2
   1   1   7 2309.44 40.1109   2
  -1  -1  -7 2379.17 35.7578   6
   1   1   8 2127.26 42.4085   2
   1   1   9 1088.46 34.7796   2
   1   1  10-3.88449 14.7435   2
   1   1  11 64.6664 17.4674   2
   1   1  12 50.6725 19.0431   2
  -1  -2   9 272.369 23.9652   2
  -1  -2   8 162.040 23.9087   2
  -1  -2   7 206.126 20.9063   2
  -1  -2   6 19.7041 15.1150   2
   1   2  -5 512.029 18.5742   4
  -1  -2   5 413.821 21.3376   2
  -1  -2   4 5261.37 55.3147   2
   1   2  -4 5229.71 45.1459   4
  -1  -2   4 5048.44 43.8273   5
   1   2  -3 18064.0 53.0011   6
  -1  -2   3 18326.0 91.5238   2
  -1  -2   3 17753.3 71.0035   5
   1   2  -3 18228.5 74.7663   4
   1   2  -2 4.17691 8.08494   4
  -1  -2   2 16.0690 6.77576   5
  -1  -2   2 21.8891 10.6296   2
   1   2  -2 26.8531 4.66352   6
  -1  -2   1 147408. 806.765   2
   1   2  -1 148287. 702.064   4
  -1  -2   1 143953. 589.589   5
  -1  -2   0 58108.7 443.715   2
   1   2   0 55818.1 405.248   4
  -1  -2  -1 20084.7 60.5506   2
   1   2   1 19874.2 60.5597   4
  -1  -2  -2 365.566 10.6804   1
   1   2   2 425.163 12.7280   4
   1   2   3 4579.00 23.9571   0
  -1  -2  -3 4489.53 32.9133   1
   1   2   4 500.263 10.8337   0
  -1  -2  -4 512.763 14.4851   1
   1   2   4 538.328 15.2927   2
  -1  -2  -4 533.193 16.3870   6
  -1  -2  -5 38.9406 11.1924   6
   1   2   5 49.9370 9.89212   2
  -1  -2  -5 23.8537 9.67828   1
  -1  -2  -6 163.598 13.0876   1
   1   2   6 118.770 12.3128   2
  -1  -2  -6 135.024 13.7578   6
  -1  -2  -7 76.9149 12.3339   1
  -1  -2  -7 87.7339 15.0253   6
   1   2   7 74.5901 13.1182   2
  -1  -2  -8 73.5949 12.5161   1
   1   2   8 56.4415 15.2172   2
  -1  -2  -8 45.3489 16.0366   6
   1   2   9 1279.50 36.3392   2
  -1  -2  -9 1339.47 34.8676   1
   1   2  10-3.36392 14.3566   2
  -1  -2 -10 38.0998 14.2036   1
  -1  -2 -11-44.5844 13.0393   1
   1   2  11 7.98317 14.9936   2
   1   2  12 56.2152 18.2159   2
  -1  -3   9-22.5947 21.3437   2
  -1  -3   8 37.1626 19.7859   2
  -1  -3   7-18.7417 15.6487   2
  -1  -3   6 241.444 21.0869   2
  -1  -3   5-2.63015 14.1255   2
   1   3  -4 156.386 12.7899   4
  -1  -3   4 150.327 17.1029   2
  -1  -3   4 182.328 13.3592   5
   1   3  -3 46.6564 11.2557   4
  -1  -3   3 46.4686 10.4537   5
  -1  -3   3 36.6437 13.2253   2
  -1  -3   2 5027.74 37.9907   5
   1   3  -2 5228.65 40.1669   4
  -1  -3   2 5316.72 49.7137   2
  -1  -3   1 4342.27 32.2586   5
  -1  -3   1 4457.26 41.5708   2
   1   3  -1 4513.30 35.1520   4
  -1  -3   0 3404.51 33.8239   2
   1   3   0 3421.97 30.3605   4
   1   3   1 5501.86 38.0832   4
  -1  -3  -1 5532.42 40.4084   2
   1   3   2 7017.19 44.1346   4
  -1  -3  -3 10439.6 29.8125   0
  -1  -3  -3 10490.8 52.4829   1
   1   3   3 10765.5 57.9104   4
  -1  -3  -4 2488.31 31.7667   6
  -1  -3  -4 2526.38 28.9483   1
   1   3   4 2455.99 18.3933   0
   1   3   5 28.8960 5.10654   0
  -1  -3  -5 38.8237 11.9883   6
  -1  -3  -5 28.7069 8.10714   1
   1   3   5 31.2313 9.35812   2
  -1  -3  -6 384.390 15.7227   1
   1   3   6 403.886 11.9969   0
   1   3   6 450.486 17.4646   2
  -1  -3  -6 452.443 19.7366   6
  -1  -3  -7 224.860 14.4091   1
  -1  -3  -7 254.591 19.0060   6
   1   3   7 239.623 16.4487   2
   1   3   8 2647.53 45.3236   2
  -1  -3  -8 2652.46 42.0012   1
  -1  -3  -8 2934.38 46.2694   6
   1   3   9 4134.52 60.5243   2
  -1  -3  -9 4036.87 55.3728   1
  -1  -3  -9 4186.71 57.3216   6
  -1  -3 -10 978.418 31.7330   1
  -1  -3 -10 909.530 30.5068   6
   1   3  10 964.798 33.2170   2
   1   3  11 34.8262 17.8645   2
   1   3  12 252.154 24.2533   2
  -1  -4   8 107.721 22.4830   2
  -1  -4   7 27.6036 21.3581   2
  -1  -4   6 10.3605 16.1566   2
  -1  -4   5 13.7615 16.5188   2
  -1  -4   4 966.720 29.9246   2
  -1  -4   3 101.763 11.6186   5
   1   4  -3 70.0110 11.2872   4
  -1  -4   3 80.7496 15.0448   2
  -1  -4   2 10650.0 62.4966   5
  -1  -4   2 10757.6 77.2599   2
   1   4  -2 10798.7 61.9214   4
  -1  -4   1 3708.27 35.0424   5
   1   4  -1 3742.70 35.8847   4
  -1  -4   1 3778.84 43.5041   2
   1   4   0 4518.85 38.3569   4
  -1  -4   0 4319.85 36.6212   5
  -1  -4   0 4605.61 44.7039   2
  -1  -4  -1 2390.30 31.8340   2
   1   4   1 2358.60 28.9364   4
   1   4   2 5938.56 45.6014   4
  -1  -4  -3 36052.7 114.129   6
   1   4   3 36260.5 116.032   4
  -1  -4  -4 2544.62 30.3126   1
  -1  -4  -4 2536.70 34.2898   6
  -1  -4  -5 11653.0 67.0135   1
  -1  -4  -5 12024.1 76.7468   6
  -1  -4  -6 4791.42 53.7828   6
   1   4   6 4708.16 32.0419   0
  -1  -4  -6 4865.36 47.4711   1
  -1  -4  -7 675.907 20.9255   1
   1   4   7 693.635 23.3974   2
  -1  -4  -7 708.787 27.8252   6
   1   4   8 1057.75 30.4065   2
  -1  -4  -8 1115.58 32.6045   6
  -1  -4  -8 1059.25 26.9957   1
  -1  -4  -9 990.469 33.0716   6
   1   4   9 1005.39 32.8055   2
  -1  -4  -9 1007.31 28.7616   1
  -1  -4 -10 208.745 16.1136   1
  -1  -4 -10 290.100 23.4975   6
   1   4  10 248.683 20.1015   2
  -1  -4 -11 231.413 24.4808   6
   1   4  11 155.997 19.5102   2
   1   4  12 42.6549 19.8714   2
  -1  -5   6-5.31130 20.1142   2
  -1  -5   5-5.79760 16.5802   2
  -1  -5   4-44.6514 16.4654   2
  -1  -5   3 2310.36 44.2548   2
   1   5  -2 416.272 16.5308   4
  -1  -5   2 441.456 22.0940   2
  -1  -5   2 475.658 17.8978   5
  -1  -5   1 5334.47 57.2084   2
   1   5  -1 5277.90 46.4184   4
  -1  -5   1 5148.00 46.8906   5
   1   5   0 16457.0 79.5848   4
  -1  -5   0 16367.4 79.1076   5
  -1  -5   0 16385.8 92.6117   2
  -1  -5  -1 304.120 17.5502   2
   1   5   1 358.686 16.5287   4
  -1  -5  -1 355.295 12.7983   6
  -1  -5  -2 3595.10 36.0812   6
   1   5   2 3705.04 40.1870   4
  -1  -5  -2 3609.23 42.4805   2
  -1  -5  -3 537.558 17.9004   6
   1   5   3 542.395 19.0685   4
   1   5   4 220.828 16.2379   4
  -1  -5  -4 177.089 14.5466   6
  -1  -5  -5 2967.36 42.6999   6
  -1  -5  -5 3143.77 36.8216   1
  -1  -5  -6 365.670 15.6734   1
  -1  -5  -6 337.926 20.0399   6
  -1  -5  -7 802.990 28.2064   6
  -1  -5  -7 756.245 22.2546   1
  -1  -5  -8 35.8903 12.6948   1
  -1  -5  -8 47.7703 18.5586   6
  -1  -5  -9 123.290 14.6004   1
  -1  -5  -9 93.7232 19.9858   6
  -1  -5 -10 623.335 29.9216   6
  -1  -5 -11-53.4576 18.0685   6
   1   5  11 64.1359 17.3925   2
   1   5  12 261.379 24.3330   2
  -1  -5 -12 136.219 24.9579   6
  -1  -6   7-30.3512 18.5812   2
  -1  -6   5 185.510 23.1269   2
  -1  -6   4 219.203 21.2416   2
  -1  -6   3 4.41184 19.2106   2
  -1  -6   2 154.638 20.5989   2
  -1  -6   1 839.619 28.7129   2
  -1  -6   1 818.250 22.9873   5
   1   6  -1 899.763 23.9594   4
  -1  -6   0 1475.22 28.3134   5
   1   6   0 1463.56 28.7460   4
  -1  -6   0 1546.74 34.4545   2
   1   6   1 475.485 18.6837   4
  -1  -6  -1 454.053 14.4058   6
  -1  -6  -1 467.231 21.5167   2
  -1  -6  -2 535.938 17.0603   6
   1   6   2 514.160 19.8716   4
  -1  -6  -2 523.698 21.9571   2
   1   6   3 6472.59 58.3569   4
  -1  -6  -3 6403.49 55.0869   6
  -1  -6  -3 6569.33 62.0943   2
   1   6   4 4201.53 49.2089   4
  -1  -6  -4 4189.34 48.2152   6
  -1  -6  -5 2939.59 43.7334   6
  -1  -6  -6 92.0625 16.6432   6
  -1  -6  -7 4173.19 59.1235   6
  -1  -6  -7 4236.82 48.5531   1
  -1  -6  -8 361.363 25.7283   6
  -1  -6  -8 334.465 18.2736   1
  -1  -6  -9 509.606 29.7041   6
  -1  -6 -10 2388.97 52.3750   6
  -1  -6 -12 891.500 38.9647   6
  -1  -6 -13 162.444 25.9068   6
  -1  -7   6 43.5027 20.0115   2
  -1  -7   5 3.27000 18.0360   2
  -1  -7   4 484.168 28.7823   2
  -1  -7   3 1625.29 43.6086   2
  -1  -7   2 2828.95 53.2199   2
  -1  -7   1 7027.42 65.3433   5
  -1  -7   1 6827.28 76.9435   2
  -1  -7   0 8011.63 79.4733   2
   1   7   0 8159.47 66.6954   4
  -1  -7   0 8016.12 68.5504   5
  -1  -7  -1 3486.33 52.2078   2
  -1  -7  -1 3395.18 45.4407   5
   1   7   1 3393.96 44.4426   4
   1   7   2 3638.23 46.4141   4
  -1  -7  -2 3710.88 41.7418   6
  -1  -7  -2 3778.50 53.2917   2
   1   7   3 432.428 20.5654   4
  -1  -7  -3 423.072 18.2419   6
  -1  -7  -3 384.320 21.8910   2
  -1  -7  -4 2006.08 37.2206   6
   1   7   4 2055.60 38.6550   4
  -1  -7  -5 54.9172 15.1646   6
  -1  -7  -6 1598.34 38.3419   6
  -1  -7  -7 240.189 22.4100   6
  -1  -7  -8 22.5992 22.4179   6
  -1  -7  -9 426.594 27.2007   6
  -1  -7 -10 120.201 22.0141   6
  -1  -7 -12 397.859 32.1241   6
  -1  -8   5 152.398 27.2160   2
  -1  -8   4 398.642 27.3295   2
  -1  -8   3 122.195 23.2900   2
  -1  -8   2 69.5439 19.0688   2
  -1  -8   1 29.2890 17.5296   2
  -1  -8   0 21.7840 17.8409   2
  -1  -8   0 19.1328 15.4289   5
  -1  -8  -1 1462.50 38.6303   2
   1   8   1 1556.22 34.6599   4
  -1  -8  -1 1524.02 34.8640   5
   1   8   2 228.890 19.3757   4
  -1  -8  -2 177.077 19.9562   2
  -1  -8  -3 243.232 20.8970   2
   1   8   3 291.772 21.4160   4
  -1  -8  -3 281.069 18.3397   6
   1   8   4 1236.50 33.7001   4
  -1  -8  -4 1089.54 30.5156   6
  -1  -8  -4 1140.81 34.4183   2
  -1  -8  -5 11.0905 15.0199   6
  -1  -8  -6 12.3055 19.0887   6
  -1  -8  -7 20.7338 19.1543   6
  -1  -8  -8-21.7634 19.9595   6
  -1  -8  -9 27.6185 19.1810   6
  -1  -8 -10 77.5862 22.4196   6
  -1  -8 -11 4.00162 21.7876   6
  -1  -8 -12 226.663 30.8407   6
  -1  -9   3 10.6148 22.2961   2
  -1  -9   2 100.662 22.2505   2
  -1  -9   1 26.4723 21.9878   2
  -1  -9   0 217.660 23.7577   2
  -1  -9  -1 94.5899 18.5012   5
  -1  -9  -1 138.853 21.2335   2
   1   9   2 49.1410 17.8804   4
  -1  -9  -2 6.71384 18.7795   2
   1   9   3-24.9611 18.6703   4
  -1  -9  -3 24.8454 16.5362   2
  -1  -9  -4 381.606 21.7019   6
   1   9   4 353.346 24.3176   4
  -1  -9  -4 422.225 25.1828   2
  -1  -9  -5 989.506 32.6100   6
  -1  -9  -5 904.547 34.0050   2
  -1  -9  -6 667.242 29.8019   6
  -1  -9  -7 253.067 23.4603   6
  -1  -9  -8 1064.79 37.5544   6
  -1  -9  -9 1129.53 41.1685   6
  -1  -9 -10 350.606 31.5738   6
  -1  -9 -11 531.171 33.9054   6
  -1 -10   2 330.847 29.0895   2
  -1 -10   1 419.721 30.0699   2
  -1 -10   0 1169.78 41.8870   2
  -1 -10  -1 464.557 30.6625   2
  -1 -10  -2 806.111 32.4423   5
  -1 -10  -2 813.468 36.1327   2
   1  10   3 895.027 34.3040   4
  -1 -10  -3 883.330 36.1193   2
  -1 -10  -4 98.2367 22.3601   2
  -1 -10  -5-3.60807 20.9390   2
  -1 -10  -6 62.4669 22.3617   2
  -1 -10  -6 131.407 19.9718   6
  -1 -10  -7 77.6168 20.2285   6
  -1 -10  -8 112.382 23.5121   6
  -1 -10  -9 176.625 25.9405   6
  -1 -10 -10 512.287 32.4116   6
  -1 -11   0 30.7999 21.4658   2
  -1 -11  -1 42.8217 22.3256   2
  -1 -11  -2 3.65913 18.8390   2
  -1 -11  -3 93.2423 23.1554   5
  -1 -11  -3 19.6381 20.2451   2
  -1 -11  -4 1.98035 19.6835   2
  -1 -11  -5 99.5227 22.7694   2
  -1 -11  -6 262.858 29.0004   2
  -1 -11  -7 29.6175 24.8987   2
  -1 -11  -8 147.783 24.1577   6
  -1 -11  -9 80.1467 24.5266   6
  -1 -11 -10 827.062 41.9726   6
  -1 -12  -3 242.010 31.4817   2
  -1 -12  -4 128.420 29.1208   5
  -1 -12  -4 70.2018 23.5349   2
  -1 -12  -5 103.428 28.4877   2
  -1 -12  -6 103.573 27.0950   2
  -1 -12  -7 209.783 31.0280   2
  -1 -12  -8 170.765 28.2896   6
  -1 -12  -9 624.649 36.4905   6
   2 -12  -7-74.9405 25.1621   6
   2 -12  -6 31.2173 23.2930   2
   2 -12  -5 16.8573 22.2955   2
   2 -12  -4-9.98018 29.4091   5
   2 -12  -4-10.2295 21.9922   2
   2 -12  -3 58.6270 29.9438   5
   2 -12  -3-3.91212 24.9809   2
   2 -12  -2 123.157 32.2471   5
   2 -12  -2 17.3550 26.2940   2
   2 -12  -1 432.258 31.4439   2
   2 -12  -1 567.822 36.7518   5
   2 -11  -8 1256.76 47.0650   6
   2 -11  -7 1790.11 52.8739   6
   2 -11  -6 1720.82 49.7825   6
   2 -11  -5 1967.31 53.6522   2
   2 -11  -4 946.164 40.5533   2
   2 -11  -3 632.630 36.0552   5
   2 -11  -3 664.938 34.8470   2
   2 -11  -2 1090.10 44.5768   5
   2 -11  -2 1168.64 43.0411   2
   2 -11  -1-20.6785 22.2050   2
   2 -11   0 197.259 29.2502   5
   2 -11   0 215.564 23.4599   2
   2 -11   1 139.816 30.4110   5
   2 -11   1 23.3568 21.1717   2
   2 -10  -9 295.024 30.1892   6
   2 -10  -8 69.2701 27.1075   6
   2 -10  -7 121.282 24.3473   6
   2 -10  -6 77.0308 21.2906   6
   2 -10  -5 343.961 25.0456   6
   2 -10  -4 178.792 25.2200   2
   2 -10  -3 87.3788 21.2963   2
   2 -10  -3 125.625 20.6101   5
   2 -10  -2 424.629 28.1217   2
   2 -10  -2 533.705 33.9108   5
   2 -10  -1 46.6693 22.1606   5
   2 -10  -1-22.7503 18.0254   2
   2 -10   0 22.1011 22.3352   5
   2 -10   0 25.4972 18.5588   2
   2 -10   1 36.2865 24.1767   5
   2 -10   1 89.7022 22.8167   2
   2 -10   2-19.2986 18.6121   2
   2 -10   2-16.1816 22.0511   5
   2 -10   3 56.3266 25.3764   2
   2  -9  -9 95.1392 22.5634   6
   2  -9  -8 899.673 39.5395   6
   2  -9  -7 1.26714 18.4964   6
   2  -9  -6 1435.42 42.5298   6
   2  -9  -5 1862.38 45.2526   6
   2  -9  -4 122.049 19.3961   6
   2  -9  -3 41.2873 15.2217   6
   2  -9  -3 92.5328 21.3912   2
   2  -9  -2 154.488 21.6929   2
   2  -9  -2 136.682 20.6525   5
   2  -9  -1 380.532 25.4121   2
   2  -9  -1 404.952 26.5923   5
   2  -9   0 831.526 33.6008   5
   2  -9   0 852.535 33.5323   2
   2  -9   1 552.130 30.8182   5
   2  -9   1 485.208 28.0166   2
   2  -9   2 516.968 30.4331   5
   2  -9   2 501.710 29.2455   2
   2  -9   3 158.681 25.8065   5
   2  -9   3 43.2802 18.7138   2
   2  -9   5 172.827 21.5390   2
   2  -8 -10 152.187 24.9212   6
   2  -8  -9 200.809 27.4058   6
   2  -8  -8-40.1634 20.4814   6
   2  -8  -7-11.4717 17.3666   6
   2  -8  -6 151.224 20.8420   6
   2  -8  -5 954.230 33.3061   6
   2  -8  -4 2550.57 47.2110   6
   2  -8  -3 210.675 18.3926   6
   2  -8  -2 1613.39 38.9224   2
   2  -8  -2 1738.74 35.3089   6
   2  -8  -1 762.461 30.3057   5
   2  -8  -1 715.494 28.3316   2
   2  -8   0 122.075 18.7283   2
   2  -8   0 148.581 20.1616   5
   2  -8   1 1224.82 37.5056   5
   2  -8   1 1295.79 36.6337   2
   2  -8   2 71.5623 20.7372   5
   2  -8   2 36.5085 18.8029   2
   2  -8   3 281.309 24.5386   2
   2  -8   3 301.269 24.8208   5
   2  -8   4-11.3387 18.7453   2
   2  -8   4 49.7114 20.7631   5
   2  -8   5 129.689 21.1991   2
   2  -8   6 192.545 26.0181   2
   2  -7 -11 278.730 29.8811   6
   2  -7 -10 475.140 32.6247   6
   2  -7  -9 127.680 23.9305   6
   2  -7  -8-3.96041 18.4894   6
   2  -7  -7 124.146 21.2580   6
   2  -7  -6 391.312 24.0576   6
   2  -7  -5 245.661 20.6480   6
   2  -7  -4 598.082 24.8922   6
   2  -7  -3 495.447 21.9464   6
   2  -7  -2 881.441 27.7875   2
   2  -7  -2 903.842 25.1340   6
   2  -7  -1 5.89630 10.2669   6
   2  -7  -1 5.47128 16.6015   5
   2  -7  -1 32.0132 15.3298   2
   2  -7   0 963.377 29.3298   2
   2  -7   0 1027.43 30.3911   5
   2  -7   1-8.22728 15.6722   5
   2  -7   1 0.72762 14.4427   2
   2  -7   2 90.9834 18.5835   5
   2  -7   2 51.0804 15.5578   2
   2  -7   3 39.2401 16.3208   2
   2  -7   3-0.88336 17.9274   5
   2  -7   4 49.4801 20.6123   5
   2  -7   4 27.5331 16.1132   2
   2  -7   5 49.7551 17.6999   2
   2  -7   5 30.9205 21.3970   5
   2  -7   6 413.218 28.2966   2
   2  -7   7 280.858 29.2440   2
   2  -6 -11 205.091 27.8898   6
   2  -6 -10 76.3971 19.4387   6
   2  -6  -9 15.2781 16.7812   6
   2  -6  -8 138.496 20.8440   6
   2  -6  -7 2964.84 54.6377   6
   2  -6  -6 487.537 26.1549   6
   2  -6  -5 10266.9 87.8723   6
   2  -6  -4 7188.06 70.2324   6
   2  -6  -3 5195.71 56.7490   6
   2  -6  -2 5474.73 54.3884   6
   2  -6  -1 603.355 21.7166   2
   2  -6  -1 604.766 19.6548   6
   2  -6  -1 509.022 13.1108   0
   2  -6  -1 643.815 24.0017   5
   2  -6   0 211.159 12.4888   6
   2  -6   0 217.412 16.3310   2
   2  -6   0 171.779 16.8647   5
   2  -6   0 169.836 9.68821   0
   2  -6   1 693.319 18.4739   0
   2  -6   1 1023.54 28.0349   2
   2  -6   1 1032.37 29.3729   5
   2  -6   2 1163.99 30.6653   2
   2  -6   2 1239.70 32.1226   5
   2  -6   3 1007.04 30.8520   2
   2  -6   3 1048.32 32.0585   5
   2  -6   4 457.409 24.2482   2
   2  -6   4 471.060 23.5099   5
   2  -6   5 69.1242 20.0663   5
   2  -6   5 110.716 19.1509   2
   2  -6   6 446.239 24.5400   2
   2  -6   6 537.806 32.3540   5
   2  -6   7 291.303 28.1098   2
   2  -6   8 232.632 25.9684   2
   2  -5 -11 177.563 28.1624   6
  -2   5  10 679.396 31.3387   2
   2  -5 -10 530.675 30.9624   6
   2  -5  -9 269.589 23.7839   6
  -2   5   9 213.599 20.0138   2
   2  -5  -8 542.763 28.7680   6
   2  -5  -7 330.926 22.6672   6
   2  -5  -6 58.5299 16.1076   6
   2  -5  -5 396.152 21.8327   6
   2  -5  -4 1236.74 30.6689   6
   2  -5  -3 6181.96 58.3882   6
   2  -5  -2 1039.12 24.6037   6
   2  -5  -1 8410.35 58.6061   6
   2  -5   0 401.523 18.5878   5
   2  -5   0 422.024 14.4416   6
   2  -5   0 425.742 18.0399   2
   2  -5   0 417.926 13.2125   0
   2  -5   1 2076.64 28.6912   0
   2  -5   1 2123.05 35.7013   5
   2  -5   1 1979.33 24.0359   6
   2  -5   1 2102.46 34.4423   2
   2  -5   2 4750.10 47.5243   0
   2  -5   2 4823.27 52.2955   2
   2  -5   2 4968.86 55.4117   5
   2  -5   3 38.2254 13.4034   2
   2  -5   3 26.6928 13.9041   5
   2  -5   4 2194.99 41.5626   2
   2  -5   4 2064.33 41.5692   5
   2  -5   5 39.2422 18.5301   5
   2  -5   5 8.14173 14.1062   2
   2  -5   6-2.65437 15.2817   2
   2  -5   6-9.65725 18.7833   5
   2  -5   7-17.4305 20.8230   5
   2  -5   7 3.16850 13.1624   2
   2  -5   8 202.357 24.4007   2
   2  -5   9 5.86574 16.5423   2
  -2   4  10 85.4705 16.2668   2
   2  -4 -10 164.483 24.8363   6
  -2   4   9 479.996 26.9295   2
   2  -4  -9 402.346 25.5609   6
   2  -4  -8 76.6116 18.3007   6
  -2   4   8 26.1636 12.0012   2
   2  -4  -7-6.70478 15.3997   6
  -2   4   7 30.8152 13.3449   2
   2  -4  -6 724.694 26.1319   6
  -2   4   6 755.037 24.9655   2
   2  -4  -5 105.003 15.9159   6
   2  -4  -4 66.7539 14.2057   6
   2  -4  -3 7.29913 10.9705   6
  -2   4   2 5965.50 30.7961   0
   2  -4  -2 5728.28 50.4273   6
   2  -4  -2 5712.96 33.1641   3
  -2   4   1 2458.68 22.1248   0
   2  -4  -1 2447.55 31.0636   6
   2  -4   0 7.02762 6.51292   0
   2  -4   0 17.2978 11.6408   5
   2  -4   0 6.09553 7.68342   6
   2  -4   0-5.92540 10.0065   2
   2  -4   1 913.645 16.0311   6
   2  -4   1 878.045 17.8677   0
   2  -4   1 907.580 23.0139   5
   2  -4   1 905.795 20.9194   2
   2  -4   2 1270.88 25.6116   2
   2  -4   2 964.882 14.2172   6
   2  -4   2 1310.57 23.9173   0
   2  -4   2 1345.19 28.1043   5
   2  -4   3 158.340 14.0471   2
   2  -4   3 211.001 17.1080   5
   2  -4   4 648.851 23.0719   2
   2  -4   4 681.944 24.6899   5
   2  -4   5 45.8191 15.5395   5
   2  -4   5 45.9412 13.9058   2
   2  -4   6 18.4565 14.4662   2
   2  -4   6 5.91959 15.9099   5
   2  -4   7 229.064 23.9264   5
   2  -4   7 257.218 22.2840   2
   2  -4   8 72.1985 19.5151   2
   2  -4   9 110.519 19.7804   2
  -2   3  10 109.702 18.0180   2
  -2   3   9 38.0126 13.8541   2
   2  -3  -9 139.219 21.0113   6
  -2   3   8 96.1248 16.7348   2
   2  -3  -8 94.8209 16.6682   6
  -2   3   7 1.01055 12.0606   2
   2  -3  -7 34.0342 16.2714   6
   2  -3  -6-0.99046 12.2320   6
  -2   3   6-46.2134 10.6469   2
   2  -3  -5 17.6088 12.5881   6
  -2   3   5 52.8111 10.3711   2
  -2   3   4 977.359 23.7492   2
   2  -3  -4 972.838 25.5203   6
   2  -3  -4 955.259 13.8717   1
   2  -3  -3 317.715 16.3386   6
   2  -3  -3 310.688 6.82899   1
   2  -3  -2 12719.5 70.3326   6
  -2   3   1 14014.0 48.4046   0
   2  -3  -1 13842.5 67.0229   6
   2  -3  -1 13806.0 51.7884   3
   2  -3   0 38.1562 10.6383   5
  -2   3   0 16.1990 5.71613   0
   2  -3   0 16.4733 7.52196   3
   2  -3   0 11.5395 8.03992   6
   2  -3   1 4540.11 41.6535   5
   2  -3   1 4425.23 35.5119   0
   2  -3   1 4628.25 37.4165   2
   2  -3   1 4618.70 31.9763   6
   2  -3   2 356.740 16.4308   5
   2  -3   2 364.585 13.7140   0
   2  -3   2 328.691 13.3089   2
   2  -3   3 62.9311 11.1897   2
   2  -3   3 61.2147 12.6225   5
   2  -3   4 610.072 19.9767   2
   2  -3   4 631.421 22.5047   5
   2  -3   5 621.998 22.0732   2
   2  -3   5 694.083 25.3320   5
   2  -3   6 343.899 19.9260   2
   2  -3   6 319.892 21.4122   5
   2  -3   7 249.262 20.7268   2
   2  -3   7 243.042 22.1628   5
   2  -3   8 912.647 34.6277   5
   2  -3   8 848.279 32.2030   2
   2  -3   9 471.742 29.2121   2
   2  -3  10 126.621 22.0146   2
  -2   2  10 23.2257 14.9743   2
  -2   2   9 118.839 18.1982   2
  -2   2   8 20.8632 12.8294   2
   2  -2  -8 41.5585 16.5480   6
   2  -2  -7 171.471 16.7500   6
  -2   2   7 261.436 18.9974   2
   2  -2  -6 783.953 24.8650   6
  -2   2   6 860.779 26.6878   2
   2  -2  -5 2973.85 41.3066   6
  -2   2   5 3091.74 43.5263   2
   2  -2  -4 7613.43 60.4315   6
  -2   2   4 7582.52 61.6909   2
  -2   2   3 5323.28 45.9157   2
   2  -2  -3 5429.52 47.6381   6
   2  -2  -3 5214.01 27.0802   1
   2  -2  -2 1574.66 25.1086   6
  -2   2   2 1482.14 21.6358   2
   2  -2  -1 4554.29 37.2179   6
   2  -2   0 9388.58 47.4934   6
  -2   2   0 9414.52 40.9105   0
   2  -2   0 9098.54 43.9098   3
   2  -2   0 9157.82 48.4692   5
  -2   2  -1 19.9167 5.46410   0
   2  -2   1 21.8318 6.12634   0
   2  -2   1 6.25061 6.49492   6
   2  -2   1 10.4406 6.42770   2
   2  -2   1 4.45101 8.39490   3
   2  -2   1 9.70338 8.16635   5
   2  -2   2 738.471 16.2976   0
   2  -2   2 728.065 18.5725   5
   2  -2   2 750.769 14.8260   2
   2  -2   3 350.667 13.1320   2
   2  -2   3 347.548 15.2073   5
   2  -2   3 332.482 13.0274   0
   2  -2   4 626.969 18.4240   2
   2  -2   4 639.465 21.2612   5
   2  -2   5 81.4146 12.2074   2
   2  -2   5 106.831 15.4685   5
   2  -2   6 19.1988 12.4911   2
   2  -2   6 21.8892 16.7355   5
   2  -2   7 108.450 16.5195   2
   2  -2   7 126.570 19.1727   5
   2  -2   8 115.418 17.3474   2
   2  -2   8 146.412 20.3693   5
   2  -2   9 184.203 20.9585   2
   2  -2   9 141.185 22.4588   5
   2  -2  10 130.652 22.9464   2
   2  -2  11-52.4089 18.3982   2
  -2   1  10 5.83320 16.3669   2
  -2   1   9-60.5883 13.1275   2
  -2   1   8 44.4939 19.1436   2
  -2   1   7 74.8552 16.2427   2
  -2   1   6-9.29710 14.0812   2
   2  -1  -6 2.57392 12.1136   6
  -2   1   5 24.6119 11.9612   2
   2  -1  -5 64.1525 12.5594   6
   2  -1  -4 2156.51 31.8922   6
  -2   1   4 2185.10 34.3457   2
  -2   1   3 3392.50 36.8524   2
   2  -1  -3 3254.35 36.1812   6
   2  -1  -2 5212.90 40.6034   6
  -2   1   2 5359.79 39.4326   2
   2  -1  -1 3995.27 32.9662   6
  -2   1   1 3887.24 27.8785   2
   2  -1   0 4.46215 6.75089   5
   2  -1   0 14.4050 8.08189   6
   2  -1   1 2567.94 24.5393   3
  -2   1  -1 2647.79 22.8043   0
   2  -1   1 2629.64 23.2533   6
   2  -1   1 2626.55 24.7946   5
   2  -1   2 16647.4 67.2646   5
   2  -1   2 16298.9 62.3635   0
   2  -1   2 16439.8 48.3390   2
  -2   1  -2 16608.9 62.3718   0
   2  -1   3 9732.49 47.5618   2
   2  -1   3 9837.22 58.9284   5
   2  -1   3 9772.76 54.0139   0
   2  -1   4 37.0701 8.94620   2
   2  -1   4 25.2181 11.0671   5
   2  -1   5 19152.5 90.7269   2
   2  -1   5 18792.2 101.752   5
   2  -1   6 475.971 19.2619   2
   2  -1   6 513.252 22.0814   5
   2  -1   7 4663.56 55.9424   2
   2  -1   7 4539.07 58.5984   5
   2  -1   8 904.182 29.5856   2
   2  -1   8 946.773 33.7639   5
   2  -1   9 370.783 27.2234   5
   2  -1   9 354.049 24.4078   2
   2  -1  10 177.633 22.5760   2
   2  -1  11 41.3223 19.5401   2
  -2   0  10 137.484 26.2572   2
  -2   0   9 122.307 20.4484   2
  -2   0   8 164.336 21.7235   2
  -2   0   7 4.54895 14.2306   2
  -2   0   6 4.86371 13.8495   2
   2   0  -5 307.725 15.3960   6
  -2   0   5 295.755 17.9253   2
  -2   0   4 308.773 17.2478   2
   2   0  -4 324.303 14.2569   6
  -2   0   3 1619.81 27.2912   2
   2   0  -3 1549.25 24.2992   6
  -2   0   2 1256.50 21.0580   2
   2   0  -2 1341.74 20.8486   6
  -2   0   1 2669.04 24.4614   2
   2   0  -1 2811.98 26.1643   6
   2   0   0 57535.9 423.306   6
   2   0   1 22690.4 57.7623   5
   2   0   1 23224.3 216.824   4
  -2   0  -1 23063.0 214.559   1
   2   0   2 81785.1 379.245   4
  -2   0  -2 81245.8 510.420   0
   2   0   2 82508.8 534.785   3
   2   0   2 83365.0 540.655   5
   2   0   3 26973.4 59.9712   4
   2   0   3 27407.5 68.7005   2
   2   0   3 27702.8 91.8522   5
   2   0   3 27581.7 83.3941   0
   2   0   4 22217.6 93.7720   5
   2   0   4 22353.0 78.1123   2
   2   0   4 22454.5 83.7953   0
   2   0   5 17756.6 81.3707   2
   2   0   5 17805.4 92.2308   5
   2   0   6 200.120 16.8292   5
   2   0   6 186.280 13.8942   2
  -2   0  -6 222.340 12.8585   6
   2   0   7 7.55744 12.0018   2
  -2   0  -7-18.1161 9.94677   6
   2   0   7-5.19915 13.9345   5
   2   0   8 841.578 30.7316   5
   2   0   8 863.267 28.2826   2
   2   0   9 720.749 28.8075   2
   2   0  10 211.898 21.2212   2
   2   0  11 314.384 28.4656   2
   2   0  12-35.6097 16.4760   2
  -2  -1   9 572.013 32.1828   2
  -2  -1   8 341.942 24.3085   2
  -2  -1   7-12.3569 15.4682   2
  -2  -1   6 1795.79 40.2078   2
  -2  -1   5 304.693 19.7774   2
   2   1  -4 86.0355 9.90109   6
  -2  -1   4 58.7582 12.9822   2
   2   1  -3 10467.7 54.8182   6
  -2  -1   3 10286.8 68.9374   2
   2   1  -2 1407.25 19.5271   6
  -2  -1   2 1432.63 24.0877   2
  -2  -1   1 737.153 15.5971   2
   2   1  -1 743.600 16.1574   4
   2   1  -1 745.538 14.1055   6
   2   1   0 6413.73 37.4145   4
  -2  -1   0 6243.23 32.5814   2
   2   1   1 22877.8 64.4061   4
  -2  -1  -1 22638.5 59.6672   1
   2   1   2 1060.28 15.2090   4
   2   1   2 1026.53 15.7309   3
  -2  -1  -2 940.523 14.9604   1
   2   1   2 977.218 15.8038   5
   2   1   3 3.77950 5.68762   2
   2   1   3 11.0215 7.53326   4
   2   1   3 6.04549 8.08294   5
   2   1   3-0.73046 8.12401   3
  -2  -1  -3-2.46620 8.32985   1
  -2  -1  -3-0.94063 7.08323   0
   2   1   4 1025.25 18.0443   0
   2   1   4 969.316 22.0100   5
  -2  -1  -4 1014.72 20.7049   1
   2   1   4 1017.09 17.2435   2
   2   1   5 3124.39 32.7808   0
   2   1   5 3152.32 34.6889   2
   2   1   5 3105.90 39.8369   5
   2   1   6 1589.27 28.9578   2
   2   1   6 1476.08 26.0378   0
   2   1   6 1507.81 31.4897   5
   2   1   7 206.431 15.9172   2
  -2  -1  -7 186.049 14.8720   6
  -2  -1  -8 3360.16 44.5550   6
   2   1   8 3365.44 49.5878   2
   2   1   9 159.628 18.5067   2
   2   1  10 315.220 20.9613   2
  -2  -1 -11 10.0374 13.0427   1
   2   1  11 93.6357 16.8896   2
   2   1  12 40.8066 15.8981   2
  -2  -1 -12 122.378 15.9595   1
  -2  -2   9 156.237 25.2048   2
  -2  -2   8-65.6568 20.8933   2
  -2  -2   7 23.9502 15.9910   2
   2   2  -6 5.44491 15.6402   4
  -2  -2   6 40.4640 15.8950   2
   2   2  -5 1.58256 13.6339   4
  -2  -2   5 25.4570 14.4474   2
  -2  -2   4 760.323 25.3745   2
   2   2  -4 774.543 21.6086   4
  -2  -2   3 7.50358 12.2119   2
   2   2  -3-6.89699 6.57165   6
   2   2  -3 2.61534 11.2389   4
  -2  -2   3 7.43322 5.70776   5
   2   2  -2 5079.01 42.7301   4
  -2  -2   2 5035.97 46.4937   2
   2   2  -2 4874.47 32.9725   6
  -2  -2   1 2691.10 30.8765   2
   2   2  -1 2648.75 29.5322   4
  -2  -2   0 1776.99 22.3637   2
   2   2   0 1783.89 23.0792   4
   2   2   1 12730.1 56.0614   4
  -2  -2  -1 12743.9 50.2104   2
   2   2   2 16880.7 63.7547   4
  -2  -2  -2 16780.9 62.3031   1
   2   2   3 4005.38 32.9955   4
  -2  -2  -3 3993.59 33.9098   1
   2   2   3 4126.25 29.6558   3
   2   2   4 3646.81 33.7543   4
  -2  -2  -4 3526.06 28.4167   0
  -2  -2  -4 3610.94 35.4078   1
   2   2   4 3639.94 31.2885   2
  -2  -2  -5 556.554 18.0014   1
   2   2   5 555.031 15.9783   2
   2   2   5 553.843 14.1840   0
   2   2   6 3937.26 37.7991   0
   2   2   6 4067.33 43.3127   2
  -2  -2  -6 4143.75 45.5086   1
   2   2   7 422.043 16.9751   2
  -2  -2  -7 419.567 18.9122   1
   2   2   7 434.726 15.2994   0
  -2  -2  -7 483.299 20.0391   6
   2   2   8 5369.38 61.0218   2
  -2  -2  -8 5501.58 61.9944   1
  -2  -2  -8 5709.52 59.5129   6
   2   2   9 1608.27 38.5136   2
  -2  -2  -9 1765.18 38.1353   6
  -2  -2  -9 1641.98 38.1618   1
   2   2  10 59.4787 14.6157   2
  -2  -2 -10 73.4342 15.6863   1
   2   2  11 314.263 22.2528   2
  -2  -2 -11 279.890 21.3262   1
   2   2  12 52.1678 17.4464   2
  -2  -2 -12 44.2600 16.7478   1
  -2  -3   8 111.618 24.5775   2
  -2  -3   7 39.6979 20.6393   2
  -2  -3   6 259.456 22.8782   2
  -2  -3   5 282.755 21.3351   2
   2   3  -4 1783.11 32.6466   4
  -2  -3   4 1765.39 37.5546   2
  -2  -3   3 870.816 25.9135   2
   2   3  -3 835.844 21.8418   4
  -2  -3   2 673.706 21.0252   2
   2   3  -2 615.769 18.4382   4
  -2  -3   2 431.936 11.3279   5
  -2  -3   1 445.011 16.5027   2
   2   3  -1 451.104 16.0188   4
  -2  -3   1 445.178 10.4655   5
  -2  -3   0 8.65065 5.54077   5
   2   3   0-2.16010 10.1116   4
  -2  -3   0 6.05995 9.95809   2
   2   3   1 7410.79 48.4533   4
  -2  -3  -1 7369.32 47.0462   2
  -2  -3  -2 1561.87 22.1298   2
   2   3   2 1549.27 24.1150   4
   2   3   3 17086.6 74.1491   4
  -2  -3  -3 16665.4 71.3689   1
  -2  -3  -4 1768.40 26.1537   1
   2   3   4 1811.80 20.1345   3
  -2  -3  -4 1836.67 19.1552   0
   2   3   4 1868.80 27.9348   4
  -2  -3  -5 3379.20 37.8836   1
   2   3   6 1620.43 23.0682   0
   2   3   6 1621.57 28.5291   2
  -2  -3  -6 1783.44 32.3829   6
  -2  -3  -6 1641.90 29.3643   1
  -2  -3  -7 60.3484 13.6943   6
   2   3   7 44.0563 7.56504   0
   2   3   7 49.6827 9.82118   2
  -2  -3  -7 51.3185 10.5065   1
  -2  -3  -8 411.220 21.3400   6
   2   3   8 356.423 19.7373   2
  -2  -3  -8 408.734 19.8784   1
   2   3   9 1927.17 41.0867   2
  -2  -3  -9 1867.50 39.6368   1
  -2  -3  -9 1963.43 40.9406   6
   2   3  10 388.254 22.6607   2
  -2  -3 -10 420.996 26.5335   6
  -2  -3 -10 344.644 22.2231   1
   2   3  11 226.525 21.8152   2
  -2  -3 -11 193.233 20.2552   1
  -2  -3 -12 166.390 17.7556   1
   2   3  12 106.026 16.0224   2
  -2  -4   6 9.36190 17.7928   2
  -2  -4   5 89.3344 19.5283   2
  -2  -4   4 483.824 24.5613   2
  -2  -4   3 741.539 26.4872   2
   2   4  -3 733.909 22.4946   4
  -2  -4   2 9214.63 74.6248   2
   2   4  -2 8939.13 63.6818   4
  -2  -4   1 13355.3 82.7635   2
   2   4  -1 13130.9 73.4853   4
  -2  -4   1 13005.1 58.3917   5
  -2  -4   0 9754.22 66.3512   2
   2   4   0 9649.44 61.2564   4
  -2  -4   0 9524.88 49.3094   5
   2   4   1 296.462 15.0566   4
  -2  -4  -1 264.158 14.3565   2
   2   4   2 486.438 17.7943   4
  -2  -4  -2 533.990 17.0092   2
   2   4   3 945.605 21.7349   4
   2   4   4 40.1366 12.8659   4
   2   4   4 43.6581 6.92268   3
  -2  -4  -4 21.5860 10.1796   1
   2   4   5 50.3758 12.4662   4
  -2  -4  -5 27.2570 9.59691   1
  -2  -4  -6 442.631 20.2564   6
  -2  -4  -6 399.600 17.3340   1
  -2  -4  -7 89.5642 16.8197   6
  -2  -4  -7 58.5879 11.1025   1
  -2  -4  -8 292.307 17.7878   1
  -2  -4  -8 284.844 20.9804   6
   2   4   8 273.251 18.5542   2
   2   4   9 2912.47 49.3561   2
  -2  -4  -9 3111.96 52.4148   6
  -2  -4  -9 3004.64 48.4827   1
  -2  -4 -10 490.857 24.6526   1
   2   4  10 518.705 25.1075   2
  -2  -4 -10 464.766 28.9202   6
   2   4  11 516.176 26.9202   2
  -2  -4 -11 428.065 28.0418   6
  -2  -4 -11 541.840 26.0919   1
   2   4  12 77.2589 15.7200   2
   2   4  13 6.15062 16.2549   2
  -2  -5   7 56.4382 23.0484   2
  -2  -5   6 20.5613 20.4038   2
  -2  -5   5 122.895 19.8478   2
  -2  -5   4 241.791 20.1138   2
  -2  -5   3 132.423 18.1629   2
   2   5  -2 254.632 16.6724   4
  -2  -5   2 274.876 19.7214   2
  -2  -5   1 4811.99 56.5213   2
   2   5  -1 4873.91 49.3005   4
   2   5   0 1734.60 30.2196   4
  -2  -5   0 1680.60 25.2811   5
  -2  -5   0 1711.14 33.2269   2
  -2  -5  -1 2769.32 39.0947   2
   2   5   1 2910.75 37.6414   4
   2   5   2 10180.1 68.4923   4
  -2  -5  -2 10068.3 70.1150   2
  -2  -5  -3 5320.57 50.7401   2
   2   5   3 5240.80 50.5259   4
   2   5   4 5498.36 52.6996   4
   2   5   5 7855.85 67.0452   4
  -2  -5  -5 7795.95 34.4427   0
  -2  -5  -5 8007.48 61.2945   1
  -2  -5  -5 7754.83 65.2858   6
  -2  -5  -6 3339.39 41.9402   1
  -2  -5  -6 3288.90 46.5978   6
  -2  -5  -7 128.568 18.2251   6
  -2  -5  -7 137.285 14.3288   1
  -2  -5  -8 4174.92 52.9813   1
  -2  -5  -8 4180.41 58.6736   6
  -2  -5  -9 6442.83 69.2854   1
  -2  -5  -9 6814.63 77.9254   6
  -2  -5 -10 427.433 27.6766   6
  -2  -5 -10 440.517 22.1764   1
  -2  -5 -11 1844.64 47.7189   6
  -2  -5 -11 1867.09 42.7120   1
  -2  -5 -12 958.054 37.2022   6
  -2  -6   6 410.800 31.5078   2
  -2  -6   5 561.745 31.9496   2
  -2  -6   4 138.204 21.5637   2
  -2  -6   3 1873.30 43.8715   2
  -2  -6   2 7.18639 15.6534   2
   2   6  -1-14.9576 13.9411   4
  -2  -6   1 39.8900 17.8587   2
  -2  -6   0 1459.01 33.8874   2
   2   6   0 1474.00 30.7644   4
  -2  -6   0 1468.93 26.9517   5
  -2  -6  -1 409.440 20.4631   2
   2   6   1 425.918 19.5348   4
   2   6   2 4426.24 49.7056   4
  -2  -6  -2 4314.63 51.8369   2
   2   6   3 121.458 16.0690   4
  -2  -6  -3 157.960 16.6432   2
   2   6   4 2579.32 40.0196   4
  -2  -6  -4 2492.04 37.8118   6
   2   6   5 980.598 28.3590   4
  -2  -6  -5 904.994 26.3841   6
  -2  -6  -6 33.7234 15.6025   6
  -2  -6  -7 1395.38 35.4588   6
  -2  -6  -7 1455.34 31.5122   1
  -2  -6  -8 604.662 23.7735   1
  -2  -6  -8 678.707 30.3027   6
  -2  -6  -9 17.8821 19.3787   6
  -2  -6  -9-15.0893 12.7946   1
  -2  -6 -10 46.5156 13.8967   1
  -2  -6 -10-4.94273 23.0141   6
  -2  -6 -11 136.837 25.3661   6
  -2  -6 -12 421.709 31.5821   6
  -2  -7   5 16.6755 20.8318   2
  -2  -7   4 299.196 27.3589   2
  -2  -7   3-0.73058 17.7938   2
  -2  -7   2 184.229 22.1630   2
  -2  -7   1 122.112 21.4432   2
   2   7   0 2072.09 38.2163   4
  -2  -7   0 2095.45 43.6602   2
   2   7   1 31.8980 16.1724   4
  -2  -7  -1 52.6694 14.4150   5
  -2  -7  -1 86.7235 16.7287   2
   2   7   2 1163.13 29.7721   4
  -2  -7  -2 1153.69 31.6213   2
  -2  -7  -3 26.3396 11.8262   6
   2   7   3 51.2116 15.8790   4
  -2  -7  -3 16.8016 14.6712   2
  -2  -7  -4 303.088 20.2753   2
   2   7   4 259.355 19.8313   4
  -2  -7  -4 283.891 18.8101   6
  -2  -7  -5 221.271 18.4342   6
   2   7   5 182.231 19.4445   4
  -2  -7  -6 1705.79 38.0518   6
  -2  -7  -7 19.7025 17.7734   6
  -2  -7  -8 646.334 30.3646   6
  -2  -7  -8 695.451 25.9502   1
  -2  -7  -9 31.4032 20.4033   6
  -2  -7  -9 13.7699 13.3717   1
  -2  -7 -10 745.607 34.4413   6
  -2  -7 -10 647.730 25.3863   1
  -2  -7 -11-7.10995 22.1010   6
  -2  -7 -12 815.376 38.6634   6
  -2  -8   4 138.114 22.1804   2
  -2  -8   3 235.891 26.4481   2
  -2  -8   2 677.957 34.4294   2
  -2  -8   1 448.710 27.5965   2
  -2  -8   0 134.914 21.4826   2
  -2  -8  -1 98.0055 18.5891   2
   2   8   1 71.4428 18.0704   4
  -2  -8  -2 1596.07 39.7585   2
   2   8   2 1617.41 36.3599   4
  -2  -8  -3 1212.82 34.9316   2
   2   8   3 1203.18 32.4674   4
   2   8   4 2185.83 43.0897   4
  -2  -8  -4 2174.15 39.5890   6
  -2  -8  -4 2194.30 44.5322   2
   2   8   5 1240.73 35.3735   4
  -2  -8  -5 1167.09 32.9385   6
  -2  -8  -5 1167.43 35.3254   2
  -2  -8  -6 4357.41 60.6354   6
  -2  -8  -7 403.083 26.2189   6
  -2  -8  -8 678.622 31.5303   6
  -2  -8  -9 882.301 38.1980   6
  -2  -8 -10 366.273 30.4993   6
  -2  -8 -12 962.246 40.9458   6
  -2  -9   3 57.7528 18.4471   2
  -2  -9   2 199.165 25.1666   2
  -2  -9   1 14.4571 20.5754   2
  -2  -9   0 70.6713 21.8366   2
  -2  -9  -1 97.6638 19.3386   2
   2   9   2 622.260 28.8042   4
  -2  -9  -2 482.466 27.6750   2
   2   9   3 332.190 20.8603   4
  -2  -9  -3 266.672 23.0085   2
  -2  -9  -4 349.349 24.8741   2
   2   9   4 414.440 26.0800   4
   2   9   5 136.164 21.6037   4
  -2  -9  -5 116.289 19.0563   6
  -2  -9  -5 133.565 21.3013   2
  -2  -9  -6 14.9776 19.1023   6
  -2  -9  -7 137.837 22.5170   6
  -2  -9  -8 188.057 25.6362   6
  -2  -9  -9 11.3799 25.1630   6
  -2  -9 -10-7.13312 25.8598   6
  -2 -10  -1 1025.34 39.6881   2
  -2 -10  -2 666.687 32.6549   2
   2  10   3 1277.41 39.9831   4
  -2 -10  -3 1331.43 43.3071   2
  -2 -10  -4 50.3259 20.1295   2
   2  10   4 35.2368 20.3268   4
   2  10   5 169.590 25.6922   4
  -2 -10  -5 156.210 24.5103   2
  -2 -10  -6 63.7864 22.8697   2
  -2 -10  -6 29.8598 20.4906   6
  -2 -10  -7 77.6068 24.9715   6
  -2 -10  -8 104.176 26.2618   6
  -2 -10  -9 219.682 30.6242   6
  -2 -10 -10 136.752 28.1874   6
  -2 -10 -11 207.517 28.5417   6
  -2 -11   0 63.9907 26.5708   2
  -2 -11  -1 45.3219 24.6397   2
  -2 -11  -2 417.197 31.5816   2
  -2 -11  -3 1144.31 43.8565   2
   2  11   4 1627.78 47.6983   4
  -2 -11  -4 1507.38 48.3753   2
  -2 -11  -5 941.685 39.8643   2
  -2 -11  -6 913.694 39.7699   2
  -2 -11  -7 1152.89 43.4782   2
  -2 -11  -7 1064.39 40.0407   6
  -2 -11  -8 590.137 34.6867   6
  -2 -11  -9 175.280 26.4192   6
  -2 -11 -10 567.282 38.9883   6
  -2 -12  -3 41.8057 22.8392   2
  -2 -12  -4 64.5482 26.5759   2
  -2 -12  -5 40.0608 21.9495   2
  -2 -12  -6-4.67489 25.8807   2
  -2 -12  -7 44.2255 23.0638   2
  -2 -12  -8 165.961 27.3520   6
  -2 -12  -8 103.495 25.5975   2
  -2 -12  -9 41.3169 23.1467   6
   3 -12  -5 0.00000 24.1493   2
   3 -12  -4 59.7458 25.8689   2
   3 -12  -3 716.464 39.4617   2
   3 -12  -2 79.8275 24.8987   2
   3 -12  -1 283.907 28.0018   2
   3 -11  -7 115.371 29.4837   6
   3 -11  -6 452.788 34.1771   6
   3 -11  -5 39.7996 19.5668   2
   3 -11  -4 138.186 27.4905   2
   3 -11  -4 226.059 33.3476   5
   3 -11  -3 351.443 29.3698   2
   3 -11  -3 486.546 34.8530   5
   3 -11  -2 124.184 24.2424   2
   3 -11  -2 193.342 30.9009   5
   3 -11  -1-11.9949 27.1731   5
   3 -11  -1 37.5947 23.5370   2
   3 -11   0 54.6905 18.1086   2
   3 -11   0-17.2372 25.3064   5
   3 -11   1 246.048 31.3805   5
   3 -11   1 177.543 23.3788   2
   3 -11   2 236.810 35.3104   5
   3 -11   2 17.1121 19.5899   2
   3 -10  -8 498.827 34.0942   6
   3 -10  -7 286.401 27.5540   6
   3 -10  -6 175.568 26.2508   6
   3 -10  -5 6.74586 19.0537   6
   3 -10  -4 193.108 23.7533   2
   3 -10  -4 243.469 20.4771   6
   3 -10  -3 777.027 35.0815   2
   3 -10  -3 829.754 38.4559   5
   3 -10  -2 2241.01 51.7657   2
   3 -10  -2 2387.45 56.2978   5
   3 -10  -1 389.375 28.1946   5
   3 -10  -1 380.017 27.7312   2
   3 -10   0 867.958 40.4126   5
   3 -10   0 770.153 34.5393   2
   3 -10   1 179.454 28.8579   5
   3 -10   1 228.888 26.2034   2
   3 -10   2-71.5211 25.0546   5
   3 -10   2 62.6359 21.5183   2
   3 -10   3 165.261 33.0294   5
   3 -10   3-30.8158 23.0854   2
   3 -10   4 78.7100 29.9153   5
   3 -10   4 26.1768 19.1470   2
   3  -9  -9 378.782 33.8459   6
   3  -9  -8 323.740 29.6296   6
   3  -9  -7 834.207 36.3697   6
   3  -9  -6 1940.02 51.3611   6
   3  -9  -5 975.903 37.0945   6
   3  -9  -4 1449.69 40.0351   6
   3  -9  -3 595.437 26.5808   6
   3  -9  -3 505.181 28.0491   2
   3  -9  -2 746.973 31.1203   2
   3  -9  -2 757.401 33.2705   5
   3  -9  -1 430.031 26.6732   2
   3  -9  -1 435.571 29.2722   5
   3  -9   0 1233.46 38.0576   2
   3  -9   0 1260.26 41.5229   5
   3  -9   1 143.913 20.4587   2
   3  -9   1 199.341 26.6378   5
   3  -9   2 510.193 28.4423   2
   3  -9   2 599.072 34.5585   5
   3  -9   3 17.3774 19.9195   5
   3  -9   3 60.5117 17.8527   2
   3  -9   4-24.0415 22.1112   2
   3  -9   4 167.501 29.4935   5
   3  -9   5 73.7873 29.4348   5
   3  -8  -9 135.209 26.6814   6
   3  -8  -8 154.816 24.7221   6
   3  -8  -7-14.3193 20.7256   6
   3  -8  -6 78.9332 21.1199   6
   3  -8  -5 130.567 20.8212   6
   3  -8  -4 260.886 22.6676   6
   3  -8  -3 306.212 21.4644   6
   3  -8  -2 1088.75 30.7631   6
   3  -8  -2 1066.55 32.9341   2
   3  -8  -2 1021.89 34.7616   5
   3  -8  -1 888.326 30.3088   2
   3  -8  -1 891.910 33.2277   5
   3  -8   0-9.92935 18.6650   5
   3  -8   0 40.6050 17.0289   2
   3  -8   1 529.550 28.7091   5
   3  -8   1 504.107 25.8460   2
   3  -8   2 68.4682 21.9879   5
   3  -8   2 45.8712 14.8270   2
   3  -8   3 14.2296 19.4700   5
   3  -8   3 31.0109 18.4838   2
   3  -8   4 87.2730 25.4325   5
   3  -8   4 35.6989 19.2637   2
   3  -8   5 102.610 27.6474   5
   3  -8   5-48.3229 17.4045   2
   3  -8   6 126.381 18.2104   2
   3  -7 -10 62.6920 26.4304   6
   3  -7  -9 1692.30 49.8079   6
   3  -7  -8-24.0455 17.8760   6
   3  -7  -7 1299.79 41.7327   6
   3  -7  -6 110.903 18.5450   6
   3  -7  -5 947.237 33.4193   6
   3  -7  -4 204.458 20.6636   6
   3  -7  -3 2821.68 47.4301   6
   3  -7  -2 4277.07 54.2555   6
   3  -7  -1 4064.98 50.0144   6
   3  -7  -1 3767.57 52.7121   2
   3  -7  -1 3974.43 57.5892   5
   3  -7   0 2503.05 46.6962   5
   3  -7   0 2428.97 43.0924   2
   3  -7   1 1426.35 34.5339   2
   3  -7   1 1439.23 37.9998   5
   3  -7   2 355.003 24.0438   5
   3  -7   2 380.034 22.0571   2
   3  -7   3 394.557 23.4794   2
   3  -7   3 423.719 26.9757   5
   3  -7   4 713.337 29.4203   2
   3  -7   4 759.371 33.8669   5
   3  -7   5 139.269 19.1870   2
   3  -7   5 289.362 26.9394   5
   3  -7   6-28.3773 24.1838   5
   3  -7   6 59.6570 19.5855   2
   3  -7   7 78.0207 18.9000   2
   3  -6  -9 450.688 31.0437   6
   3  -6  -8 221.853 25.7409   6
   3  -6  -7 1318.59 40.7294   6
   3  -6  -6 2250.80 47.9677   6
   3  -6  -5 2197.18 45.5458   6
   3  -6  -4 239.839 21.4647   6
   3  -6  -3 3923.37 53.0820   6
   3  -6  -2 50.6286 13.5855   6
   3  -6  -1 29.2888 15.1644   5
   3  -6  -1 26.6408 11.7222   6
   3  -6  -1 7.76016 12.5891   2
   3  -6   0 1734.73 37.1987   5
   3  -6   0 1772.91 30.0759   6
   3  -6   0 1797.59 34.1397   2
   3  -6   1 715.243 18.8458   0
   3  -6   1 1074.38 28.0017   2
   3  -6   1 1092.44 31.0885   5
   3  -6   2 2192.05 39.2356   2
   3  -6   2 2206.99 43.0455   5
   3  -6   3 11.5909 12.7317   2
   3  -6   3 24.4280 16.6210   5
   3  -6   4 554.238 24.9457   2
   3  -6   4 598.213 27.8432   5
   3  -6   5 28.2213 19.5525   5
   3  -6   5-32.8729 14.8048   2
   3  -6   6 27.4243 22.3342   5
   3  -6   6 70.5879 18.5850   2
   3  -6   7 25.1837 24.0557   5
   3  -6   7 41.7337 20.1547   2
   3  -6   8 70.0771 17.7705   2
   3  -5 -10 64.9478 23.3196   6
  -3   5  10 109.872 16.8732   2
  -3   5   9 216.704 18.4448   2
   3  -5  -9 114.319 19.8372   6
  -3   5   8 78.6222 17.2219   2
   3  -5  -8 130.011 23.3713   6
   3  -5  -7 1172.85 37.8238   6
   3  -5  -6 400.506 24.9105   6
   3  -5  -5 88.7305 16.6772   6
   3  -5  -4 13.2789 15.4385   6
   3  -5  -3 3869.77 50.4338   6
   3  -5  -2 60.8405 13.9480   6
   3  -5  -2 55.9119 8.15032   3
  -3   5   2 77.3074 6.14635   0
  -3   5   1 6357.77 42.4617   0
   3  -5  -1 6290.75 56.6296   6
   3  -5  -1 6531.25 60.9391   5
   3  -5   0 1075.39 23.2206   6
   3  -5   0 1094.82 25.0169   2
   3  -5   0 1121.47 28.5207   5
   3  -5   1 2455.47 30.7349   6
   3  -5   1 2358.57 31.7981   0
   3  -5   1 2448.21 35.6647   2
   3  -5   1 2408.17 39.7664   5
   3  -5   2 522.900 19.7317   2
   3  -5   2 560.652 22.6684   5
   3  -5   3 1761.69 33.6828   2
   3  -5   3 1797.61 38.1210   5
   3  -5   4 610.841 23.1997   2
   3  -5   4 675.055 27.8745   5
   3  -5   5 2587.13 45.3230   2
   3  -5   5 2677.06 51.1810   5
   3  -5   6 199.052 18.0783   2
   3  -5   6 185.430 22.3632   5
   3  -5   7 87.6385 22.2213   5
   3  -5   7 36.5501 15.2279   2
   3  -5   8 114.510 28.7037   5
   3  -5   8-71.3083 18.4455   2
  -3   4  10 233.667 18.7062   2
  -3   4   9 494.530 26.9713   2
   3  -4  -9 477.136 28.5112   6
  -3   4   8 2062.79 47.4356   2
   3  -4  -8 2024.38 47.3705   6
  -3   4   7 651.788 26.7380   2
   3  -4  -7 567.605 27.6464   6
   3  -4  -6 8029.10 80.4153   6
  -3   4   6 7818.12 78.1180   2
  -3   4   5 1900.53 36.6463   2
   3  -4  -5 1929.30 39.8434   6
   3  -4  -4 1252.87 31.2450   6
   3  -4  -3 2143.08 37.2091   6
   3  -4  -2 1875.47 24.3305   3
   3  -4  -2 1931.56 33.2548   6
   3  -4  -1 733.478 21.3300   6
   3  -4  -1 689.542 16.7951   3
  -3   4   1 763.524 15.1909   0
   3  -4   0 25.5813 12.5843   5
  -3   4   0 36.6281 6.70613   0
   3  -4   0 14.5587 7.85828   6
   3  -4   0 26.6645 9.42916   3
   3  -4   1 76.0770 9.36110   6
   3  -4   1 88.8340 9.41863   0
   3  -4   1 81.1649 11.3288   2
   3  -4   1 87.6025 13.8489   5
   3  -4   2 309.203 13.9780   0
   3  -4   2 273.356 11.8435   6
   3  -4   2 345.062 18.2930   5
   3  -4   2 284.674 14.2022   2
   3  -4   3 46.9910 14.9184   5
   3  -4   3 30.7554 10.6043   2
   3  -4   4 190.628 17.5073   5
   3  -4   4 237.350 15.7702   2
   3  -4   5 2069.56 43.0183   5
   3  -4   5 1963.23 36.5902   2
   3  -4   6 1542.46 36.8762   2
   3  -4   6 1595.50 40.9534   5
   3  -4   7 166.822 18.6255   2
   3  -4   7 139.684 21.6994   5
   3  -4   8 1.37951 22.4082   5
   3  -4   8 103.717 16.1520   2
   3  -4   9 89.4865 22.1279   2
   3  -4   9 8.27386 24.9013   5
  -3   3  10 18.0253 17.9450   2
  -3   3   9-51.0172 15.4751   2
   3  -3  -8 158.790 21.3945   6
  -3   3   8 66.9895 16.5191   2
   3  -3  -7 273.926 19.7195   6
  -3   3   7 229.334 18.5711   2
   3  -3  -6 261.685 20.3920   6
  -3   3   6 253.792 18.9099   2
  -3   3   5 1587.62 33.3841   2
   3  -3  -5 1535.10 34.2355   6
  -3   3   4 531.352 19.2998   2
   3  -3  -4 513.756 21.3004   6
   3  -3  -3 2204.56 36.1250   6
  -3   3   3 2173.34 32.0657   2
   3  -3  -2-3.24008 11.6253   6
   3  -3  -1 3403.69 39.0341   6
   3  -3   0 157.461 11.6107   6
   3  -3   0 154.837 11.1473   3
   3  -3   0 156.400 13.1185   5
  -3   3   0 180.841 9.65583   0
   3  -3   1 3247.18 33.1425   6
  -3   3  -1 3269.66 32.3669   0
   3  -3   1 3146.34 33.8839   3
   3  -3   1 3205.04 37.6166   5
   3  -3   1 3226.73 30.9084   2
   3  -3   2 1613.79 29.3543   5
   3  -3   2 1638.42 23.2187   6
   3  -3   2 1554.99 25.1009   0
   3  -3   2 1624.28 23.1595   2
   3  -3   3 12081.0 65.7573   2
   3  -3   3 12113.6 73.4425   0
   3  -3   3 12168.6 81.3472   5
   3  -3   4 605.669 23.1979   5
   3  -3   4 578.606 18.1001   2
   3  -3   5 59.5297 16.1602   5
   3  -3   5 86.0986 12.5558   2
   3  -3   6 230.623 17.1260   2
   3  -3   6 213.671 20.8722   5
   3  -3   7 585.380 24.9322   2
   3  -3   7 613.382 29.6098   5
   3  -3   8 54.7776 15.5111   2
   3  -3   8 125.159 23.1464   5
   3  -3   9 158.430 20.1402   2
   3  -3   9 244.335 29.2383   5
   3  -3  10 141.876 20.7992   2
  -3   2  10 72.8231 15.0837   2
  -3   2   9 57.7818 17.7227   2
  -3   2   8 135.388 19.0926   2
   3  -2  -7 244.647 18.2244   6
  -3   2   7 277.642 20.4799   2
  -3   2   6 1611.31 37.4295   2
   3  -2  -6 1513.69 35.0425   6
   3  -2  -5 502.398 21.3346   6
  -3   2   5 451.556 20.5473   2
  -3   2   4 183.572 13.7884   2
   3  -2  -4 226.754 16.1985   6
   3  -2  -3 120.127 13.1264   6
  -3   2   3 151.317 12.4200   2
   3  -2  -3 70.0527 3.26611   1
   3  -2  -2 23885.4 102.282   6
  -3   2   2 24217.5 90.1355   2
   3  -2  -1 7001.41 52.5539   6
   3  -2   0 14524.1 69.6469   6
   3  -2   0 14555.5 66.0414   5
   3  -2   1 10719.8 58.3066   3
   3  -2   1 10835.4 57.1575   6
  -3   2  -1 10981.1 55.6861   0
   3  -2   1 10846.5 44.2497   2
   3  -2   1 10855.8 60.7853   5
   3  -2   2 20.6669 11.5144   5
  -3   2  -2 26.8263 8.45618   0
   3  -2   2 40.5803 9.37351   0
   3  -2   2 38.5673 6.96340   2
   3  -2   2 35.3306 11.5347   3
   3  -2   3 988.991 17.4738   2
   3  -2   3 1002.00 21.9012   0
   3  -2   3 990.717 23.3698   5
   3  -2   4 154.203 15.3892   5
   3  -2   4 174.541 11.0135   2
   3  -2   4 176.560 12.9096   0
   3  -2   5-1.59477 9.72165   2
   3  -2   5-6.90194 14.8935   5
   3  -2   6 1492.42 30.3038   2
   3  -2   6 1512.83 36.1109   5
   3  -2   7 234.537 21.3482   5
   3  -2   7 245.951 17.8082   2
   3  -2   8 80.5874 15.2670   2
   3  -2   8 47.2404 19.6705   5
   3  -2   9 86.6052 17.9781   2
   3  -2   9 66.5799 21.7690   5
   3  -2  10 282.174 24.9080   2
   3  -2  10 154.086 26.7271   5
   3  -2  11-13.5638 16.0644   2
  -3   1   9-62.3865 13.5763   2
  -3   1   8 110.104 17.1977   2
  -3   1   7 248.132 23.7666   2
   3  -1  -6 1208.39 30.2780   6
  -3   1   6 1144.04 33.6985   2
   3  -1  -5 3701.57 47.7209   6
  -3   1   5 3711.77 51.6831   2
   3  -1  -4 4114.09 47.0352   6
  -3   1   4 3975.53 48.4472   2
   3  -1  -3 10905.7 70.8090   6
  -3   1   3 10900.5 69.6017   2
  -3   1   2 2872.48 32.8599   2
   3  -1  -2 2859.89 35.4031   6
   3  -1  -1 248.468 13.5026   6
  -3   1   1 220.067 9.86502   2
   3  -1   0 6950.91 39.3588   5
   3  -1   0 6927.80 46.9657   6
  -3   1   0 7152.15 32.6936   2
   3  -1   1 82.6536 9.14272   5
  -3   1  -1 86.2587 6.05014   1
   3  -1   1 107.955 10.5208   6
   3  -1   1 98.2138 9.81885   3
   3  -1   2 287.366 13.7126   3
   3  -1   2 301.857 8.04265   4
  -3   1  -2 313.044 11.6677   0
   3  -1   2 319.220 13.0424   5
   3  -1   3 503.635 10.6085   2
  -3   1  -3 578.746 15.5494   0
   3  -1   3 537.421 17.6993   5
   3  -1   3 501.933 15.5446   0
   3  -1   4 4426.55 34.9682   2
   3  -1   4 4472.03 47.2798   5
   3  -1   4 4622.49 43.7586   0
   3  -1   5 704.172 17.9337   2
   3  -1   5 751.317 20.0463   0
   3  -1   5 727.657 23.9921   5
   3  -1   6 3985.12 43.9673   2
   3  -1   6 4052.19 53.2064   5
   3  -1   7 5128.85 63.8181   5
   3  -1   7 5034.14 55.0461   2
   3  -1   8 933.697 28.7215   2
   3  -1   8 1022.62 34.9524   5
   3  -1   9 84.7452 15.2714   2
   3  -1   9 30.7754 21.4699   5
   3  -1  10-8.64114 11.8928   2
   3  -1  10 47.2871 23.4649   5
   3  -1  11 136.902 19.8398   2
  -3   0   9 116.670 22.9763   2
  -3   0   8-11.6375 17.8580   2
  -3   0   7 157.092 20.3779   2
  -3   0   6 1523.69 37.9565   2
  -3   0   5 410.644 21.6150   2
   3   0  -5 433.692 18.8205   6
  -3   0   4 4583.56 52.3099   2
   3   0  -4 4678.15 47.6863   6
  -3   0   3 20.5109 10.6072   2
   3   0  -3 36.5918 10.9801   6
   3   0  -2 497.027 16.2940   6
  -3   0   2 472.462 15.7644   2
   3   0  -1 685.885 17.3844   6
  -3   0   1 718.842 15.3561   2
  -3   0   0 10752.5 41.8486   2
   3   0   0 10603.4 53.9181   4
   3   0   0 10762.5 57.3496   6
   3   0   0 10720.3 37.0293   5
   3   0   1-0.17288 6.51545   5
  -3   0  -1 10.1736 5.12851   1
   3   0   1 1.34497 7.34845   4
   3   0   2 52.4430 8.70875   5
   3   0   2 52.6053 7.11723   4
  -3   0  -2 70.7728 7.31697   1
   3   0   2 65.8217 11.3219   3
   3   0   3 15.6546 9.31264   5
   3   0   3 4.55916 4.13012   2
  -3   0  -3 16.6417 8.02680   0
  -3   0  -3 19.3941 7.55498   1
   3   0   3 0.97934 11.1875   3
   3   0   3 7.37676 6.48255   4
  -3   0  -4 757.069 17.3691   0
   3   0   4 744.189 12.9106   4
   3   0   4 728.524 13.5104   2
   3   0   4 726.436 17.2155   0
   3   0   4 750.001 21.4621   5
   3   0   5 662.038 15.9390   2
   3   0   5 667.712 21.9480   5
   3   0   5 707.854 19.9421   0
   3   0   6 1455.68 26.3138   2
   3   0   6 1435.12 33.1623   5
   3   0   7 2200.00 35.8733   2
   3   0   7 2259.06 42.6096   5
   3   0   8 1122.91 29.7647   2
   3   0   8 1129.51 35.0099   5
   3   0   9-5.69528 14.0230   2
   3   0   9 64.5897 19.0003   5
   3   0  10 64.0518 17.5551   2
   3   0  11 578.592 29.6783   2
  -3   0 -12-52.5919 18.5804   1
   3   0  12 92.8633 18.1025   2
  -3  -1   9 54.4677 19.1749   2
  -3  -1   8 42.3649 18.4667   2
  -3  -1   7 598.698 29.9295   2
   3   1  -7 601.291 28.4016   4
  -3  -1   6 1020.23 34.1459   2
  -3  -1   5 2619.05 46.0080   2
  -3  -1   4 834.802 26.0787   2
   3   1  -4 911.311 21.6219   6
  -3  -1   3 5887.05 55.7203   2
   3   1  -3 5955.77 48.3913   6
  -3  -1   2 80.9616 11.3924   2
   3   1  -2 98.1183 12.6391   4
   3   1  -2 96.1697 10.7345   6
  -3  -1   1 2153.58 26.9198   2
   3   1  -1 2187.10 29.3214   4
   3   1  -1 2207.95 27.3119   6
  -3  -1   0 1241.87 17.5492   2
   3   1   0 1253.36 21.6485   4
   3   1   0 1255.35 20.7766   6
  -3  -1  -1 22901.1 215.735   2
   3   1   1 23002.4 78.2803   4
   3   1   1 23292.2 56.3885   5
  -3  -1  -2 794.332 14.9990   1
   3   1   2 823.062 15.9823   4
   3   1   2 768.675 14.9391   5
   3   1   3 1559.79 20.6475   4
   3   1   3 1511.20 23.0505   5
   3   1   3 1647.80 24.1600   3
  -3  -1  -3 1538.16 22.1230   1
   3   1   4 15149.9 61.8903   4
   3   1   4 15123.5 54.3306   2
  -3  -1  -4 15166.4 69.6308   0
   3   1   4 15280.1 72.7747   3
  -3  -1  -4 15219.3 74.9812   1
   3   1   4 15271.2 78.1742   5
   3   1   5 3304.52 35.3705   0
  -3  -1  -5 3343.38 40.1169   1
   3   1   5 3508.68 42.7449   5
   3   1   5 3280.95 31.6125   2
   3   1   6 4221.47 43.6919   0
   3   1   6 4205.57 41.5036   2
   3   1   6 4290.98 51.3458   5
  -3  -1  -6 4082.24 49.2382   1
   3   1   7 1398.56 27.7403   2
  -3  -1  -7 1393.83 32.1431   1
   3   1   7 1372.13 33.9503   5
  -3  -1  -8 818.118 28.0109   1
  -3  -1  -8 813.647 25.6230   6
   3   1   8 806.451 24.0384   2
   3   1   9 1024.74 29.8543   2
  -3  -1  -9 1026.34 33.3262   1
   3   1  10 5.70674 13.6849   2
  -3  -1 -10-37.1804 15.1124   1
  -3  -1 -11 77.0358 19.1118   1
   3   1  11 82.2110 15.2247   2
   3   1  12-29.3263 16.2194   2
  -3  -1 -12 71.3610 17.4502   1
  -3  -2   8 304.363 28.2496   2
  -3  -2   7 41.8374 18.1296   2
  -3  -2   6 24.8059 16.5730   2
   3   2  -6 87.4528 20.5159   4
  -3  -2   5 372.624 23.0031   2
   3   2  -5 388.201 21.5677   4
  -3  -2   4 147.517 16.7450   2
   3   2  -4 124.557 16.5632   4
  -3  -2   3 4826.88 53.7149   2
   3   2  -3 4910.48 51.2984   4
   3   2  -3 4609.21 40.9613   6
   3   2  -2 3285.76 33.3466   6
  -3  -2   2 3344.88 41.0895   2
   3   2  -2 3382.44 40.2697   4
  -3  -2   1 12241.4 67.8084   2
   3   2  -1 12306.9 69.9354   4
   3   2   0 614.784 17.8134   4
  -3  -2   0 612.762 15.6296   2
  -3  -2  -1 6563.70 38.3266   2
   3   2   1 6429.70 46.4160   4
   3   2   2 2256.29 27.4164   4
  -3  -2  -2 2305.32 21.1273   2
  -3  -2  -3 2914.88 31.5702   1
   3   2   3 2936.57 31.3090   4
   3   2   4 3730.40 35.5216   4
   3   2   4 3767.42 35.6155   3
  -3  -2  -4 3739.67 33.6011   0
  -3  -2  -4 3778.95 38.2295   1
   3   2   5 2602.36 31.3515   4
  -3  -2  -5 2599.83 29.9868   0
  -3  -2  -5 2578.03 34.8156   1
   3   2   5 2581.82 28.4027   2
  -3  -2  -6 248.305 15.2011   1
   3   2   6 254.939 12.5534   2
   3   2   6 265.584 12.5076   0
   3   2   7 1128.62 23.8420   0
   3   2   7 1177.47 25.7209   2
  -3  -2  -7 1114.66 28.4997   1
  -3  -2  -8 356.201 19.8964   6
  -3  -2  -8 328.190 18.9784   1
   3   2   8 333.982 17.8696   2
  -3  -2  -9 137.199 18.3375   6
   3   2   9 146.307 15.9494   2
  -3  -2  -9 113.618 16.6914   1
   3   2  10 52.4711 15.3374   2
  -3  -2 -10 66.8955 16.0788   1
   3   2  11 97.4582 15.1487   2
  -3  -2 -11 94.6617 18.4848   1
   3   2  12 106.979 16.7397   2
  -3  -2 -12 249.234 20.9431   1
   3   2  13-28.9364 17.3072   2
  -3  -3   8-54.0971 20.3189   2
  -3  -3   7 81.6027 18.8466   2
  -3  -3   6 83.9058 19.8269   2
  -3  -3   5 132.712 19.1780   2
   3   3  -5 114.666 18.6788   4
  -3  -3   4 289.176 21.4287   2
   3   3  -4 258.703 19.8978   4
  -3  -3   3 1778.56 36.6887   2
   3   3  -3 1700.71 32.8183   4
   3   3  -2 20.0463 12.6167   4
  -3  -3   2 24.3956 12.4143   2
   3   3  -1 10.9716 12.6183   4
  -3  -3   1-0.80538 9.99507   2
  -3  -3   0 1573.75 25.9064   2
   3   3   0 1616.75 28.1214   4
  -3  -3  -1 5080.64 40.8827   2
   3   3   1 5246.23 45.5094   4
   3   3   2 735.548 19.7990   4
  -3  -3  -2 717.029 16.1335   2
   3   3   3 391.981 16.5667   4
  -3  -3  -3 411.802 15.2579   1
   3   3   4 40.3195 11.5428   4
  -3  -3  -4 14.2815 9.38249   1
   3   3   4 35.5960 9.53642   3
   3   3   5 6267.41 51.8293   4
   3   3   5 6256.97 45.2499   3
  -3  -3  -5 6408.13 43.7535   0
  -3  -3  -5 6099.38 53.3463   1
  -3  -3  -6 8.61825 10.9995   1
   3   3   7 3277.94 36.8004   0
  -3  -3  -7 3400.82 45.8582   1
   3   3   7 3287.83 41.3145   2
  -3  -3  -8 141.728 17.6188   6
   3   3   8 143.277 13.5076   2
  -3  -3  -8 94.5350 14.5971   1
   3   3   9 151.012 15.9086   2
  -3  -3  -9 206.178 21.1875   6
  -3  -3  -9 201.060 18.0549   1
   3   3  10 94.0783 15.4155   2
  -3  -3 -10 92.9087 16.4840   1
  -3  -3 -10 141.646 21.4768   6
   3   3  11 142.874 17.5088   2
  -3  -3 -11 182.004 19.4744   1
   3   3  12 270.525 20.6173   2
  -3  -3 -12 379.160 24.2935   1
   3   3  13 10.0504 18.2305   2
  -3  -3 -13 82.1095 19.0451   1
  -3  -4   7 54.8977 23.4783   2
  -3  -4   6 82.1004 19.5765   2
  -3  -4   5 185.561 22.1877   2
  -3  -4   4 30.3186 15.9999   2
   3   4  -4 29.6605 16.5815   4
  -3  -4   3 1595.19 37.9846   2
   3   4  -3 1558.40 33.5067   4
  -3  -4   2 525.998 22.6597   2
   3   4  -2 570.830 21.7783   4
  -3  -4   1 454.332 19.8041   2
   3   4  -1 458.534 19.7214   4
  -3  -4   0 2980.62 39.2488   2
   3   4   0 3062.98 39.2293   4
  -3  -4  -1 265.409 14.6295   2
   3   4   1 232.317 15.4471   4
   3   4   2 3240.05 39.4674   4
  -3  -4  -2 3195.56 36.0987   2
   3   4   3 1529.80 28.7981   4
  -3  -4  -3 1565.86 25.8650   2
   3   4   4 2380.34 34.6046   4
  -3  -4  -4 2423.41 33.7703   1
  -3  -4  -5 12194.9 57.2631   0
   3   4   5 12158.8 76.3315   4
  -3  -4  -5 12205.8 75.7202   1
   3   4   5 12591.2 60.5781   3
  -3  -4  -6 1443.90 21.2670   0
  -3  -4  -6 1429.25 29.4219   1
   3   4   6 1511.95 31.4990   4
  -3  -4  -7 18227.6 104.433   1
  -3  -4  -8 3128.35 47.4576   1
  -3  -4  -8 3260.85 50.2673   6
  -3  -4  -9 742.473 29.8581   6
  -3  -4  -9 625.895 25.7629   1
  -3  -4 -10 1448.33 37.5462   1
  -3  -4 -10 1487.41 40.9001   6
   3   4  10 1492.23 36.6039   2
  -3  -4 -11 17.5940 23.3422   6
  -3  -4 -11 15.7705 13.7241   1
   3   4  12-48.1590 13.8702   2
  -3  -4 -12 50.4307 13.3276   1
  -3  -4 -13 50.1191 17.9101   1
   3   4  13-52.4182 18.2021   2
  -3  -5   6 15.4213 20.2148   2
  -3  -5   5 22.6264 20.3801   2
  -3  -5   4 202.662 24.1898   2
  -3  -5   3 197.564 19.5762   2
   3   5  -3 207.672 19.0775   4
  -3  -5   2 183.296 18.3917   2
   3   5  -2 191.864 17.8805   4
  -3  -5   1 548.329 23.5646   2
   3   5  -1 541.638 22.1601   4
  -3  -5   0 3628.36 47.9449   2
   3   5   0 3605.44 45.4935   4
  -3  -5  -1 24.3332 11.9124   2
   3   5   1 7.07069 13.7346   4
   3   5   2 2315.62 36.3189   4
  -3  -5  -2 2181.83 34.3284   2
   3   5   3 356.711 18.8769   4
  -3  -5  -3 363.877 17.0763   2
   3   5   4 295.827 18.4216   4
   3   5   5 194.910 16.3288   4
   3   5   5 193.986 10.8347   3
   3   5   6 237.270 18.8165   4
  -3  -5  -6 272.383 17.4187   1
  -3  -5  -7 834.206 26.1368   1
  -3  -5  -8 733.533 27.1082   1
  -3  -5  -8 804.438 30.0076   6
  -3  -5  -9 143.759 18.4474   1
  -3  -5  -9 154.372 22.3494   6
  -3  -5 -10-9.32296 14.5430   1
  -3  -5 -10 61.8753 21.6415   6
  -3  -5 -11 27.1137 14.1404   1
  -3  -5 -11 42.4754 21.1159   6
  -3  -5 -12 264.740 17.5903   1
  -3  -5 -12 317.158 31.3839   6
  -3  -6   5-5.23557 18.8411   2
  -3  -6   4 323.420 25.5196   2
  -3  -6   3 212.697 23.1924   2
   3   6  -2 2128.09 40.9213   4
  -3  -6   2 2114.39 45.8057   2
  -3  -6   1 820.386 30.5960   2
   3   6  -1 796.438 26.8627   4
  -3  -6   0 574.548 24.5784   2
   3   6   0 586.687 24.1915   4
   3   6   1 10.1232 14.9098   4
  -3  -6  -1 54.1614 15.2207   2
   3   6   2 1223.59 30.7212   4
  -3  -6  -2 1287.20 30.4991   2
   3   6   3 1157.93 29.4523   4
  -3  -6  -3 1147.25 28.7637   2
   3   6   4 3003.69 44.8160   4
  -3  -6  -4 3007.04 43.0127   2
   3   6   5 3012.55 45.4899   4
   3   6   6 2915.27 46.6929   4
  -3  -6  -7 3809.55 50.8957   1
  -3  -6  -7 3767.48 54.9093   6
  -3  -6  -8 3654.76 51.9717   1
  -3  -6  -8 3623.89 57.2819   6
  -3  -6  -9 86.7900 14.9656   1
  -3  -6  -9 92.1037 22.9722   6
  -3  -6 -10 438.297 23.5103   1
  -3  -6 -10 498.455 30.6680   6
  -3  -6 -11-11.1090 15.9198   1
  -3  -6 -11 51.5729 23.7385   6
  -3  -6 -12 2.41612 15.5935   1
  -3  -6 -12 16.3469 26.7273   6
  -3  -7   4-2.77279 18.8910   2
  -3  -7   3 194.866 24.2192   2
  -3  -7   2 1541.72 44.0541   2
  -3  -7   1 1032.17 35.0627   2
   3   7  -1 1079.27 32.8436   4
  -3  -7   0 4040.89 59.9820   2
   3   7   0 4030.32 54.5936   4
   3   7   1 9044.58 79.2019   4
  -3  -7  -1 8990.23 84.1232   2
   3   7   2 5357.18 61.7644   4
  -3  -7  -2 5246.11 62.8488   2
   3   7   3 5124.09 60.7578   4
  -3  -7  -3 5271.62 62.3610   2
   3   7   4 2570.55 44.7619   4
  -3  -7  -4 2629.62 44.7478   2
   3   7   5 318.641 22.4468   4
  -3  -7  -5 300.751 20.6341   2
   3   7   6 1302.87 35.9525   4
  -3  -7  -6 1303.31 34.4719   6
   3   7   7-12.0766 18.6373   4
  -3  -7  -7-2.83082 16.4993   6
  -3  -7  -8 8920.90 89.4314   6
  -3  -7  -9 142.151 17.2841   1
  -3  -7  -9 113.871 22.7264   6
  -3  -7 -10 692.460 26.7779   1
  -3  -7 -10 698.474 35.4955   6
  -3  -7 -11 98.2206 28.2240   6
  -3  -7 -11 64.8928 16.0316   1
  -3  -7 -12 31.0650 28.1329   6
  -3  -8   3 105.791 23.0306   2
  -3  -8   2 36.7872 21.4703   2
  -3  -8   1 37.9110 20.5114   2
   3   8   0 69.1822 20.5199   4
  -3  -8   0 117.391 19.5406   2
   3   8   1 219.997 21.5746   4
  -3  -8  -1 151.243 19.9936   2
   3   8   2 220.604 22.6703   4
  -3  -8  -2 198.249 21.9253   2
   3   8   3 384.118 24.3731   4
  -3  -8  -3 331.593 22.5985   2
   3   8   4 74.3058 18.9062   4
  -3  -8  -4 33.9396 16.5697   2
  -3  -8  -4 72.1800 15.5799   6
   3   8   5 459.428 27.3816   4
  -3  -8  -5 365.616 22.4963   6
  -3  -8  -5 327.739 21.9993   2
  -3  -8  -6 53.5464 18.5781   6
   3   8   6 43.0649 20.5729   4
   3   8   7 444.751 29.3115   4
  -3  -8  -7 493.459 27.3254   6
  -3  -8  -8 1306.58 40.1027   6
  -3  -8  -9 381.825 27.7758   6
  -3  -8 -10 6.44778 22.0917   6
  -3  -8 -10 53.2225 15.3577   1
  -3  -8 -11 7.84946 25.0923   6
  -3  -8 -11-51.9102 12.7132   1
  -3  -8 -12 431.884 35.1149   6
  -3  -9   2 11.2806 23.6307   2
  -3  -9   1 321.542 25.9680   2
  -3  -9   0 19.6490 18.5305   2
   3   9   1 111.379 23.5156   4
  -3  -9  -1 18.0911 20.0318   2
  -3  -9  -2 8.74082 17.7825   2
   3   9   2 29.5551 21.2359   4
   3   9   3-18.0315 19.2344   4
  -3  -9  -3 40.8345 19.2801   2
  -3  -9  -4-15.4045 17.0790   2
   3   9   4-19.5673 20.4646   4
   3   9   5 1351.01 39.2262   4
  -3  -9  -5 1432.42 37.0595   6
  -3  -9  -5 1486.21 40.9751   2
   3   9   6 59.5919 21.3419   4
  -3  -9  -6 61.5945 19.0645   6
  -3  -9  -6 132.638 21.8298   2
   3   9   7 2249.72 51.3358   4
  -3  -9  -7 2278.75 49.2779   6
  -3  -9  -8 1023.72 38.4840   6
  -3  -9  -9 2149.84 53.9146   6
  -3  -9 -10 333.823 31.6763   6
  -3  -9 -11 486.165 37.1705   6
  -3 -10   1 223.484 27.1690   2
  -3 -10   0 169.239 27.9092   2
  -3 -10  -1 735.205 37.4980   2
  -3 -10  -2 669.010 33.6503   2
   3  10   3 1181.04 40.9576   4
  -3 -10  -3 1097.72 39.2033   2
   3  10   4 662.382 32.4099   4
  -3 -10  -4 595.915 33.3432   2
   3  10   5 969.583 37.7118   4
  -3 -10  -5 991.709 37.5840   2
  -3 -10  -6 55.6909 20.9078   6
  -3 -10  -6 6.92237 20.2323   2
   3  10   6 9.58049 24.9153   4
  -3 -10  -7 17.6150 21.0714   2
  -3 -10  -8-5.55875 23.8925   6
  -3 -10  -9 1102.55 43.1768   6
  -3 -10 -10 99.8433 25.6644   6
  -3 -10 -11 480.059 35.5795   6
  -3 -11  -1-57.2408 26.9724   2
  -3 -11  -2 15.5367 23.6262   2
  -3 -11  -3 252.575 27.4204   2
   3  11   4-51.2404 24.8252   4
  -3 -11  -4 49.4755 20.1199   2
   3  11   5 35.0998 27.5643   4
  -3 -11  -5 43.2032 20.2649   2
   3  11   6 617.343 35.9319   4
  -3 -11  -6 450.475 32.9485   2
  -3 -11  -7 60.6728 23.8466   2
  -3 -11  -7 32.3951 23.3802   6
  -3 -11  -8 530.374 33.0746   2
  -3 -11  -8 450.355 34.2209   6
  -3 -11  -9 513.879 36.1378   6
  -3 -11 -10 410.867 37.9285   6
  -3 -12  -4 575.068 36.0644   2
   3  12   5 257.761 32.7901   4
  -3 -12  -5 109.761 26.3124   2
  -3 -12  -6-22.6250 24.9668   2
  -3 -12  -8 339.042 32.2717   2
  -3 -12  -9 336.296 34.7818   6
   4 -12  -3 284.448 28.7866   2
   4 -12  -2 96.1937 22.5064   2
   4 -11  -6 1600.01 53.1447   6
   4 -11  -5 1080.59 44.4331   6
   4 -11  -5 1201.77 50.9564   5
   4 -11  -4 1510.26 47.8675   2
   4 -11  -4 1626.84 53.3067   5
   4 -11  -3 848.682 38.6898   2
   4 -11  -3 753.496 40.9059   5
   4 -11  -2 574.571 34.2098   2
   4 -11  -2 703.866 42.4759   5
   4 -11  -1 211.802 23.0690   2
   4 -11  -1 349.504 33.4485   5
   4 -11   0 46.8845 29.3301   5
   4 -11   0 13.2980 20.3851   2
   4 -10  -7 170.869 31.5201   6
   4 -10  -6 41.7397 23.4001   6
   4 -10  -5-15.3559 23.6679   6
   4 -10  -4 655.269 33.5342   6
   4 -10  -4 642.312 36.8183   5
   4 -10  -3 91.2224 25.9947   5
   4 -10  -3 80.3707 23.1046   2
   4 -10  -2 395.687 27.4744   2
   4 -10  -2 354.594 30.6109   5
   4 -10  -1-17.0894 25.4681   5
   4 -10  -1 5.08049 18.5372   2
   4 -10   0 24.4365 19.2526   2
   4 -10   2-61.1257 27.5832   5
   4 -10   3 185.465 31.5794   5
   4  -9  -8 125.578 24.0687   6
   4  -9  -7 33.5245 23.8317   6
   4  -9  -6 1692.29 49.4566   6
   4  -9  -5 195.068 25.1432   6
   4  -9  -4 2497.39 53.6804   6
   4  -9  -3 755.392 31.4514   6
   4  -9  -3 644.651 30.2216   2
   4  -9  -3 730.610 36.7830   5
   4  -9  -2 30.1978 18.1706   2
   4  -9  -2 60.6894 22.0835   5
   4  -9  -1 61.2210 23.2019   5
   4  -9  -1 79.7234 19.7418   2
   4  -9   0 57.3291 25.0768   5
   4  -9   0-3.42775 17.4136   2
   4  -9   1 1560.77 46.8746   5
   4  -9   1 1668.21 42.7576   2
   4  -9   2 49.4009 23.7561   5
   4  -9   2-6.27773 16.4324   2
   4  -9   3 524.528 35.2179   5
   4  -9   4 385.785 36.5981   5
   4  -9   5 262.309 34.0036   5
   4  -8  -8 62.3140 22.4238   6
   4  -8  -7 68.8615 25.7271   6
   4  -8  -6 132.875 24.2902   6
   4  -8  -5 1230.70 40.4876   6
   4  -8  -4 1112.62 36.5934   6
   4  -8  -3 1355.77 38.6601   6
   4  -8  -2 19.9379 21.5220   5
   4  -8  -2 3.43613 15.3732   6
   4  -8  -2-14.9993 17.3731   2
   4  -8  -1 444.376 23.7494   2
   4  -8  -1 412.836 27.9074   5
   4  -8   0-19.5812 20.4926   5
   4  -8   0-15.3962 16.0711   2
   4  -8   1 18.9314 21.6085   5
   4  -8   1 1.74045 15.2074   2
   4  -8   2 30.8281 22.7304   5
   4  -8   2 83.5010 16.8015   2
   4  -8   3-21.8717 22.5537   5
   4  -8   3-3.15427 15.7091   2
   4  -8   4 25.3475 23.4728   5
   4  -8   5 131.001 28.3195   5
   4  -8   6 269.226 38.9981   5
   4  -7  -9 123.665 24.0336   6
   4  -7  -8 553.042 33.7602   6
   4  -7  -7 413.229 30.2174   6
   4  -7  -6 31.8957 22.5959   6
   4  -7  -5 22.2801 18.8154   6
   4  -7  -4 859.874 32.9765   6
   4  -7  -3 2378.87 46.6622   6
   4  -7  -2 2420.94 45.6986   6
   4  -7  -2 2479.76 48.0524   5
   4  -7  -1 1897.63 39.0134   2
   4  -7  -1 1975.46 39.2521   6
   4  -7  -1 1925.16 43.8420   5
   4  -7   0 4437.49 56.6056   2
   4  -7   0 4476.94 63.5709   5
   4  -7   1-16.0758 18.5835   5
   4  -7   1-2.39122 15.3375   2
   4  -7   2 569.027 24.9294   2
   4  -7   2 618.249 30.2345   5
   4  -7   3 282.088 21.3554   2
   4  -7   3 292.749 24.6548   5
   4  -7   4-15.5634 21.2546   5
   4  -7   4 65.5296 13.6878   2
   4  -7   5 38.0848 23.8310   5
   4  -7   6 173.179 32.0056   5
   4  -7   7 267.979 32.2147   5
   4  -6  -9 5.37254 20.3327   6
   4  -6  -8 105.173 24.6185   6
   4  -6  -7 71.2767 21.0225   6
   4  -6  -6 155.250 21.6650   6
   4  -6  -5 3190.56 56.3445   6
   4  -6  -4 2965.45 52.6234   6
   4  -6  -3 12752.5 99.3836   6
   4  -6  -2 7096.42 71.8364   6
   4  -6  -1 654.752 24.3826   6
   4  -6  -1 721.144 28.1017   5
   4  -6   0 3419.19 45.0200   6
   4  -6   0 3469.60 45.9905   2
   4  -6   0 3568.89 53.1809   5
   4  -6   1 120.391 19.8118   5
   4  -6   1 123.908 12.7464   6
   4  -6   1 166.507 15.7048   2
   4  -6   2 89.6274 18.5064   5
   4  -6   2 101.763 14.9735   2
   4  -6   3 507.771 22.3818   2
   4  -6   3 455.099 26.1684   5
   4  -6   4 1507.18 35.6678   2
   4  -6   4 1541.89 42.8340   5
   4  -6   5 486.563 23.1981   2
   4  -6   5 804.172 35.2904   5
   4  -6   6 242.027 27.8585   5
   4  -6   7 1250.10 46.6954   5
   4  -6   8-44.6837 31.2236   5
   4  -5 -10 774.611 39.6211   6
  -4   5   9 106.205 16.7425   2
   4  -5  -8 694.410 33.6152   6
   4  -5  -7 32.8498 19.7394   6
   4  -5  -6 48.5373 18.4406   6
   4  -5  -5 199.346 21.0376   6
   4  -5  -4 2066.44 42.9620   6
   4  -5  -3 2883.00 47.6047   6
   4  -5  -2 2236.19 40.3219   6
   4  -5  -1 1364.65 30.7307   6
   4  -5  -1 1349.24 25.0546   3
  -4   5   1 1373.65 22.7805   0
   4  -5  -1 1335.40 32.1053   5
  -4   5   0 686.575 17.4139   0
   4  -5   0 653.865 21.4247   6
   4  -5   0 666.923 20.9507   2
   4  -5   0 693.731 24.7541   5
   4  -5   1 183.001 12.9831   6
   4  -5   1 143.224 12.4531   2
   4  -5   1 166.881 17.2572   5
   4  -5   2 661.148 19.0218   6
   4  -5   2 639.916 25.5790   5
   4  -5   2 659.347 20.5875   2
   4  -5   3 320.017 16.8149   2
   4  -5   3 291.210 21.4666   5
   4  -5   4 135.301 20.7819   5
   4  -5   4 176.116 16.0024   2
   4  -5   5 47.1142 18.9972   5
   4  -5   5 9.27312 12.9268   2
   4  -5   6 103.146 21.3953   5
   4  -5   7-23.7840 23.4371   5
   4  -5   8 170.282 29.7037   5
   4  -4  -9 130.079 25.9662   6
  -4   4   9 108.605 15.9718   2
   4  -4  -8 435.300 28.2119   6
  -4   4   8 462.953 25.8956   2
  -4   4   7 233.688 18.8511   2
   4  -4  -7 164.239 22.1595   6
  -4   4   6 17.9000 14.1805   2
   4  -4  -6-5.47237 18.0379   6
  -4   4   5 120.170 13.9048   2
   4  -4  -5 83.2221 17.2759   6
   4  -4  -4 54.1542 16.2955   6
   4  -4  -3 4536.58 56.8603   6
   4  -4  -2 965.808 27.8331   6
   4  -4  -1 388.142 18.7316   6
   4  -4  -1 379.474 15.4039   3
   4  -4  -1 379.810 18.4571   5
  -4   4   0 2970.76 33.6236   0
   4  -4   0 2889.70 39.1006   6
   4  -4   0 2847.90 35.8406   3
   4  -4   0 2898.86 40.7578   5
  -4   4  -1 10223.7 64.5391   0
   4  -4   1 10153.8 67.7717   6
   4  -4   1 9947.52 67.5371   3
   4  -4   1 10074.4 61.6756   2
   4  -4   1 10156.0 75.5745   5
   4  -4   2 276.335 14.1167   6
   4  -4   2 334.915 19.8055   5
   4  -4   2 254.128 13.7732   2
   4  -4   3 18.7481 14.3728   5
   4  -4   3 14.9556 9.62007   2
   4  -4   4 2397.29 35.4603   2
   4  -4   4 2566.10 45.7647   5
   4  -4   5 4.32301 17.5191   5
   4  -4   5 38.4359 11.0414   2
   4  -4   6 259.395 18.1963   2
   4  -4   6 232.398 23.9301   5
   4  -4   7 313.081 27.4611   5
   4  -4   8 195.345 27.2370   5
   4  -4   9 32.1314 26.8404   5
   4  -4  10 284.591 37.4348   5
  -4   3   9 208.830 19.6282   2
  -4   3   8 572.875 27.9735   2
   4  -3  -8 488.852 28.4414   6
  -4   3   7 134.629 16.5741   2
   4  -3  -7 206.030 24.2480   6
  -4   3   6 9.32865 11.7966   2
   4  -3  -6 41.1589 16.3002   6
  -4   3   5 42.2740 12.8691   2
   4  -3  -5 35.6732 15.9909   6
   4  -3  -4 3075.55 47.9864   6
  -4   3   4 2929.76 42.9239   2
   4  -3  -3 327.879 19.7398   6
  -4   3   3 297.463 14.6647   2
   4  -3  -2 9200.72 74.5360   6
   4  -3  -1 690.191 21.8179   6
   4  -3  -1 695.434 19.8990   5
   4  -3   0 781.174 21.4299   6
   4  -3   0 794.084 20.3190   3
   4  -3   0 807.107 21.4235   5
  -4   3  -1 219.911 10.9565   0
   4  -3   1 226.764 13.7035   6
   4  -3   1 224.113 14.7751   3
   4  -3   1 221.158 10.7904   2
   4  -3   1 262.129 16.2308   5
  -4   3  -2 650.731 18.5376   0
   4  -3   2 690.895 19.0869   6
   4  -3   2 663.264 20.8081   3
   4  -3   2 649.063 21.6776   5
   4  -3   2 644.352 15.4093   2
   4  -3   3 35.7323 13.1575   5
   4  -3   3 7.31470 8.72159   0
   4  -3   3 2.10250 7.80084   2
   4  -3   4 354.218 14.5304   2
   4  -3   4 348.990 20.5013   5
   4  -3   5 721.933 20.6237   2
   4  -3   5 764.345 29.1191   5
   4  -3   6 1.26811 18.6230   5
   4  -3   6-33.4152 10.3081   2
   4  -3   7 579.096 23.1605   2
   4  -3   7 611.725 30.0446   5
   4  -3   8 80.7326 22.3403   5
   4  -3   9 53.5335 23.0474   5
   4  -3  10 253.565 31.4972   5
   4  -3  11-64.5164 33.7566   5
  -4   2   9 280.062 22.9188   2
  -4   2   8 12.0995 14.1697   2
  -4   2   7 1625.69 42.3559   2
   4  -2  -7 1633.40 40.5862   6
   4  -2  -6-21.3268 15.6295   6
  -4   2   6-31.0258 11.5749   2
  -4   2   5 69.8486 13.2235   2
   4  -2  -5 80.3321 16.2722   6
  -4   2   4 36.9641 10.3487   2
   4  -2  -4 53.3051 14.2384   6
   4  -2  -3 3224.80 45.0821   6
  -4   2   3 3126.78 39.9196   2
  -4   2   2 8.29644 7.86739   2
   4  -2  -2 12.8852 11.7519   6
   4  -2  -1 4326.95 46.5148   6
   4  -2  -1 4090.82 37.8533   5
   4  -2   0 961.611 23.1847   6
   4  -2   0 979.529 20.5308   5
   4  -2   1 87.0548 11.7199   5
   4  -2   1 78.0284 11.6990   3
   4  -2   1 75.8524 11.5712   6
  -4   2  -2 1510.82 26.0071   0
   4  -2   2 1432.44 17.5784   4
   4  -2   2 1445.05 27.4678   3
   4  -2   2 1487.53 25.5856   6
   4  -2   2 1473.74 27.5515   5
   4  -2   2 1366.68 16.3572   2
   4  -2   3 642.178 13.4389   2
   4  -2   3 470.165 8.41840   4
  -4   2  -3 701.694 18.8118   0
   4  -2   3 684.521 21.3028   3
   4  -2   3 661.788 21.5121   5
   4  -2   4 1204.36 19.6658   2
   4  -2   4 1278.81 29.9538   5
   4  -2   5 533.332 16.3607   2
   4  -2   5 576.517 24.6266   5
   4  -2   6 767.523 28.9077   5
   4  -2   6 691.940 20.3531   2
   4  -2   7 16.6440 18.7967   5
   4  -2   7-3.40066 11.7781   2
   4  -2   8 202.673 25.7884   5
   4  -2   9 102.912 24.3044   5
   4  -2  10 52.2671 28.1824   5
   4  -2  11 34.1610 27.3238   5
  -4   1   9 210.320 17.8409   2
  -4   1   8 18.2837 13.9624   2
  -4   1   7 56.7285 11.7762   2
  -4   1   6 67.3112 15.7225   2
   4  -1  -6 94.2473 15.9748   6
  -4   1   5 178.644 17.8821   2
   4  -1  -5 127.695 16.3437   6
  -4   1   4 1682.76 34.6189   2
   4  -1  -4 1632.23 33.4664   6
  -4   1   3 587.069 20.2801   2
   4  -1  -3 627.219 21.9091   6
   4  -1  -2 3942.81 45.5016   6
  -4   1   2 4197.50 41.3595   2
  -4   1   1 952.258 17.8907   2
   4  -1  -1 1032.68 23.9543   6
   4  -1  -1 978.694 16.8013   5
   4  -1   0 7.50379 7.89470   5
  -4   1   0 1.97447 4.03270   2
   4  -1   0 7.88033 11.4402   6
   4  -1   1 6510.30 43.1620   4
   4  -1   1 6538.14 51.9555   6
   4  -1   1 6566.69 45.3351   5
  -4   1  -1 6559.62 34.7847   1
   4  -1   2 14148.2 57.1889   4
  -4   1  -2 14672.8 62.0998   1
   4  -1   2 14362.0 76.5496   3
   4  -1   2 14323.6 72.2130   5
  -4   1  -3 6520.79 51.3606   0
   4  -1   3 6163.21 27.6209   2
   4  -1   3 6368.23 34.9951   4
   4  -1   3 6314.19 54.0521   3
   4  -1   3 6563.96 54.1869   5
   4  -1   4 563.063 10.1188   4
   4  -1   4 760.543 13.6842   2
  -4   1  -4 803.812 19.7771   0
   4  -1   4 838.534 24.6017   5
   4  -1   5 2271.38 27.2758   2
   4  -1   5 2299.26 39.4759   5
   4  -1   6 2368.70 31.8359   2
   4  -1   6 2474.07 44.1257   5
   4  -1   7 8027.47 65.3911   2
   4  -1   7 8343.64 83.2001   5
   4  -1   8 3134.09 45.8192   2
   4  -1   8 3307.59 57.8004   5
   4  -1   9 1670.39 46.1620   5
   4  -1  10 489.473 33.9064   5
   4  -1  11 263.974 33.9981   5
  -4   0   8 97.5337 23.7966   2
  -4   0   7 17.7042 17.7510   2
  -4   0   6 55.0820 17.5138   2
  -4   0   5 222.558 19.8390   2
   4   0  -5 241.067 17.5907   6
  -4   0   4 1853.89 36.4996   2
   4   0  -4 1859.26 34.0907   6
   4   0  -3 6567.37 58.7959   6
  -4   0   3 6750.62 60.3927   2
  -4   0   2 1017.00 22.4264   2
   4   0  -2 937.226 23.3423   6
  -4   0   1 3452.26 33.6480   2
   4   0  -1 3440.92 39.8082   6
   4   0  -1 3290.24 22.1079   5
  -4   0   0 3015.77 26.0421   2
   4   0   0 2963.68 34.4687   4
   4   0   0 3050.42 36.6511   6
   4   0   0 2845.54 23.1189   5
   4   0   1 181.310 11.5171   4
  -4   0  -1 213.283 8.24556   1
  -4   0  -1 164.637 5.46619   2
   4   0   1 213.293 13.8056   6
   4   0   1 184.655 9.31329   5
   4   0   2 3359.77 31.2137   4
   4   0   2 3318.38 32.2688   5
  -4   0  -2 3360.83 29.9789   1
   4   0   3 2479.26 25.6163   4
  -4   0  -3 2514.68 29.4128   1
   4   0   3 2568.98 34.8135   3
  -4   0  -3 2365.82 30.4655   0
   4   0   3 2406.27 31.8482   5
   4   0   4 9209.24 46.0700   4
   4   0   4 9051.37 36.3162   2
  -4   0  -4 9190.00 61.4571   1
   4   0   4 9332.75 65.5523   3
  -4   0  -4 9080.43 61.4620   0
   4   0   4 9201.08 65.5682   5
  -4   0  -5 12069.0 74.9306   0
   4   0   5 11760.9 53.2571   4
   4   0   5 12050.4 54.9100   2
  -4   0  -5 12007.1 78.9895   1
   4   0   5 12278.7 83.0361   5
   4   0   6 1150.79 21.8381   2
   4   0   6 1222.23 31.8738   5
   4   0   7 200.586 13.8594   2
   4   0   7 216.918 20.3961   5
   4   0   8 246.673 16.4901   2
   4   0   8 245.883 22.0035   5
   4   0   9 192.300 24.4098   5
   4   0  10 33.5322 22.2062   5
  -4   0 -11 370.515 24.6914   1
  -4   0 -12 55.3422 20.3476   1
  -4  -1   8 403.558 29.9960   2
  -4  -1   7 740.354 32.5899   2
   4   1  -7 829.769 35.4218   4
  -4  -1   6 1073.54 35.4946   2
   4   1  -6 1173.29 36.8542   4
  -4  -1   5 557.585 25.8249   2
   4   1  -5 653.321 28.8197   4
  -4  -1   4 384.403 21.6766   2
   4   1  -4 374.160 22.3051   4
  -4  -1   3 274.769 16.6156   2
   4   1  -3 313.162 19.4899   4
   4   1  -3 273.670 15.6298   6
  -4  -1   2 300.713 15.0540   2
   4   1  -2 325.188 19.1737   4
   4   1  -2 338.740 15.8266   6
  -4  -1   1 1032.59 21.0823   2
   4   1  -1 1123.71 25.4279   4
   4   1  -1 1078.89 23.6138   6
  -4  -1   0 0.38795 6.54201   2
   4   1   0-6.55668 11.3011   4
   4   1   0 3.64541 9.62022   6
  -4  -1  -1 2651.00 21.9281   2
   4   1   1 2496.00 31.1293   4
   4   1   1 2546.98 21.2304   5
   4   1   2 1594.54 24.6186   4
  -4  -1  -2 1629.34 22.0259   1
   4   1   2 1631.74 21.6486   5
  -4  -1  -3 791.060 17.8441   1
   4   1   3 816.134 17.8977   4
   4   1   3 785.588 20.7539   3
   4   1   3 818.021 18.9649   5
   4   1   4 96.0379 10.2320   4
   4   1   4 138.075 14.1951   3
  -4  -1  -4 115.510 9.98561   1
  -4  -1  -4 126.256 11.2876   0
   4   1   4 93.1565 12.7197   5
   4   1   5 4569.40 38.9554   4
  -4  -1  -5 4663.44 47.8807   1
   4   1   5 4618.87 33.0784   2
  -4  -1  -5 4647.33 44.9183   0
   4   1   5 4874.59 48.4964   3
   4   1   5 4719.15 50.4891   5
   4   1   6 1271.29 22.4613   4
  -4  -1  -6 1322.97 29.2923   1
   4   1   6 1295.88 31.1526   5
   4   1   6 1320.41 21.6222   2
  -4  -1  -7 471.634 20.9278   1
   4   1   7 480.033 24.2444   5
   4   1   7 511.091 16.6392   2
   4   1   8 554.365 27.7263   5
  -4  -1  -8 490.766 23.6543   1
   4   1   8 540.732 19.9406   2
  -4  -1  -9 404.516 24.0222   1
   4   1   9 364.419 18.8618   2
  -4  -1 -10 627.776 28.8699   1
  -4  -1 -11-28.3610 14.2425   1
  -4  -1 -12 17.7539 15.4352   1
  -4  -2   7 377.140 27.0099   2
  -4  -2   6 45.4899 18.8150   2
   4   2  -6 85.0104 22.6994   4
  -4  -2   5 849.807 31.6676   2
   4   2  -5 987.624 32.7814   4
  -4  -2   4 458.439 22.8016   2
   4   2  -4 533.582 25.2448   4
  -4  -2   3 1425.84 32.6332   2
   4   2  -3 1488.06 33.4938   4
  -4  -2   2 1966.01 33.9977   2
   4   2  -2 1991.85 35.3600   4
   4   2  -2 2023.17 30.7645   6
  -4  -2   1 5883.73 51.3584   2
   4   2  -1 5918.99 55.1514   4
  -4  -2   0 489.690 15.0065   2
   4   2   0 482.174 19.0663   4
  -4  -2  -1 2107.66 23.9380   2
   4   2   1 2100.65 31.0954   4
  -4  -2  -2 2343.85 21.6157   2
   4   2   2 2272.04 31.1213   4
   4   2   3 2116.35 29.3828   4
  -4  -2  -3 2107.58 27.9853   1
  -4  -2  -3 2201.80 19.9394   2
  -4  -2  -4 2825.15 35.1390   1
   4   2   4 2812.98 33.4605   4
   4   2   4 2761.03 34.6086   3
   4   2   4 2738.64 34.8040   5
  -4  -2  -5 2943.51 35.0090   0
   4   2   5 2829.10 34.2968   4
   4   2   5 2924.10 37.3141   3
   4   2   5 2991.21 40.2882   5
  -4  -2  -5 2846.38 37.8533   1
   4   2   6 1609.24 27.3338   4
  -4  -2  -6 1589.35 26.9963   0
   4   2   6 1590.63 23.6985   2
  -4  -2  -6 1631.97 31.6218   1
   4   2   7 65.9265 9.58882   2
  -4  -2  -7 86.9666 14.1949   1
  -4  -2  -8 2797.51 47.7854   1
   4   2   8 2802.85 39.6829   2
  -4  -2  -9 1356.02 36.5360   1
   4   2   9 1351.01 31.5816   2
   4   2  10 1358.40 33.5106   2
  -4  -2 -10 1653.92 42.1801   1
  -4  -2 -11 106.422 19.2622   1
  -4  -2 -12 130.577 20.8059   1
  -4  -3   7 145.999 24.3376   2
  -4  -3   6 129.071 21.2641   2
  -4  -3   5 95.8815 19.4394   2
   4   3  -5 103.076 19.6806   4
  -4  -3   4 126.873 18.5504   2
   4   3  -4 95.5643 18.8771   4
  -4  -3   3 468.472 22.4611   2
   4   3  -3 390.622 22.3512   4
  -4  -3   2 529.936 21.2531   2
   4   3  -2 537.785 22.8897   4
   4   3  -1 14.1694 13.7933   4
  -4  -3   1 2.61134 10.8439   2
  -4  -3   0 313.855 14.6046   2
   4   3   0 346.175 18.8088   4
  -4  -3  -1 2627.90 31.1433   2
   4   3   1 2767.65 37.4807   4
  -4  -3  -2 1145.33 19.7677   2
   4   3   2 1160.75 25.4347   4
   4   3   3 6266.37 53.1381   4
  -4  -3  -3 6303.18 42.1309   2
   4   3   4 831.331 21.8981   4
  -4  -3  -4 791.735 20.7162   1
  -4  -3  -5 13972.5 82.7441   1
   4   3   5 13782.8 79.0710   4
  -4  -3  -5 13573.0 70.6785   0
   4   3   5 13727.8 76.6369   3
   4   3   6 3902.24 44.7606   4
  -4  -3  -6 3938.13 40.2530   0
   4   3   6 3903.65 42.5741   3
  -4  -3  -6 3977.38 48.3458   1
   4   3   7 341.832 17.8652   4
  -4  -3  -7 330.985 18.5344   1
   4   3   8 106.575 11.7199   2
  -4  -3  -8 101.616 14.8629   1
   4   3   9 1712.98 34.9447   2
  -4  -3  -9 1715.20 38.9678   1
   4   3  10 810.172 27.4409   2
  -4  -3 -10 743.020 30.3815   6
  -4  -3 -10 759.558 30.6357   1
  -4  -3 -11 321.463 27.3913   6
  -4  -3 -11 342.229 22.3919   1
  -4  -3 -12 58.1425 14.9749   1
  -4  -3 -13 61.2201 16.6416   1
  -4  -4   6 277.625 27.5389   2
  -4  -4   5 102.533 19.6724   2
  -4  -4   4 320.107 22.7598   2
   4   4  -4 288.561 24.0404   4
  -4  -4   3 189.821 19.0292   2
   4   4  -3 199.097 20.6586   4
   4   4  -2 35.0188 15.2701   4
  -4  -4   2 69.7164 15.9234   2
  -4  -4   1 1306.63 30.2198   2
   4   4  -1 1233.42 30.5889   4
   4   4   0 43.6241 14.6382   4
  -4  -4   0 7.68841 10.4237   2
  -4  -4  -1 989.332 23.0651   2
   4   4   1 1035.46 26.2867   4
  -4  -4  -2 925.890 20.9214   2
   4   4   2 977.868 26.0403   4
   4   4   3 1715.34 32.2605   4
  -4  -4  -3 1817.32 27.0988   2
   4   4   4 138.675 15.9506   4
  -4  -4  -4 158.345 12.0522   2
   4   4   5 281.474 17.0374   4
  -4  -4  -5 287.109 16.6476   1
   4   4   5 317.002 15.8035   3
  -4  -4  -6 937.867 19.9047   0
   4   4   6 902.445 26.3905   4
  -4  -4  -6 909.247 25.4573   1
   4   4   6 947.313 22.3223   3
  -4  -4  -7 104.212 8.96194   0
  -4  -4  -7 102.792 14.9251   1
   4   4   7 111.927 15.9079   4
  -4  -4  -8 527.772 23.8348   1
  -4  -4  -9 1534.83 37.6065   1
  -4  -4 -10 2429.66 49.8065   6
  -4  -4 -10 2373.85 48.4553   1
  -4  -4 -11 861.764 35.7488   6
  -4  -4 -11 895.156 32.0682   1
  -4  -4 -12 6.24992 16.8376   1
  -4  -4 -12-10.2925 23.2524   6
  -4  -4 -13 215.503 20.9307   1
  -4  -5   6 18.4561 22.0118   2
  -4  -5   4 91.9519 21.4614   2
  -4  -5   3 353.188 23.9840   2
   4   5  -3 279.202 23.3050   4
  -4  -5   2 849.243 30.0782   2
   4   5  -2 960.553 30.9135   4
  -4  -5   1 1579.63 36.8037   2
   4   5  -1 1715.70 37.2822   4
  -4  -5   0 4345.03 53.3430   2
   4   5   0 4331.54 53.9128   4
  -4  -5  -1 723.210 23.2192   2
   4   5   1 753.212 25.0660   4
  -4  -5  -2 830.536 23.0917   2
   4   5   2 825.487 25.8955   4
   4   5   3 438.410 20.7081   4
  -4  -5  -3 443.470 18.1285   2
   4   5   4 3556.21 47.7356   4
  -4  -5  -4 3688.93 42.6106   2
   4   5   5 395.358 21.1225   4
   4   5   6 5629.42 60.2904   4
  -4  -5  -6 5520.20 59.0749   1
   4   5   6 5659.54 47.9503   3
  -4  -5  -6 5406.09 43.9830   0
   4   5   7 201.218 19.0049   4
  -4  -5  -7 190.645 17.7393   1
  -4  -5  -8 1058.89 30.8409   1
  -4  -5  -9 266.828 21.1964   1
  -4  -5 -10 749.796 29.7677   1
  -4  -5 -10 709.249 32.9610   6
  -4  -5 -11 700.472 34.0848   6
  -4  -5 -11 666.029 29.6312   1
  -4  -5 -12 316.252 33.3195   6
  -4  -5 -12 309.360 23.8934   1
  -4  -5 -13 224.542 28.8821   6
  -4  -5 -13 247.403 21.2820   1
  -4  -6   5 299.128 28.7994   2
  -4  -6   4 935.937 39.1921   2
  -4  -6   3 250.679 23.8468   2
  -4  -6   2 160.709 19.5570   2
   4   6  -2 139.114 20.1984   4
   4   6  -1 112.520 18.3334   4
  -4  -6   1 103.937 18.8731   2
  -4  -6   0 447.925 23.3681   2
   4   6   0 369.318 22.1464   4
  -4  -6  -1 725.673 26.0542   2
   4   6   1 668.012 26.9243   4
  -4  -6  -2 160.616 16.1438   2
   4   6   2 141.488 19.3783   4
   4   6   3 1734.43 37.3312   4
  -4  -6  -3 1685.00 33.9227   2
   4   6   4 2606.25 44.2337   4
  -4  -6  -4 2609.06 40.6274   2
   4   6   5 414.029 22.9998   4
  -4  -6  -5 387.080 19.7081   2
   4   6   6 6807.48 70.0678   4
   4   6   7 373.851 23.5353   4
  -4  -6  -7 321.166 19.4177   1
  -4  -6  -8 215.883 19.1594   1
  -4  -6  -9 378.569 23.0182   1
  -4  -6  -9 430.481 27.9799   6
  -4  -6 -10 598.324 27.0663   1
  -4  -6 -10 630.882 31.4787   6
  -4  -6 -11 209.246 20.9940   1
  -4  -6 -11 154.806 26.3556   6
  -4  -6 -12 68.4828 28.4831   6
  -4  -6 -12 58.7460 17.0517   1
  -4  -6 -13-27.7346 17.4227   1
  -4  -6 -13 48.5322 32.2426   6
  -4  -7   4 50.2079 24.6956   2
  -4  -7   3 36.6217 23.2917   2
  -4  -7   2 46.2101 17.2187   2
   4   7  -1 67.5421 21.3599   4
  -4  -7   1 46.1567 18.2203   2
  -4  -7   0 1083.62 34.5694   2
   4   7   0 1003.01 33.3248   4
   4   7   1 50.0657 19.6076   4
  -4  -7  -1 102.422 18.4984   2
  -4  -7  -2 160.441 17.0370   2
   4   7   2 239.503 21.4820   4
   4   7   3 583.805 26.4573   4
  -4  -7  -3 574.754 24.6838   2
   4   7   4 219.331 22.1479   4
  -4  -7  -4 141.512 17.5820   2
   4   7   5 714.493 29.1774   4
  -4  -7  -5 796.668 27.2587   2
   4   7   6 475.684 26.2679   4
   4   7   7 30.8034 21.1439   4
   4   7   8 555.184 28.7780   4
  -4  -7  -8 605.880 29.9563   6
  -4  -7  -9 91.4898 23.3579   6
  -4  -7  -9 120.100 18.3696   1
  -4  -7 -10 1220.93 36.2800   1
  -4  -7 -10 1320.62 42.8418   6
  -4  -7 -11 1377.84 40.2498   1
  -4  -7 -11 1302.95 45.8471   6
  -4  -7 -12 209.353 18.8617   1
  -4  -7 -12 135.223 31.9244   6
  -4  -7 -13 70.7344 18.2003   1
  -4  -7 -13 226.278 32.9147   6
  -4  -8   3 344.636 29.8747   2
  -4  -8   2 150.937 25.3355   2
  -4  -8   1 149.892 21.9335   2
   4   8   0 106.343 23.0934   4
  -4  -8   0 142.550 20.9689   2
   4   8   1 104.477 20.9772   4
  -4  -8  -1 65.9168 18.7083   2
  -4  -8  -2 62.1171 17.9138   2
   4   8   2 66.5212 19.9641   4
  -4  -8  -3 51.5172 17.0131   2
   4   8   3 60.3254 20.1095   4
   4   8   4 62.6485 19.7949   4
  -4  -8  -4 123.976 18.4385   2
   4   8   5 781.298 32.0461   4
  -4  -8  -5 826.568 30.4492   2
   4   8   6 1382.08 39.6695   4
  -4  -8  -6 1360.64 36.8278   2
   4   8   7 1226.69 38.4533   4
  -4  -8  -7 1115.56 35.7679   6
   4   8   8 113.030 23.8417   4
  -4  -8  -8 40.2633 19.2297   6
  -4  -8  -9 629.843 31.7791   6
  -4  -8 -10 51.3676 22.1746   6
  -4  -8 -11 96.1854 26.3499   6
  -4  -8 -11 15.2607 16.2552   1
  -4  -8 -12-10.8931 30.1745   6
  -4  -8 -12 112.907 17.0840   1
  -4  -9   2 223.223 25.6026   2
  -4  -9   1 400.943 32.4697   2
  -4  -9   0 278.030 27.7479   2
   4   9   1 96.5703 25.3473   4
  -4  -9  -1-8.33231 20.2424   2
   4   9   2-8.57909 20.4282   4
  -4  -9  -2-12.2804 16.9809   2
   4   9   3 25.6788 21.3081   4
  -4  -9  -3 74.6726 20.6856   2
   4   9   4 22.7775 21.8079   4
  -4  -9  -4 7.20075 20.0573   2
   4   9   5 646.992 32.5660   4
  -4  -9  -5 601.364 28.2508   6
  -4  -9  -5 598.700 29.7678   2
  -4  -9  -6 31.1864 19.2119   6
   4   9   6 48.0209 21.1920   4
  -4  -9  -6 21.7489 18.6293   2
   4   9   7 1434.83 43.9954   4
  -4  -9  -7 1275.43 40.2950   6
  -4  -9  -7 1331.60 40.0687   2
  -4  -9  -8 479.587 31.0804   6
   4   9   8 376.423 29.6152   4
  -4  -9  -9-6.19093 21.9408   6
  -4  -9 -10 115.016 25.8727   6
  -4  -9 -11 16.4283 25.5760   6
  -4 -10   0 73.6258 25.2230   2
  -4 -10  -1 289.250 28.8646   2
  -4 -10  -2 145.356 21.5899   2
   4  10   2 49.2815 24.5562   4
  -4 -10  -3 353.759 27.9391   2
   4  10   3 452.505 32.0515   4
   4  10   4 1283.56 42.2873   4
  -4 -10  -4 1169.27 41.1093   2
   4  10   5 148.321 27.3929   4
  -4 -10  -5 231.045 27.3130   2
   4  10   6 763.049 36.8171   4
  -4 -10  -6 683.851 33.1778   2
   4  10   7 276.287 28.7172   4
  -4 -10  -7 341.352 27.8986   6
  -4 -10  -7 332.937 26.6795   2
   4  10   8 28.6715 29.3026   4
  -4 -10  -8 57.5309 23.2824   6
  -4 -10  -8 55.3294 23.0095   2
  -4 -10  -9 454.033 35.4953   6
  -4 -10 -10 311.992 33.8039   6
  -4 -10 -11 963.840 44.9654   6
  -4 -11  -2 83.3557 23.1742   2
  -4 -11  -3 430.310 31.7898   2
   4  11   3 386.437 33.7609   4
   4  11   4 1064.10 41.7914   4
  -4 -11  -4 1244.09 45.5142   2
   4  11   5 648.068 38.7706   4
  -4 -11  -5 512.882 34.1073   2
   4  11   6 2888.33 62.5587   4
  -4 -11  -6 2520.93 59.6237   2
   4  11   7 1529.08 52.5832   4
  -4 -11  -7 1260.49 46.6702   2
  -4 -11  -8 1372.32 49.3390   6
  -4 -11  -8 1267.56 46.5957   2
  -4 -11  -9 130.366 30.4003   2
  -4 -11  -9 49.3753 25.9667   6
  -4 -11 -10 291.476 37.6118   6
   4  12   5 126.346 32.7348   4
  -4 -12  -5 28.4533 21.9039   2
  -4 -12  -6 0.43120 22.8769   2
  -4 -12  -7 23.3574 26.6174   2
   4  12   7 38.2249 37.4218   4
  -4 -12  -8 3.35357 28.9274   2
  -4 -12  -9 75.4435 32.4543   6
   5 -11  -5 91.6534 30.3352   6
   5 -10  -6 62.3788 29.8079   6
   5 -10  -5 360.328 27.6888   6
   5 -10  -5 582.523 39.6601   5
   5 -10  -4 239.467 30.4076   5
   5 -10  -4 441.767 32.6080   6
   5 -10  -3-21.2655 26.2987   5
   5 -10  -3 53.0346 19.7465   2
   5 -10  -2 901.974 43.3786   5
   5 -10  -1 916.460 42.9883   5
   5 -10   0 432.683 33.7316   5
   5 -10   1 689.784 38.2510   5
   5 -10   2 1067.92 49.8542   5
   5  -9  -7 249.566 31.7769   6
   5  -9  -6 62.1009 26.7412   6
   5  -9  -5 429.535 30.7280   6
   5  -9  -4 166.248 25.5650   6
   5  -9  -4 322.483 31.8571   5
   5  -9  -3 325.368 25.7261   6
   5  -9  -3 333.027 32.6507   5
   5  -9  -2 164.029 27.6085   5
   5  -9  -2 233.039 22.9515   2
   5  -9  -1-15.9921 23.3177   5
   5  -9   0 3.70352 24.3549   5
   5  -9   1-39.0714 22.7188   5
   5  -9   2 553.394 35.9680   5
   5  -9   3 7.98866 25.2499   5
   5  -9   4-1.51715 23.7557   5
   5  -8  -7 98.9719 28.0455   6
   5  -8  -6 126.218 29.5165   6
   5  -8  -5 62.0718 23.0318   6
   5  -8  -4 845.714 35.5301   6
   5  -8  -3 715.947 31.2574   6
   5  -8  -3 711.701 33.3858   5
   5  -8  -2 443.613 25.4338   6
   5  -8  -2 485.943 31.0832   5
   5  -8  -1 58.3980 23.9687   5
   5  -8  -1 30.3003 13.1413   2
   5  -8  -1-24.1168 15.8635   6
   5  -8   0 200.400 26.5557   5
   5  -8   1 124.140 24.9232   5
   5  -8   2 84.1261 25.2118   5
   5  -8   3 119.935 24.0660   5
   5  -8   4-25.1780 25.8448   5
   5  -8   5 8.13230 26.7050   5
   5  -8   6 346.177 38.5917   5
   5  -7  -8 548.867 31.8316   6
   5  -7  -7 2070.82 56.2149   6
   5  -7  -6 115.642 26.1179   6
   5  -7  -5 1383.83 43.4738   6
   5  -7  -4-27.6538 17.9488   6
   5  -7  -3 590.155 28.5671   6
   5  -7  -3 536.464 27.3510   5
   5  -7  -2 423.393 25.3323   6
   5  -7  -2 430.085 27.5289   5
   5  -7  -1 2487.20 45.9921   6
   5  -7  -1 2303.09 42.5080   2
   5  -7  -1 2499.06 49.9314   5
   5  -7   0 6930.18 70.5828   6
   5  -7   0 7007.99 81.1858   5
   5  -7   1 680.404 31.8037   5
   5  -7   2 4782.11 71.1896   5
   5  -7   3 1485.02 44.8914   5
   5  -7   4 876.273 37.8923   5
   5  -7   5 682.646 36.5451   5
   5  -7   6 84.1112 30.1276   5
   5  -7   7 117.801 34.8936   5
   5  -6  -8 168.588 26.3365   6
   5  -6  -7 196.230 24.9272   6
   5  -6  -6 896.838 35.9550   6
   5  -6  -5 233.148 23.6031   6
   5  -6  -4 510.105 27.7700   6
   5  -6  -3 47.0484 17.9230   6
   5  -6  -2 1149.03 34.5478   6
   5  -6  -2 1192.85 34.4821   5
   5  -6  -1-26.3355 19.3889   5
   5  -6  -1-10.3529 15.2797   6
   5  -6   0-2.67679 18.3404   5
   5  -6   0 6.54505 13.1226   2
   5  -6   0 15.4852 14.1875   6
   5  -6   1 16.0982 20.7440   5
   5  -6   1 7.93560 13.0241   6
   5  -6   2 247.163 23.9514   5
   5  -6   3 513.202 29.5570   5
   5  -6   4 105.332 22.6123   5
   5  -6   5 281.850 28.2111   5
   5  -6   6 32.4891 24.8114   5
   5  -6   7 282.449 32.1327   5
   5  -6   8 134.552 35.3687   5
   5  -5  -9 199.572 30.5984   6
   5  -5  -8 73.6366 23.1832   6
   5  -5  -7 212.774 26.3278   6
   5  -5  -6 53.1836 20.2576   6
   5  -5  -5 531.394 28.9399   6
   5  -5  -4 27.8224 17.8919   6
   5  -5  -3 5343.91 68.4106   6
   5  -5  -2 2138.96 43.4052   6
   5  -5  -2 2106.29 40.1370   5
   5  -5  -1 12517.0 93.5969   6
   5  -5  -1 12646.4 79.8473   3
   5  -5  -1 12610.2 92.4039   5
   5  -5   0-17.6160 14.6863   5
   5  -5   0 2.17093 12.8364   6
   5  -5   0 7.96834 12.8005   3
   5  -5   1 1961.30 35.5932   6
   5  -5   1 2012.84 41.1078   5
   5  -5   2 1973.87 34.7560   6
   5  -5   2 2043.13 42.0020   5
   5  -5   3 281.407 22.5248   5
   5  -5   4 765.953 32.3851   5
   5  -5   5 1157.16 38.0178   5
   5  -5   6 749.431 37.5189   5
   5  -5   7 249.834 29.1188   5
   5  -5   8 213.854 32.3227   5
   5  -5   9 138.184 36.4851   5
  -5   4   9 164.317 18.8903   2
   5  -4  -8 446.997 31.7222   6
  -5   4   8 396.988 21.7320   2
   5  -4  -7 1201.64 40.8939   6
  -5   4   7 977.632 33.6567   2
   5  -4  -6 3197.48 59.2949   6
  -5   4   6 3349.00 55.4267   2
   5  -4  -5 2920.73 54.4364   6
  -5   4   5 2931.43 49.5779   2
   5  -4  -4 4073.85 61.0472   6
   5  -4  -3 620.381 26.2785   6
   5  -4  -2 57.3625 14.4607   5
   5  -4  -2 47.6350 16.1836   6
   5  -4  -1 1571.14 35.0331   6
   5  -4  -1 1562.47 29.6291   3
   5  -4  -1 1586.89 32.1448   5
  -5   4   0 1358.67 25.2666   0
   5  -4   0 1365.15 31.2499   6
   5  -4   0 1465.66 29.6512   3
   5  -4   0 1454.24 31.4349   5
   5  -4   1 133.599 13.9513   6
   5  -4   1 105.671 14.3058   3
   5  -4   1 122.780 10.7300   2
   5  -4   1 142.130 16.6720   5
   5  -4   2 159.641 14.2905   6
   5  -4   2 160.753 16.7483   3
   5  -4   2 157.191 16.5534   5
   5  -4   3 464.140 24.6954   5
   5  -4   4 18.9906 17.1934   5
   5  -4   5 459.697 26.1241   5
   5  -4   6 1439.97 42.4504   5
   5  -4   7 323.052 28.0743   5
   5  -4   8 814.913 38.5667   5
   5  -4   9 507.118 35.6519   5
   5  -4  10 2.52171 29.5300   5
  -5   3   8 104.629 14.5282   2
  -5   3   7 111.548 17.3958   2
   5  -3  -7 30.6816 17.4979   6
   5  -3  -6 98.3829 19.9279   6
  -5   3   6 160.049 17.7659   2
   5  -3  -5 2271.83 47.0512   6
  -5   3   5 2234.58 43.6920   2
   5  -3  -4 660.877 27.4452   6
  -5   3   4 645.484 23.1906   2
  -5   3   3 31.3123 8.82885   2
   5  -3  -3 68.9059 16.9780   6
   5  -3  -2 227.633 18.4661   6
   5  -3  -2 232.865 15.3419   5
   5  -3  -1 297.881 15.7371   5
   5  -3  -1 331.266 19.5272   6
   5  -3   0 653.172 22.9411   6
   5  -3   0 577.256 20.1349   3
   5  -3   0 595.163 20.4330   5
   5  -3   1-8.39212 12.2711   5
   5  -3   1-4.67835 11.3192   6
   5  -3   1-9.71001 12.2924   3
   5  -3   2 107.371 9.09324   4
   5  -3   2 117.463 14.3888   3
   5  -3   2 155.621 14.4231   6
   5  -3   2 153.552 16.9694   5
   5  -3   3 479.098 21.9905   3
   5  -3   3 482.380 22.4526   5
   5  -3   4 21.8520 15.4885   5
   5  -3   5 304.262 23.6892   5
   5  -3   6 22.0748 17.8332   5
   5  -3   7 314.783 27.1246   5
   5  -3   8 469.787 31.8942   5
   5  -3   9 19.9671 23.9937   5
   5  -3  10 39.8766 28.7751   5
  -5   2   8 90.8857 15.9340   2
  -5   2   7 218.702 19.8935   2
   5  -2  -6 573.510 28.3092   6
  -5   2   6 539.384 26.1055   2
  -5   2   5 871.600 29.1173   2
   5  -2  -5 950.510 31.4043   6
   5  -2  -4 4399.00 59.0688   6
  -5   2   4 4463.60 55.7880   2
  -5   2   3-4.55954 10.0487   2
   5  -2  -3-2.72933 14.0617   6
  -5   2   2 1263.02 24.7209   2
   5  -2  -2 1260.23 30.9181   6
   5  -2  -2 1228.03 22.9196   5
  -5   2   1 115.900 8.32178   2
   5  -2  -1 97.8438 15.6131   6
   5  -2  -1 119.046 11.0596   5
   5  -2   0 25446.8 117.390   6
   5  -2   0 25317.3 99.5039   5
   5  -2   1 705.633 22.2881   6
  -5   2  -1 730.907 12.8905   1
   5  -2   1 689.284 21.8568   3
   5  -2   1 766.389 20.7107   5
   5  -2   2 9743.54 54.1269   4
  -5   2  -2 10404.5 68.9280   0
  -5   2  -2 9990.50 55.6474   1
   5  -2   2 10095.6 71.5650   6
   5  -2   2 10009.7 72.9691   3
   5  -2   2 10228.8 71.5128   5
   5  -2   3 13196.1 85.7811   3
   5  -2   3 13310.1 86.2558   5
   5  -2   4 296.469 21.1740   5
   5  -2   5 1949.41 40.9690   5
   5  -2   6 699.529 29.3094   5
   5  -2   7 74.2052 20.6533   5
   5  -2   8 314.433 27.0182   5
   5  -2   9-2.54425 24.2300   5
   5  -2  10 799.346 39.7148   5
   5  -2  11 21.7701 29.8077   5
  -5   1   8 99.9331 15.2366   2
  -5   1   7 117.653 17.4429   2
  -5   1   6 128.041 16.5388   2
  -5   1   5 1563.47 37.9771   2
   5  -1  -5 1500.14 37.3524   6
  -5   1   4 663.113 24.0436   2
   5  -1  -4 655.949 25.9920   6
  -5   1   3 4059.83 49.0096   2
   5  -1  -3 4152.26 53.5027   6
  -5   1   2 37.9625 8.37768   2
   5  -1  -2 25.7060 13.3058   6
  -5   1   1 147.659 8.84242   2
   5  -1  -1 140.398 15.3333   6
   5  -1  -1 114.359 9.16659   5
   5  -1   0 330.034 18.2645   6
  -5   1   0 312.133 9.56032   2
   5  -1   0 325.900 12.3700   5
  -5   1  -1 1208.07 16.4361   1
   5  -1   1 1214.57 23.5324   4
   5  -1   1 1206.52 27.4478   6
   5  -1   1 1169.26 22.0182   5
  -5   1  -2-14.1605 5.36000   1
   5  -1   2 13.9272 10.5904   5
   5  -1   2-0.14008 8.69764   4
   5  -1   2-2.09458 12.1446   3
  -5   1  -3 100.443 8.41021   0
   5  -1   3 99.6675 13.6275   5
   5  -1   3 129.099 9.76162   4
  -5   1  -3 112.773 9.46317   1
   5  -1   3 104.479 14.1447   3
   5  -1   4 266.025 18.1133   3
   5  -1   4 190.832 8.97921   4
  -5   1  -4 275.356 13.9728   1
   5  -1   4 245.332 17.5221   5
   5  -1   5 310.243 20.6557   5
   5  -1   6 1792.93 40.0281   5
   5  -1   7 48.7749 18.3819   5
   5  -1   8 352.558 26.2996   5
   5  -1   9 514.570 29.8621   5
   5  -1  10 164.216 26.4908   5
   5  -1  11 70.7664 28.2851   5
  -5   0   8 146.388 20.5188   2
   5   0  -8 355.053 35.6668   4
   5   0  -7 106.002 27.2114   4
  -5   0   7 224.442 24.6809   2
  -5   0   6 23.3820 14.3083   2
  -5   0   5 431.978 23.6873   2
  -5   0   4 1798.00 38.1021   2
   5   0  -4 1803.94 37.9126   6
  -5   0   3 106.279 14.6242   2
   5   0  -3 100.860 14.6869   6
  -5   0   2 776.350 21.4306   2
   5   0  -2 811.478 24.5913   6
  -5   0   1 1739.94 26.7795   2
   5   0  -1 1725.07 32.7508   4
   5   0  -1 1781.60 33.1822   6
  -5   0   0 3323.40 30.4715   2
   5   0   0 3233.28 40.3325   4
   5   0   0 3478.74 43.8255   6
   5   0   0 3191.28 26.6299   5
   5   0   1 528.251 17.9162   4
  -5   0  -1 571.565 10.0080   2
   5   0   1 535.460 13.8161   5
  -5   0  -2 1512.44 21.8513   1
   5   0   2 1474.73 24.9943   4
   5   0   2 1430.91 23.8940   5
   5   0   3 453.863 14.9313   4
   5   0   3 519.320 20.7418   3
   5   0   3 457.912 17.4437   5
  -5   0  -3 454.000 14.5010   1
   5   0   4 23.1202 12.4308   5
   5   0   4 26.2236 8.88567   4
  -5   0  -4 36.0011 8.44891   0
   5   0   4 20.8762 13.7790   3
  -5   0  -4 33.7085 8.86878   1
   5   0   5 2122.03 26.2210   4
  -5   0  -5 2159.56 34.4163   1
   5   0   5 2092.34 37.2089   3
   5   0   5 2076.29 37.3868   5
  -5   0  -6 215.519 14.4842   1
   5   0   6 210.141 20.2244   5
  -5   0  -7 586.106 23.8038   1
   5   0   7 479.872 25.6296   5
  -5   0  -8 393.555 22.3799   1
   5   0   8 451.314 27.7436   5
  -5   0  -9 49.7084 13.9431   1
   5   0   9 60.7965 20.7724   5
  -5   0 -10 11.0547 17.7384   1
   5   0  10-7.30528 23.5096   5
  -5   0 -11 83.0506 18.4770   1
  -5   0 -12 69.4879 20.1778   1
  -5  -1   7 198.482 25.7516   2
   5   1  -7 109.998 28.8611   4
  -5  -1   6 732.283 32.1028   2
   5   1  -6 747.048 33.2125   4
  -5  -1   5 2054.59 45.4655   2
   5   1  -5 1883.23 46.9547   4
  -5  -1   4 2958.88 49.4439   2
   5   1  -4 3140.96 52.4881   4
  -5  -1   3 5628.54 61.2262   2
   5   1  -3 5647.57 64.5182   4
   5   1  -3 5568.66 58.9118   6
  -5  -1   2 3320.78 43.2482   2
   5   1  -2 3415.93 48.5117   4
   5   1  -2 3385.33 45.2767   6
  -5  -1   1 264.059 13.3071   2
   5   1  -1 283.746 18.9217   4
   5   1  -1 262.314 16.6929   6
  -5  -1   0 669.102 16.1244   2
   5   1   0 612.132 21.8782   4
  -5  -1  -1 13023.9 53.9495   2
   5   1   1 13172.4 77.6997   4
   5   1   1 13075.4 51.0504   5
  -5  -1  -2 368.673 7.39192   2
   5   1   2 378.998 16.4877   4
  -5  -1  -2 384.936 12.8316   1
   5   1   2 364.020 12.7530   5
  -5  -1  -3 10507.1 62.6050   1
   5   1   3 10477.3 63.6164   4
   5   1   3 10501.8 62.8113   5
   5   1   4 7037.85 51.7780   4
   5   1   4 7158.40 61.0001   3
   5   1   4 7094.83 58.1604   5
  -5  -1  -4 7249.63 56.4957   1
   5   1   5 3726.32 46.7010   3
   5   1   5 3705.88 37.8741   4
  -5  -1  -5 3793.12 44.0049   1
   5   1   5 3755.08 46.8238   5
   5   1   6 5139.77 44.2000   4
   5   1   6 5283.79 57.0103   3
  -5  -1  -6 5263.92 56.5243   1
   5   1   6 5061.13 59.9026   5
  -5  -1  -7 467.180 20.9353   1
   5   1   7 470.077 24.4305   5
  -5  -1  -8 593.109 24.5438   1
   5   1   8 512.196 27.6283   5
  -5  -1  -9 198.406 18.4208   1
   5   1   9 193.271 23.9155   5
  -5  -1 -10 19.9091 14.9533   1
  -5  -1 -11 78.8366 13.7422   1
  -5  -1 -12 66.8508 17.2262   1
  -5  -2   7-18.1362 18.6970   2
  -5  -2   6 7.85494 16.3744   2
  -5  -2   5 96.5183 19.3100   2
   5   2  -5 3.78493 21.8283   4
  -5  -2   4 157.381 19.3273   2
   5   2  -4 126.578 21.6109   4
  -5  -2   3 191.284 18.9555   2
   5   2  -3 114.894 18.9499   4
  -5  -2   2 834.713 24.6063   2
   5   2  -2 781.574 27.9827   4
   5   2  -2 810.061 24.0193   6
  -5  -2   1 939.632 23.5752   2
   5   2  -1 925.302 27.5370   4
  -5  -2   0-6.06810 8.25387   2
   5   2   0 14.1724 12.9538   4
  -5  -2  -1 1309.07 20.6188   2
   5   2   1 1242.11 28.0160   4
  -5  -2  -2 684.012 13.2748   2
   5   2   2 740.744 22.0872   4
  -5  -2  -3 2080.36 18.5007   2
   5   2   3 2114.03 32.4833   4
  -5  -2  -3 2177.05 30.1665   1
   5   2   3 2158.55 28.3272   5
  -5  -2  -4 1250.13 25.0569   1
   5   2   4 1191.66 25.4289   4
   5   2   4 1175.54 26.7257   3
   5   2   4 1150.37 24.5826   5
  -5  -2  -5 307.935 15.2036   1
   5   2   5 335.652 16.6158   4
  -5  -2  -5 319.096 13.7072   0
   5   2   5 345.690 18.7677   3
   5   2   5 313.808 17.7874   5
  -5  -2  -6-7.49632 10.3695   1
   5   2   6-7.62626 10.7101   4
   5   2   6 12.7220 13.4564   5
   5   2   7 111.333 13.2005   4
   5   2   7 110.426 17.8817   5
  -5  -2  -7 118.966 15.2604   1
  -5  -2  -8 1.66085 11.6035   1
  -5  -2  -9 32.3188 14.9855   1
  -5  -2 -10 202.951 20.5371   1
  -5  -2 -11 287.291 22.9027   1
  -5  -2 -12 27.3006 16.9411   1
  -5  -3   6 76.2021 22.3679   2
  -5  -3   5 41.3917 16.9669   2
   5   3  -5-19.0322 23.2377   4
  -5  -3   4 253.990 21.9676   2
   5   3  -4 240.489 23.2848   4
  -5  -3   3 72.5485 16.8055   2
   5   3  -3 55.4606 19.8450   4
  -5  -3   2 34.2031 12.5800   2
   5   3  -2 25.3103 16.5180   4
  -5  -3   1 110.652 13.1844   2
   5   3  -1 82.9480 17.7027   4
  -5  -3   0 779.718 21.0695   2
   5   3   0 814.206 26.4701   4
  -5  -3  -1 209.314 11.9765   2
   5   3   1 239.379 16.8214   4
  -5  -3  -2 85.4515 9.08106   2
   5   3   2 116.803 15.3168   4
  -5  -3  -3 915.728 17.0798   2
   5   3   3 955.602 25.1433   4
   5   3   4 103.909 13.7044   4
  -5  -3  -4 119.839 12.2764   1
  -5  -3  -4 124.663 8.69141   2
  -5  -3  -5 1653.53 31.0838   1
   5   3   5 1698.04 31.4830   4
   5   3   5 1671.77 31.2712   3
  -5  -3  -6 3127.85 44.8865   1
   5   3   6 3070.09 41.3524   4
  -5  -3  -6 3098.28 39.2365   0
   5   3   6 3135.38 42.6833   3
   5   3   7 407.428 19.7039   4
   5   3   7 426.749 20.0326   3
  -5  -3  -7 390.855 20.1249   1
  -5  -3  -8 67.7613 15.0695   1
  -5  -3  -9 30.9345 14.1496   1
  -5  -3 -10 376.653 24.0322   1
  -5  -3 -11 128.441 24.8103   6
  -5  -3 -11 78.3379 17.7148   1
  -5  -3 -12 189.706 21.1585   1
  -5  -3 -13 240.875 21.7952   1
  -5  -4   5 450.693 27.4438   2
  -5  -4   4 435.247 26.6418   2
   5   4  -4 500.297 29.4204   4
  -5  -4   3 491.868 26.0676   2
   5   4  -3 426.819 26.9714   4
  -5  -4   2 959.211 30.5252   2
   5   4  -2 934.717 32.3223   4
  -5  -4   1 136.251 15.2585   2
   5   4  -1 136.429 19.2797   4
  -5  -4   0 435.053 18.3927   2
   5   4   0 442.668 22.8423   4
   5   4   1 58.8539 16.4971   4
  -5  -4  -1 50.9607 11.1545   2
   5   4   2 30.2149 14.4854   4
  -5  -4  -2 5.62384 9.52297   2
   5   4   3 18.3215 14.5695   4
  -5  -4  -3 8.76480 8.84798   2
  -5  -4  -4-11.8965 7.04748   2
   5   4   4 4.79388 14.4004   4
   5   4   5 828.116 25.8439   4
  -5  -4  -5 788.380 23.6237   1
  -5  -4  -5 820.756 19.3801   2
   5   4   6 3220.70 45.5956   4
  -5  -4  -6 3281.56 46.7363   1
  -5  -4  -6 3203.76 39.1887   0
   5   4   6 3333.21 43.3585   3
  -5  -4  -7 5257.57 60.8042   1
   5   4   7 5148.74 57.7735   4
  -5  -4  -7 5171.72 50.8926   0
   5   4   7 4995.48 52.8230   3
  -5  -4  -8 1522.25 37.2373   1
   5   4   8 1665.51 37.0882   4
  -5  -4  -9 1829.72 42.3410   1
  -5  -4 -10 210.754 21.2703   1
  -5  -4 -11 572.455 33.2161   6
  -5  -4 -11 483.013 26.4320   1
  -5  -4 -12 34.9848 15.9271   1
  -5  -4 -12 171.097 29.5356   6
  -5  -4 -13-3.69646 17.3244   1
  -5  -5   5 128.261 23.7660   2
  -5  -5   4 283.329 24.9715   2
  -5  -5   3 213.005 20.5288   2
   5   5  -3 171.930 22.8222   4
   5   5  -2 171.344 22.8277   4
  -5  -5   2 135.063 18.3864   2
  -5  -5   1 172.822 17.0906   2
   5   5  -1 231.349 22.2821   4
   5   5   0 20.2674 16.5814   4
  -5  -5   0-9.23168 13.0893   2
  -5  -5  -1 167.920 15.3460   2
   5   5   1 134.762 17.8143   4
  -5  -5  -2 1202.22 27.0436   2
   5   5   2 1211.30 32.2625   4
   5   5   3 201.321 21.1463   4
  -5  -5  -3 178.831 13.8148   2
   5   5   4 3160.25 47.8004   4
  -5  -5  -4 3157.85 39.5589   2
  -5  -5  -5 9.59419 10.9675   2
   5   5   5 0.37240 16.3028   4
   5   5   6 589.751 25.1215   4
  -5  -5  -6 527.342 22.7841   1
   5   5   6 533.722 19.8720   3
   5   5   7 105.955 18.1338   4
  -5  -5  -7 111.278 16.1479   1
   5   5   8 1580.76 37.8109   4
  -5  -5  -8 1465.62 37.0987   1
  -5  -5  -9 6.60953 14.1790   1
  -5  -5 -10-15.3479 14.4499   1
  -5  -5 -11 52.3201 15.0067   1
  -5  -5 -11 50.9364 25.0282   6
  -5  -5 -12-2.79134 15.4896   1
  -5  -5 -12 134.374 30.2327   6
  -5  -5 -13 93.2588 20.6637   1
  -5  -5 -13 307.570 34.0424   6
  -5  -6   4 592.072 33.3838   2
  -5  -6   3 217.694 24.6508   2
  -5  -6   2 481.483 26.4623   2
   5   6  -2 492.758 29.7846   4
   5   6  -1-14.7864 20.1072   4
  -5  -6   1 55.2444 16.4661   2
   5   6   0 126.218 21.8216   4
  -5  -6   0 43.0472 16.1271   2
   5   6   1 38.0014 17.1355   4
  -5  -6  -1 9.39610 14.0495   2
  -5  -6  -2 326.308 19.7622   2
   5   6   2 298.636 23.0440   4
  -5  -6  -3 320.041 18.9382   2
   5   6   3 298.008 23.2883   4
   5   6   4 1394.06 36.2948   4
  -5  -6  -4 1391.64 30.9672   2
   5   6   5 1651.12 39.3221   4
  -5  -6  -5 1603.54 32.8017   2
   5   6   6 6226.97 70.2033   4
  -5  -6  -6 6171.24 61.2536   2
   5   6   7 5709.50 68.3816   4
   5   6   8 5331.65 68.2401   4
  -5  -6  -8 5311.33 66.7021   1
  -5  -6  -9 2384.22 47.3412   1
  -5  -6 -10 188.171 19.1599   1
  -5  -6 -11 3.45035 16.2844   1
  -5  -6 -11-42.3277 23.6024   6
  -5  -6 -12 34.7923 17.1276   1
  -5  -6 -12 68.7827 26.0206   6
  -5  -6 -13 40.7368 18.7599   1
  -5  -6 -13 305.170 37.8886   6
  -5  -7   3 196.237 24.6304   2
  -5  -7   2 249.769 26.5064   2
   5   7  -1 25.1386 21.7113   4
  -5  -7   1 113.927 19.1502   2
   5   7   0 127.100 23.1374   4
  -5  -7   0 51.2935 17.6074   2
  -5  -7  -1 733.451 29.1309   2
   5   7   1 751.844 31.3450   4
  -5  -7  -2 1459.45 36.8009   2
   5   7   2 1420.22 39.8365   4
  -5  -7  -3 4048.59 55.4415   2
   5   7   3 4194.52 61.1785   4
   5   7   4 2667.25 49.7677   4
  -5  -7  -4 2610.35 44.3733   2
   5   7   5 5109.77 68.1053   4
  -5  -7  -5 4885.54 59.6962   2
   5   7   6 177.392 22.3716   4
  -5  -7  -6 163.088 18.2999   2
   5   7   7 118.707 21.9550   4
   5   7   8 1223.49 38.3760   4
   5   7   9 994.033 36.3316   4
  -5  -7  -9 1006.06 33.3749   1
  -5  -7 -10 313.488 23.0333   1
  -5  -7 -10 379.579 32.1386   6
  -5  -7 -11 138.864 25.9870   6
  -5  -7 -11 113.518 17.6082   1
  -5  -7 -12 125.052 17.8251   1
  -5  -7 -12-26.4255 26.0656   6
  -5  -7 -13 35.6330 18.3686   1
  -5  -7 -13 142.387 34.9449   6
  -5  -8   2 59.9943 17.7546   2
  -5  -8   1 61.4717 21.0624   2
   5   8   0 56.4379 24.9612   4
  -5  -8   0 28.5231 17.0504   2
  -5  -8  -1 217.680 20.1464   2
   5   8   1 166.712 25.8119   4
   5   8   2 64.4904 21.8107   4
  -5  -8  -2 54.3750 17.6607   2
   5   8   3 27.6025 21.9687   4
  -5  -8  -3 23.8754 16.8821   2
   5   8   4 1.61736 19.6216   4
  -5  -8  -4 8.07637 15.7568   2
   5   8   5 500.011 29.0377   4
  -5  -8  -5 575.252 27.3535   2
   5   8   6 61.3146 21.2553   4
  -5  -8  -6 80.5681 17.4392   2
  -5  -8  -7 66.1511 18.3961   2
   5   8   7 47.0195 22.2066   4
   5   8   8 293.766 25.6252   4
   5   8   9 1222.60 42.0164   4
  -5  -8  -9 1158.63 40.5692   6
  -5  -8 -10 114.318 27.2674   6
  -5  -8 -11 83.8700 27.4473   6
  -5  -8 -11 0.13918 16.8084   1
  -5  -8 -12-39.5019 27.5297   6
  -5  -8 -12 49.9066 14.0593   1
  -5  -8 -13 94.8163 17.5393   1
  -5  -9   1 578.776 34.2064   2
  -5  -9   0 94.9542 23.9915   2
   5   9   1-20.9287 26.3328   4
  -5  -9  -1 17.5109 21.4573   2
   5   9   2 263.699 28.6569   4
  -5  -9  -2 95.5359 19.5132   2
   5   9   3-44.2203 24.5026   4
  -5  -9  -3 21.2177 17.5615   2
   5   9   4-30.4825 21.9174   4
  -5  -9  -4-0.78088 21.7278   2
  -5  -9  -5 39.6022 18.6165   2
   5   9   5 168.116 27.8642   4
   5   9   6 790.935 36.6833   4
  -5  -9  -6 760.885 32.2464   2
   5   9   7 1633.60 48.0222   4
  -5  -9  -7 1457.40 39.7975   2
   5   9   8 1272.78 44.0138   4
  -5  -9  -8 1220.34 41.3162   6
  -5  -9  -8 1270.37 39.7456   2
   5   9   9 2736.84 61.4402   4
  -5  -9  -9 2770.81 59.9835   6
  -5  -9 -10 1320.45 45.5696   6
  -5  -9 -11 126.074 30.8600   6
  -5 -10  -1 81.3019 23.3081   2
   5  10   2 23.7893 27.8187   4
  -5 -10  -2 15.7955 19.4286   2
   5  10   3 109.354 27.9440   4
  -5 -10  -3 129.333 20.9878   2
  -5 -10  -4 666.020 32.2652   2
   5  10   4 832.961 40.1196   4
   5  10   5 512.183 33.5921   4
  -5 -10  -5 654.433 32.3306   2
   5  10   6 240.003 29.2974   4
  -5 -10  -6 363.518 27.5397   2
  -5 -10  -7 24.0268 22.0005   6
   5  10   8-2.42825 30.2047   4
  -5 -10  -8 88.0491 21.1537   2
  -5 -10  -8 9.45788 25.2420   6
   5  10   9 651.674 38.8607   4
  -5 -10  -9 830.695 41.6079   6
  -5 -10  -9 641.629 34.5918   2
  -5 -10 -10 194.840 32.4729   6
  -5 -10 -11 214.071 30.8186   6
   5  11   3 170.760 31.6925   4
  -5 -11  -3 114.881 23.7130   2
  -5 -11  -4 33.7774 25.5420   2
   5  11   5 157.871 31.4263   4
  -5 -11  -5 70.0708 26.1862   2
   5  11   6 139.519 35.3979   4
   5  11   7 850.923 42.2334   4
  -5 -11  -7 628.131 37.1894   2
   5  11   8 173.690 35.3631   4
  -5 -11  -8 147.983 26.6273   2
  -5 -11  -8 219.571 31.9883   6
  -5 -11  -9 709.225 39.7570   6
  -5 -11  -9 705.964 38.2933   2
  -5 -11 -10 650.014 42.7138   6
  -5 -12  -6 319.699 34.9093   2
  -5 -12  -7 57.1770 25.1292   2
  -5 -12  -8 28.4523 25.5995   2
  -5 -12  -9-52.8457 30.2846   6
   6 -10  -4 121.689 37.3178   5
   6 -10  -4 89.1031 27.0579   6
   6 -10  -3 86.1449 33.2263   5
   6 -10  -2-18.3828 31.7106   5
   6 -10  -1 66.8974 32.5171   5
   6 -10   0 236.069 39.1495   5
   6 -10   1 118.568 26.8480   5
   6  -9  -5 133.431 29.1229   5
   6  -9  -5-27.8282 19.5061   6
   6  -9  -4 433.168 33.9935   6
   6  -9  -4 512.656 37.9676   5
   6  -9  -3-64.0076 27.2116   5
   6  -9  -3 24.9948 22.0074   6
   6  -9  -2 141.396 30.4398   5
   6  -9  -2 2.02464 19.6783   6
   6  -9  -1 268.056 30.8041   5
   6  -9   0 78.1147 25.2926   5
   6  -9   1-15.1231 27.6163   5
   6  -9   2-25.8812 27.1842   5
   6  -9   3 35.4177 29.4294   5
   6  -8  -6 46.0103 25.6500   6
   6  -8  -5 2073.60 56.2726   6
   6  -8  -4 62.9560 24.2122   5
   6  -8  -4 39.5257 20.4745   6
   6  -8  -3 1871.69 49.1650   6
   6  -8  -3 1950.60 50.9028   5
   6  -8  -2 573.098 30.3840   6
   6  -8  -2 684.638 34.3828   5
   6  -8  -1 62.7993 22.5987   5
   6  -8  -1 92.9482 19.7662   6
   6  -8   0 463.605 31.4027   5
   6  -8   1 6.31311 24.1732   5
   6  -8   2 290.153 32.1846   5
   6  -8   3-8.12048 25.7083   5
   6  -8   4 384.593 36.7637   5
   6  -8   5-0.18111 30.3047   5
   6  -7  -7 65.5917 23.8781   6
   6  -7  -6 142.250 26.7273   6
   6  -7  -5 18.6462 20.8153   6
   6  -7  -4 121.820 24.3887   5
   6  -7  -4-19.8898 19.7794   6
   6  -7  -3 14.5149 20.9277   5
   6  -7  -3 16.7820 17.8444   6
   6  -7  -2 109.849 22.4284   5
   6  -7  -2 87.0836 20.1649   6
   6  -7  -1 15.4765 18.6463   5
   6  -7  -1 67.9996 19.7570   6
   6  -7   0 224.396 21.8073   6
   6  -7   0 171.087 23.8875   5
   6  -7   1 165.248 23.5506   5
   6  -7   2 1499.73 44.5622   5
   6  -7   3 972.123 40.2685   5
   6  -7   4 131.948 27.6854   5
   6  -7   5 1272.84 47.3358   5
   6  -7   6 4.34371 26.3345   5
   6  -6  -7-74.5864 21.1685   6
   6  -6  -6-27.4248 18.6487   6
   6  -6  -5 721.482 35.4491   6
   6  -6  -4 182.609 25.2972   6
   6  -6  -3 3125.33 58.1676   6
   6  -6  -3 2889.06 52.1202   5
   6  -6  -2 898.539 33.1116   6
   6  -6  -2 905.856 32.7150   5
   6  -6  -1 501.237 27.2108   6
   6  -6  -1 477.492 26.3380   5
   6  -6   0 4289.67 59.9389   6
   6  -6   0 4277.27 62.7032   5
   6  -6   1 473.369 23.9940   6
   6  -6   1 488.375 28.5610   5
   6  -6   2 948.444 34.6610   5
   6  -6   3 22.8277 22.2581   5
   6  -6   4 187.962 24.9506   5
   6  -6   5 1341.11 45.5663   5
   6  -6   6 140.344 28.4279   5
   6  -6   7 656.232 42.5238   5
   6  -6   8 286.362 38.6742   5
   6  -5  -8 161.586 27.5615   6
   6  -5  -7 54.8051 24.8898   6
   6  -5  -6 157.811 25.3522   6
   6  -5  -5 216.719 25.5353   6
   6  -5  -4 180.835 23.7201   6
   6  -5  -3 167.185 21.1616   6
   6  -5  -3 181.338 20.2474   5
   6  -5  -2 1613.10 40.9760   6
   6  -5  -2 1596.37 37.3511   5
   6  -5  -1 1817.54 41.0677   6
   6  -5  -1 1869.32 40.1422   5
   6  -5   0 79.7310 18.3056   5
   6  -5   0 98.5257 17.8161   6
   6  -5   0 61.2370 15.6234   3
   6  -5   1 5327.79 62.4926   6
   6  -5   1 5253.74 60.0323   3
   6  -5   1 5205.18 65.6060   5
   6  -5   2 89.0848 19.3099   5
   6  -5   2 108.441 16.2555   6
   6  -5   3 314.886 25.0528   5
   6  -5   4 67.8199 21.2772   5
   6  -5   5 1096.51 40.6269   5
   6  -5   6 79.1436 26.3230   5
   6  -5   7 178.214 30.7508   5
   6  -5   8 112.918 29.8037   5
   6  -5   9 73.0228 30.7995   5
   6  -4  -8 5.67320 21.1450   6
  -6   4   7-59.9401 15.2963   2
   6  -4  -7 203.353 26.6438   6
   6  -4  -6 130.586 23.4534   6
  -6   4   6 115.758 12.5100   2
   6  -4  -5 92.3926 22.5109   6
   6  -4  -4 350.617 25.0738   6
   6  -4  -3 121.334 19.1304   6
   6  -4  -2 1224.75 35.3257   6
   6  -4  -2 1133.31 30.0034   5
   6  -4  -1 168.852 19.3174   6
   6  -4  -1 195.945 17.4238   3
   6  -4  -1 241.386 18.4451   5
   6  -4   0 267.080 20.8142   6
   6  -4   0 296.336 20.2369   3
   6  -4   0 253.528 19.2354   5
   6  -4   1 7.54099 13.8371   5
   6  -4   1 10.3913 13.9446   6
   6  -4   1 12.3195 14.2617   3
   6  -4   2 1573.99 34.7045   6
   6  -4   2 1575.84 35.0441   3
   6  -4   2 1668.46 37.9862   5
   6  -4   3 1031.55 32.5017   5
   6  -4   4 27.7686 19.3677   5
   6  -4   5 1349.15 40.6114   5
   6  -4   6 1341.63 42.6370   5
   6  -4   7 95.8562 24.3507   5
   6  -4   8 32.1625 24.8692   5
   6  -4   9 325.221 37.5125   5
  -6   3   8-21.0646 17.1682   2
  -6   3   7-29.0010 14.1988   2
  -6   3   6-8.76912 12.7501   2
   6  -3  -6 26.8884 19.9747   6
  -6   3   5 13.8410 10.7301   2
   6  -3  -5 12.9802 17.6200   6
   6  -3  -4 1361.82 39.8340   6
  -6   3   4 1415.06 33.8542   2
   6  -3  -3 1607.45 40.2550   6
  -6   3   3 1631.76 32.8258   2
   6  -3  -2 11876.1 97.2418   6
   6  -3  -1 70.1920 12.9491   5
   6  -3  -1 121.387 17.9492   6
   6  -3   0 3375.88 50.0538   6
   6  -3   0 3354.92 44.4086   5
   6  -3   1 3025.27 46.1067   6
   6  -3   1 2977.18 44.1758   3
   6  -3   1 3072.39 43.6538   5
   6  -3   2 38.4135 13.9920   5
   6  -3   2 39.3568 14.7667   6
   6  -3   2 50.2139 16.3803   3
   6  -3   3 517.863 23.9093   3
   6  -3   3 477.807 23.7739   5
   6  -3   4 52.2595 17.6467   5
   6  -3   5 951.281 35.2863   5
   6  -3   6 3969.25 64.8275   5
   6  -3   7-7.11931 22.5364   5
   6  -3   8 947.465 39.4826   5
   6  -3   9-8.57424 26.1530   5
  -6   2   8-65.2023 17.6576   2
  -6   2   7 13.5362 15.6043   2
  -6   2   6 81.9298 14.7616   2
   6  -2  -6 118.276 20.8114   6
  -6   2   5-22.4325 11.0120   2
   6  -2  -5 36.1261 18.5347   6
   6  -2  -4 22.4070 18.8174   6
  -6   2   3 16.1480 10.2747   2
   6  -2  -3-16.3510 15.8696   6
   6  -2  -2 481.518 24.2701   6
   6  -2  -1 1357.46 34.1369   6
   6  -2   0 86.7896 11.8583   5
   6  -2   0 78.5225 15.5894   6
   6  -2   1 1769.12 30.6503   4
   6  -2   1 1756.13 36.2016   6
   6  -2   1 1797.99 31.5728   5
   6  -2   2 764.396 19.4491   4
   6  -2   2 787.208 25.9486   3
   6  -2   2 786.090 23.7926   5
   6  -2   3 95.9312 14.8323   5
  -6   2  -3 150.803 9.59280   1
   6  -2   3 83.4265 15.6838   3
  -6   2  -4 1045.41 24.8709   1
   6  -2   4 944.035 29.4556   3
   6  -2   4 970.355 29.2936   5
   6  -2   5 2.76417 16.0436   5
   6  -2   6 3670.22 59.4694   5
   6  -2   7 1107.27 39.5667   5
   6  -2   8 2356.42 54.8203   5
   6  -2   9 607.780 34.8666   5
   6  -2  10 68.9749 28.6473   5
   6  -2  11-13.1961 33.0214   5
  -6   1   7 1.84020 15.1264   2
  -6   1   6 139.710 15.6087   2
   6  -1  -5 102.892 19.6577   6
  -6   1   5 186.079 16.0067   2
   6  -1  -4 227.929 22.2178   6
  -6   1   4 218.871 16.5148   2
  -6   1   3 516.472 20.8342   2
   6  -1  -3 523.138 25.2994   6
  -6   1   2-26.6674 7.61334   2
   6  -1  -2 8.18589 14.8784   6
   6  -1  -1 424.861 21.4861   6
   6  -1   0 93.8030 14.6651   4
   6  -1   0 95.5542 15.4941   6
   6  -1   1 1226.72 27.4069   4
   6  -1   1 1216.55 30.5234   6
   6  -1   1 1179.00 23.5247   5
   6  -1   2 8.28705 10.6770   5
  -6   1  -2-0.03962 5.18536   1
   6  -1   2 14.0922 10.3639   4
   6  -1   2 21.8807 14.3601   3
   6  -1   3 1359.86 24.2292   4
   6  -1   3 1451.68 33.1735   3
  -6   1  -3 1357.76 23.4810   1
   6  -1   3 1359.26 29.1943   5
   6  -1   4-6.47662 14.4150   5
   6  -1   4 2.59038 15.6236   3
  -6   1  -4-3.74467 8.04287   1
  -6   1  -5 206.995 13.5068   1
   6  -1   5 161.696 18.7894   3
   6  -1   5 164.259 18.2610   5
  -6   1  -6 473.403 20.2629   1
   6  -1   6 413.284 25.9191   5
  -6   1  -7 5021.09 64.3189   1
   6  -1   7 5225.93 71.6932   5
  -6   1  -8 678.498 27.8860   1
   6  -1   8 764.184 36.7236   5
  -6   1  -9 1453.60 41.1782   1
   6  -1   9 1437.51 46.3647   5
  -6   1 -10 703.892 31.7798   1
   6  -1  10 610.648 36.3287   5
  -6   1 -11 605.557 30.3667   1
   6  -1  11 419.602 37.3086   5
  -6   0   7 73.3142 18.7158   2
   6   0  -7 98.9823 27.1304   4
   6   0  -6 190.944 27.2610   4
  -6   0   6 144.866 22.2407   2
  -6   0   5 51.3583 16.8247   2
   6   0  -5 101.199 24.6759   4
   6   0  -4 1834.03 41.4466   6
  -6   0   4 1732.55 40.0679   2
   6   0  -4 1898.92 45.3219   4
   6   0  -3 2454.13 45.6002   6
  -6   0   3 2443.59 42.6029   2
   6   0  -3 2637.80 49.2232   4
  -6   0   2 1600.97 31.7000   2
   6   0  -2 1642.52 37.4751   4
   6   0  -2 1597.18 36.5286   6
   6   0  -1 11333.4 86.2722   4
  -6   0   1 11570.1 72.1778   2
   6   0  -1 11756.0 89.1764   6
   6   0   0 497.100 21.9798   4
   6   0   0 499.101 22.9452   6
   6   0   1 8264.47 66.0194   4
   6   0   2 5702.19 52.2877   4
  -6   0  -2 5816.66 44.2490   1
   6   0   2 5808.55 48.0022   5
  -6   0  -3 143.235 9.99706   1
   6   0   3 162.550 12.3371   4
   6   0   3 150.019 16.5452   3
   6   0   3 143.065 13.1262   5
   6   0   4 3116.61 36.0040   4
   6   0   4 3399.78 48.5922   3
   6   0   4 3163.09 43.0599   5
  -6   0  -4 3212.18 39.4503   1
   6   0   5 419.526 23.4049   3
  -6   0  -5 393.262 16.5666   1
   6   0   5 439.057 22.1381   5
   6   0   6-14.9371 15.3505   5
  -6   0  -6-26.4599 7.50692   1
  -6   0  -7 871.523 27.3699   1
   6   0   7 852.462 32.8491   5
  -6   0  -8 70.5088 13.3786   1
   6   0   8 116.317 21.8082   5
  -6   0  -9 684.341 28.9023   1
   6   0   9 724.282 35.5487   5
  -6   0 -10 29.7969 14.3808   1
   6   0  10 50.1301 27.4012   5
  -6   0 -11 77.0221 15.6515   1
   6   0  11 175.588 29.4298   5
  -6  -1   7-14.6323 20.1497   2
   6   1  -7 211.115 32.9131   4
   6   1  -6 634.579 34.1971   4
  -6  -1   6 454.329 27.5935   2
  -6  -1   5 189.666 19.8700   2
   6   1  -5 315.778 29.1362   4
  -6  -1   4 261.832 20.2271   2
   6   1  -4 327.310 27.1382   4
  -6  -1   3 157.069 16.9882   2
   6   1  -3 168.633 23.8858   4
   6   1  -3 103.156 17.2909   6
  -6  -1   2 11.7202 12.0136   2
   6   1  -2 40.3937 18.5285   4
   6   1  -2 21.0972 14.7787   6
  -6  -1   1 102.415 11.9503   2
   6   1  -1 123.974 16.6552   6
   6   1  -1 107.732 17.0996   4
   6   1   0 445.512 22.2005   4
   6   1   1 101.528 16.0118   4
   6   1   2-3.69552 8.34708   5
   6   1   2-3.26474 13.2811   4
   6   1   3 9.43530 10.7625   5
   6   1   3 22.9317 11.8969   4
  -6  -1  -3-21.5287 7.05317   1
  -6  -1  -4 634.047 18.8558   1
   6   1   4 644.788 20.1738   4
   6   1   4 660.256 24.5911   3
   6   1   4 652.504 21.2051   5
   6   1   5 784.978 21.0784   4
   6   1   5 851.838 28.4079   3
   6   1   5 800.048 24.8136   5
  -6  -1  -5 832.138 22.3854   1
   6   1   6 1328.78 25.8866   4
   6   1   6 1589.50 35.5273   3
   6   1   6 1645.91 36.4205   5
  -6  -1  -6 1679.15 33.5027   1
  -6  -1  -7 137.593 13.5318   1
   6   1   7 171.030 20.7846   5
  -6  -1  -8 114.449 14.1128   1
   6   1   8 87.7050 20.6872   5
  -6  -1  -9 1145.34 35.1311   1
   6   1   9 1164.24 40.0452   5
   6   1  10 147.316 25.5817   5
  -6  -1 -10 53.1185 15.7689   1
  -6  -1 -11 22.2128 17.2992   1
  -6  -1 -12 135.988 22.3636   1
  -6  -2   6 112.807 19.0528   2
   6   2  -6 428.885 35.1686   4
  -6  -2   5 288.795 25.0356   2
   6   2  -5 294.746 28.6170   4
  -6  -2   4-30.6323 14.8683   2
   6   2  -4 34.0487 23.0721   4
  -6  -2   3 14.6214 13.3265   2
   6   2  -3 27.5488 21.1407   4
  -6  -2   2 1306.41 32.2292   2
   6   2  -2 1406.55 38.0564   4
  -6  -2   1 454.163 18.6444   2
   6   2  -1 467.563 25.6234   4
  -6  -2   0 380.441 15.4468   2
   6   2   0 392.577 22.8419   4
   6   2   1 1416.59 32.8943   4
   6   2   2 1680.26 33.4506   4
   6   2   3 544.660 21.4677   4
   6   2   3 547.113 16.9758   5
   6   2   4 4517.43 49.6881   4
  -6  -2  -4 4527.49 47.7810   1
   6   2   4 4464.37 46.7233   5
  -6  -2  -5 0.13964 9.35578   1
   6   2   5-8.10705 11.6603   4
   6   2   5-13.8110 14.6838   3
   6   2   5-10.0565 12.3364   5
   6   2   6 944.369 25.0639   4
   6   2   6 934.782 28.5700   3
   6   2   6 931.981 28.5257   5
  -6  -2  -6 840.628 25.2741   1
  -6  -2  -7 40.4253 12.4615   1
   6   2   7 52.6406 12.0960   4
   6   2   7 10.8375 15.4228   3
   6   2   7 49.7504 18.1553   5
   6   2   8 620.559 29.9849   5
  -6  -2  -8 583.400 24.0862   1
  -6  -2  -9 401.518 22.3175   1
  -6  -2 -10 46.5702 15.4984   1
  -6  -2 -11 292.502 24.1870   1
  -6  -2 -12 82.4568 17.3478   1
  -6  -3   6 287.565 19.6936   2
   6   3  -6 450.674 36.2176   4
  -6  -3   5 404.774 29.3948   2
   6   3  -5 570.216 36.7428   4
  -6  -3   4 183.406 21.2941   2
   6   3  -4 306.550 28.3046   4
  -6  -3   3 13.4900 14.6358   2
   6   3  -3 29.4146 20.1128   4
  -6  -3   2 795.832 28.2645   2
   6   3  -2 746.140 29.7259   4
  -6  -3   1 117.110 13.9075   2
   6   3  -1 137.295 20.9404   4
  -6  -3   0 2821.04 39.7454   2
   6   3   0 2791.73 47.8692   4
   6   3   1 280.502 20.2606   4
   6   3   2 1622.57 35.2042   4
   6   3   3 230.783 17.8713   4
   6   3   4 104.905 15.8999   4
   6   3   5 441.467 21.1822   4
  -6  -3  -5 390.073 17.8801   1
   6   3   5 419.614 20.1366   3
   6   3   6 22.1999 14.2104   4
  -6  -3  -6 36.9494 13.2138   1
   6   3   6 23.9510 14.6395   3
  -6  -3  -7 402.614 20.9735   1
   6   3   7 382.994 20.0119   4
   6   3   7 346.184 20.8662   3
  -6  -3  -8-20.3375 12.6241   1
   6   3   8-0.92097 14.0552   4
  -6  -3  -9 34.1018 15.0742   1
  -6  -3 -10 24.2351 14.5368   1
  -6  -3 -11 23.3209 16.0137   1
  -6  -3 -12 113.576 17.7082   1
  -6  -4   5 19.9268 20.2556   2
   6   4  -5-6.25476 24.5593   4
  -6  -4   4 169.383 20.2158   2
   6   4  -4 83.7931 24.3287   4
  -6  -4   3 47.2527 16.1251   2
  -6  -4   2 76.6762 17.6584   2
   6   4  -2 42.0407 20.2855   4
  -6  -4   1 666.831 25.8226   2
   6   4  -1 842.847 32.3107   4
  -6  -4   0 183.172 15.9090   2
   6   4   0 169.031 21.2370   4
  -6  -4  -1 93.9245 12.6033   2
   6   4   1 58.5989 18.5247   4
   6   4   2 12.0630 16.3078   4
   6   4   3 10.4695 15.4169   4
   6   4   4 19.8884 15.8373   4
   6   4   5 660.865 25.5959   4
   6   4   6 400.309 22.5881   4
  -6  -4  -6 433.204 20.4374   1
   6   4   6 385.705 20.8194   3
   6   4   7 356.451 21.6336   4
  -6  -4  -7 361.960 20.2764   1
   6   4   7 379.843 20.9696   3
  -6  -4  -8 523.211 25.2107   1
   6   4   8 533.536 24.8751   4
   6   4   8 559.377 24.6031   3
  -6  -4  -9 116.527 16.9978   1
   6   4   9 100.908 18.3576   4
  -6  -4 -10 1426.34 40.9710   1
  -6  -4 -11 25.0488 16.4965   1
  -6  -4 -12 733.087 39.2113   6
  -6  -4 -12 547.782 29.0010   1
  -6  -4 -13 271.928 23.5416   1
  -6  -5   4 35.3080 17.8049   2
  -6  -5   2 150.032 18.1520   2
   6   5  -2 185.338 26.9712   4
  -6  -5   1 1643.65 39.1460   2
   6   5  -1 1801.62 45.0115   4
  -6  -5   0 1571.87 35.9653   2
   6   5   0 1641.25 41.8045   4
  -6  -5  -1 2654.51 42.4405   2
   6   5   1 2817.10 50.5013   4
  -6  -5  -2 2298.94 37.4830   2
   6   5   2 2486.80 46.9273   4
   6   5   3 1346.91 35.5787   4
   6   5   4 2562.10 46.1095   4
   6   5   5 670.446 27.2521   4
   6   5   6-1.54045 16.6761   4
   6   5   6-10.5471 13.8637   3
   6   5   7 13.9434 15.9244   4
   6   5   7 17.3692 14.5731   3
   6   5   8 30.5715 18.0034   4
  -6  -5  -8 42.1972 15.3724   1
   6   5   9 399.867 26.2722   4
  -6  -5  -9 417.705 24.7022   1
  -6  -5 -10 75.7133 17.8394   1
  -6  -5 -11 196.164 22.4666   1
  -6  -5 -12 265.926 22.8974   1
  -6  -5 -12 358.755 34.1696   6
  -6  -5 -13 215.470 23.2195   1
  -6  -5 -13 417.302 38.5105   6
  -6  -6   3 378.090 28.3999   2
   6   6  -3 271.288 29.0561   4
  -6  -6   2 148.534 20.8514   2
   6   6  -2 119.626 23.4243   4
  -6  -6   1 169.800 19.8959   2
   6   6  -1 161.366 26.6252   4
   6   6   0-15.0878 20.9724   4
  -6  -6   0 32.4131 15.4670   2
   6   6   1 18.6248 22.7088   4
  -6  -6  -1 62.8760 16.0162   2
   6   6   2 23.7542 19.7398   4
  -6  -6  -2-11.3522 12.7257   2
  -6  -6  -3 136.171 15.0609   2
   6   6   3 122.107 22.8362   4
   6   6   4 761.671 30.8601   4
   6   6   5 732.695 30.8936   4
   6   6   6 775.654 31.7362   4
   6   6   7 115.739 21.2759   4
   6   6   8 337.073 25.9529   4
  -6  -6  -8 360.707 23.3210   1
   6   6   9-1.01583 21.9874   4
  -6  -6  -9 15.4701 16.9663   1
  -6  -6 -10 243.889 21.0538   1
  -6  -6 -11-36.4361 17.8005   1
  -6  -6 -12 66.3905 18.7162   1
  -6  -6 -12 194.344 32.7491   6
  -6  -6 -13 75.6742 19.8677   1
  -6  -6 -13 186.988 31.1823   6
  -6  -7   2 17.1036 19.1382   2
   6   7  -2 140.158 31.4384   4
   6   7  -1 17.3012 26.4475   4
  -6  -7   1 64.0769 17.9085   2
   6   7   0 58.9024 23.3676   4
  -6  -7   0 116.655 15.7542   2
   6   7   1 175.217 25.0983   4
  -6  -7  -1 127.642 16.5669   2
  -6  -7  -2 512.608 25.0549   2
   6   7   2 526.427 31.8296   4
   6   7   3-26.7558 21.8679   4
  -6  -7  -3 37.1723 15.6819   2
   6   7   4 741.233 33.1114   4
   6   7   5 729.569 31.6999   4
   6   7   6 75.0361 21.8954   4
   6   7   7 377.934 26.7266   4
   6   7   8 109.308 22.5701   4
   6   7   9 40.6338 23.9521   4
  -6  -7 -10 11.1692 17.2434   1
  -6  -7 -11 188.166 20.8255   1
  -6  -7 -12 353.478 22.7601   1
  -6  -7 -12 355.660 35.3996   6
  -6  -8   1-43.8080 17.5216   2
   6   8   0-58.4313 29.0283   4
  -6  -8   0-64.3293 16.2502   2
  -6  -8  -1 601.851 30.6613   2
   6   8   1 596.643 34.1427   4
  -6  -8  -2 539.477 28.7464   2
   6   8   2 573.734 32.6232   4
  -6  -8  -3 537.046 27.4184   2
   6   8   3 578.959 32.8078   4
  -6  -8  -4 690.501 28.2008   2
   6   8   4 794.207 35.3167   4
   6   8   5 891.701 38.0623   4
   6   8   6 305.451 28.2181   4
   6   8   7 148.553 26.8494   4
   6   8   8 39.6824 21.3823   4
   6   8   9 73.4723 25.2450   4
   6   8  10-0.79267 25.5699   4
  -6  -8 -11 80.0651 28.8855   6
  -6  -8 -11 82.4090 21.4627   1
  -6  -8 -12 55.9589 32.6186   6
  -6  -8 -12 114.578 18.8795   1
  -6  -9   0 148.015 21.5092   2
   6   9   1 170.112 33.2323   4
  -6  -9  -1 83.6294 21.2943   2
   6   9   2 58.8188 25.9068   4
  -6  -9  -2 40.2491 18.6611   2
  -6  -9  -3-12.1561 18.5416   2
   6   9   3 43.3735 26.8307   4
   6   9   4-36.3122 26.7851   4
  -6  -9  -4 94.6607 21.3169   2
   6   9   5 253.998 29.2408   4
   6   9   6 48.8768 27.8947   4
   6   9   7 236.110 28.1115   4
   6   9   8 72.3921 24.5411   4
   6   9   9 154.234 27.3171   4
   6   9  10 5.81914 25.8073   4
  -6  -9 -10 37.7607 27.3381   6
  -6  -9 -11 13.5464 25.2784   6
  -6 -10  -1 66.6527 27.8118   2
   6  10   2 153.066 34.2099   4
  -6 -10  -2 74.7000 21.1518   2
   6  10   3 6.65319 31.1522   4
  -6 -10  -3 19.2922 24.5850   2
   6  10   4 80.7990 30.8878   4
  -6 -10  -4 0.85244 20.8608   2
   6  10   5 681.959 38.7629   4
   6  10   6 294.455 30.8661   4
   6  10   7 244.487 30.0647   4
   6  10   8 3.81336 30.3244   4
   6  10   9 102.555 30.4239   4
  -6 -10  -9 310.419 31.9175   6
   6  10  10 94.3358 35.9291   4
  -6 -10 -10 157.023 27.3761   6
  -6 -11  -3 80.6356 22.8561   2
  -6 -11  -4 228.721 29.0911   2
   6  11   4 457.816 42.4390   4
   6  11   5 511.255 41.4910   4
   6  11   6 1106.14 51.9157   4
   6  11   7 1153.79 49.8672   4
   6  11   8 1542.22 53.2425   4
  -6 -11  -9 354.067 38.3155   6
   7 -10  -3 271.570 30.8481   6
   7  -9  -4 31.1524 32.3730   5
   7  -9  -4-13.9382 27.1251   6
   7  -9  -3 215.406 32.0007   6
   7  -9  -3 340.991 36.6012   5
   7  -9  -2 147.639 30.1481   5
   7  -9  -2 105.040 24.4595   6
   7  -9   0 39.7279 28.8791   5
   7  -9   1 190.694 32.1841   5
   7  -9   2 281.752 32.5513   5
   7  -8  -5 305.352 32.4497   6
   7  -8  -4 232.781 25.5397   6
   7  -8  -3 86.4505 23.1387   6
   7  -8  -3 199.794 28.1601   5
   7  -8  -2 683.654 36.2262   6
   7  -8  -2 764.806 39.2545   5
   7  -8  -1 31.7430 25.5839   5
   7  -8  -1 89.9678 23.6853   6
   7  -8   0 329.843 32.6615   5
   7  -8   1 24.4400 25.9193   5
   7  -8   2 142.731 29.5778   5
   7  -8   3 197.144 30.8613   5
   7  -8   4 69.9053 29.0767   5
   7  -7  -5 170.048 26.7712   6
   7  -7  -4-20.6704 22.0074   6
   7  -7  -3 11.2455 21.9044   5
   7  -7  -3 58.5072 20.7966   6
   7  -7  -2 118.838 25.2610   5
   7  -7  -2 110.778 24.2340   6
   7  -7  -1 138.431 23.0079   6
   7  -7  -1 182.411 26.4633   5
   7  -7   0 197.113 21.9470   6
   7  -7   0 291.378 27.5393   5
   7  -7   1 872.835 38.2432   5
   7  -7   2 990.602 39.2937   5
   7  -7   3 2016.27 54.7122   5
   7  -7   4 1560.70 52.3854   5
   7  -7   5 719.090 39.5802   5
   7  -7   6 111.318 30.8221   5
   7  -6  -6 820.854 43.4642   6
   7  -6  -5 140.301 24.3212   6
   7  -6  -4 276.560 27.0150   6
   7  -6  -3 83.9058 22.9774   6
   7  -6  -2 9.63063 19.9755   5
   7  -6  -2 1.70744 19.3147   6
   7  -6  -1 494.113 28.4228   6
   7  -6  -1 562.529 29.2361   5
   7  -6   0 18.6101 20.6048   5
   7  -6   0 16.0734 17.7656   6
   7  -6   1 56.9273 21.0926   5
   7  -6   1 96.0696 20.1272   6
   7  -6   2 197.101 23.9784   5
   7  -6   3 699.817 34.1392   5
   7  -6   4 52.5726 23.4733   5
   7  -6   5 383.429 33.7687   5
   7  -6   6 74.2637 30.6236   5
   7  -6   7 54.9528 28.7712   5
   7  -5  -6 483.406 33.5703   6
   7  -5  -5-15.9493 19.5449   6
   7  -5  -4 45.0314 20.1155   6
   7  -5  -3 231.108 26.4894   6
   7  -5  -2 769.315 33.5755   6
   7  -5  -1 861.846 33.3904   6
   7  -5  -1 898.700 31.3536   5
   7  -5   0 64.8683 19.4340   5
   7  -5   0 60.1131 18.9745   6
   7  -5   0 87.9686 17.9876   3
   7  -5   1 4021.67 60.0016   6
   7  -5   1 4039.15 57.4739   3
   7  -5   1 3969.09 59.9224   5
   7  -5   2 1018.10 33.0954   6
   7  -5   2 1053.07 33.4423   3
   7  -5   2 1082.17 36.0131   5
   7  -5   3 263.186 24.7202   5
   7  -5   4 3380.68 62.5154   5
   7  -5   5 48.0445 25.0431   5
   7  -5   6 714.473 39.6558   5
   7  -5   7 70.2979 26.3712   5
   7  -5   8 124.844 34.6631   5
   7  -4  -7 347.091 31.8411   6
   7  -4  -6 1144.90 43.1119   6
   7  -4  -5 129.111 24.8386   6
   7  -4  -4 2950.37 60.3199   6
   7  -4  -3 227.814 22.5294   6
   7  -4  -2 146.111 19.8437   6
   7  -4  -1 2527.24 49.9123   6
   7  -4   0 45.8654 16.3084   5
   7  -4   0 45.4968 18.6120   6
   7  -4   0 39.9505 16.4040   3
   7  -4   1 53.8652 16.0526   5
   7  -4   1 48.5112 15.6225   6
   7  -4   1 46.7587 16.7898   3
   7  -4   2 409.387 23.7800   6
   7  -4   2 443.477 24.7250   3
   7  -4   2 384.269 24.2844   5
   7  -4   3 272.443 22.3132   3
   7  -4   3 259.985 23.5185   5
   7  -4   4 821.561 33.4462   5
   7  -4   5-21.7857 21.5015   5
   7  -4   6 402.621 29.7233   5
   7  -4   7-27.6270 24.5686   5
   7  -4   8 19.3464 26.0904   5
   7  -4   9 121.243 34.2436   5
   7  -3  -6 13.4255 23.3466   6
   7  -3  -5-25.1440 20.0163   6
   7  -3  -4 112.528 20.6616   6
   7  -3  -3 255.237 23.1284   6
   7  -3  -2 14.2901 16.5170   6
   7  -3  -1 16.4332 16.8682   6
   7  -3   0 961.525 32.3460   6
   7  -3   1 1358.46 30.0179   4
   7  -3   1 1343.00 36.0129   6
   7  -3   1 1392.44 34.9056   3
   7  -3   1 1351.18 32.4487   5
   7  -3   2 32.0614 15.7337   5
   7  -3   2-5.82608 14.7530   6
   7  -3   2 2.94715 16.7876   3
   7  -3   3 261.503 21.6350   3
   7  -3   3 338.061 22.8052   5
   7  -3   4 1191.81 35.4784   3
   7  -3   4 1288.64 36.6851   5
  -7   3  -5 948.031 26.1973   1
   7  -3   5 1068.55 37.1250   5
   7  -3   6 94.8859 24.0632   5
   7  -3   7 114.248 24.6323   5
   7  -3   8 620.608 38.1624   5
   7  -3   9-19.1731 27.9536   5
   7  -3  10 111.129 36.8100   5
   7  -2  -6 202.144 27.8099   6
   7  -2  -5 494.069 30.6825   6
   7  -2  -4 46.9148 20.3693   6
   7  -2  -3 1132.44 36.4789   6
   7  -2  -2-7.75786 17.7515   6
   7  -2  -1 72.4156 19.2800   6
   7  -2   0 38.8335 15.6530   4
   7  -2   0 43.8480 17.5512   6
   7  -2   1 10.4313 12.2154   5
   7  -2   1-4.92426 13.1278   4
   7  -2   1 1.84416 15.5492   6
   7  -2   2 5888.77 55.4202   4
   7  -2   2 5870.71 66.1003   3
   7  -2   2 5954.81 60.4777   5
   7  -2   3 2674.35 47.5412   3
   7  -2   3 2625.63 44.0045   5
   7  -2   4 6135.46 71.0405   3
  -7   2  -4 6313.80 58.0019   1
   7  -2   4 6243.79 69.7877   5
  -7   2  -5 3452.06 47.6593   1
   7  -2   5 3406.86 55.9604   3
   7  -2   5 3524.99 56.9098   5
  -7   2  -6 513.295 21.1813   1
   7  -2   6 526.388 28.7099   5
  -7   2  -7 557.320 23.0148   1
   7  -2   7 464.187 29.2755   5
   7  -2   8 113.221 25.4887   5
  -7   2  -8 89.3036 11.5933   1
   7  -2   9 164.922 27.0800   5
  -7   2  -9 96.9583 14.3567   1
  -7   2 -10 28.5652 13.8348   1
   7  -2  10-71.4240 24.9142   5
   7  -1  -6 262.720 32.2810   4
   7  -1  -5 514.121 29.3670   6
   7  -1  -5 537.862 35.0977   4
   7  -1  -4 181.127 23.8599   6
   7  -1  -4 79.7602 22.6630   4
   7  -1  -3 4504.05 66.3434   4
   7  -1  -3 4607.57 66.9070   6
   7  -1  -2 593.759 27.7394   4
   7  -1  -2 547.005 27.7773   6
   7  -1  -1 1053.90 32.2920   4
   7  -1  -1 1099.05 34.1706   6
   7  -1   0 292.902 20.7139   4
   7  -1   0 285.212 22.2917   6
   7  -1   1 313.246 18.9023   4
   7  -1   1 290.294 21.2133   6
   7  -1   2 14.1485 11.1605   5
   7  -1   2-14.7808 12.6173   4
   7  -1   3 1537.94 29.6274   4
   7  -1   3 1513.87 36.3850   3
   7  -1   3 1502.90 32.6027   5
   7  -1   4 1390.47 36.3585   3
   7  -1   4 1372.40 34.1895   5
  -7   1  -4 1376.77 27.2690   1
   7  -1   5 1666.87 40.6087   3
  -7   1  -5 1755.97 33.5855   1
   7  -1   5 1736.13 39.8369   5
   7  -1   6 573.598 28.8287   3
  -7   1  -6 506.780 21.5939   1
   7  -1   6 540.629 28.8531   5
  -7   1  -7 565.782 23.5701   1
   7  -1   7 536.789 30.0319   5
   7  -1   8 123.944 25.4387   5
  -7   1  -8 75.0544 13.1923   1
  -7   1  -9-52.6068 12.7442   1
   7  -1   9-8.78365 24.6995   5
   7  -1  10 9.13690 24.4695   5
  -7   1 -11-51.2250 15.2891   1
   7  -1  11 88.9753 35.9994   5
   7   0  -6 106.618 33.6553   4
   7   0  -5-34.0950 26.9830   4
   7   0  -4 141.895 21.3337   6
   7   0  -4-9.11061 23.9973   4
   7   0  -3 10.0231 22.4221   4
   7   0  -3 82.5644 20.0258   6
   7   0  -2 497.344 28.2491   4
   7   0  -2 435.511 25.3776   6
   7   0  -1 231.362 22.6058   4
   7   0  -1 284.592 22.6110   6
   7   0   0 94.4977 16.7899   6
   7   0   0 96.9495 16.9526   4
   7   0   1 1000.38 29.0234   4
   7   0   2 1633.88 32.8142   4
  -7   0  -3 1330.93 24.9020   1
   7   0   3 1301.46 29.3319   4
   7   0   3 1284.21 27.9284   5
  -7   0  -4 4801.32 50.4768   1
   7   0   4 4693.09 49.6306   4
   7   0   4 4851.72 61.3260   3
   7   0   4 4777.73 54.8410   5
   7   0   5 5171.51 64.3875   3
   7   0   5 5217.08 61.4299   5
  -7   0  -5 5175.58 55.6332   1
   7   0   6 2427.88 48.2036   3
  -7   0  -6 2350.25 40.8089   1
   7   0   6 2257.02 45.2274   5
  -7   0  -7 2557.84 45.3736   1
   7   0   7 2657.90 52.2619   5
  -7   0  -8 2632.90 49.1837   1
   7   0   8 2523.50 53.9426   5
  -7   0  -9-44.5081 11.9122   1
   7   0   9-5.68375 21.1008   5
  -7   0 -10 22.2442 15.4452   1
   7   0  10 34.2728 29.2915   5
  -7   0 -11 7.07629 16.1982   1
   7   0  11 11.8706 29.2343   5
   7   1  -5-13.2648 29.2497   4
   7   1  -4 414.485 31.0415   4
   7   1  -3 386.000 29.6968   4
   7   1  -2 3140.35 56.9037   4
   7   1  -2 3251.98 54.1161   6
   7   1  -1 2261.68 45.8947   4
   7   1   0 3806.50 54.7318   4
   7   1   1 474.419 24.0296   4
   7   1   2 601.725 24.1086   4
   7   1   3 952.564 26.5394   4
  -7  -1  -3 1045.54 23.0798   1
  -7  -1  -4 5809.39 55.3865   1
   7   1   4 5640.03 56.9873   4
   7   1   4 5813.90 65.2188   3
   7   1   4 5845.81 57.3112   5
  -7  -1  -5 3616.72 47.3536   1
   7   1   5 3689.86 45.8945   4
   7   1   5 3721.50 55.2291   3
   7   1   5 3652.79 49.8808   5
   7   1   6 7407.62 77.2405   3
   7   1   6 7420.57 74.7540   5
  -7  -1  -6 7435.81 71.1695   1
   7   1   7 388.255 26.1061   3
   7   1   7 406.218 25.2984   5
  -7  -1  -7 331.985 19.3852   1
   7   1   8 806.356 34.2601   5
  -7  -1  -8 788.490 27.8756   1
  -7  -1  -9 43.5362 14.8434   1
   7   1   9 18.5162 22.2738   5
  -7  -1 -10 181.380 18.9085   1
   7   1  10 184.423 31.3054   5
  -7  -1 -11 56.5853 17.4580   1
  -7  -1 -12 64.5444 18.1436   1
   7   2  -5 222.195 31.7639   4
   7   2  -4 19.4601 23.1339   4
   7   2  -3-31.0035 24.1386   4
   7   2  -2 774.885 34.8151   4
   7   2  -1 3.93988 20.5888   4
   7   2   0 1390.32 37.6152   4
   7   2   1 373.594 23.1860   4
   7   2   2-2.29344 15.9649   4
   7   2   3 247.434 19.5356   4
   7   2   4 435.089 21.9276   4
  -7  -2  -4 415.468 17.5534   1
  -7  -2  -5 577.272 21.3306   1
   7   2   5 567.613 22.5088   4
   7   2   5 650.004 26.9496   3
   7   2   5 574.597 22.9302   5
  -7  -2  -6 1446.03 32.7207   1
   7   2   6 1422.91 31.6938   4
   7   2   6 1506.21 37.8354   3
   7   2   6 1443.49 35.2527   5
  -7  -2  -7 438.144 22.2365   1
   7   2   7 383.555 25.0590   3
   7   2   7 480.784 25.7240   5
   7   2   8 162.532 21.6274   3
   7   2   8 187.981 22.3163   5
  -7  -2  -8 177.965 17.3308   1
  -7  -2  -9 463.793 24.6881   1
  -7  -2 -10 39.7528 14.1321   1
  -7  -2 -11 92.8402 17.7679   1
  -7  -2 -12 24.7963 15.6948   1
   7   3  -5-64.5236 32.9278   4
   7   3  -4 86.0733 27.1037   4
   7   3  -2 85.6904 24.7825   4
   7   3  -1 29.8938 20.7993   4
   7   3   0 187.647 23.4720   4
   7   3   1 0.14797 17.7424   4
   7   3   2 411.697 23.6181   4
   7   3   3 1033.59 30.9054   4
   7   3   4 214.427 19.6582   4
   7   3   5 5946.59 64.6386   4
  -7  -3  -5 6149.19 62.9932   1
   7   3   6 966.266 28.8942   4
  -7  -3  -6 1023.84 28.7631   1
   7   3   6 950.901 31.2468   3
  -7  -3  -7 381.655 20.8715   1
   7   3   7 343.602 21.6900   4
   7   3   7 285.592 22.1562   3
  -7  -3  -8 576.053 26.3414   1
   7   3   8 481.761 25.9849   3
  -7  -3  -9 626.325 28.0483   1
  -7  -3 -10 3.45046 14.5074   1
  -7  -3 -11 45.5616 14.7533   1
  -7  -3 -12 171.611 23.9567   1
   7   4  -3 152.842 29.1661   4
   7   4  -2 28.7629 22.9181   4
   7   4  -1 350.407 27.6284   4
   7   4   0 409.864 27.5341   4
   7   4   1 585.387 29.6908   4
   7   4   2 24.4375 17.4145   4
   7   4   3 208.222 20.9124   4
   7   4   4 1478.22 37.2590   4
   7   4   5 779.634 28.7372   4
   7   4   6 1790.95 39.8701   4
  -7  -4  -6 1831.45 38.4118   1
   7   4   6 1874.79 40.1494   3
   7   4   7 2569.39 46.5823   4
  -7  -4  -7 2548.73 45.9477   1
   7   4   7 2478.38 45.8942   3
   7   4   8 492.598 25.5977   4
  -7  -4  -8 486.053 24.4853   1
   7   4   8 468.774 24.5915   3
  -7  -4  -9 7.92583 15.8967   1
  -7  -4 -10 247.243 24.1949   1
  -7  -4 -11 130.327 20.7648   1
  -7  -4 -12 47.7432 19.8237   1
   7   5  -3 121.749 26.3132   4
   7   5  -2 75.6685 27.6336   4
   7   5  -1 491.140 29.5060   4
   7   5   0-37.4930 21.6210   4
   7   5   1 747.168 33.5109   4
   7   5   2 132.280 23.3134   4
   7   5   3-18.4729 19.6799   4
   7   5   4-11.2107 19.6590   4
   7   5   5 63.8611 19.6332   4
   7   5   6 175.197 21.7719   4
   7   5   7 449.061 27.5106   4
  -7  -5  -7 467.396 23.1690   1
   7   5   7 490.837 25.2460   3
   7   5   8 1.52388 19.6332   4
  -7  -5  -8 7.96410 13.6575   1
   7   5   9 2.21778 19.7148   4
  -7  -5  -9 43.2208 17.8363   1
  -7  -5 -10-18.9944 17.2491   1
  -7  -5 -11 31.6184 17.2399   1
  -7  -5 -12-34.3472 16.8902   1
  -7  -5 -13 230.112 36.6738   6
   7   6  -3 52.5770 30.6552   4
   7   6  -2 314.433 32.0259   4
   7   6  -1 171.542 28.4714   4
   7   6   0 28.1251 21.1126   4
   7   6   1 226.737 28.0215   4
   7   6   2 119.338 24.5810   4
   7   6   3 23.1398 21.3029   4
   7   6   4 297.228 26.0784   4
   7   6   5 1093.51 37.0353   4
   7   6   6 2347.20 50.2720   4
   7   6   7 3710.15 62.0380   4
   7   6   8 2279.03 50.2557   4
   7   6   9 3809.13 63.7247   4
  -7  -6  -9 3744.97 63.0653   1
   7   6  10 465.113 30.8188   4
  -7  -6 -10 463.845 28.2312   1
  -7  -6 -11 919.202 36.8446   1
  -7  -6 -12 223.389 23.4028   1
   7   7  -2 608.559 39.5148   4
   7   7  -1 278.200 30.6187   4
   7   7   0 61.2702 28.9294   4
   7   7   1 161.198 28.1427   4
   7   7   2 87.2005 27.4545   4
   7   7   3 230.365 27.6351   4
   7   7   4 65.9317 22.7416   4
   7   7   5 54.2816 23.4010   4
   7   7   6 46.0007 22.3769   4
   7   7   7 171.087 24.7606   4
   7   7   8 42.5243 23.3489   4
   7   7   9 78.6264 24.9875   4
   7   7  10-15.1094 21.8215   4
  -7  -7 -10-1.25761 16.9643   1
  -7  -7 -11 48.6448 20.1277   1
  -7  -7 -12 57.0813 18.3380   1
   7   8   1-45.4482 29.7297   4
   7   8   2-40.7332 27.7440   4
   7   8   3 63.2365 29.0386   4
   7   8   4 85.4712 26.0424   4
   7   8   5 178.848 27.7401   4
   7   8   6 208.979 29.9110   4
   7   8   7 86.7414 28.4632   4
   7   8   8 157.163 28.5329   4
   7   8   9 42.4248 23.7512   4
   7   8  10-16.3909 27.1298   4
   7   9   1 93.9215 35.6751   4
   7   9   2 228.584 34.7135   4
   7   9   3 193.288 34.2924   4
   7   9   4 175.752 33.3449   4
   7   9   5 10.0977 25.3761   4
   7   9   6-18.3793 27.0240   4
   7   9   7 680.500 39.2242   4
   7   9   8 268.003 31.2382   4
   7   9   9 604.507 37.7506   4
   7   9  10 847.398 43.0991   4
   7  10   3 145.023 38.7070   4
   7  10   4-14.3072 29.9868   4
   7  10   5-19.4108 29.0228   4
   7  10   6 137.089 35.9526   4
   7  10   7 8.72452 31.6960   4
   7  10   8-11.8931 31.1716   4
   7  10   9-39.1483 25.1825   4
  -7 -10 -10-20.5660 25.2732   6
  -7 -11  -9 304.092 39.3273   6
   8  -9  -2-70.3605 32.4907   5
   8  -9  -2 46.4776 27.1880   6
   8  -9  -1 240.485 40.6825   5
   8  -9   0-12.6193 27.0938   5
   8  -8  -3 486.865 36.1264   6
   8  -8  -2 150.376 29.1061   5
   8  -8  -2 182.036 29.9514   6
   8  -8  -1 356.700 30.6049   6
   8  -8  -1 490.057 37.5318   5
   8  -8   0 940.697 42.8509   5
   8  -8   1-11.5742 24.7513   5
   8  -8   2 158.057 28.7325   5
   8  -8   3 300.760 36.0666   5
   8  -7  -4 179.897 29.4292   6
   8  -7  -3 60.0678 25.9763   6
   8  -7  -2 162.099 28.0618   6
   8  -7  -1-15.4207 25.1178   5
   8  -7  -1-13.6458 23.7601   6
   8  -7   0-16.8585 21.5873   6
   8  -7   1 178.650 25.9613   5
   8  -7   1 150.723 22.8766   6
   8  -7   2 169.956 24.4015   5
   8  -7   3 368.400 33.9412   5
   8  -7   4 692.951 40.6725   5
   8  -7   5 863.187 44.3617   5
   8  -6  -4 187.157 30.8596   6
   8  -6  -3 531.020 33.1897   6
   8  -6  -2 34.5413 19.7144   6
   8  -6  -1 490.267 29.6360   6
   8  -6   0 3.85166 20.9279   5
   8  -6   0 30.7433 20.8117   6
   8  -6   1 5.61193 22.8960   5
   8  -6   1-0.32057 20.5109   6
   8  -6   2 858.935 34.6437   6
   8  -6   2 834.326 37.6779   5
   8  -6   3 95.8086 24.3318   5
   8  -6   4 180.491 27.8524   5
   8  -6   5 154.549 32.0540   5
   8  -6   6 522.413 37.5807   5
   8  -5  -5-14.8517 24.1184   6
   8  -5  -4 21.7755 22.7123   6
   8  -5  -3 42.2800 22.5792   6
   8  -5  -2 197.772 25.0456   6
   8  -5  -1 172.802 24.5578   6
   8  -5   0 526.703 28.9733   6
   8  -5   0 511.510 27.5749   5
   8  -5   1 575.568 29.5945   6
   8  -5   1 657.922 31.2886   3
   8  -5   1 544.294 29.9430   5
   8  -5   2 1017.71 35.0499   6
   8  -5   2 1100.95 36.7643   3
   8  -5   2 1052.94 37.4380   5
   8  -5   3 265.344 24.8330   5
   8  -5   4-33.5798 22.5130   5
   8  -5   5 35.6733 25.4312   5
   8  -5   6 78.5899 26.2391   5
   8  -5   7 220.074 37.2393   5
   8  -4  -5 124.382 26.3823   6
   8  -4  -4 439.943 33.6112   6
   8  -4  -3-9.21256 19.3969   6
   8  -4  -2-26.6952 27.5799   6
   8  -4  -1 506.576 29.8366   6
   8  -4  -1 580.397 29.1534   3
   8  -4   0 59.4668 18.1380   6
   8  -4   0 51.0969 19.8659   3
   8  -4   1 13.7336 17.0921   5
   8  -4   1 5.79755 16.6954   6
   8  -4   1-16.2484 17.2885   3
   8  -4   2 1560.06 41.2839   6
   8  -4   2 1467.68 39.6868   3
   8  -4   2 1590.94 41.2489   5
   8  -4   3 221.684 25.2035   3
   8  -4   3 224.036 23.6557   5
   8  -4   4 83.0259 22.2314   5
   8  -4   4 66.5421 22.5349   3
   8  -4   5 628.321 34.2218   5
   8  -4   6 388.272 32.6293   5
   8  -4   7 98.2840 27.5413   5
   8  -4   8 74.9779 29.4421   5
   8  -3  -6 47.0948 26.8892   6
   8  -3  -4 23.4475 22.1493   6
   8  -3  -3 56.5920 21.5361   6
   8  -3  -2 56.8843 19.3149   6
   8  -3  -1 65.3522 20.9453   6
   8  -3   0 2160.39 43.2033   4
   8  -3   0 2158.35 48.9807   6
   8  -3   1 446.433 22.6797   4
   8  -3   1 489.144 28.5413   6
   8  -3   1 502.331 27.5768   3
   8  -3   2 775.356 31.8113   3
   8  -3   2 676.940 28.0745   5
   8  -3   3 3463.69 57.5191   3
   8  -3   3 3574.61 56.4209   5
   8  -3   4 531.532 28.7571   3
   8  -3   4 495.181 27.7807   5
   8  -3   5 183.396 26.3675   3
   8  -3   5 192.527 23.9248   5
   8  -3   6 1298.68 43.6998   5
  -8   3  -7 711.753 28.4808   1
   8  -3   7 727.594 38.3349   5
   8  -3   8 117.497 28.5275   5
  -8   3  -8 277.132 17.5485   1
   8  -3   9 268.082 33.7526   5
  -8   3  -9 365.933 20.7589   1
  -8   3 -10 387.204 22.5626   1
   8  -2  -5-6.52928 27.0016   4
   8  -2  -5 133.672 22.4347   6
   8  -2  -4 345.753 29.5972   4
   8  -2  -4 459.131 28.6370   6
   8  -2  -3 32.7499 21.0620   4
   8  -2  -3-20.7442 20.9714   6
   8  -2  -2 574.132 30.6424   4
   8  -2  -2 505.742 29.1523   6
   8  -2  -1 223.982 23.0398   4
   8  -2  -1 237.631 23.7755   6
   8  -2   0 14.8843 17.4298   4
   8  -2   0 3.45573 18.5620   6
   8  -2   1 95.2985 20.0951   6
   8  -2   1 89.3851 17.2066   4
   8  -2   2 175.528 17.6063   4
   8  -2   2 217.834 22.7756   3
   8  -2   3 571.152 29.6234   3
   8  -2   3 527.606 24.8130   5
   8  -2   4 40.0018 17.4509   5
   8  -2   4 5.43889 18.0470   3
   8  -2   5 146.852 22.3338   5
   8  -2   5 123.363 22.7450   3
  -8   2  -6 535.503 23.2620   1
   8  -2   6 585.092 32.4284   5
  -8   2  -7 413.298 21.3472   1
   8  -2   7 312.211 28.8426   5
  -8   2  -8 258.352 16.9392   1
   8  -2   8 301.314 30.3201   5
   8  -2   9 16.7584 29.3281   5
  -8   2  -9-71.6714 14.7121   1
  -8   2 -10 145.500 15.5166   1
   8  -2  10 127.776 30.2418   5
   8  -1  -4 467.578 30.0849   6
   8  -1  -4 259.401 31.2450   4
   8  -1  -3 355.489 28.3572   4
   8  -1  -3 530.249 31.0293   6
   8  -1  -2-11.5067 20.8191   4
   8  -1  -2-2.54660 19.4306   6
   8  -1  -1 40.4274 20.7575   4
   8  -1  -1 31.2979 20.4553   6
   8  -1   0 692.448 30.0506   4
   8  -1   0 650.578 29.8178   6
   8  -1   1 212.369 20.3561   4
   8  -1   2 102.619 17.1804   4
   8  -1   3 86.2738 15.0250   4
   8  -1   3 103.829 20.5949   3
   8  -1   4 1505.76 40.9663   3
   8  -1   4 1574.99 36.9629   5
   8  -1   5 90.4196 20.0325   5
   8  -1   5 67.2927 20.2032   3
   8  -1   6 847.049 34.4093   3
  -8   1  -6 878.155 27.5290   1
   8  -1   6 899.452 33.9733   5
  -8   1  -7 2030.55 42.1475   1
   8  -1   7 2053.35 50.3778   5
   8  -1   8-4.13974 24.8298   5
  -8   1  -8-29.2781 11.7828   1
  -8   1  -9 514.452 25.0994   1
   8  -1   9 447.322 36.2263   5
  -8   1 -10 343.980 21.3570   1
   8  -1  10 487.442 35.2201   5
  -8   1 -11 195.414 22.6254   1
   8   0  -4 237.458 32.6574   4
   8   0  -3 412.292 29.9174   4
   8   0  -3 564.736 31.1225   6
   8   0  -2 170.323 24.8293   4
   8   0  -2 166.499 21.9358   6
   8   0  -1 890.690 34.2152   4
   8   0  -1 871.873 33.3108   6
   8   0   0 1814.49 42.8149   4
   8   0   1 6498.64 71.1737   4
   8   0   2 3618.55 52.3077   4
   8   0   3 5037.77 58.8694   4
   8   0   4 1789.02 35.5543   4
   8   0   4 1884.41 43.6805   3
   8   0   4 1837.49 37.0643   5
  -8   0  -5 554.821 20.0802   1
   8   0   5 465.178 27.8129   3
   8   0   5 529.102 25.5091   5
   8   0   6 243.146 23.8739   3
   8   0   6 203.092 21.2225   5
  -8   0  -6 247.282 16.5956   1
   8   0   7 178.628 23.5461   3
   8   0   7 257.321 24.4887   5
  -8   0  -7 202.970 15.9797   1
  -8   0  -8 80.2662 12.6490   1
   8   0   8 115.657 23.2875   5
  -8   0  -9 42.2770 11.4130   1
   8   0   9 67.1803 26.1815   5
  -8   0 -10 328.096 18.8131   1
   8   0  10 181.079 33.9692   5
  -8   0 -11 117.039 18.2396   1
   8   0  11-39.7928 32.7930   5
   8   1  -4 482.423 35.6961   4
   8   1  -3 822.577 39.9280   4
   8   1  -2 213.232 25.8782   4
   8   1  -1-41.2430 21.8682   4
   8   1   0 143.949 22.3473   4
   8   1   1-8.13411 17.5601   4
   8   1   2 742.177 28.5205   4
   8   1   3 116.584 17.9224   4
   8   1   4 138.397 18.0097   4
   8   1   4 120.204 21.3038   3
  -8  -1  -5 1021.88 27.5518   1
   8   1   5 1009.80 28.7247   4
   8   1   5 1059.28 36.4493   3
   8   1   5 1034.57 30.3140   5
  -8  -1  -6 45.8108 11.9827   1
   8   1   6 61.3457 20.2263   3
   8   1   6 65.2112 20.0371   5
   8   1   7 1309.28 40.0186   3
   8   1   7 1264.83 37.3555   5
  -8  -1  -7 1252.57 33.4952   1
   8   1   8 457.556 29.8300   3
   8   1   8 415.791 28.8453   5
  -8  -1  -8 476.514 21.9774   1
   8   1   9 334.990 28.8527   5
  -8  -1  -9 283.027 18.5525   1
  -8  -1 -10 103.344 16.4515   1
   8   1  10 12.1890 27.7486   5
   8   1  11 314.144 32.7416   5
  -8  -1 -11 312.562 24.6482   1
   8   2  -4 19.5799 30.7601   4
   8   2  -3 78.2787 28.4255   4
   8   2  -2 449.146 33.1757   4
   8   2  -1-20.1583 20.8011   4
   8   2   0 720.971 32.8504   4
   8   2   1 438.130 26.6828   4
   8   2   2 731.851 29.9075   4
   8   2   3 1623.06 39.0814   4
   8   2   4 626.156 26.7453   4
   8   2   5 1792.41 38.6989   4
  -8  -2  -5 1750.60 35.5592   1
   8   2   5 1695.18 41.9540   3
  -8  -2  -6 2581.01 44.1522   1
   8   2   6 2462.80 43.4224   4
   8   2   6 2526.55 50.1436   3
   8   2   6 2417.29 44.9189   5
  -8  -2  -7 2179.89 43.0043   1
   8   2   7 2113.12 47.5699   3
   8   2   7 2195.05 46.5139   5
  -8  -2  -8 5.91138 12.5713   1
   8   2   8-27.5968 21.1582   3
  -8  -2  -9 31.5078 12.1358   1
   8   2   9 29.7395 22.4304   5
  -8  -2 -10 220.603 20.7185   1
  -8  -2 -11 11.1894 15.2545   1
  -8  -2 -12-48.9791 14.7569   1
   8   3  -3 557.874 39.0027   4
   8   3  -2 43.8217 25.3434   4
   8   3  -1-14.9470 26.1583   4
   8   3   0 218.356 26.2544   4
   8   3   1 157.390 22.7431   4
   8   3   2 1150.65 37.4567   4
   8   3   3 2790.58 50.6484   4
   8   3   4 69.7637 19.3793   4
   8   3   5 538.651 26.8027   4
   8   3   6 313.915 22.4323   4
  -8  -3  -6 350.612 19.6494   1
   8   3   6 297.930 25.0461   3
   8   3   7-12.2615 15.8822   4
  -8  -3  -7 28.2823 12.2671   1
   8   3   7 31.0222 20.1728   3
  -8  -3  -8 111.306 16.1480   1
   8   3   8 20.8175 22.3471   3
  -8  -3  -9 50.9184 15.5520   1
   8   3   9 111.653 23.4804   3
  -8  -3 -10 125.496 20.5598   1
  -8  -3 -11-64.6348 17.7868   1
  -8  -3 -12-28.0583 17.1009   1
   8   4  -3 232.039 34.5539   4
   8   4  -2 97.8279 30.2746   4
   8   4  -1-9.14960 22.0853   4
   8   4   0 50.7785 24.0363   4
   8   4   1 245.965 26.6678   4
   8   4   2 308.501 27.8351   4
   8   4   3 679.351 32.8215   4
   8   4   4 32.1660 19.9958   4
   8   4   5-7.28010 18.2393   4
   8   4   6 2680.44 51.1692   4
   8   4   6 2633.93 50.4380   3
   8   4   7 267.135 24.5416   4
  -8  -4  -7 289.049 19.2116   1
   8   4   7 288.261 26.5209   3
   8   4   8 1483.51 40.6493   4
  -8  -4  -8 1462.35 38.3913   1
   8   4   8 1398.50 38.8974   3
  -8  -4  -9 30.5732 14.5414   1
   8   4   9 12.0739 20.4949   3
  -8  -4 -10 433.979 27.1655   1
  -8  -4 -11-52.3392 15.5426   1
  -8  -4 -12 117.936 20.5353   1
   8   5  -2 186.512 36.2923   4
   8   5  -1 46.3670 30.0954   4
   8   5   0 297.476 30.0441   4
   8   5   1 1514.58 46.9368   4
   8   5   2 2515.14 55.7504   4
   8   5   3 2404.46 52.0729   4
   8   5   4 6457.90 80.4245   4
   8   5   5 716.033 33.6786   4
   8   5   6 169.034 23.4625   4
   8   5   7 5.91699 21.2541   4
   8   5   7 2.72334 19.2440   3
   8   5   8 718.574 33.7758   4
  -8  -5  -8 692.605 29.2098   1
   8   5   8 803.790 32.8265   3
   8   5   9 60.5246 23.1466   4
  -8  -5  -9 17.6977 13.5847   1
  -8  -5 -10 225.486 22.7483   1
  -8  -5 -11 386.906 25.0063   1
  -8  -5 -12 269.207 23.8627   1
   8   6  -1 128.970 31.0882   4
   8   6   1 118.397 29.7573   4
   8   6   3 706.660 37.3324   4
   8   6   4 343.971 30.2819   4
   8   6   5 131.457 22.9026   4
   8   6   6 39.1492 20.4935   4
   8   6   7 118.543 24.3932   4
   8   6   8 173.265 24.9084   4
   8   6   9 52.8843 25.1081   4
  -8  -6  -9 13.6026 10.8412   1
   8   6  10-17.3115 24.5478   4
  -8  -6 -10 64.9764 16.6758   1
  -8  -6 -12 91.5872 20.2164   1
   8   7   1 114.713 26.7572   4
   8   7   2 400.275 33.8162   4
   8   7   3 572.352 36.4821   4
   8   7   4 277.050 31.5149   4
   8   7   5 376.337 31.1693   4
   8   7   6 142.056 28.2302   4
   8   7   7 314.779 31.4049   4
   8   7   8 155.925 26.5554   4
   8   7   9 86.7039 27.2966   4
   8   7  10-33.6856 26.9525   4
   8   7  11 82.5838 29.7073   4
  -8  -7 -11-53.8285 14.3167   1
   8   8   2 427.396 39.6323   4
   8   8   3 515.756 34.5729   4
   8   8   4 1367.53 48.7487   4
   8   8   5 1711.80 54.0649   4
   8   8   6 1108.53 45.9095   4
   8   8   7 52.3067 27.2853   4
   8   8   8 62.8818 23.6398   4
   8   8   9 113.590 27.6338   4
   8   8  11 89.1192 34.6937   4
   8   9   5 90.1748 35.6967   4
   8   9   6 102.626 34.1658   4
   8   9   7-10.8501 29.0897   4
   8   9   8 1.98876 30.8346   4
   8   9   9 43.9770 31.4370   4
   8   9  10 63.5587 34.0348   4
   9  -8  -1 285.636 34.9848   6
   9  -8   0 589.802 36.6298   6
   9  -8   0 683.379 42.4849   5
   9  -8   1 383.174 35.2455   5
   9  -7  -2 204.847 31.0982   6
   9  -7  -1 54.0868 27.4708   6
   9  -7   0 58.3118 27.6591   6
   9  -7   1 383.888 35.1817   6
   9  -7   1 356.003 29.9154   5
   9  -7   2 146.092 33.2691   5
   9  -7   3-57.8898 30.5071   5
   9  -7   4 227.887 34.9688   5
   9  -6  -2 51.2773 26.4653   6
   9  -6  -1-20.5822 21.9872   6
   9  -6   0 551.269 37.2508   6
   9  -6   1 61.5307 25.8417   5
   9  -6   1 145.210 29.2529   6
   9  -6   2 433.398 35.0981   5
   9  -6   3 72.0131 28.0940   5
   9  -6   4-23.3601 24.5443   5
   9  -6   5 45.9367 25.1464   5
   9  -5  -3 126.478 30.4029   6
   9  -5  -2 134.704 27.5036   6
   9  -5  -1 504.268 34.3895   6
   9  -5   0 278.018 28.8778   6
   9  -5   1 2493.15 57.6889   6
   9  -5   1 2316.96 52.4284   3
   9  -5   2 1220.34 40.9921   3
   9  -5   2 1289.40 42.5975   5
   9  -5   3 696.978 35.3074   3
   9  -5   3 841.400 40.0375   5
   9  -5   4 821.945 39.3973   5
   9  -5   5 62.6866 26.0030   5
   9  -5   6 238.640 32.0868   5
   9  -5   7 83.4768 28.8052   5
   9  -4  -3-25.7811 23.3437   6
   9  -4  -2 472.174 34.7819   6
   9  -4  -1 132.444 26.8795   6
   9  -4  -1 35.2007 23.7005   4
   9  -4   0 22.6355 21.6216   6
   9  -4   0 83.7644 24.4361   3
   9  -4   1 100.545 23.2714   6
   9  -4   1 162.499 25.4923   3
   9  -4   2 761.833 35.0398   3
   9  -4   3-43.1197 20.2428   5
   9  -4   3 1.53680 21.1238   3
   9  -4   4 28.8969 23.2441   5
   9  -4   4-2.89223 21.6451   3
   9  -4   5 369.228 30.9271   5
   9  -4   6-3.93287 23.7354   5
   9  -4   7-28.8939 29.1276   5
   9  -4   8 40.8892 34.1736   5
   9  -3  -4 66.0689 30.5028   4
   9  -3  -3 63.4388 24.8279   4
   9  -3  -3 25.3529 22.4855   6
   9  -3  -2 101.137 26.1735   4
   9  -3  -2 94.6826 27.5671   6
   9  -3  -1-8.62419 19.8215   4
   9  -3   0-16.9667 20.1439   4
   9  -3   0 33.2284 20.0167   6
   9  -3   1-10.8040 19.9626   6
   9  -3   1 47.2077 23.1123   3
   9  -3   2 500.292 29.5765   3
   9  -3   3 570.263 30.9421   3
   9  -3   4 56.0376 23.7063   5
   9  -3   4 18.9304 21.2961   3
   9  -3   5-24.4958 21.7614   5
   9  -3   5-4.30088 24.8713   3
   9  -3   6 7.72242 24.0941   5
   9  -3   7 199.630 28.3619   5
   9  -3   8-58.1148 29.7858   5
   9  -3   9 204.606 34.7614   5
  -9   3  -9 277.369 17.7531   1
   9  -2  -4 134.385 26.5628   6
   9  -2  -3-27.9143 22.9334   4
   9  -2  -3-21.2734 23.8618   6
   9  -2  -2 26.8346 22.1714   4
   9  -2  -2 32.5455 20.4218   6
   9  -2  -1 171.674 25.3146   4
   9  -2  -1 196.132 26.1135   6
   9  -2   0 37.4152 21.0792   4
   9  -2   0-17.9824 20.1976   6
   9  -2   1 145.119 21.5872   4
   9  -2   2 1583.86 43.6390   3
   9  -2   3 159.815 24.0539   3
   9  -2   4 1260.64 41.1027   3
   9  -2   4 1229.92 37.7727   5
   9  -2   5 601.698 31.0623   3
   9  -2   5 611.867 30.7906   5
   9  -2   6 92.9068 26.0906   3
   9  -2   6 168.706 25.5100   5
   9  -2   7 246.156 27.0367   5
   9  -2   8 264.832 33.2603   5
   9  -2   9 117.863 32.6852   5
  -9   2  -9-65.8372 16.0958   1
  -9   2 -10-70.2452 19.4371   1
   9  -1  -4 217.855 31.2519   6
   9  -1  -3 318.274 35.0546   4
   9  -1  -3 383.075 29.9058   6
   9  -1  -2 406.653 32.0709   4
   9  -1  -2 426.399 31.3323   6
   9  -1  -1 331.564 28.6196   4
   9  -1  -1 375.536 29.9435   6
   9  -1   0 24.4055 21.7432   4
   9  -1   1 18.0917 19.5485   4
   9  -1   2 79.3557 19.7976   4
   9  -1   3 2535.02 52.9538   3
   9  -1   4 61.8072 23.5270   3
   9  -1   5 1652.63 45.2952   3
   9  -1   5 1808.86 44.2146   5
   9  -1   6 51.6887 20.5506   5
   9  -1   6 95.0440 25.4879   3
   9  -1   7-6.31619 20.8126   5
   9  -1   7 89.7644 26.7016   3
  -9   1  -8 178.510 14.4291   1
   9  -1   8 224.633 28.0050   5
   9  -1   9-38.9719 26.3698   5
  -9   1  -9-58.2983 14.7850   1
   9  -1  10 198.214 33.9724   5
  -9   1 -10 65.2207 16.0638   1
   9   0  -3-11.4158 27.3634   6
   9   0  -3 2.97117 27.1565   4
   9   0  -2 224.336 27.1654   4
   9   0  -1 36.7605 22.4400   4
   9   0   0-13.3772 19.8337   4
   9   0   1 59.9022 19.3157   4
   9   0   2 272.404 23.7805   4
   9   0   3 2724.02 48.9586   4
   9   0   4 1562.49 43.6481   3
   9   0   5 3782.07 64.5721   3
   9   0   6 752.261 37.1079   3
   9   0   6 823.775 34.0331   5
   9   0   7 326.575 29.3782   3
   9   0   7 332.688 29.5704   5
  -9   0  -7 321.367 19.0181   1
  -9   0  -8 24.0155 12.4973   1
   9   0   8-36.6656 22.2052   5
  -9   0  -9 28.3027 12.8664   1
   9   0   9 167.160 33.8268   5
  -9   0 -10 239.078 17.2541   1
   9   0  10 94.8479 33.6417   5
  -9   0 -11 260.226 18.5585   1
   9   1  -2 36.0853 26.5797   4
   9   1  -1 401.189 30.3326   4
   9   1   0 60.5919 22.5287   4
   9   1   1 1339.81 41.2802   4
   9   1   2 510.980 27.9323   4
   9   1   3-4.92624 19.2071   4
   9   1   4 71.2509 18.8698   4
   9   1   4 123.573 24.7806   3
   9   1   5 1276.40 41.1290   3
  -9  -1  -6 1635.74 37.0971   1
   9   1   6 1660.51 45.7712   3
  -9  -1  -7 1.53943 10.0101   1
   9   1   7-5.07020 22.9218   3
   9   1   7-21.9276 21.1783   5
  -9  -1  -8 1071.86 32.6341   1
   9   1   8 1002.95 40.0791   3
   9   1   8 1106.47 40.9761   5
   9   1   9 474.823 33.1052   5
  -9  -1  -9 480.853 23.7466   1
  -9  -1 -10 84.1124 15.9233   1
   9   1  10 35.4244 28.5510   5
  -9  -1 -11-59.5647 16.4450   1
   9   1  11 194.890 39.2099   5
   9   2  -2 17.4029 26.9417   4
   9   2  -1 158.787 24.3711   4
   9   2   0 475.660 33.1203   4
   9   2   1 145.190 23.4818   4
   9   2   2 233.814 25.2454   4
   9   2   3 36.9428 21.2507   4
   9   2   4-9.64736 19.1521   4
   9   2   5 159.430 21.2127   4
   9   2   5 174.818 24.6181   3
  -9  -2  -6 818.455 26.7235   1
   9   2   6 779.995 34.9096   3
  -9  -2  -7-30.1122 11.0346   1
   9   2   7-7.12005 23.3401   3
  -9  -2  -8 52.1587 12.2990   1
   9   2   8 59.7004 25.7919   3
  -9  -2  -9 56.2160 14.3698   1
   9   2   9 109.708 25.9493   3
   9   2   9 71.4053 24.3372   5
  -9  -2 -11-2.22428 16.7604   1
   9   3  -1 63.7412 23.6020   4
   9   3   0 117.658 29.0527   4
   9   3   1 59.5510 22.6652   4
   9   3   2 46.7366 20.9640   4
   9   3   3 35.4948 20.6330   4
   9   3   4 1158.07 38.3358   4
   9   3   5 296.588 23.5146   4
   9   3   6 2425.06 49.4261   4
   9   3   6 2426.68 52.9765   3
  -9  -3  -7 563.721 24.5485   1
   9   3   7 442.961 31.5737   3
  -9  -3  -8 395.025 22.0125   1
   9   3   8 373.719 28.9485   3
  -9  -3  -9 67.0041 15.1234   1
  -9  -3 -10-20.5787 15.0138   1
  -9  -3 -11 56.5681 17.4109   1
   9   4  -1 47.3729 28.3070   4
   9   4   0 93.3327 29.8168   4
   9   4   1 233.240 30.4719   4
   9   4   2 128.796 27.0902   4
   9   4   3-16.8335 19.6568   4
   9   4   4 891.211 35.5229   4
   9   4   5 99.7191 21.2763   4
   9   4   6 3553.39 60.6748   4
   9   4   6 3628.18 62.4613   3
   9   4   7 373.377 27.6974   4
   9   4   7 452.987 28.5217   3
  -9  -4  -8 723.283 27.5052   1
   9   4   8 651.728 32.0494   3
  -9  -4  -9 601.259 27.4623   1
   9   4   9 613.747 35.6540   3
  -9  -4 -10 165.883 18.1326   1
   9   4  10 211.445 28.2415   3
  -9  -4 -11 100.198 17.7436   1
   9   5   0-26.7044 29.3058   4
   9   5   1 163.824 33.1211   4
   9   5   2 256.859 29.1337   4
   9   5   3 236.752 28.5017   4
   9   5   4 58.7295 22.7744   4
   9   5   5 285.499 29.5254   4
   9   5   6 239.703 25.3654   4
   9   5   7 335.679 29.8283   4
   9   5   7 394.375 30.1165   3
   9   5   8 53.1307 25.4404   4
   9   5   8-19.3346 20.7710   3
  -9  -5  -9 261.796 23.4230   1
  -9  -5 -10 13.1393 14.7133   1
  -9  -5 -11 65.5280 19.1421   1
   9   6   1 152.648 32.8479   4
   9   6   2 53.4639 24.1765   4
   9   6   3 52.3197 25.9481   4
   9   6   4-42.8383 25.0269   4
   9   6   5 700.796 36.0364   4
   9   6   6 54.3682 25.9474   4
   9   6   7 1021.67 40.5696   4
   9   6   7 913.994 36.4777   3
   9   6   8 392.666 32.7047   4
   9   6   9 1120.41 44.0009   4
  -9  -6 -10 436.926 27.2792   1
  -9  -6 -11 937.908 37.0294   1
   9   7   2 562.175 42.1275   4
   9   7   3 446.096 38.0087   4
   9   7   4 52.2203 31.3470   4
   9   7   5 71.9897 25.9677   4
   9   7   6-45.4663 24.1694   4
   9   7   7 138.029 28.7646   4
   9   7  10 10.0091 27.2578   4
   9   8   4 200.395 36.9561   4
   9   8   5 198.054 32.3297   4
   9   8   6 608.305 42.7368   4
   9   8   7 434.921 39.8796   4
   9   8   8 72.5378 30.5343   4
   9   8   9 47.8060 28.2253   4
   9   8  10 61.5932 35.4462   4
   9   8  11 121.912 33.4101   4
  10  -6   0 217.948 30.0320   6
  10  -6   1-45.6529 25.7881   6
  10  -6   3 161.313 28.8675   5
  10  -6   4 311.885 38.3772   5
  10  -5  -1-24.9394 23.5388   6
  10  -5   0 185.105 30.4935   6
  10  -5   1 22.7571 23.8114   6
  10  -5   3 25.9772 27.7714   3
  10  -5   4 102.129 28.9278   5
  10  -5   5 184.442 34.7794   5
  10  -5   6-34.5009 33.8700   5
  10  -4  -2-1.36387 28.0833   4
  10  -4  -1 397.857 32.6139   4
  10  -4  -1 510.691 38.6216   6
  10  -4   0 63.8523 27.9293   6
  10  -4   0 40.0274 27.3358   3
  10  -4   1 346.936 32.7328   3
  10  -4   2 158.613 28.9089   3
  10  -4   3-28.4926 25.5823   3
  10  -4   4 41.7909 23.6364   5
  10  -4   4 26.7639 25.9304   3
  10  -4   5 264.973 30.9498   5
  10  -4   6 222.232 38.4485   5
  10  -4   7 132.246 32.0466   5
  10  -3  -2 262.645 32.0681   4
  10  -3  -2 230.775 34.6853   6
  10  -3  -1 134.407 27.4821   4
  10  -3  -1 139.041 27.1336   6
  10  -3   0 413.944 30.5011   4
  10  -3   0 423.170 32.9300   6
  10  -3   0 618.163 38.2277   3
  10  -3   1 71.1289 24.6703   3
  10  -3   2 55.5138 23.0211   3
  10  -3   3 313.155 30.5062   3
  10  -3   4 81.1379 25.8490   3
  10  -3   5 171.027 27.6177   3
  10  -3   5 271.489 30.1085   5
  10  -3   6-22.9969 30.9570   5
  10  -3   7 33.4421 30.1729   5
  10  -3   8 20.7986 33.8654   5
  10  -2  -2 348.035 35.6312   4
  10  -2  -2 370.038 35.3164   6
  10  -2  -1 41.8216 24.6916   6
  10  -2  -1 15.4935 24.8074   4
  10  -2   0 109.455 24.0134   4
  10  -2   1 64.0392 21.8326   4
  10  -2   2 256.573 30.4582   3
  10  -2   3 84.4927 25.8512   3
  10  -2   4 70.1855 24.0337   3
  10  -2   5 62.7865 27.8825   3
  10  -2   6-9.70500 26.5053   5
  10  -2   6-27.3987 24.1783   3
  10  -2   7-47.6573 27.1284   5
  10  -2   8 244.196 32.4643   5
  10  -2   9 148.963 38.8291   5
  10  -1  -2 513.859 38.5001   4
  10  -1  -1 670.709 37.2910   4
  10  -1   0 365.843 30.5599   4
  10  -1   1 561.005 32.7915   4
  10  -1   2 9.42365 19.4460   4
  10  -1   3 698.698 36.5119   3
  10  -1   4 324.273 29.6845   3
  10  -1   5 719.476 37.1887   3
  10  -1   6 606.815 37.8394   3
  10  -1   7 209.125 27.0957   5
  10  -1   7 306.342 31.5764   3
  10  -1   8 928.055 44.4188   5
  10  -1   9 134.534 35.4567   5
 -10   1 -10 394.501 21.5385   1
  10   0  -1-12.2423 23.9190   4
  10   0   0 168.288 28.1479   4
  10   0   1 1539.91 45.6389   4
  10   0   2 111.987 23.3186   4
  10   0   3 999.021 35.9552   4
  10   0   4 630.166 35.9594   3
  10   0   5 295.641 28.5331   3
  10   0   6 735.031 35.1629   3
  10   0   7 170.446 26.3635   3
  10   0   8 71.3606 25.7182   3
  10   0   8 85.3959 28.3026   5
 -10   0  -9 21.1950 13.9285   1
  10   0   9 35.5497 28.6657   5
 -10   0 -10 94.2705 15.7166   1
  10   0  10 59.1349 35.6540   5
  10   1  -1-63.2400 31.2858   4
  10   1   0 75.9082 25.5077   4
  10   1   1 42.3223 27.7654   4
  10   1   2 588.979 34.0873   4
  10   1   3 107.446 23.1252   4
  10   1   4 97.0521 22.2673   4
  10   1   4 132.975 25.0319   3
  10   1   5 135.599 27.3594   3
  10   1   7 44.1402 25.1110   3
  10   1   8 207.085 28.2332   3
  10   1   8 169.737 26.5338   5
 -10  -1  -9 254.998 17.5173   1
  10   1   9 87.8709 30.7531   5
  10   1  10 40.9193 32.9779   5
  10   2   0 389.199 36.3254   4
  10   2   1 824.724 39.1184   4
  10   2   2 1429.29 46.1813   4
  10   2   3 160.073 23.9709   4
  10   2   4 429.965 30.0155   4
  10   2   5 54.6676 21.7164   4
  10   2   5 47.3762 24.7156   3
  10   2   6 9.03321 24.6038   3
  10   2   7 76.9252 25.9434   3
 -10  -2  -8-8.93284 13.7434   1
  10   2   8-21.0598 23.7375   3
 -10  -2  -9 163.663 15.2182   1
  10   2   9 21.6811 27.1802   3
 -10  -2 -10 79.5109 15.0327   1
 -10  -2 -11 105.920 21.3415   1
  10   3   0 40.1614 30.3904   4
  10   3   1 58.4694 26.9949   4
  10   3   2 347.254 32.7611   4
  10   3   3 90.0865 25.2374   4
  10   3   4 415.613 29.7692   4
  10   3   5 37.4088 20.7124   4
  10   3   6 183.066 26.8260   4
  10   3   6 233.701 28.0926   3
 -10  -3  -7 181.016 16.6676   1
  10   3   7 160.730 27.6039   3
 -10  -3  -8 67.4220 12.0228   1
 -10  -3  -9 154.252 15.2140   1
  10   3   9 184.754 30.9310   3
 -10  -3 -10-2.63901 17.0469   1
  10   3  10 52.1095 29.4728   3
 -10  -3 -11 121.818 16.3579   1
  10   4   2 237.871 29.4738   4
  10   4   3 86.4485 24.3141   4
  10   4   4 123.213 29.7453   4
  10   4   5 54.9192 23.2973   4
  10   4   6 584.727 33.5388   4
  10   4   6 579.770 36.2725   3
  10   4   7 139.533 25.3942   4
  10   4   7 37.2233 21.3896   3
 -10  -4  -8 443.201 23.7244   1
  10   4   8 425.900 36.3811   3
 -10  -4  -9 800.438 29.7438   1
  10   4   9 613.273 39.8664   3
 -10  -4 -10 168.810 19.2760   1
  10   4  10 95.8889 27.7820   3
 -10  -4 -11 553.549 30.0261   1
  10   5   2 140.206 32.9607   4
  10   5   3 1202.70 47.2680   4
  10   5   4 880.376 42.4277   4
  10   5   5 1649.70 51.8317   4
  10   5   6 206.276 28.0394   4
  10   5   7 350.205 31.5750   4
  10   5   7 555.718 35.5960   3
  10   5   8-23.7615 24.3742   4
  10   5   8-20.9969 28.3667   3
  10   5   9-32.1072 26.6359   3
 -10  -5 -10 55.1857 16.8376   1
  10   6   3 426.468 39.2769   4
  10   6   5 954.585 43.3845   4
  10   6   6 82.9321 29.6516   4
  10   6   7-22.7785 25.0897   4
  10   6   8 1.23293 26.9411   4
  10   6   9 93.8319 29.9734   4
  10   7   5 453.649 37.8632   4
  10   7   6 270.169 38.6664   4
  10   7   7 125.579 33.6194   4
  10   7   8 124.604 35.2508   4
  10   7   9 465.389 41.2672   4
  10   7  10 230.187 33.6604   4
  11  -5   3 752.325 45.7272   3
  11  -5   4 360.196 35.7306   3
  11  -4   1 67.9914 29.4938   3
  11  -4   2 467.983 39.1251   3
  11  -4   3 62.1644 29.2309   3
  11  -4   4 239.811 35.4457   3
  11  -4   5 240.218 36.1103   3
  11  -3   0-47.3574 28.0457   3
  11  -3   1 174.605 28.9977   3
  11  -3   2 270.260 34.8896   3
  11  -3   3 762.191 41.0497   3
  11  -3   4 50.5901 30.9294   3
  11  -3   5 159.352 32.1644   3
  11  -3   6 147.596 32.1715   3
  11  -2   1 627.235 38.6736   3
  11  -2   2 564.326 39.6325   3
  11  -2   3 505.128 36.1536   3
  11  -2   4 898.069 43.2622   3
  11  -2   5 54.2875 30.3620   3
  11  -2   6 224.105 35.4504   3
  11  -2   7 102.044 30.7987   3
  11  -2   8-42.1881 35.1191   5
  11  -1   0 112.935 32.3392   4
  11  -1   2 85.6836 29.9866   3
  11  -1   3 228.731 29.9124   3
  11  -1   4 119.642 27.4910   3
  11  -1   5 211.159 30.2620   3
  11  -1   6 58.2926 30.0488   3
  11  -1   7 4.33579 28.3977   3
  11  -1   9 38.6900 37.9733   5
  11   0   0-30.0872 33.0714   4
  11   0   1 181.385 35.9663   4
  11   0   2 46.5841 25.8953   4
  11   0   3 214.431 29.5284   3
  11   0   4 717.956 40.4286   3
  11   0   5 622.387 37.2573   3
  11   0   6 550.484 36.3937   3
  11   0   7 909.501 43.2881   3
  11   0   8 57.1552 26.9774   3
  11   0   9 439.704 41.0916   5
  11   1   1 281.840 34.8760   4
  11   1   2 75.6667 26.5067   4
  11   1   3 118.935 28.1697   4
  11   1   4 50.0891 27.0242   3
  11   1   5-46.4420 27.3343   3
  11   1   6 4.05507 25.2871   3
  11   1   7 95.5562 29.1930   3
  11   1   8 46.1674 31.8569   3
  11   1   9 403.651 36.0324   3
  11   1  10 382.646 43.1639   5
  11   2   1-44.6520 30.2825   4
  11   2   2 50.3385 27.1307   4
  11   2   4-22.2747 23.3975   4
  11   2   5 2.30524 25.9604   3
  11   2   6-13.0708 29.8871   3
  11   2   7 33.8195 25.5764   3
  11   2   8 144.059 30.4690   3
  11   2   9 6.92780 32.9667   3
 -11  -2 -10 101.892 19.0137   1
  11   3   2 42.3545 25.2172   4
  11   3   3 54.4368 27.6720   4
  11   3   4 113.712 32.1036   4
  11   3   5-17.2435 26.4960   4
  11   3   6 154.236 28.3635   3
  11   3   7 564.550 39.2873   3
  11   3   8 130.878 33.7940   3
 -11  -3  -9 168.476 17.1242   1
  11   3   9-67.9821 32.0862   3
 -11  -3 -10 413.353 22.7704   1
  11   3  10 522.812 42.8366   3
  11   4   3-40.6257 29.4814   4
  11   4   4 78.0906 28.0198   4
  11   4   5 53.4995 27.7248   4
  11   4   6 120.534 32.4877   4
  11   4   6-44.2647 28.0283   3
  11   4   7 145.471 32.3233   3
  11   4   8 196.102 36.1633   3
 -11  -4  -9 845.741 31.8151   1
  11   4   9 674.921 43.7994   3
 -11  -4 -10 479.171 25.9569   1
  11   4  10 295.666 37.3900   3
  11   5   4 113.467 33.2871   4
  11   5   5-11.1153 28.5263   4
  11   5   7 154.322 31.9829   4
  11   5   7 237.025 32.8649   3
  11   5   8 341.049 35.0453   3
  11   5   9 12.3513 27.9291   3
  11   6   7 51.8538 30.7929   4
  11   6   7 145.800 31.5135   3
  11   6   8 230.245 38.1486   4
  12   0   2 114.598 30.4507   4
  12   1   3-42.2753 29.6291   4
  12   2   4 71.5731 28.2234   4
  12   3   5-40.9112 28.7915   4
  12   4   6 83.9723 32.8117   4
;
_shelx_hkl_checksum              14047
_shelx_res_file
;
TITL GSH11 P-1                   NEW: P-1
CELL  0.71073  9.49100  9.97600 10.44600 67.22000 66.80000 86.32000
ZERR 2  0.00100  0.00100  0.00100  0.01000  0.01000  0.01000
LATT 1
SFAC C H CL N O S
UNIT 30 26 4 6 6 2
PLAN 30
FMAP 2
SHEL 11 0.8
SIZE 0.36 0.14 0.08
L.S. 4
MPLA 5 S1 N1 C7 C8 O3
MPLA 6 C1 C2 C3 C4 C5 C6
MPLA 6 C10 C11 C12 C13 C14 C15
MPLA 5 C9 N3 N2 C8 O3
BOND $H
DFIX 0.86 0.02 N1 H1N N2 H2N
HTAB N1 O1_$1
HTAB N2 O3_$2
EQIV $1 -x+1, -y, -z+2
EQIV $2 -x+1, -y, -z+1
CONF
ACTA
WGHT    0.014800    1.111400
FVAR       2.47710
C1    1    0.251973   -0.193021    1.029492    11.00000    0.03334    0.03001 =
         0.03846   -0.01761   -0.01892    0.00727
C2    1    0.117793   -0.282784    1.089959    11.00000    0.02797    0.04149 =
         0.05717   -0.02684   -0.01445    0.00716
AFIX  43
H2    2    0.024124   -0.254897    1.141525    11.00000   -1.20000
AFIX   0
C3    1    0.122574   -0.414497    1.073866    11.00000    0.03475    0.03862 =
         0.06937   -0.02605   -0.02093    0.00064
AFIX  43
H3    2    0.032870   -0.476876    1.116573    11.00000   -1.20000
AFIX   0
C4    1    0.261626   -0.451913    0.993942    11.00000    0.04612    0.02986 =
         0.05302   -0.02044   -0.02794    0.00963
C5    1    0.396633   -0.362602    0.932698    11.00000    0.03474    0.03770 =
         0.04957   -0.02240   -0.01725    0.01241
AFIX  43
H5    2    0.489755   -0.389641    0.878939    11.00000   -1.20000
AFIX   0
C6    1    0.392383   -0.232631    0.951875    11.00000    0.02912    0.03430 =
         0.04686   -0.01925   -0.01588    0.00612
AFIX  43
H6    2    0.482803   -0.172449    0.913090    11.00000   -1.20000
AFIX   0
C7    1    0.280827    0.142681    0.771519    11.00000    0.03540    0.03743 =
         0.03748   -0.01852   -0.01556    0.01160
AFIX  23
H7A   2    0.281442    0.248044    0.727293    11.00000   -1.20000
H7B   2    0.175115    0.099507    0.816161    11.00000   -1.20000
AFIX   0
C8    1    0.377096    0.090343    0.649035    11.00000    0.03409    0.03714 =
         0.03395   -0.01532   -0.01294    0.00856
C9    1    0.150962    0.167512    0.441173    11.00000    0.04354    0.04965 =
         0.03261   -0.01948   -0.01454    0.01125
AFIX  43
H9    2    0.210810    0.126181    0.374004    11.00000   -1.20000
AFIX   0
C10   1    0.008377    0.224995    0.431139    11.00000    0.04219    0.04140 =
         0.03295   -0.01135   -0.01505    0.00523
C11   1   -0.076905    0.304083    0.515155    11.00000    0.04702    0.05399 =
         0.04513   -0.01994   -0.02456    0.01260
AFIX  43
H11   2   -0.042587    0.324519    0.578312    11.00000   -1.20000
AFIX   0
C12   1   -0.212051    0.351463    0.503664    11.00000    0.04762    0.05203 =
         0.05211   -0.01307   -0.01808    0.01091
C13   1   -0.265408    0.324668    0.409567    11.00000    0.04400    0.05955 =
         0.06698   -0.00608   -0.03143    0.00482
AFIX  43
H13   2   -0.356551    0.358876    0.402197    11.00000   -1.20000
AFIX   0
C14   1   -0.181472    0.246724    0.327297    11.00000    0.06478    0.06005 =
         0.06167   -0.01062   -0.04248   -0.00402
AFIX  43
H14   2   -0.216451    0.227403    0.263973    11.00000   -1.20000
AFIX   0
C15   1   -0.045870    0.196568    0.337144    11.00000    0.06219    0.04680 =
         0.04395   -0.01560   -0.02693    0.00281
AFIX  43
H15   2    0.009677    0.143526    0.280827    11.00000   -1.20000
AFIX   0
CL1   3    0.269346   -0.614538    0.968081    11.00000    0.06412    0.04050 =
         0.08967   -0.04009   -0.03671    0.01316
CL2   3   -0.322031    0.445569    0.612903    11.00000    0.08469    0.11370 =
         0.10718   -0.06181   -0.04043    0.05898
N1    4    0.340159    0.103106    0.889119    11.00000    0.02743    0.03542 =
         0.03678   -0.02046   -0.01086    0.00329
H1N   2    0.436207    0.101091    0.860272    11.00000   -1.20000
N2    4    0.330865    0.112400    0.537053    11.00000    0.04160    0.05974 =
         0.04077   -0.03035   -0.01979    0.02243
H2N   2    0.378397    0.072391    0.473853    11.00000   -1.20000
N3    4    0.195247    0.172668    0.539759    11.00000    0.03779    0.04568 =
         0.03685   -0.01832   -0.01646    0.01337
O1    5    0.333985   -0.035031    1.141310    11.00000    0.03996    0.05346 =
         0.04058   -0.02491   -0.02002    0.00197
O2    5    0.089752    0.003352    1.105519    11.00000    0.03092    0.04739 =
         0.05121   -0.03203   -0.01154    0.00706
O3    5    0.493600    0.031128    0.651450    11.00000    0.04038    0.07266 =
         0.04183   -0.03362   -0.02077    0.02481
S1    6    0.247390   -0.025894    1.053200    11.00000    0.02789    0.03524 =
         0.03633   -0.02191   -0.01270    0.00502
HKLF 4
REM  GSH11 P-1                   NEW: P-1
REM R1 =  0.0535 for    2688 Fo > 4sig(Fo)  and  0.0731 for all    3354 data
REM    223 parameters refined using      2 restraints
END
WGHT      0.0139      1.1119
REM Highest difference peak  0.274,  deepest hole -0.391,  1-sigma level  0.059
Q1    1   0.3867 -0.0894  1.1516  11.00000  0.05    0.27
Q2    1  -0.2670  0.4942  0.5185  11.00000  0.05    0.27
Q3    1   0.2380 -0.1183  1.0381  11.00000  0.05    0.26
Q4    1   0.2417 -0.1438  1.0752  11.00000  0.05    0.24
Q5    1   0.1701  0.0445  1.0846  11.00000  0.05    0.23
Q6    1  -0.3472  0.3641  0.6184  11.00000  0.05    0.23
Q7    1   0.1967 -0.4000  0.9856  11.00000  0.05    0.22
Q8    1   0.1355  0.1854  0.6200  11.00000  0.05    0.22
Q9    1   0.2802  0.0874  0.9770  11.00000  0.05    0.21
Q10   1   0.3859 -0.2036  1.2160  11.00000  0.05    0.21
Q11   1   0.5638  0.0075  0.6989  11.00000  0.05    0.21
Q12   1   0.0583 -0.0713  1.0945  11.00000  0.05    0.20
Q13   1   0.3278 -0.2173  1.0408  11.00000  0.05    0.20
Q14   1   0.4651 -0.0557  0.6254  11.00000  0.05    0.20
Q15   1   0.0003  0.2838  0.4638  11.00000  0.05    0.20
Q16   1   0.0434  0.1515  0.4734  11.00000  0.05    0.20
Q17   1   0.3135  0.3318  0.5218  11.00000  0.05    0.20
Q18   1   0.5601 -0.0017  0.5762  11.00000  0.05    0.20
Q19   1   0.4632 -0.0658  0.7158  11.00000  0.05    0.20
Q20   1   0.3926  0.0309  1.1221  11.00000  0.05    0.20
Q21   1   0.3274 -0.0658  1.0965  11.00000  0.05    0.20
Q22   1  -0.3084  0.3425  0.6596  11.00000  0.05    0.19
Q23   1   0.5000 -0.5000  1.0000  10.50000  0.05    0.19
Q24   1   0.4952  0.2506  0.7909  11.00000  0.05    0.19
Q25   1   0.3218 -0.0387  0.6204  11.00000  0.05    0.19
Q26   1   0.4887 -0.2055  1.0006  11.00000  0.05    0.19
Q27   1  -0.0490  0.2227  0.5083  11.00000  0.05    0.19
Q28   1  -0.3302  0.4728  0.6478  11.00000  0.05    0.19
Q29   1  -0.5856  0.3182  0.4920  11.00000  0.05    0.18
Q30   1  -0.3912  0.1263  0.4244  11.00000  0.05    0.18
;
_shelx_res_checksum              78389
_shelxl_version_number           2014/6
loop_
_space_group_symop_operation_xyz
'x, y, z'
'-x, -y, -z'
loop_
_atom_site_type_symbol
_atom_site_label
_atom_site_fract_x
_atom_site_fract_y
_atom_site_fract_z
_atom_site_U_iso_or_equiv
_atom_site_adp_type
_atom_site_calc_flag
_atom_site_occupancy
_atom_site_disorder_assembly
_atom_site_disorder_group
C C1 0.2520(3) -0.1930(3) 1.0295(3) 0.0312(6) Uani d 1 . .
C C2 0.1178(3) -0.2828(3) 1.0900(4) 0.0408(7) Uani d 1 . .
H H2 0.0241 -0.2549 1.1415 0.049 Uiso calc 1 . .
C C3 0.1226(4) -0.4145(4) 1.0739(4) 0.0458(8) Uani d 1 . .
H H3 0.0329 -0.4769 1.1166 0.055 Uiso calc 1 . .
C C4 0.2616(4) -0.4519(3) 0.9939(4) 0.0392(7) Uani d 1 . .
C C5 0.3966(4) -0.3626(3) 0.9327(4) 0.0393(7) Uani d 1 . .
H H5 0.4898 -0.3896 0.8789 0.047 Uiso calc 1 . .
C C6 0.3924(3) -0.2326(3) 0.9519(3) 0.0356(7) Uani d 1 . .
H H6 0.4828 -0.1724 0.9131 0.043 Uiso calc 1 . .
C C7 0.2808(3) 0.1427(3) 0.7715(3) 0.0356(7) Uani d 1 . .
H H7A 0.2814 0.2480 0.7273 0.043 Uiso calc 1 . .
H H7B 0.1751 0.0995 0.8162 0.043 Uiso calc 1 . .
C C8 0.3771(3) 0.0903(3) 0.6490(3) 0.0351(7) Uani d 1 . .
C C9 0.1510(4) 0.1675(4) 0.4412(3) 0.0414(7) Uani d 1 . .
H H9 0.2108 0.1262 0.3740 0.050 Uiso calc 1 . .
C C10 0.0084(4) 0.2250(3) 0.4311(3) 0.0400(7) Uani d 1 . .
C C11 -0.0769(4) 0.3041(4) 0.5152(4) 0.0469(8) Uani d 1 . .
H H11 -0.0426 0.3245 0.5783 0.056 Uiso calc 1 . .
C C12 -0.2121(4) 0.3515(4) 0.5037(4) 0.0540(9) Uani d 1 . .
C C13 -0.2654(4) 0.3247(4) 0.4096(5) 0.0600(10) Uani d 1 . .
H H13 -0.3566 0.3589 0.4022 0.072 Uiso calc 1 . .
C C14 -0.1815(5) 0.2467(4) 0.3273(5) 0.0603(10) Uani d 1 . .
H H14 -0.2165 0.2274 0.2640 0.072 Uiso calc 1 . .
C C15 -0.0459(4) 0.1966(4) 0.3371(4) 0.0497(8) Uani d 1 . .
H H15 0.0097 0.1435 0.2808 0.060 Uiso calc 1 . .
Cl Cl1 0.26935(11) -0.61454(10) 0.96808(12) 0.0584(3) Uani d 1 . .
Cl Cl2 -0.32203(15) 0.44557(16) 0.61290(17) 0.0976(5) Uani d 1 . .
N N1 0.3402(3) 0.1031(3) 0.8891(3) 0.0318(5) Uani d 1 . .
H H1N 0.436(2) 0.101(3) 0.860(3) 0.038 Uiso d 1 . .
N N2 0.3309(3) 0.1124(3) 0.5371(3) 0.0436(7) Uani d 1 . .
H H2N 0.378(4) 0.072(4) 0.474(3) 0.052 Uiso d 1 . .
N N3 0.1952(3) 0.1727(3) 0.5398(3) 0.0394(6) Uani d 1 . .
O O1 0.3340(2) -0.0350(2) 1.1413(2) 0.0411(5) Uani d 1 . .
O O2 0.0898(2) 0.0034(2) 1.1055(2) 0.0408(5) Uani d 1 . .
O O3 0.4936(2) 0.0311(3) 0.6515(2) 0.0475(6) Uani d 1 . .
S S1 0.24739(8) -0.02589(8) 1.05320(8) 0.03071(18) Uani d 1 . .
loop_
_atom_site_aniso_label
_atom_site_aniso_U_11
_atom_site_aniso_U_22
_atom_site_aniso_U_33
_atom_site_aniso_U_12
_atom_site_aniso_U_13
_atom_site_aniso_U_23
C1 0.0333(15) 0.0300(15) 0.0385(16) 0.0073(12) -0.0189(13) -0.0176(13)
C2 0.0280(16) 0.0415(18) 0.057(2) 0.0072(13) -0.0145(15) -0.0268(16)
C3 0.0347(17) 0.0386(18) 0.069(2) 0.0006(14) -0.0209(17) -0.0261(17)
C4 0.0461(19) 0.0299(16) 0.0530(19) 0.0096(14) -0.0279(16) -0.0204(15)
C5 0.0347(17) 0.0377(17) 0.0496(19) 0.0124(13) -0.0173(15) -0.0224(15)
C6 0.0291(15) 0.0343(16) 0.0469(18) 0.0061(12) -0.0159(14) -0.0192(14)
C7 0.0354(16) 0.0374(17) 0.0375(16) 0.0116(13) -0.0156(14) -0.0185(14)
C8 0.0341(16) 0.0371(17) 0.0339(16) 0.0086(13) -0.0129(13) -0.0153(14)
C9 0.0435(18) 0.050(2) 0.0326(16) 0.0112(15) -0.0145(14) -0.0195(15)
C10 0.0422(18) 0.0414(18) 0.0329(16) 0.0052(14) -0.0150(14) -0.0113(14)
C11 0.047(2) 0.054(2) 0.0451(19) 0.0126(16) -0.0246(16) -0.0199(17)
C12 0.048(2) 0.052(2) 0.052(2) 0.0109(17) -0.0181(18) -0.0131(18)
C13 0.044(2) 0.060(2) 0.067(3) 0.0048(18) -0.031(2) -0.006(2)
C14 0.065(3) 0.060(2) 0.062(2) -0.004(2) -0.042(2) -0.011(2)
C15 0.062(2) 0.047(2) 0.0440(19) 0.0028(17) -0.0269(18) -0.0156(16)
Cl1 0.0641(6) 0.0405(5) 0.0897(7) 0.0132(4) -0.0367(5) -0.0401(5)
Cl2 0.0847(9) 0.1137(11) 0.1072(10) 0.0590(8) -0.0404(8) -0.0618(9)
N1 0.0274(12) 0.0354(13) 0.0368(14) 0.0033(11) -0.0109(11) -0.0205(11)
N2 0.0416(16) 0.0597(18) 0.0408(15) 0.0224(13) -0.0198(13) -0.0303(14)
N3 0.0378(14) 0.0457(16) 0.0368(14) 0.0134(12) -0.0165(12) -0.0183(12)
O1 0.0400(12) 0.0535(14) 0.0406(12) 0.0020(10) -0.0200(10) -0.0249(11)
O2 0.0309(11) 0.0474(13) 0.0512(13) 0.0071(9) -0.0115(10) -0.0320(11)
O3 0.0404(13) 0.0727(16) 0.0418(13) 0.0248(12) -0.0208(11) -0.0336(12)
S1 0.0279(4) 0.0352(4) 0.0363(4) 0.0050(3) -0.0127(3) -0.0219(3)
loop_
_atom_type_symbol
_atom_type_description
_atom_type_scat_dispersion_real
_atom_type_scat_dispersion_imag
_atom_type_scat_source
C C 0.0033 0.0016 'International Tables Vol C Tables 4.2.6.8 and 6.1.1.4'
H H 0.0000 0.0000 'International Tables Vol C Tables 4.2.6.8 and 6.1.1.4'
Cl Cl 0.1484 0.1585 'International Tables Vol C Tables 4.2.6.8 and 6.1.1.4'
N N 0.0061 0.0033 'International Tables Vol C Tables 4.2.6.8 and 6.1.1.4'
O O 0.0106 0.0060 'International Tables Vol C Tables 4.2.6.8 and 6.1.1.4'
S S 0.1246 0.1234 'International Tables Vol C Tables 4.2.6.8 and 6.1.1.4'
loop_
_geom_angle_atom_site_label_1
_geom_angle_atom_site_label_2
_geom_angle_atom_site_label_3
_geom_angle_site_symmetry_1
_geom_angle_site_symmetry_3
_geom_angle
_geom_angle_publ_flag
C2 C1 C6 . . 120.8(3) ?
C2 C1 S1 . . 120.2(2) ?
C6 C1 S1 . . 119.0(2) ?
C1 C2 C3 . . 119.9(3) ?
C1 C2 H2 . . 120.0 ?
C3 C2 H2 . . 120.0 ?
C4 C3 C2 . . 119.1(3) ?
C4 C3 H3 . . 120.4 ?
C2 C3 H3 . . 120.4 ?
C3 C4 C5 . . 121.4(3) ?
C3 C4 Cl1 . . 119.8(2) ?
C5 C4 Cl1 . . 118.8(2) ?
C4 C5 C6 . . 119.5(3) ?
C4 C5 H5 . . 120.3 ?
C6 C5 H5 . . 120.3 ?
C5 C6 C1 . . 119.3(3) ?
C5 C6 H6 . . 120.4 ?
C1 C6 H6 . . 120.4 ?
N1 C7 C8 . . 111.0(2) ?
N1 C7 H7A . . 109.4 ?
C8 C7 H7A . . 109.4 ?
N1 C7 H7B . . 109.4 ?
C8 C7 H7B . . 109.4 ?
H7A C7 H7B . . 108.0 ?
O3 C8 N2 . . 121.4(3) ?
O3 C8 C7 . . 121.1(3) ?
N2 C8 C7 . . 117.5(3) ?
N3 C9 C10 . . 121.6(3) ?
N3 C9 H9 . . 119.2 ?
C10 C9 H9 . . 119.2 ?
C15 C10 C11 . . 119.0(3) ?
C15 C10 C9 . . 118.8(3) ?
C11 C10 C9 . . 122.2(3) ?
C12 C11 C10 . . 119.3(3) ?
C12 C11 H11 . . 120.4 ?
C10 C11 H11 . . 120.4 ?
C11 C12 C13 . . 121.9(4) ?
C11 C12 Cl2 . . 119.4(3) ?
C13 C12 Cl2 . . 118.7(3) ?
C14 C13 C12 . . 118.7(3) ?
C14 C13 H13 . . 120.6 ?
C12 C13 H13 . . 120.6 ?
C13 C14 C15 . . 120.9(4) ?
C13 C14 H14 . . 119.6 ?
C15 C14 H14 . . 119.6 ?
C14 C15 C10 . . 120.3(4) ?
C14 C15 H15 . . 119.9 ?
C10 C15 H15 . . 119.9 ?
C7 N1 S1 . . 119.9(2) ?
C7 N1 H1N . . 116(2) ?
S1 N1 H1N . . 112(2) ?
C8 N2 N3 . . 120.8(2) ?
C8 N2 H2N . . 117(2) ?
N3 N2 H2N . . 121(2) ?
C9 N3 N2 . . 115.1(3) ?
O2 S1 O1 . . 119.53(13) ?
O2 S1 N1 . . 107.80(13) ?
O1 S1 N1 . . 105.65(13) ?
O2 S1 C1 . . 107.23(13) ?
O1 S1 C1 . . 107.84(13) ?
N1 S1 C1 . . 108.40(13) ?
loop_
_geom_bond_atom_site_label_1
_geom_bond_atom_site_label_2
_geom_bond_site_symmetry_2
_geom_bond_distance
_geom_bond_publ_flag
C1 C2 . 1.377(4) ?
C1 C6 . 1.385(4) ?
C1 S1 . 1.773(3) ?
C2 C3 . 1.384(4) ?
C2 H2 . 0.9300 ?
C3 C4 . 1.374(4) ?
C3 H3 . 0.9300 ?
C4 C5 . 1.380(4) ?
C4 Cl1 . 1.737(3) ?
C5 C6 . 1.382(4) ?
C5 H5 . 0.9300 ?
C6 H6 . 0.9300 ?
C7 N1 . 1.457(4) ?
C7 C8 . 1.510(4) ?
C7 H7A . 0.9700 ?
C7 H7B . 0.9700 ?
C8 O3 . 1.224(3) ?
C8 N2 . 1.342(4) ?
C9 N3 . 1.275(4) ?
C9 C10 . 1.462(4) ?
C9 H9 . 0.9300 ?
C10 C15 . 1.394(4) ?
C10 C11 . 1.394(4) ?
C11 C12 . 1.372(5) ?
C11 H11 . 0.9300 ?
C12 C13 . 1.381(5) ?
C12 Cl2 . 1.743(4) ?
C13 C14 . 1.370(6) ?
C13 H13 . 0.9300 ?
C14 C15 . 1.378(5) ?
C14 H14 . 0.9300 ?
C15 H15 . 0.9300 ?
N1 S1 . 1.618(3) ?
N1 H1N . 0.841(17) ?
N2 N3 . 1.380(3) ?
N2 H2N . 0.863(18) ?
O1 S1 . 1.433(2) ?
O2 S1 . 1.430(2) ?
loop_
_geom_hbond_atom_site_label_D
_geom_hbond_atom_site_label_H
_geom_hbond_atom_site_label_A
_geom_hbond_site_symmetry_A
_geom_hbond_distance_DH
_geom_hbond_distance_HA
_geom_hbond_distance_DA
_geom_hbond_angle_DHA
N1 H1N O1 2_657 0.841(17) 2.23(2) 3.041(3) 161(3)
N2 H2N O3 2_656 0.863(18) 1.972(19) 2.828(3) 171(3)
C6 H6 O1 2_657 0.93 2.53 3.422(4) 160.6
C7 H7B O2 2_557 0.97 2.47 3.434(4) 172.3
C15 H15 O2 1_554 0.93 2.58 3.474(4) 162.3
C14 H14 Cg 2_556 0.93 2.84 3.675(5) 150
loop_
_geom_torsion_atom_site_label_1
_geom_torsion_atom_site_label_2
_geom_torsion_atom_site_label_3
_geom_torsion_atom_site_label_4
_geom_torsion_site_symmetry_1
_geom_torsion_site_symmetry_2
_geom_torsion_site_symmetry_3
_geom_torsion_site_symmetry_4
_geom_torsion
_geom_torsion_publ_flag
C6 C1 C2 C3 . . . . 0.2(5) ?
S1 C1 C2 C3 . . . . -178.6(3) ?
C1 C2 C3 C4 . . . . -1.7(5) ?
C2 C3 C4 C5 . . . . 1.5(5) ?
C2 C3 C4 Cl1 . . . . -178.3(3) ?
C3 C4 C5 C6 . . . . 0.0(5) ?
Cl1 C4 C5 C6 . . . . 179.8(2) ?
C4 C5 C6 C1 . . . . -1.4(5) ?
C2 C1 C6 C5 . . . . 1.3(5) ?
S1 C1 C6 C5 . . . . -179.8(2) ?
N1 C7 C8 O3 . . . . -4.1(4) ?
N1 C7 C8 N2 . . . . 176.5(3) ?
N3 C9 C10 C15 . . . . -170.4(3) ?
N3 C9 C10 C11 . . . . 8.0(5) ?
C15 C10 C11 C12 . . . . 0.2(5) ?
C9 C10 C11 C12 . . . . -178.2(3) ?
C10 C11 C12 C13 . . . . -0.8(6) ?
C10 C11 C12 Cl2 . . . . 178.1(3) ?
C11 C12 C13 C14 . . . . 0.9(6) ?
Cl2 C12 C13 C14 . . . . -178.0(3) ?
C12 C13 C14 C15 . . . . -0.4(6) ?
C13 C14 C15 C10 . . . . -0.2(6) ?
C11 C10 C15 C14 . . . . 0.3(5) ?
C9 C10 C15 C14 . . . . 178.7(3) ?
C8 C7 N1 S1 . . . . -107.2(3) ?
O3 C8 N2 N3 . . . . 176.8(3) ?
C7 C8 N2 N3 . . . . -3.8(5) ?
C10 C9 N3 N2 . . . . 179.1(3) ?
C8 N2 N3 C9 . . . . -169.5(3) ?
C7 N1 S1 O2 . . . . -50.2(2) ?
C7 N1 S1 O1 . . . . -179.0(2) ?
C7 N1 S1 C1 . . . . 65.6(2) ?
C2 C1 S1 O2 . . . . -13.7(3) ?
C6 C1 S1 O2 . . . . 167.4(2) ?
C2 C1 S1 O1 . . . . 116.3(3) ?
C6 C1 S1 O1 . . . . -62.6(3) ?
C2 C1 S1 N1 . . . . -129.8(3) ?
C6 C1 S1 N1 . . . . 51.3(3) ?

_cod_database_fobs_code 2243864
