#------------------------------------------------------------------------------
#$Date: 2019-12-18 08:31:17 +0200 (Wed, 18 Dec 2019) $
#$Revision: 245311 $
#$URL: file:///home/coder/svn-repositories/cod/cif/2/24/32/2243222.cif $
#------------------------------------------------------------------------------
#
# This file is available in the Crystallography Open Database (COD),
# http://www.crystallography.net/. The original data for this entry
# were provided by IUCr Journals, http://journals.iucr.org/.
#
# The file may be used within the scientific community so long as
# proper attribution is given to the journal article from which the
# data were obtained.
#
data_2243222
loop_
_publ_author_name
'Manawar, Rohit B.'
'Mamtora, Mayank J.'
'Shah, Manish K.'
'Jotani, Mukesh M.'
'Tiekink, Edward R. T.'
_publ_section_title
;
 Crystal structure, Hirshfeld surface analysis and computational study of
 bis(2-{[(2,6-dichlorobenzylidene)hydrazinylidene]methyl}phenolato)cobalt(II)
 and of the copper(II) analogue
;
_journal_coeditor_code           HB7872
_journal_issue                   1
_journal_name_full               'Acta Crystallographica Section E'
_journal_page_first              53
_journal_page_last               61
_journal_paper_doi               10.1107/S2056989019016529
_journal_volume                  76
_journal_year                    2020
_chemical_formula_iupac          '[Cu (C14 H9 Cl2 N2 O1)2]'
_chemical_formula_moiety         'C28 H18 Cl4 Cu N4 O2'
_chemical_formula_sum            'C28 H18 Cl4 Cu N4 O2'
_chemical_formula_weight         647.80
_chemical_name_systematic
;
Bis(2-{[(2,6-dichlorobenzylidene)hydrazinylidene]methyl}phenolato)copper(II)
;
_space_group_crystal_system      triclinic
_space_group_IT_number           2
_space_group_name_Hall           '-P 1'
_space_group_name_H-M_alt        'P -1'
_atom_sites_solution_hydrogens   geom
_atom_sites_solution_primary     direct
_atom_sites_solution_secondary   difmap
_audit_creation_method           SHELXL-2017/1
_cell_angle_alpha                83.240(4)
_cell_angle_beta                 87.646(3)
_cell_angle_gamma                81.533(4)
_cell_formula_units_Z            1
_cell_length_a                   8.1300(7)
_cell_length_b                   8.5072(11)
_cell_length_c                   9.7386(13)
_cell_measurement_reflns_used    3126
_cell_measurement_temperature    296(2)
_cell_measurement_theta_max      56.529
_cell_measurement_theta_min      4.872
_cell_volume                     661.39(14)
_computing_cell_refinement
;
APEX2/SAINT (Bruker, 2004)
;
_computing_data_collection
;
APEX2 (Bruker, 2004)
;
_computing_data_reduction
;
SAINT (Bruker, 2004)
;
_computing_molecular_graphics
;
ORTEP-3 for Windows (Farrugia, 2012), DIAMOND (Brandenburg,
2006)
;
_computing_publication_material
;
publCIF (Westrip, 2010)
;
_computing_structure_refinement
;
<i>SHELXL2017/1</i> (Sheldrick, 2015)
;
_computing_structure_solution
;
SIR92 (Altomare <i>et al.</i>,  1994)
;
_diffrn_ambient_temperature      296(2)
_diffrn_measured_fraction_theta_full 0.961
_diffrn_measured_fraction_theta_max 0.940
_diffrn_measurement_device_type  'Bruker Kappa APEXII CCD'
_diffrn_measurement_method       '\w and \f scan'
_diffrn_radiation_type           MoK\a
_diffrn_radiation_wavelength     0.71073
_diffrn_reflns_av_R_equivalents  0.0209
_diffrn_reflns_av_unetI/netI     0.0297
_diffrn_reflns_limit_h_max       10
_diffrn_reflns_limit_h_min       -5
_diffrn_reflns_limit_k_max       11
_diffrn_reflns_limit_k_min       -11
_diffrn_reflns_limit_l_max       12
_diffrn_reflns_limit_l_min       -12
_diffrn_reflns_number            5554
_diffrn_reflns_theta_full        25.242
_diffrn_reflns_theta_max         28.295
_diffrn_reflns_theta_min         3.254
_exptl_absorpt_coefficient_mu    1.265
_exptl_absorpt_correction_T_max  0.714
_exptl_absorpt_correction_T_min  0.637
_exptl_absorpt_correction_type   multi-scan
_exptl_absorpt_process_details
;
(SADABS; Bruker, 2004)
;
_exptl_crystal_colour            dark-brown
_exptl_crystal_density_diffrn    1.626
_exptl_crystal_description       block
_exptl_crystal_F_000             327
_exptl_crystal_size_max          0.350
_exptl_crystal_size_mid          0.350
_exptl_crystal_size_min          0.300
_refine_diff_density_max         0.441
_refine_diff_density_min         -0.456
_refine_ls_extinction_method     none
_refine_ls_goodness_of_fit_ref   1.046
_refine_ls_hydrogen_treatment    constr
_refine_ls_matrix_type           full
_refine_ls_number_parameters     178
_refine_ls_number_reflns         3090
_refine_ls_number_restraints     0
_refine_ls_restrained_S_all      1.046
_refine_ls_R_factor_all          0.0394
_refine_ls_R_factor_gt           0.0326
_refine_ls_shift/su_max          0.000
_refine_ls_shift/su_mean         0.000
_refine_ls_structure_factor_coef Fsqd
_refine_ls_weighting_details
'w=1/[\s^2^(Fo^2^)+(0.0461P)^2^+0.2934P] where P=(Fo^2^+2Fc^2^)/3'
_refine_ls_weighting_scheme      calc
_refine_ls_wR_factor_gt          0.0877
_refine_ls_wR_factor_ref         0.0933
_reflns_number_gt                2708
_reflns_number_total             3090
_reflns_threshold_expression     'I > 2\s(I)'
_cod_data_source_file            hb7872sup1.cif
_cod_data_source_block           II
_cod_database_code               2243222
_shelx_space_group_comment
;
The symmetry employed for this shelxl refinement is uniquely defined
by the following loop, which should always be used as a source of
symmetry information in preference to the above space-group names.
They are only intended as comments.
;
_shelx_estimated_absorpt_t_min   0.666
_shelx_estimated_absorpt_t_max   0.703
_shelx_hkl_file
;
   5   0   0   46.15    1.23
   6   0   0   82.44    2.12
   6   0   0   77.96    2.12
   7   0   0    6.33    0.23
   8   0   0    2.00    0.16
   9   0   0    0.20    0.09
   9  -1   0    0.16    0.11
   8  -1   0    2.94    0.22
   7  -1   0    3.04    0.20
   6  -1   0    3.19    0.17
   6  -1   0    3.45    0.19
   5  -1   0   90.84    2.41
   4  -1   0   25.65    0.72
   3  -1   0   58.10    1.51
   3  -1   0   56.01    1.51
  -3   1   0   55.50    1.48
   2  -1   0    0.64    0.05
  -2   1   0    0.56    0.05
  -2   1   0    0.74    0.05
   1  -1   0   23.08    0.71
  -1   1   0   28.92    0.72
  -1  -1   0   90.74    2.16
   1   1   0   75.49    2.16
  10  -2   0    0.08    0.14
   9  -2   0    5.04    0.33
   8  -2   0   27.00    0.87
   7  -2   0    1.12    0.15
   6  -2   0    2.16    0.17
   5  -2   0   41.91    1.23
   5  -2   0   44.74    1.22
   4  -2   0    0.37    0.07
   4  -2   0    0.35    0.08
  -4   2   0    0.35    0.06
  -4   2   0    0.32    0.05
   3  -2   0  115.99    3.00
   3  -2   0  110.09    3.01
  -3   2   0  115.33    2.99
  -3   2   0  112.49    3.00
   2  -2   0  161.46    4.11
   2  -2   0  149.58    4.12
  -2   2   0  156.98    4.12
  -2   2   0  159.43    4.11
   1  -2   0   12.29    0.37
   1  -2   0   11.61    0.38
  -1   2   0   12.01    0.37
   0  -2   0   15.18    0.46
   0   2   0   15.12    0.45
  -1  -2   0    0.31    0.04
  -1  -2   0    0.39    0.05
   1   2   0    0.20    0.04
   1   2   0    0.28    0.04
  -2  -2   0  142.36    3.88
  -2  -2   0  147.26    3.88
   2   2   0  157.27    3.90
   2   2   0  151.08    3.89
   3   2   0  234.60    5.83
   3   2   0  214.78    5.82
   9  -3   0    0.07    0.14
   8  -3   0   22.02    0.78
   7  -3   0   24.06    0.82
   6  -3   0   65.23    1.86
   5  -3   0   12.14    0.44
   5  -3   0   11.84    0.46
  -5   3   0   11.42    0.39
  -5   3   0   11.67    0.39
   4  -3   0    0.68    0.10
   4  -3   0    0.39    0.11
  -4   3   0    0.64    0.09
  -4   3   0    0.72    0.10
   3  -3   0   68.83    1.82
   3  -3   0   65.32    1.84
  -3   3   0   66.33    1.80
  -3   3   0   64.65    1.82
   2  -3   0  208.16    5.35
   2  -3   0  201.98    5.37
  -2   3   0  200.49    5.36
  -2   3   0  204.54    5.35
   1  -3   0   26.82    0.81
   1  -3   0   27.34    0.79
  -1   3   0   27.43    0.80
  -1   3   0   27.36    0.79
   0  -3   0   98.08    2.58
   0  -3   0   95.61    2.60
   0   3   0   99.51    2.60
   0   3   0   95.08    2.58
  -1  -3   0    9.85    0.32
   1   3   0    9.81    0.33
   1   3   0    8.97    0.32
  -2  -3   0   35.17    0.97
  -2  -3   0   34.98    0.96
   2   3   0   37.22    0.99
   2   3   0   33.51    0.97
   3   3   0   39.62    1.06
   3   3   0   37.17    1.05
   4   3   0   30.17    0.85
   4   3   0   32.16    0.87
   5   3   0    4.90    0.18
   5   3   0    4.42    0.17
   9  -4   0    0.53    0.18
   8  -4   0    9.97    0.51
   7  -4   0    0.36    0.15
   6  -4   0   21.16    0.76
   5  -4   0   67.88    1.95
  -5   4   0   67.80    1.87
   4  -4   0    5.29    0.32
   4  -4   0    5.93    0.29
  -4   4   0    5.81    0.28
   3  -4   0   27.20    0.82
   3  -4   0   25.53    0.83
  -3   4   0   25.55    0.80
   2  -4   0   53.68    1.50
   2  -4   0   52.79    1.52
  -2   4   0   53.07    1.50
   1  -4   0   18.14    0.57
   1  -4   0   17.56    0.59
  -1   4   0   16.76    0.56
   0  -4   0   87.91    2.45
   0  -4   0   92.51    2.43
   0   4   0   88.03    2.43
   0   4   0   91.70    2.45
  -1  -4   0   57.82    1.58
  -1  -4   0   55.71    1.59
   1   4   0   58.78    1.60
   1   4   0   56.61    1.58
  -2  -4   0   24.68    0.71
  -2  -4   0   24.52    0.73
   2   4   0   23.93    0.73
   2   4   0   24.41    0.74
  -3  -4   0    9.36    0.31
  -3  -4   0    9.49    0.32
   3   4   0    9.73    0.35
   3   4   0    9.53    0.34
   4   4   0   62.55    1.75
   4   4   0   66.77    1.77
   5   4   0   13.22    0.43
   5   4   0   13.09    0.42
   6   4   0   65.13    1.75
   6   4   0   63.27    1.73
   7   4   0    2.30    0.16
   8  -5   0    5.76    0.44
   7  -5   0    2.62    0.29
   6  -5   0    0.52    0.18
   5  -5   0    0.63    0.17
  -5   5   0    0.72    0.14
   4  -5   0    0.60    0.15
  -4   5   0    0.73    0.14
   3  -5   0   55.97    1.68
  -3   5   0   58.69    1.64
   2  -5   0   23.49    0.79
  -2   5   0   23.53    0.76
   1  -5   0    1.24    0.16
  -1   5   0    1.57    0.17
   0  -5   0   29.51    0.91
   0   5   0   28.37    0.88
  -1  -5   0   90.46    2.50
   1   5   0   94.51    2.52
   1   5   0   89.32    2.48
  -2  -5   0   22.60    0.71
   2   5   0   22.67    0.73
   2   5   0   21.86    0.70
  -3  -5   0   32.84    0.96
   3   5   0   34.15    1.00
   3   5   0   32.34    0.97
  -4  -5   0   25.92    0.73
  -4  -5   0   25.18    0.72
   4   5   0   25.36    0.80
   4   5   0   25.09    0.77
   5   5   0    0.34    0.09
   5   5   0    0.29    0.09
   6   5   0   44.34    1.25
   7   5   0   10.05    0.38
   8   5   0    3.01    0.20
   8  -6   0    8.55    0.56
   7  -6   0    4.54    0.42
   6  -6   0   -0.02    0.16
   5  -6   0    5.00    0.40
  -5   6   0    5.31    0.34
   4  -6   0    1.07    0.21
  -4   6   0    1.34    0.19
   3  -6   0    3.32    0.31
  -3   6   0    3.30    0.29
   2  -6   0   15.36    0.63
  -2   6   0   16.15    0.60
   1  -6   0    3.82    0.30
  -1   6   0    3.78    0.28
   0  -6   0    2.21    0.22
   0   6   0    1.85    0.19
  -1  -6   0   90.28    2.49
   1   6   0   88.64    2.47
  -2  -6   0    2.48    0.23
   2   6   0    1.61    0.18
  -3  -6   0   30.00    0.91
   3   6   0   29.14    0.91
  -4  -6   0   31.55    0.93
   4   6   0   31.09    0.96
   4   6   0   32.16    0.99
   5   6   0    4.97    0.29
   6   6   0   17.59    0.60
   7   6   0    3.79    0.26
   8   6   0    0.07    0.11
   7  -7   0    1.97    0.31
   6  -7   0    2.34    0.32
   5  -7   0    3.37    0.35
  -5   7   0    3.71    0.34
   4  -7   0    5.13    0.41
  -4   7   0    4.56    0.37
   3  -7   0    8.18    0.47
  -3   7   0    8.09    0.45
   2  -7   0   29.04    1.00
  -2   7   0   28.10    0.96
   1  -7   0   -0.05    0.13
  -1   7   0   -0.25    0.13
   0  -7   0    2.42    0.25
   0   7   0    1.62    0.20
  -1  -7   0   28.44    0.95
   1   7   0   28.27    0.94
  -2  -7   0    0.78    0.16
   2   7   0    0.57    0.16
  -3  -7   0   46.53    1.38
   3   7   0   46.39    1.39
  -4  -7   0   90.41    2.49
   4   7   0   90.63    2.52
   5   7   0    1.15    0.18
   6   7   0    5.67    0.34
   7   7   0    1.98    0.21
   8   7   0   -0.02    0.12
   9   7   0    4.00    0.31
   6  -8   0   -0.23    0.20
   5  -8   0    2.17    0.33
   4  -8   0    9.66    0.59
  -4   8   0   10.20    0.55
   3  -8   0    3.55    0.35
  -3   8   0    4.20    0.38
   2  -8   0   13.66    0.65
  -2   8   0   13.16    0.61
   1  -8   0   18.82    0.77
  -1   8   0   19.52    0.76
   0  -8   0    2.65    0.28
   0   8   0    1.88    0.23
  -1  -8   0   11.64    0.54
   1   8   0   10.95    0.53
  -2  -8   0    3.37    0.31
   2   8   0    2.81    0.27
  -3  -8   0    4.73    0.32
   3   8   0    4.53    0.36
  -4  -8   0   20.61    0.74
   4   8   0   22.38    0.79
   5   8   0    6.30    0.40
   6   8   0    7.89    0.44
   7   8   0    3.71    0.34
   8   8   0    0.15    0.15
   5  -9   0    5.59    0.55
   4  -9   0    2.38    0.35
  -4   9   0    2.85    0.34
   3  -9   0    0.28    0.20
  -3   9   0    0.62    0.21
   2  -9   0   15.41    0.75
  -2   9   0   16.64    0.74
   1  -9   0    3.50    0.36
  -1   9   0    4.04    0.40
   0  -9   0    0.68    0.20
   0   9   0    0.74    0.21
  -1  -9   0   11.42    0.58
   1   9   0   11.10    0.57
  -2  -9   0    1.78    0.25
   2   9   0    1.53    0.25
  -3  -9   0    0.40    0.16
   3   9   0    0.36    0.19
   4   9   0    6.09    0.44
   5   9   0    0.28    0.19
   6   9   0   -0.07    0.16
   7   9   0    6.39    0.44
   3 -10   0    3.24    0.41
  -3  10   0    3.42    0.39
   2 -10   0   10.20    0.66
  -2  10   0   11.41    0.65
   1 -10   0    0.02    0.18
  -1  10   0    0.13    0.20
   0 -10   0    1.72    0.28
   0  10   0    1.61    0.27
  -1 -10   0    7.46    0.51
   1  10   0    7.41    0.53
  -2 -10   0    1.38    0.24
   2  10   0    1.85    0.29
   3  10   0   -0.15    0.18
   4  10   0    1.05    0.24
   5  10   0    0.06    0.19
   6  10   0   -0.02    0.19
   0 -11   0    1.56    0.30
   0  11   0    1.40    0.30
  -1 -11   0    2.08    0.31
   1  11   0    1.63    0.30
   2  11   0    1.33    0.29
   3  11   0    2.01    0.32
   2  11  -1    0.79    0.27
   1  11  -1    1.92    0.33
  -1 -11   1    2.27    0.34
   0  11  -1   -0.01    0.24
   0 -11   1   -0.32    0.18
   6  10  -1    1.36    0.28
   5  10  -1    0.05    0.18
   4  10  -1    2.50    0.31
   3  10  -1    3.12    0.34
   2  10  -1    0.16    0.20
  -2 -10   1    0.27    0.18
   1  10  -1    6.70    0.51
  -1 -10   1    6.83    0.51
   0  10  -1    1.92    0.31
   0 -10   1    1.80    0.29
  -1  10  -1    3.36    0.38
   1 -10   1    2.68    0.34
  -2  10  -1    2.79    0.35
   2 -10   1    1.98    0.32
  -3  10  -1    1.48    0.29
   3 -10   1    0.95    0.28
   7   9  -1    1.38    0.24
   6   9  -1    3.02    0.30
   5   9  -1    0.44    0.20
   4   9  -1    7.15    0.47
   3   9  -1    4.60    0.40
  -3  -9   1    4.81    0.36
   2   9  -1    0.08    0.17
  -2  -9   1    0.20    0.16
   1   9  -1   20.81    0.82
  -1  -9   1   20.04    0.82
   0   9  -1   11.67    0.60
   0  -9   1   11.54    0.61
  -1   9  -1    1.27    0.25
   1  -9   1    1.55    0.28
  -2   9  -1   23.87    0.92
   2  -9   1   23.36    0.97
  -3   9  -1    0.73    0.23
   3  -9   1    0.57    0.22
  -4   9  -1   -0.10    0.18
   4  -9   1   -0.11    0.19
   8   8  -1    0.99    0.19
   7   8  -1    1.58    0.22
   6   8  -1   12.17    0.55
   5   8  -1    8.22    0.45
   4   8  -1    4.75    0.37
   3   8  -1   17.04    0.68
  -3  -8   1   17.73    0.67
   2   8  -1   -0.18    0.13
  -2  -8   1    0.01    0.12
   1   8  -1    1.79    0.24
  -1  -8   1    2.36    0.26
   0   8  -1   18.01    0.72
   0  -8   1   17.84    0.74
  -1   8  -1    1.81    0.25
   1  -8   1    1.73    0.25
  -2   8  -1   44.50    1.40
   2  -8   1   42.43    1.43
  -3   8  -1    3.81    0.37
   3  -8   1    4.35    0.43
  -4   8  -1    0.69    0.21
   4  -8   1    0.55    0.22
   5  -8   1    5.91    0.50
   6  -8   1   -0.02    0.20
   9   7  -1    0.76    0.17
   8   7  -1    1.14    0.18
   7   7  -1    2.09    0.22
   6   7  -1    6.47    0.36
   5   7  -1   13.19    0.54
   4   7  -1    2.16    0.23
  -4  -7   1    2.51    0.21
   3   7  -1   17.45    0.65
  -3  -7   1   17.19    0.63
   2   7  -1    2.45    0.23
  -2  -7   1    2.76    0.26
   1   7  -1   25.81    0.89
  -1  -7   1   27.19    0.92
   0   7  -1    4.40    0.32
   0  -7   1    4.56    0.34
  -1   7  -1   24.55    0.86
   1  -7   1   25.36    0.90
  -2   7  -1   17.71    0.69
   2  -7   1   17.64    0.73
  -3   7  -1   11.14    0.52
   3  -7   1   10.67    0.56
  -4   7  -1    0.48    0.17
   4  -7   1    0.23    0.18
  -5   7  -1   25.11    0.89
   5  -7   1   24.23    0.96
   6  -7   1    1.54    0.28
   7  -7   1    0.56    0.23
   8   6  -1    2.66    0.24
   7   6  -1    0.38    0.12
   6   6  -1   21.62    0.71
   5   6  -1   31.96    0.98
   4   6  -1    0.46    0.13
  -4  -6   1    0.32    0.09
   3   6  -1    7.56    0.36
  -3  -6   1    7.51    0.34
   2   6  -1    2.01    0.20
  -2  -6   1    2.33    0.21
   1   6  -1    3.41    0.27
  -1  -6   1    3.71    0.28
   0   6  -1   70.98    2.01
   0  -6   1   71.40    2.04
  -1   6  -1   11.59    0.48
   1  -6   1   11.70    0.51
  -2   6  -1    0.09    0.12
   2  -6   1    0.15    0.13
  -3   6  -1   14.18    0.57
   3  -6   1   14.25    0.61
  -4   6  -1    2.59    0.25
   4  -6   1    2.17    0.27
  -5   6  -1   26.24    0.88
   5  -6   1   26.49    0.97
   6  -6   1    4.74    0.41
   7  -6   1    4.84    0.43
   8  -6   1    4.74    0.46
   8   5  -1    6.35    0.29
   7   5  -1   -0.03    0.09
   6   5  -1   29.82    0.89
   5   5  -1    9.20    0.37
   5   5  -1    9.81    0.39
   4   5  -1   19.13    0.62
   4   5  -1   18.16    0.60
  -4  -5   1   18.52    0.55
  -4  -5   1   17.54    0.55
   3   5  -1   64.94    1.81
   3   5  -1   66.16    1.84
  -3  -5   1   65.13    1.80
   2   5  -1    0.02    0.08
  -2  -5   1    0.14    0.08
   1   5  -1    1.28    0.15
  -1  -5   1    0.80    0.13
   0   5  -1   99.11    2.70
   0  -5   1   99.49    2.73
  -1   5  -1    1.84    0.18
   1  -5   1    1.93    0.19
  -2   5  -1   96.34    2.64
   2  -5   1   96.65    2.69
  -3   5  -1   45.38    1.33
   3  -5   1   45.13    1.38
  -4   5  -1    5.67    0.32
   4  -5   1    5.85    0.36
  -5   5  -1    0.48    0.13
   5  -5   1    0.46    0.16
   6  -5   1   13.15    0.60
   7  -5   1    2.45    0.28
   8  -5   1    8.79    0.52
   7   4  -1    0.76    0.10
   6   4  -1    1.21    0.12
   5   4  -1    0.73    0.09
   5   4  -1    0.80    0.10
   4   4  -1    1.58    0.15
   4   4  -1    1.35    0.12
   3   4  -1   63.87    1.73
   3   4  -1   61.05    1.71
  -3  -4   1   62.78    1.69
  -3  -4   1   62.16    1.69
   2   4  -1    9.33    0.35
   2   4  -1    9.98    0.37
  -2  -4   1    9.83    0.34
  -2  -4   1    9.82    0.36
   1   4  -1   79.29    2.18
  -1  -4   1   80.52    2.20
  -1  -4   1   81.71    2.18
   0   4  -1   53.11    1.50
   0   4  -1   53.01    1.47
   0  -4   1   53.22    1.47
   0  -4   1   51.06    1.49
  -1   4  -1    3.32    0.20
   1  -4   1    3.50    0.19
  -2   4  -1   59.29    1.68
   2  -4   1   63.22    1.70
   2  -4   1   58.67    1.71
  -3   4  -1   65.11    1.78
   3  -4   1   63.08    1.82
  -4   4  -1   24.89    0.77
   4  -4   1   24.47    0.82
  -5   4  -1   65.83    1.82
   5  -4   1   65.28    1.90
   6  -4   1    8.66    0.45
   7  -4   1   -0.04    0.13
   8  -4   1   11.75    0.56
   9  -4   1    1.56    0.24
   6   3  -1   52.23    1.40
   5   3  -1    3.74    0.16
   5   3  -1    4.18    0.18
   4   3  -1  180.51    4.54
   4   3  -1  165.92    4.52
   3   3  -1    0.23    0.06
   3   3  -1    0.03    0.05
  -3  -3   1    0.10    0.04
  -3  -3   1    0.17    0.04
   2   3  -1   24.18    0.72
   2   3  -1   26.30    0.74
  -2  -3   1   24.65    0.72
  -2  -3   1   25.30    0.71
   1   3  -1   99.75    2.66
  -1  -3   1   99.99    2.66
  -1  -3   1  100.64    2.67
   0   3  -1  164.59    4.42
   0   3  -1  168.09    4.44
   0  -3   1  169.90    4.43
   0  -3   1  169.44    4.42
  -1   3  -1    7.12    0.27
  -1   3  -1    7.03    0.28
   1  -3   1    7.34    0.27
  -2   3  -1   12.68    0.42
  -2   3  -1   12.47    0.43
   2  -3   1   12.15    0.44
   2  -3   1   12.96    0.43
  -3   3  -1  173.83    4.56
  -3   3  -1  172.36    4.58
   3  -3   1  168.55    4.59
   3  -3   1  177.42    4.58
  -4   3  -1   13.83    0.46
   4  -3   1   13.45    0.50
   4  -3   1   13.94    0.48
  -5   3  -1   27.03    0.78
   5  -3   1   25.92    0.85
   5  -3   1   27.82    0.84
   6  -3   1   53.30    1.56
   7  -3   1    0.67    0.17
   8  -3   1    1.89    0.22
   9  -3   1    1.44    0.21
   4   2  -1  101.87    2.55
   4   2  -1   92.90    2.55
   3   2  -1    0.13    0.04
   3   2  -1    0.11    0.04
   2   2  -1   80.68    2.19
   2   2  -1   86.19    2.20
  -2  -2   1   82.57    2.19
  -2  -2   1   83.27    2.19
   1   2  -1   15.59    0.47
  -1  -2   1   16.34    0.48
  -1  -2   1   16.81    0.48
   0   2  -1  532.73   13.63
   0   2  -1  521.60   13.75
   0  -2   1  523.68   13.62
  -1   2  -1   13.14    0.42
  -1   2  -1   13.13    0.41
   1  -2   1   13.92    0.41
  -2   2  -1    2.14    0.12
  -2   2  -1    1.88    0.12
   2  -2   1    1.96    0.12
   2  -2   1    2.16    0.14
  -3   2  -1  157.81    4.08
  -3   2  -1  154.00    4.10
   3  -2   1  150.69    4.11
   3  -2   1  160.15    4.10
  -4   2  -1    0.44    0.07
  -4   2  -1    0.23    0.05
   4  -2   1    0.18    0.06
   4  -2   1    0.18    0.09
   5  -2   1   18.32    0.58
   6  -2   1  136.04    3.63
   7  -2   1    8.40    0.38
   8  -2   1    0.87    0.16
   9  -2   1    2.47    0.24
  10  -2   1    0.32    0.16
   2   1  -1  850.46   22.08
   1   1  -1  119.58    3.04
   1   1  -1  108.77    3.03
  -1  -1   1  120.18    3.04
   0  -1   1    0.67    0.05
  -1   1  -1  181.32    4.66
  -1   1  -1  172.52    4.65
   1  -1   1  175.43    4.66
   1  -1   1  184.58    4.65
  -2   1  -1   24.32    0.67
  -2   1  -1   24.49    0.68
   2  -1   1   23.66    0.69
   2  -1   1   24.61    0.68
  -3   1  -1   95.34    2.49
  -3   1  -1   95.63    2.50
   3  -1   1   96.66    2.51
   3  -1   1   92.92    2.52
   4  -1   1    6.74    0.23
   4  -1   1    6.15    0.24
   5  -1   1    4.09    0.18
   5  -1   1    4.05    0.20
   6  -1   1  113.22    3.14
   6  -1   1  122.74    3.13
   8  -1   1    4.52    0.26
   9  -1   1    7.31    0.35
   9   0  -1    0.99    0.12
   8   0  -1   28.29    0.82
   7   0  -1    7.28    0.26
   7   0  -1    6.45    0.25
   6   0  -1    0.22    0.05
   6   0  -1    0.26    0.06
   5   0  -1   10.39    0.32
   5   0  -1   11.09    0.32
   4   0  -1    6.55    0.20
   4   0  -1    6.04    0.20
   3   0  -1  183.63    4.85
   3   0  -1  190.74    4.85
   2   0  -1  226.13    5.98
   2   0  -1  235.09    5.98
   1   0  -1  261.03    7.42
   1   0  -1  325.47    7.43
  -1   0   1  251.60    7.38
  -1   0   1  301.07    7.42
  -1   0  -1  196.97    5.25
   1   0   1  208.72    5.25
   2   0   1    2.52    0.10
   2   0   1    2.48    0.09
   3   0   1  215.86    5.53
   3   0   1  210.88    5.54
   4   0   1    4.14    0.15
   4   0   1    4.25    0.16
   5   0   1    6.61    0.22
   5   0   1    6.11    0.23
   6   0   1   42.62    1.13
   6   0   1   39.88    1.13
   7   0   1    1.34    0.12
   9   0   1   21.48    0.67
   9  -1  -1    2.81    0.23
   8  -1  -1   15.53    0.53
   7  -1  -1   19.13    0.60
   6  -1  -1    2.94    0.16
   6  -1  -1    3.75    0.19
   5  -1  -1   30.16    0.83
   5  -1  -1   28.46    0.83
   4  -1  -1    8.46    0.28
   4  -1  -1    7.99    0.28
   3  -1  -1   17.03    0.50
   3  -1  -1   17.92    0.50
  -3   1   1   16.58    0.47
   2  -1  -1  355.65    9.47
   2  -1  -1  372.23    9.47
  -2   1   1  362.66    9.46
  -2   1   1  371.29    9.50
   1  -1  -1   12.57    0.39
   1  -1  -1   14.07    0.39
  -1   1   1   13.81    0.39
  -1   1   1   12.40    0.38
  -1  -1  -1    4.11    0.13
  -1  -1  -1    3.57    0.13
   1   1   1    2.90    0.12
   2   1   1    5.93    0.18
   2   1   1    6.40    0.19
   9  -2  -1    2.45    0.23
   8  -2  -1   20.97    0.71
   7  -2  -1   12.98    0.48
   6  -2  -1    1.83    0.15
   6  -2  -1    1.59    0.15
   5  -2  -1   82.98    2.21
   5  -2  -1   80.28    2.22
   4  -2  -1    5.42    0.22
   4  -2  -1    5.02    0.24
  -4   2   1    5.14    0.20
  -4   2   1    5.10    0.19
   3  -2  -1    6.32    0.24
   3  -2  -1    6.30    0.25
  -3   2   1    6.31    0.23
  -3   2   1    6.29    0.23
   2  -2  -1   86.73    2.42
   2  -2  -1   92.71    2.41
  -2   2   1   92.02    2.40
  -2   2   1   90.95    2.41
   1  -2  -1   49.23    1.37
   1  -2  -1   50.47    1.36
  -1   2   1   51.46    1.37
  -1   2   1   50.66    1.36
   0  -2  -1  577.18   15.80
   0  -2  -1  627.61   15.87
   0   2   1  620.90   15.76
   0   2   1  605.97   15.73
  -1  -2  -1    8.14    0.26
  -1  -2  -1    8.01    0.25
   1   2   1    7.59    0.26
   1   2   1    7.82    0.26
  -2  -2  -1   97.17    2.52
  -2  -2  -1   94.70    2.51
   2   2   1   94.25    2.52
   2   2   1   98.52    2.53
   3   2   1   64.67    1.67
   3   2   1   61.22    1.66
   4   2   1   45.64    1.26
   4   2   1   50.36    1.28
   9  -3  -1    0.39    0.15
   8  -3  -1    7.14    0.40
   7  -3  -1   66.26    1.90
   6  -3  -1    0.73    0.15
   5  -3  -1   60.03    1.70
   5  -3  -1   61.97    1.68
  -5   3   1   59.50    1.63
  -5   3   1   58.40    1.63
   4  -3  -1   74.07    2.00
   4  -3  -1   72.60    2.02
  -4   3   1   72.78    1.98
  -4   3   1   71.98    1.97
   3  -3  -1    6.00    0.28
   3  -3  -1    6.52    0.26
  -3   3   1    6.36    0.26
  -3   3   1    5.66    0.26
   2  -3  -1   13.52    0.44
   2  -3  -1   13.12    0.45
  -2   3   1   13.02    0.43
  -2   3   1   13.13    0.44
   1  -3  -1    0.89    0.11
   1  -3  -1    0.88    0.09
  -1   3   1    0.99    0.10
  -1   3   1    0.93    0.10
   0  -3  -1   65.25    1.73
   0   3   1   63.17    1.73
   0   3   1   63.89    1.75
  -1  -3  -1   28.85    0.79
  -1  -3  -1   27.73    0.80
   1   3   1   26.31    0.79
   1   3   1   28.10    0.81
  -2  -3  -1   16.16    0.48
  -2  -3  -1   15.80    0.47
   2   3   1   15.59    0.48
   2   3   1   16.19    0.49
  -3  -3  -1  147.55    3.97
   3   3   1  153.46    4.00
   3   3   1  157.16    4.01
   4   3   1   11.86    0.37
   4   3   1   11.01    0.35
   5   3   1    8.45    0.28
   5   3   1    8.99    0.29
   6   3   1   44.07    1.21
   6   3   1   46.39    1.23
   9  -4  -1    0.51    0.18
   8  -4  -1    3.47    0.34
   7  -4  -1    3.73    0.33
   6  -4  -1   17.82    0.67
   5  -4  -1   52.64    1.53
  -5   4   1   50.61    1.45
   4  -4  -1   54.33    1.54
   4  -4  -1   53.00    1.56
  -4   4   1   53.13    1.51
   3  -4  -1    3.89    0.22
   3  -4  -1    3.56    0.24
  -3   4   1    3.48    0.22
   2  -4  -1  141.43    3.91
   2  -4  -1  150.28    3.89
  -2   4   1  146.14    3.88
   1  -4  -1    4.98    0.26
  -1   4   1    5.30    0.25
  -1   4   1    5.21    0.25
   0  -4  -1   71.40    1.95
   0  -4  -1   71.17    1.97
   0   4   1   69.62    1.95
   0   4   1   73.56    1.98
  -1  -4  -1   42.07    1.20
  -1  -4  -1   42.62    1.18
   1   4   1   40.54    1.18
   1   4   1   42.23    1.20
  -2  -4  -1   35.46    1.02
  -2  -4  -1   36.41    1.00
   2   4   1   35.76    1.03
   2   4   1   34.38    1.01
  -3  -4  -1  101.61    2.69
  -3  -4  -1  101.34    2.70
   3   4   1  104.63    2.73
   3   4   1   98.87    2.71
   4   4   1   49.45    1.34
   4   4   1   46.13    1.31
   5   4   1    0.83    0.10
   5   4   1    1.02    0.11
   6   4   1   22.14    0.67
   6   4   1   22.42    0.66
   7   4   1   41.64    1.15
   8   4   1    0.25    0.07
   8  -5  -1    0.68    0.20
   7  -5  -1    7.25    0.46
   6  -5  -1    0.32    0.17
   5  -5  -1    1.45    0.21
  -5   5   1    1.84    0.19
   4  -5  -1    5.02    0.33
  -4   5   1    4.64    0.30
   3  -5  -1    3.25    0.27
  -3   5   1    3.26    0.25
   2  -5  -1   85.21    2.38
  -2   5   1   85.21    2.35
   1  -5  -1   33.77    1.03
  -1   5   1   32.72    1.00
   0  -5  -1   15.48    0.57
   0   5   1   16.81    0.57
  -2  -5  -1    0.17    0.08
   2   5   1    0.23    0.08
   2   5   1    0.06    0.08
  -3  -5  -1   25.31    0.77
   3   5   1   25.14    0.78
   3   5   1   26.56    0.81
  -4  -5  -1   91.95    2.46
  -4  -5  -1   92.60    2.48
   4   5   1   94.41    2.54
   4   5   1   93.03    2.51
   5   5   1    0.06    0.07
   5   5   1    0.02    0.08
   6   5   1    0.54    0.11
   7   5   1   11.33    0.41
   8   5   1    0.11    0.09
   8  -6  -1    0.59    0.21
   7  -6  -1    5.74    0.46
   6  -6  -1    0.60    0.20
   5  -6  -1    4.97    0.39
  -5   6   1    5.16    0.35
   4  -6  -1   13.98    0.62
  -4   6   1   14.52    0.58
   3  -6  -1    0.05    0.13
  -3   6   1   -0.06    0.12
   2  -6  -1    7.44    0.41
  -2   6   1    7.69    0.39
   1  -6  -1   40.11    1.24
  -1   6   1   39.84    1.21
   0   6   1   16.24    0.60
  -1  -6  -1   83.50    2.37
   1   6   1   85.97    2.35
  -2  -6  -1   53.18    1.54
   2   6   1   53.41    1.53
  -3  -6  -1    0.97    0.13
   3   6   1    0.76    0.14
  -4  -6  -1   18.87    0.61
   4   6   1   19.57    0.67
   4   6   1   18.80    0.64
   5   6   1    4.28    0.27
   6   6   1    3.64    0.26
   7   6   1    5.48    0.31
   8   6   1    1.92    0.18
   7  -7  -1    1.71    0.29
   6  -7  -1    2.04    0.30
   5  -7  -1    4.76    0.42
  -5   7   1    4.49    0.36
   4  -7  -1   18.51    0.77
  -4   7   1   18.91    0.72
   3  -7  -1    8.59    0.49
  -3   7   1    8.38    0.45
   2  -7  -1    2.02    0.25
  -2   7   1    1.89    0.23
   1  -7  -1   16.12    0.66
  -1   7   1   15.96    0.64
   0  -7  -1    3.78    0.32
   0   7   1    3.54    0.32
  -1  -7  -1   62.69    1.86
   1   7   1   64.43    1.85
  -2  -7  -1   25.84    0.86
   2   7   1   25.19    0.85
  -3  -7  -1   18.98    0.67
   3   7   1   18.48    0.68
  -4  -7  -1   29.46    0.93
   4   7   1   30.70    0.97
   5   7   1    1.24    0.18
   6   7   1    0.73    0.15
   7   7   1   13.21    0.54
   8   7   1    0.46    0.15
   9   7   1    0.22    0.14
   6  -8  -1    1.44    0.29
   5  -8  -1    0.07    0.18
   4  -8  -1   19.71    0.83
  -4   8   1   18.59    0.77
   3  -8  -1    5.95    0.45
  -3   8   1    6.60    0.44
   2  -8  -1    2.02    0.27
  -2   8   1    1.88    0.25
   1  -8  -1    7.23    0.45
  -1   8   1    6.69    0.44
   0  -8  -1    0.04    0.13
   0   8   1    0.06    0.15
  -1  -8  -1   23.27    0.86
   1   8   1   23.80    0.85
  -2  -8  -1   12.82    0.56
   2   8   1   12.11    0.57
  -3  -8  -1    2.39    0.24
   3   8   1    1.96    0.24
  -4  -8  -1   16.72    0.63
   4   8   1   17.98    0.68
   5   8   1   -0.09    0.14
   6   8   1    1.70    0.23
   7   8   1    7.85    0.44
   8   8   1    0.90    0.19
   5  -9  -1    0.87    0.27
   4  -9  -1   10.85    0.65
  -4   9   1   10.84    0.61
   3  -9  -1    0.61    0.22
  -3   9   1    0.88    0.24
   2  -9  -1    0.27    0.19
  -2   9   1    0.35    0.20
   1  -9  -1   15.47    0.73
  -1   9   1   17.40    0.74
   0  -9  -1   -0.08    0.14
   0   9   1   -0.04    0.18
  -1  -9  -1    0.20    0.15
   1   9   1    0.22    0.18
  -2  -9  -1    0.76    0.19
   2   9   1    0.63    0.20
  -3  -9  -1    0.37    0.16
   3   9   1    0.41    0.20
   4   9   1   10.10    0.55
   5   9   1    0.00    0.19
   6   9   1    0.94    0.22
   7   9   1    2.19    0.26
   3 -10  -1    7.41    0.58
  -3  10   1    7.87    0.56
   2 -10  -1    0.03    0.19
  -2  10   1   -0.07    0.21
   1 -10  -1    9.08    0.59
  -1  10   1    9.41    0.59
   0 -10  -1    0.62    0.21
   0  10   1    0.55    0.23
  -1 -10  -1    4.09    0.40
   1  10   1    5.49    0.47
  -2 -10  -1    3.94    0.38
   2  10   1    3.63    0.36
   3  10   1    0.64    0.22
   4  10   1    0.32    0.21
   5  10   1    0.55    0.22
   6  10   1    0.73    0.22
   1 -11  -1    6.94    0.61
  -1  11   1    6.85    0.63
   0 -11  -1    1.75    0.31
   0  11   1    2.37    0.35
  -1 -11  -1    0.71    0.25
   1  11   1    1.04    0.29
  -2 -11  -1    5.02    0.49
   2  11   1    5.61    0.52
   3  11   1    1.49    0.29
   4  11   1    1.43    0.31
   5  10  -2   -0.26    0.17
   4  10  -2    2.19    0.30
   3  10  -2   13.10    0.67
   2  10  -2    4.67    0.45
  -2 -10   2    4.28    0.42
   1  10  -2    2.35    0.31
  -1 -10   2    2.19    0.30
   0  10  -2    6.77    0.51
   0 -10   2    5.75    0.49
  -1  10  -2    0.40    0.22
   1 -10   2    0.42    0.23
  -2  10  -2    1.19    0.28
   2 -10   2    2.00    0.34
   7   9  -2    1.00    0.23
   6   9  -2   10.48    0.56
   5   9  -2    2.23    0.27
   4   9  -2   -0.17    0.16
   3   9  -2    0.84    0.21
  -3  -9   2    0.64    0.17
   2   9  -2   11.23    0.58
  -2  -9   2   11.01    0.57
   1   9  -2   25.71    0.96
  -1  -9   2   24.91    0.97
   0   9  -2    9.84    0.56
   0  -9   2    9.39    0.56
  -1   9  -2    7.78    0.52
   1  -9   2    7.60    0.52
  -2   9  -2    1.33    0.26
   2  -9   2    2.32    0.33
  -3   9  -2    0.84    0.23
   3  -9   2    0.94    0.26
  -4   9  -2   -0.09    0.19
   4  -9   2   -0.19    0.21
   8   8  -2    0.69    0.19
   7   8  -2    0.09    0.15
   6   8  -2   18.31    0.72
   5   8  -2    7.60    0.44
   4   8  -2    0.74    0.19
   3   8  -2   10.36    0.51
  -3  -8   2   10.38    0.49
   2   8  -2    0.33    0.17
  -2  -8   2    0.19    0.14
   1   8  -2    1.95    0.23
  -1  -8   2    1.74    0.23
   0   8  -2   15.73    0.67
   0  -8   2   15.92    0.70
  -1   8  -2   33.86    1.14
   1  -8   2   34.26    1.20
  -2   8  -2   -0.09    0.15
   2  -8   2    0.12    0.18
  -3   8  -2    8.32    0.50
   3  -8   2    8.08    0.54
  -4   8  -2    3.06    0.32
   4  -8   2    2.45    0.33
   5  -8   2    1.10    0.26
   6  -8   2    2.52    0.38
   8   7  -2    8.14    0.43
   7   7  -2    0.09    0.13
   6   7  -2    5.09    0.35
   5   7  -2    1.77    0.22
   4   7  -2    2.71    0.26
  -4  -7   2    2.48    0.22
   3   7  -2   20.29    0.74
  -3  -7   2   20.94    0.73
   2   7  -2    4.52    0.33
  -2  -7   2    4.12    0.31
   1   7  -2    0.87    0.17
  -1  -7   2    0.60    0.16
   0   7  -2    0.60    0.16
   0  -7   2    0.74    0.17
  -1   7  -2   11.19    0.52
   1  -7   2   11.45    0.56
  -2   7  -2    3.79    0.33
   2  -7   2    3.75    0.36
  -3   7  -2   20.03    0.76
   3  -7   2   20.55    0.83
  -4   7  -2    0.96    0.19
   4  -7   2    0.73    0.22
  -5   7  -2    7.65    0.46
   5  -7   2    7.76    0.54
   6  -7   2   11.73    0.66
   7  -7   2    0.15    0.21
   8   6  -2   31.21    0.97
   7   6  -2    3.00    0.26
   6   6  -2    4.66    0.29
   5   6  -2   11.58    0.47
   4   6  -2    3.14    0.27
  -4  -6   2    3.47    0.22
   3   6  -2   27.28    0.88
  -3  -6   2   27.55    0.87
   2   6  -2   41.25    1.24
  -2  -6   2   41.40    1.26
   1   6  -2    2.56    0.23
  -1  -6   2    2.54    0.24
   0   6  -2   28.88    0.93
   0  -6   2   28.16    0.95
  -1   6  -2    0.90    0.16
   1  -6   2    0.74    0.17
  -2   6  -2    0.38    0.13
   2  -6   2    0.28    0.14
  -3   6  -2    2.45    0.24
   3  -6   2    2.63    0.28
  -4   6  -2    5.35    0.36
   4  -6   2    5.79    0.41
  -5   6  -2   15.45    0.62
   5  -6   2   15.63    0.70
   6  -6   2    9.47    0.56
   7  -6   2    2.86    0.35
   8   5  -2    5.53    0.29
   7   5  -2    1.90    0.17
   6   5  -2   10.64    0.42
   5   5  -2   57.75    1.62
   5   5  -2   54.66    1.58
   4   5  -2   21.02    0.71
   4   5  -2   21.17    0.69
  -4  -5   2   20.53    0.64
  -4  -5   2   21.65    0.66
   3   5  -2   16.79    0.59
   3   5  -2   16.25    0.57
  -3  -5   2   16.44    0.56
   2   5  -2   87.34    2.41
   2   5  -2   85.39    2.38
  -2  -5   2   87.61    2.39
   1   5  -2   22.99    0.74
  -1  -5   2   23.15    0.76
   0   5  -2   72.18    2.01
   0  -5   2   71.15    2.03
  -1   5  -2    3.10    0.24
   1  -5   2    3.32    0.26
  -2   5  -2    4.05    0.27
   2  -5   2    4.51    0.32
  -3   5  -2   72.14    1.99
   3  -5   2   68.88    2.04
  -4   5  -2    5.00    0.31
   4  -5   2    4.42    0.35
  -5   5  -2   20.18    0.70
   5  -5   2   20.04    0.77
   6  -5   2   14.87    0.65
   7  -5   2    0.44    0.18
   8  -5   2    2.34    0.31
   8   4  -2    9.44    0.35
   7   4  -2    2.34    0.17
   6   4  -2   12.64    0.43
   5   4  -2   55.94    1.57
   5   4  -2   57.94    1.59
   4   4  -2    0.42    0.09
   4   4  -2    0.55    0.09
   3   4  -2    0.11    0.07
   3   4  -2    0.16    0.07
  -3  -4   2    0.12    0.06
  -3  -4   2    0.22    0.06
   2   4  -2  107.24    2.86
   2   4  -2  102.12    2.83
  -2  -4   2  107.44    2.85
  -2  -4   2  105.41    2.83
   1   4  -2    0.06    0.07
   1   4  -2    0.06    0.07
  -1  -4   2    0.03    0.07
   0   4  -2  125.70    3.44
   0  -4   2  131.73    3.47
  -1   4  -2   77.89    2.12
   1  -4   2   76.48    2.15
  -2   4  -2    7.43    0.33
   2  -4   2    7.76    0.36
  -3   4  -2   18.93    0.63
   3  -4   2   18.83    0.67
  -4   4  -2   14.03    0.50
   4  -4   2   13.91    0.56
  -5   4  -2   29.12    0.90
   5  -4   2   29.57    0.98
   6  -4   2   19.06    0.72
   7  -4   2    0.87    0.18
   8  -4   2    0.15    0.16
   9  -4   2    4.68    0.40
   7   3  -2    0.46    0.08
   6   3  -2    0.48    0.09
   6   3  -2    0.44    0.08
   5   3  -2   28.57    0.85
   5   3  -2   31.02    0.86
   4   3  -2   10.22    0.35
   4   3  -2   10.65    0.37
   3   3  -2   16.79    0.51
   3   3  -2   15.11    0.49
  -3  -3   2   15.77    0.48
  -3  -3   2   15.89    0.47
   2   3  -2  152.43    3.98
   2   3  -2  146.44    3.96
  -2  -3   2  151.72    3.96
  -2  -3   2  149.82    3.96
   1   3  -2   65.80    1.81
   1   3  -2   68.17    1.83
  -1  -3   2   66.82    1.80
  -1  -3   2   64.76    1.82
   0   3  -2   95.48    2.68
   0   3  -2  106.66    2.70
   0  -3   2   98.36    2.68
  -1   3  -2  150.16    4.07
  -1   3  -2  155.67    4.09
   1  -3   2  160.12    4.08
   1  -3   2  149.31    4.09
  -2   3  -2   76.65    2.11
  -2   3  -2   77.21    2.13
   2  -3   2   76.71    2.14
   2  -3   2   79.85    2.12
  -3   3  -2   30.07    0.89
   3  -3   2   30.86    0.90
   3  -3   2   29.36    0.92
  -4   3  -2   21.63    0.68
   4  -3   2   22.62    0.70
   4  -3   2   21.65    0.73
  -5   3  -2    0.10    0.07
   5  -3   2    0.11    0.09
   8  -3   2    0.23    0.14
   9  -3   2    7.66    0.44
   7   2  -2   11.59    0.37
   6   2  -2    3.75    0.19
   6   2  -2    5.44    0.20
   5   2  -2   56.48    1.59
   5   2  -2   62.41    1.60
   4   2  -2  111.91    2.82
   4   2  -2  101.33    2.81
   3   2  -2  129.07    3.41
   3   2  -2  133.03    3.42
  -3  -2   2  127.21    3.37
   2   2  -2  161.59    4.16
   2   2  -2  151.59    4.16
  -2  -2   2  158.67    4.15
  -2  -2   2  161.94    4.15
   1   2  -2   13.94    0.44
   1   2  -2   13.88    0.43
  -1  -2   2   13.84    0.43
  -1  -2   2   13.62    0.43
   0   2  -2   22.87    0.68
   0   2  -2   23.74    0.69
  -1   2  -2   21.05    0.65
  -1   2  -2   22.41    0.64
   1  -2   2   22.06    0.64
   1  -2   2   21.59    0.66
  -2   2  -2  163.67    4.29
  -2   2  -2  160.21    4.28
   2  -2   2  159.48    4.30
   2  -2   2  167.63    4.29
  -3   2  -2  204.48    5.30
  -3   2  -2  200.39    5.31
   3  -2   2  207.61    5.31
   3  -2   2  195.87    5.33
  -4   2  -2   85.55    2.24
  -4   2  -2   83.88    2.26
   4  -2   2   80.45    2.29
   4  -2   2   85.58    2.27
  -5   2  -2    2.43    0.13
  -5   2  -2    2.66    0.14
   5  -2   2    2.94    0.22
   5  -2   2    3.00    0.19
   6  -2   2    0.08    0.10
   6  -2   2    0.03    0.09
   9  -2   2    5.48    0.35
  10  -2   2    0.00    0.14
   7   1  -2   14.03    0.43
   6   1  -2    1.95    0.13
   6   1  -2    2.07    0.12
   5   1  -2   73.00    2.00
   5   1  -2   78.10    2.01
   4   1  -2   -0.09    0.05
   4   1  -2    0.02    0.04
   3   1  -2   67.37    1.83
   3   1  -2   70.61    1.83
   2   1  -2 1000.00   25.01
   2   1  -2  920.62   25.11
  -2  -1   2  961.99   24.99
  -2  -1   2  969.12   25.01
   1   1  -2  194.79    5.04
   1   1  -2  190.05    5.04
  -1  -1   2  193.63    5.04
  -1  -1   2  193.46    5.04
   0   1  -2    0.46    0.06
   0   1  -2    0.43    0.06
   0  -1   2    0.24    0.05
   0  -1   2    0.33    0.05
  -1   1  -2   41.78    1.14
  -1   1  -2   40.35    1.13
   1  -1   2   41.09    1.13
   1  -1   2   41.78    1.14
  -2   1  -2  134.65    3.51
  -2   1  -2  132.02    3.52
   2  -1   2  133.67    3.51
   2  -1   2  133.72    3.53
  -3   1  -2   52.42    1.40
  -3   1  -2   52.31    1.41
   3  -1   2   50.78    1.43
   3  -1   2   52.66    1.42
  -4   1  -2  216.43    5.73
   4  -1   2  219.40    5.79
   4  -1   2  225.96    5.77
   5  -1   2   34.02    0.95
   5  -1   2   32.48    0.97
   6  -1   2    7.06    0.30
   6  -1   2    6.92    0.33
   7  -1   2    4.62    0.28
   8  -1   2   -0.05    0.10
   9   0  -2    0.10    0.08
   8   0  -2    4.28    0.22
   7   0  -2    5.56    0.24
   6   0  -2    4.44    0.19
   6   0  -2    4.28    0.19
   5   0  -2   64.58    1.77
   5   0  -2   68.14    1.78
   4   0  -2   93.04    2.39
   4   0  -2   87.47    2.38
   3   0  -2   16.90    0.49
   3   0  -2   16.71    0.49
   2   0  -2   39.88    1.09
   2   0  -2   40.98    1.09
  -2   0   2   40.52    1.08
  -2   0   2   38.91    1.07
   1   0  -2   46.50    1.30
   1   0  -2   48.50    1.30
  -1   0   2   48.13    1.30
  -1   0   2   49.46    1.30
   0   0  -2  209.00    5.29
   0   0  -2  198.82    5.29
   0   0   2  196.44    5.29
   0   0   2  207.39    5.29
  -1   0  -2   99.41    2.59
  -1   0  -2   98.04    2.58
   1   0   2   99.59    2.59
   1   0   2   95.57    2.59
  -2   0  -2   15.82    0.45
  -2   0  -2   15.86    0.46
   2   0   2   15.25    0.46
   2   0   2   15.76    0.46
  -3   0  -2    0.22    0.03
  -3   0  -2    0.07    0.03
   3   0   2    0.14    0.04
   3   0   2    0.21    0.05
   4   0   2    0.31    0.06
   4   0   2    0.54    0.06
   5   0   2    4.64    0.22
   5   0   2    5.38    0.20
   6   0   2   95.87    2.62
   6   0   2   99.97    2.61
   7   0   2    7.38    0.31
   8   0   2    0.04    0.09
   9   0   2   11.94    0.45
   9  -1  -2    0.64    0.13
   8  -1  -2    4.66    0.25
   7  -1  -2    3.83    0.23
   6  -1  -2    3.06    0.17
   6  -1  -2    2.56    0.18
   5  -1  -2   52.07    1.48
   5  -1  -2   56.43    1.49
   4  -1  -2  265.39    6.77
   4  -1  -2  254.26    6.78
   3  -1  -2   15.98    0.48
   3  -1  -2   15.82    0.47
  -3   1   2   15.45    0.46
  -3   1   2   15.30    0.45
   2  -1  -2   42.71    1.13
   2  -1  -2   41.31    1.13
  -2   1   2   41.40    1.13
  -2   1   2   40.34    1.13
   1  -1  -2   30.87    0.85
   1  -1  -2   29.91    0.85
  -1   1   2   30.51    0.84
  -1   1   2   30.60    0.85
   0  -1  -2  301.40    7.71
   0  -1  -2  289.90    7.72
   0   1   2  294.32    7.72
   0   1   2  302.77    7.71
  -1  -1  -2  440.59   11.35
  -1  -1  -2  430.83   11.38
   1   1   2  428.80   11.27
   1   1   2  437.46   11.26
  -2  -1  -2  105.72    2.71
  -2  -1  -2  102.00    2.70
   2   1   2  104.52    2.72
   2   1   2  100.63    2.71
   3   1   2    2.31    0.11
   3   1   2    2.10    0.11
   4   1   2    8.12    0.27
   4   1   2    8.63    0.27
   5   1   2   19.11    0.54
   5   1   2   18.41    0.54
   6   1   2   14.15    0.45
   6   1   2   14.80    0.44
   7   1   2    4.36    0.21
   8   1   2    7.28    0.29
   9   1   2   15.30    0.51
   9  -2  -2   15.03    0.57
   8  -2  -2   17.33    0.62
   7  -2  -2    8.71    0.38
   6  -2  -2    0.10    0.09
   6  -2  -2    0.14    0.07
   5  -2  -2    5.38    0.26
   5  -2  -2    5.35    0.24
   4  -2  -2   49.28    1.39
   4  -2  -2   50.96    1.38
  -4   2   2   49.06    1.35
  -4   2   2   48.85    1.34
   3  -2  -2   14.32    0.44
   3  -2  -2   13.11    0.45
  -3   2   2   13.27    0.43
  -3   2   2   13.56    0.43
   2  -2  -2  173.48    4.40
   2  -2  -2  165.88    4.41
  -2   2   2  165.63    4.40
  -2   2   2  164.69    4.39
   1  -2  -2   91.87    2.47
   1  -2  -2   94.69    2.47
  -1   2   2   92.97    2.48
  -1   2   2   91.68    2.46
   0  -2  -2  645.54   15.66
   0  -2  -2  563.15   15.53
   0   2   2  579.18   15.53
   0   2   2  609.63   15.56
  -1  -2  -2  538.60   13.63
  -1  -2  -2  501.30   13.62
   1   2   2  527.06   13.62
   1   2   2  528.58   13.58
  -2  -2  -2  246.17    6.47
  -2  -2  -2  245.16    6.48
   2   2   2  257.46    6.49
   2   2   2  247.47    6.48
  -3  -2  -2   65.27    1.75
   3   2   2   66.91    1.78
   3   2   2   68.95    1.80
   4   2   2   99.19    2.54
   4   2   2   92.64    2.52
   5   2   2    0.57    0.06
   5   2   2    0.65    0.07
   6   2   2    6.22    0.23
   6   2   2    6.12    0.23
   7   2   2   16.73    0.52
   7   2   2   18.81    0.54
   8   2   2    5.15    0.23
   9  -3  -2    0.00    0.13
   8  -3  -2    1.06    0.18
   7  -3  -2   27.71    0.91
   6  -3  -2   16.13    0.59
   5  -3  -2    3.21    0.21
   5  -3  -2    3.22    0.24
  -5   3   2    3.11    0.17
  -5   3   2    3.29    0.18
   4  -3  -2   28.30    0.82
   4  -3  -2   25.40    0.83
  -4   3   2   26.73    0.79
   3  -3  -2   14.06    0.50
   3  -3  -2   15.71    0.49
  -3   3   2   14.78    0.48
  -3   3   2   14.41    0.49
   2  -3  -2    1.64    0.15
   2  -3  -2    1.87    0.13
  -2   3   2    1.64    0.14
  -2   3   2    1.98    0.14
   1  -3  -2   97.84    2.67
   1  -3  -2  100.53    2.66
  -1   3   2   98.97    2.65
  -1   3   2   99.62    2.67
   0  -3  -2    1.60    0.14
   0  -3  -2    1.63    0.12
   0   3   2    1.42    0.13
   0   3   2    1.88    0.14
  -1  -3  -2   85.15    2.25
  -1  -3  -2   81.74    2.26
   1   3   2   82.53    2.25
   1   3   2   86.84    2.27
  -2  -3  -2   45.42    1.26
  -2  -3  -2   45.37    1.27
   2   3   2   47.85    1.29
   2   3   2   45.96    1.27
  -3  -3  -2   25.06    0.69
  -3  -3  -2   25.59    0.71
   3   3   2   24.10    0.72
   3   3   2   25.22    0.73
   4   3   2  361.19    9.32
   4   3   2  355.41    9.30
   5   3   2   28.79    0.81
   5   3   2   27.64    0.80
   6   3   2    3.09    0.16
   6   3   2    3.04    0.17
   7   3   2   16.85    0.51
   9  -4  -2    0.01    0.15
   8  -4  -2    0.24    0.15
   7  -4  -2    1.57    0.21
   5  -4  -2   15.16    0.58
  -5   4   2   14.50    0.51
   4  -4  -2   41.60    1.25
  -4   4   2   41.67    1.21
   3  -4  -2    0.07    0.07
   3  -4  -2   -0.01    0.09
  -3   4   2    0.12    0.09
   2  -4  -2    2.17    0.16
   2  -4  -2    2.10    0.19
  -2   4   2    1.89    0.18
   1  -4  -2    1.80    0.14
   1  -4  -2    1.39    0.15
  -1   4   2    1.50    0.15
   0  -4  -2    2.14    0.18
   0  -4  -2    2.36    0.15
   0   4   2    2.13    0.18
   0   4   2    2.51    0.17
  -1  -4  -2   42.52    1.19
  -1  -4  -2   42.42    1.21
   1   4   2   40.72    1.19
   1   4   2   42.22    1.21
  -2  -4  -2   77.12    2.11
  -2  -4  -2   78.33    2.10
   2   4   2   77.03    2.11
   2   4   2   78.47    2.13
  -3  -4  -2    0.98    0.10
  -3  -4  -2    0.93    0.09
   3   4   2    0.79    0.10
   3   4   2    1.24    0.12
  -4  -4  -2   21.80    0.62
   4   4   2   23.49    0.70
   4   4   2   22.91    0.68
   5   4   2   38.24    1.08
   5   4   2   36.47    1.05
   6   4   2   34.70    1.00
   6   4   2   34.61    0.99
   7   4   2   24.68    0.73
   8   4   2    0.78    0.11
   8  -5  -2    0.12    0.16
   7  -5  -2    9.43    0.51
   6  -5  -2    0.07    0.15
   5  -5  -2    4.72    0.34
   4  -5  -2   47.38    1.46
  -4   5   2   49.58    1.42
   3  -5  -2    4.53    0.31
  -3   5   2    4.54    0.29
   2  -5  -2    2.76    0.25
  -2   5   2    2.47    0.23
   1  -5  -2   82.59    2.31
  -1   5   2   82.99    2.28
   0  -5  -2   29.72    0.92
   0   5   2   29.19    0.90
  -1  -5  -2   25.86    0.81
   1   5   2   25.30    0.80
  -2  -5  -2   46.02    1.34
   2   5   2   44.93    1.32
   2   5   2   48.53    1.36
  -3  -5  -2    2.68    0.18
   3   5   2    2.39    0.19
   3   5   2    2.38    0.20
  -4  -5  -2    1.02    0.10
  -4  -5  -2    1.15    0.11
   4   5   2    1.01    0.13
   4   5   2    1.31    0.14
   5   5   2    7.22    0.32
   5   5   2    7.28    0.33
   6   5   2    0.08    0.09
   7   5   2   25.86    0.79
   8   5   2    4.23    0.25
   8  -6  -2    0.41    0.20
   7  -6  -2   11.65    0.60
   6  -6  -2    0.49    0.19
   5  -6  -2    4.92    0.39
  -5   6   2    4.41    0.33
   4  -6  -2   29.27    1.01
  -4   6   2   29.32    0.96
   3  -6  -2    3.11    0.31
  -3   6   2    3.04    0.27
   2  -6  -2   29.72    1.00
  -2   6   2   30.61    0.97
   1  -6  -2   52.29    1.55
  -1   6   2   51.43    1.52
   0  -6  -2   13.68    0.54
   0   6   2   12.85    0.52
  -1  -6  -2   49.56    1.47
   1   6   2   50.17    1.46
  -2  -6  -2   97.37    2.67
   2   6   2   96.05    2.65
  -3  -6  -2    4.83    0.26
   3   6   2    4.28    0.28
  -4  -6  -2    1.61    0.16
   4   6   2    1.43    0.16
   4   6   2    1.73    0.18
   5   6   2    8.20    0.37
   6   6   2    0.13    0.11
   7   6   2   11.55    0.46
   8   6   2    0.04    0.12
   9   6   2    0.43    0.13
   7  -7  -2    1.39    0.27
   6  -7  -2    3.27    0.34
   5  -7  -2    4.40    0.41
  -5   7   2    3.60    0.35
   4  -7  -2    8.49    0.51
  -4   7   2    8.91    0.48
   3  -7  -2   -0.03    0.15
  -3   7   2   -0.21    0.14
   2  -7  -2    5.71    0.39
  -2   7   2    5.61    0.38
   1  -7  -2   43.78    1.37
  -1   7   2   42.83    1.34
   0  -7  -2   32.86    1.06
   0   7   2   31.07    1.04
  -1  -7  -2    1.39    0.19
   1   7   2    1.23    0.19
  -2  -7  -2   49.84    1.49
   2   7   2   49.80    1.49
  -3  -7  -2    2.77    0.24
   3   7   2    2.41    0.23
  -4  -7  -2    4.30    0.26
   4   7   2    4.32    0.32
   5   7   2   14.94    0.58
   6   7   2    0.12    0.13
   7   7   2    7.30    0.39
   8   7   2    2.38    0.24
   9   7   2    0.18    0.15
   6  -8  -2    3.02    0.37
   5  -8  -2    0.42    0.21
   4  -8  -2    4.86    0.45
  -4   8   2    6.04    0.44
   3  -8  -2    4.57    0.41
  -3   8   2    3.92    0.35
   2  -8  -2   -0.08    0.15
  -2   8   2   -0.05    0.16
   1  -8  -2    4.34    0.37
  -1   8   2    3.59    0.36
   0  -8  -2    4.32    0.36
   0   8   2    4.30    0.37
  -1  -8  -2    1.85    0.24
   1   8   2    1.45    0.23
  -2  -8  -2   27.97    0.96
   2   8   2   27.85    0.96
  -3  -8  -2   -0.02    0.10
   3   8   2    0.01    0.15
  -4  -8  -2    0.21    0.11
   4   8   2    0.36    0.17
   5   8   2   16.00    0.65
   6   8   2    0.34    0.16
   7   8   2    3.06    0.28
   8   8   2    2.20    0.26
   5  -9  -2    4.38    0.46
   4  -9  -2    3.66    0.40
  -4   9   2    3.88    0.38
   3  -9  -2    1.72    0.29
  -3   9   2    2.22    0.31
   2  -9  -2    0.01    0.18
  -2   9   2    0.11    0.19
   1  -9  -2    9.97    0.57
  -1   9   2   10.67    0.58
   0  -9  -2    1.04    0.21
   0   9   2    0.94    0.22
  -1  -9  -2    1.03    0.21
   1   9   2    0.86    0.22
  -2  -9  -2    3.43    0.35
   2   9   2    3.69    0.35
  -3  -9  -2    1.33    0.22
   3   9   2    1.14    0.24
   4   9   2    0.27    0.19
   5   9   2   15.71    0.69
   6   9   2    0.99    0.23
   7   9   2    1.01    0.22
   3 -10  -2    6.55    0.55
  -3  10   2    5.92    0.53
   2 -10  -2    1.05    0.26
  -2  10   2    1.30    0.28
   1 -10  -2    3.26    0.36
  -1  10   2    3.76    0.38
   0 -10  -2    4.74    0.45
   0  10   2    4.51    0.41
  -1 -10  -2    1.41    0.25
   1  10   2    1.60    0.28
  -2 -10  -2    2.38    0.30
   2  10   2    1.82    0.30
   3  10   2   -0.24    0.19
   4  10   2    0.90    0.25
   5  10   2    4.97    0.46
   6  10   2    2.58    0.32
  -1  11   2    5.68    0.53
   0 -11  -2    4.14    0.44
   0  11   2    2.77    0.37
  -1 -11  -2    0.13    0.20
   1  11   2    0.09    0.24
  -2 -11  -2    2.23    0.32
   2  11   2    2.47    0.35
   3  11   2    3.31    0.37
   4  11   2    1.09    0.30
   4  10  -3    2.17    0.31
   3  10  -3   23.70    0.97
   2  10  -3    2.50    0.34
  -2 -10   3    2.59    0.32
   1  10  -3    0.87    0.26
  -1 -10   3    1.11    0.27
   0  10  -3    8.69    0.58
   0 -10   3    8.79    0.60
  -1  10  -3   -0.35    0.17
   1 -10   3   -0.05    0.18
  -2  10  -3   -0.24    0.18
   2 -10   3   -0.35    0.18
   6   9  -3    1.46    0.25
   5   9  -3    3.34    0.34
   4   9  -3    0.36    0.19
   3   9  -3    3.36    0.34
   2   9  -3   10.61    0.58
  -2  -9   3   10.14    0.57
   1   9  -3    5.43    0.46
  -1  -9   3    5.23    0.45
   0   9  -3   10.88    0.60
   0  -9   3   10.83    0.62
  -1   9  -3    0.68    0.23
   1  -9   3    0.47    0.22
  -2   9  -3    1.66    0.27
   2  -9   3    1.63    0.29
  -3   9  -3    1.67    0.28
   3  -9   3    1.62    0.31
  -4   9  -3   -0.10    0.18
   4  -9   3    0.21    0.23
   7   8  -3    0.38    0.18
   6   8  -3    2.20    0.26
   5   8  -3    2.36    0.27
   4   8  -3   -0.13    0.15
   3   8  -3    8.11    0.47
  -3  -8   3    7.36    0.43
   2   8  -3    3.93    0.36
  -2  -8   3    3.70    0.33
   1   8  -3    7.63    0.46
  -1  -8   3    7.56    0.47
   0   8  -3    8.66    0.51
   0  -8   3    8.99    0.52
  -1   8  -3    4.20    0.37
   1  -8   3    4.47    0.43
  -2   8  -3    1.62    0.26
   2  -8   3    1.25    0.26
  -3   8  -3   15.20    0.69
   3  -8   3   14.88    0.76
  -4   8  -3    3.25    0.33
   4  -8   3    3.48    0.39
   5  -8   3   -0.08    0.20
   8   7  -3    3.63    0.33
   7   7  -3    2.88    0.26
   6   7  -3    2.24    0.24
   5   7  -3    7.23    0.41
   4   7  -3    0.04    0.13
  -4  -7   3    0.06    0.09
   3   7  -3    0.51    0.16
  -3  -7   3    0.55    0.14
   2   7  -3   28.80    0.98
  -2  -7   3   29.10    0.99
   1   7  -3    2.78    0.27
  -1  -7   3    2.80    0.28
   0   7  -3   -0.04    0.13
   0  -7   3    0.04    0.14
  -1   7  -3    4.51    0.35
   1  -7   3    3.94    0.37
  -2   7  -3    0.39    0.17
   2  -7   3    0.45    0.19
  -3   7  -3   20.34    0.78
   3  -7   3   19.63    0.83
  -4   7  -3   16.31    0.68
   4  -7   3   16.38    0.76
   5  -7   3    9.15    0.58
   6  -7   3    5.41    0.49
   8   6  -3    5.06    0.34
   7   6  -3    1.03    0.17
   6   6  -3    3.22    0.28
   5   6  -3   21.35    0.74
   4   6  -3    5.64    0.34
  -4  -6   3    6.28    0.30
   3   6  -3    1.77    0.20
  -3  -6   3    1.77    0.19
   2   6  -3   22.17    0.77
  -2  -6   3   22.36    0.78
   1   6  -3    0.14    0.12
  -1  -6   3    0.16    0.12
   0   6  -3   15.36    0.60
   0  -6   3   14.72    0.62
  -1   6  -3  115.93    3.19
   1  -6   3  114.41    3.22
  -2   6  -3    6.74    0.39
   2  -6   3    7.08    0.43
  -3   6  -3   17.10    0.66
   3  -6   3   18.30    0.73
  -4   6  -3   30.70    1.01
   4  -6   3   30.20    1.08
  -5   6  -3    0.66    0.17
   5  -6   3    0.50    0.20
   6  -6   3   19.08    0.83
   7  -6   3    9.30    0.58
   8   5  -3   -0.16    0.11
   7   5  -3    0.16    0.10
   6   5  -3    0.07    0.10
   5   5  -3    2.98    0.24
   4   5  -3   45.52    1.33
   4   5  -3   44.11    1.30
  -4  -5   3   43.69    1.26
   3   5  -3   33.67    1.04
  -3  -5   3   34.73    1.04
   2   5  -3   25.94    0.84
  -2  -5   3   26.46    0.85
   1   5  -3    1.40    0.17
  -1  -5   3    1.61    0.19
   0   5  -3    3.76    0.27
   0  -5   3    4.05    0.29
  -1   5  -3   68.87    1.96
   1  -5   3   68.81    1.99
  -2   5  -3   11.58    0.48
   2  -5   3   11.50    0.52
  -3   5  -3   39.65    1.20
   3  -5   3   38.82    1.25
  -4   5  -3   25.13    0.84
   4  -5   3   25.06    0.90
  -5   5  -3    0.69    0.16
   5  -5   3    0.44    0.18
   6  -5   3   14.99    0.67
   7  -5   3    2.72    0.31
   8  -5   3    5.19    0.46
   8   4  -3   12.68    0.46
   7   4  -3    2.63    0.20
   6   4  -3   20.32    0.66
   5   4  -3   -0.10    0.09
   5   4  -3    0.01    0.09
   4   4  -3   12.77    0.47
   4   4  -3   12.01    0.45
  -4  -4   3   12.28    0.40
  -4  -4   3   11.83    0.40
   3   4  -3   21.18    0.69
   3   4  -3   22.67    0.72
  -3  -4   3   22.23    0.69
   2   4  -3  178.00    4.68
   2   4  -3  173.69    4.66
  -2  -4   3  174.52    4.66
   1   4  -3   54.30    1.51
   1   4  -3   50.21    1.48
  -1  -4   3   51.89    1.50
   0   4  -3    7.68    0.34
  -1   4  -3   29.09    0.90
  -2   4  -3   15.22    0.55
   2  -4   3   15.66    0.59
  -3   4  -3   33.09    1.00
   3  -4   3   32.64    1.05
  -4   4  -3   36.83    1.11
  -5   4  -3    2.85    0.24
   7  -4   3    4.28    0.36
   8  -4   3    0.98    0.21
   9  -4   3    1.35    0.27
   8   3  -3    1.72    0.15
   7   3  -3   30.07    0.89
   6   3  -3   17.22    0.56
   5   3  -3   46.85    1.30
   5   3  -3   44.91    1.29
   4   3  -3    5.78    0.26
   4   3  -3    6.35    0.28
   3   3  -3    0.54    0.09
   3   3  -3    0.58    0.10
  -3  -3   3    0.80    0.10
  -3  -3   3    0.68    0.09
   2   3  -3  139.35    3.83
   2   3  -3  149.23    3.85
  -2  -3   3  143.49    3.83
  -2  -3   3  144.54    3.83
   1   3  -3   75.29    2.11
   1   3  -3   79.24    2.13
  -1  -3   3   75.92    2.12
  -1  -3   3   78.28    2.11
   0   3  -3   89.75    2.42
   0   3  -3   88.00    2.40
   0  -3   3   88.46    2.40
   0  -3   3   88.58    2.43
  -1   3  -3  249.03    6.32
  -1   3  -3  236.00    6.29
   1  -3   3  244.04    6.29
   1  -3   3  227.22    6.31
  -2   3  -3    2.12    0.17
   2  -3   3    2.17    0.20
   2  -3   3    2.21    0.17
  -3   3  -3   18.09    0.60
   3  -3   3   17.57    0.64
   3  -3   3   19.10    0.61
  -4   3  -3   57.51    1.63
   4  -3   3   61.63    1.68
   4  -3   3   56.07    1.69
  -5   3  -3    1.74    0.16
   5  -3   3    1.39    0.18
   6  -3   3    0.04    0.12
   9  -3   3    4.65    0.38
   8   2  -3    0.23    0.08
   7   2  -3   12.27    0.43
   6   2  -3    3.75    0.20
   6   2  -3    4.11    0.21
   5   2  -3  147.39    4.03
   5   2  -3  157.81    4.04
   4   2  -3  165.22    4.20
   4   2  -3  152.37    4.19
   3   2  -3    2.09    0.14
   3   2  -3    1.72    0.14
  -3  -2   3    1.99    0.12
  -3  -2   3    1.84    0.12
   2   2  -3   38.11    1.07
   2   2  -3   36.94    1.07
  -2  -2   3   37.96    1.07
  -2  -2   3   37.46    1.06
   1   2  -3    0.32    0.07
   1   2  -3    0.34    0.07
  -1  -2   3    0.51    0.08
  -1  -2   3    0.45    0.07
   0   2  -3   25.51    0.76
   0   2  -3   25.61    0.75
   0  -2   3   24.99    0.75
   0  -2   3   24.87    0.76
  -1   2  -3  291.84    7.85
  -1   2  -3  310.35    7.87
   1  -2   3  294.21    7.87
   1  -2   3  305.63    7.85
  -2   2  -3  139.53    3.71
  -2   2  -3  141.05    3.73
   2  -2   3  142.79    3.72
   2  -2   3  136.54    3.74
  -3   2  -3    9.13    0.36
  -3   2  -3    9.31    0.34
   3  -2   3    9.80    0.36
   3  -2   3    9.53    0.38
  -4   2  -3   21.24    0.65
   4  -2   3   20.98    0.71
   4  -2   3   22.19    0.68
  -5   2  -3    2.94    0.16
   5  -2   3    2.42    0.23
   5  -2   3    3.03    0.20
   6  -2   3   18.19    0.66
   7  -2   3   22.24    0.78
   8  -2   3    0.03    0.13
   8   1  -3    0.11    0.08
   7   1  -3    7.20    0.29
   6   1  -3    0.48    0.08
   6   1  -3    0.53    0.09
   5   1  -3   48.35    1.33
   5   1  -3   46.65    1.31
   4   1  -3  136.76    3.55
   4   1  -3  131.03    3.54
   3   1  -3   18.86    0.58
   3   1  -3   17.73    0.57
  -3  -1   3   18.06    0.54
  -3  -1   3   21.27    0.55
   2   1  -3   64.12    1.73
   2   1  -3   63.97    1.73
  -2  -1   3   62.95    1.72
  -2  -1   3   62.88    1.72
   1   1  -3   61.22    1.66
   1   1  -3   58.93    1.65
  -1  -1   3   61.83    1.66
  -1  -1   3   60.56    1.65
   0   1  -3   13.01    0.43
   0   1  -3   13.33    0.43
   0  -1   3   12.54    0.43
   0  -1   3   13.40    0.43
  -1   1  -3  140.94    3.78
  -1   1  -3  146.04    3.80
   1  -1   3  144.71    3.79
   1  -1   3  141.71    3.80
  -2   1  -3  105.92    2.84
  -2   1  -3  107.84    2.86
   2  -1   3  106.89    2.87
   2  -1   3  107.42    2.85
  -3   1  -3   31.33    0.90
  -3   1  -3   30.91    0.88
   3  -1   3   31.37    0.90
   3  -1   3   30.13    0.92
  -4   1  -3   73.64    1.96
  -4   1  -3   71.63    1.97
   4  -1   3   75.33    1.99
   4  -1   3   71.88    2.01
   5  -1   3    4.42    0.25
   5  -1   3    5.04    0.23
   6  -1   3    0.21    0.11
   6  -1   3    0.31    0.09
   7  -1   3   44.05    1.31
   8  -1   3   11.95    0.50
   9  -1   3    9.37    0.45
   9   0  -3    3.72    0.24
   8   0  -3    0.34    0.10
   7   0  -3   39.99    1.14
   6   0  -3    2.41    0.17
   6   0  -3    2.41    0.17
   5   0  -3    2.02    0.15
   5   0  -3    1.95    0.15
   4   0  -3   26.67    0.76
   4   0  -3   24.76    0.75
   3   0  -3   49.12    1.32
   3   0  -3   46.94    1.32
  -3   0   3   46.94    1.29
  -3   0   3   48.25    1.29
   2   0  -3   72.32    1.93
   2   0  -3   69.28    1.92
  -2   0   3   71.78    1.92
  -2   0   3   72.09    1.92
   1   0  -3   11.27    0.38
   1   0  -3   11.71    0.38
  -1   0   3   11.68    0.38
  -1   0   3   11.62    0.38
   0   0  -3  212.82    5.37
   0   0  -3  198.16    5.37
   0   0   3  208.87    5.37
   0   0   3  199.57    5.37
  -1   0  -3   13.27    0.43
  -1   0  -3   13.64    0.43
   1   0   3   13.77    0.43
   1   0   3   13.43    0.44
  -2   0  -3  107.34    2.86
  -2   0  -3  108.62    2.87
   2   0   3  105.79    2.88
   2   0   3  109.98    2.87
  -3   0  -3   15.75    0.49
  -3   0  -3   16.31    0.48
   3   0   3   15.84    0.51
   3   0   3   16.72    0.50
  -4   0  -3   28.24    0.87
  -4   0  -3   33.33    0.88
   4   0   3   33.84    0.92
   4   0   3   33.38    0.94
   5   0   3    7.06    0.27
   5   0   3    6.75    0.30
   6   0   3   12.25    0.42
   6   0   3   12.02    0.45
   7   0   3   71.97    2.00
   8   0   3    5.65    0.31
   9   0   3    2.59    0.26
   9  -1  -3    1.08    0.16
   8  -1  -3    0.07    0.09
   7  -1  -3   25.52    0.79
   6  -1  -3   12.24    0.43
   6  -1  -3   11.94    0.44
   5  -1  -3   21.48    0.65
   5  -1  -3   20.70    0.65
   4  -1  -3   19.11    0.61
   4  -1  -3   20.69    0.61
  -4   1   3   19.29    0.56
   3  -1  -3    0.04    0.05
   3  -1  -3    0.05    0.06
  -3   1   3    0.13    0.05
  -3   1   3    0.12    0.05
   2  -1  -3   28.70    0.81
   2  -1  -3   27.57    0.81
  -2   1   3   27.78    0.80
  -2   1   3   27.52    0.80
   1  -1  -3  206.42    5.25
   1  -1  -3  190.67    5.24
  -1   1   3  204.86    5.25
  -1   1   3  198.32    5.24
   0  -1  -3  154.67    4.02
   0  -1  -3  148.31    4.02
   0   1   3  149.59    4.02
   0   1   3  158.10    4.03
  -1  -1  -3   29.40    0.86
  -1  -1  -3   30.78    0.85
   1   1   3   29.20    0.85
   1   1   3   29.87    0.86
  -2  -1  -3    0.39    0.05
  -2  -1  -3    0.29    0.06
   2   1   3    0.41    0.07
   2   1   3    0.55    0.07
  -3  -1  -3    7.52    0.25
  -3  -1  -3    7.95    0.26
   3   1   3    7.76    0.28
   3   1   3    7.74    0.28
   4   1   3  111.73    2.89
   4   1   3  105.65    2.89
   5   1   3   48.85    1.38
   5   1   3   51.16    1.38
   6   1   3    3.24    0.19
   6   1   3    3.26    0.21
   7   1   3   52.75    1.48
   8   1   3    2.30    0.21
   9   1   3    0.83    0.14
   9  -2  -3    6.44    0.38
   8  -2  -3    0.00    0.11
   7  -2  -3    8.13    0.37
   6  -2  -3   17.72    0.61
   5  -2  -3    0.93    0.13
   5  -2  -3    1.03    0.12
   4  -2  -3   14.03    0.46
   4  -2  -3   13.74    0.48
  -4   2   3   12.92    0.43
  -4   2   3   13.46    0.44
   3  -2  -3    2.50    0.16
   3  -2  -3    2.34    0.18
  -3   2   3    2.41    0.15
  -3   2   3    2.47    0.16
   2  -2  -3    4.98    0.22
   2  -2  -3    5.02    0.23
  -2   2   3    4.89    0.22
  -2   2   3    4.74    0.22
   1  -2  -3   75.48    2.02
   1  -2  -3   75.70    2.03
  -1   2   3   73.65    2.02
  -1   2   3   74.61    2.03
   0  -2  -3  226.99    6.05
   0  -2  -3  235.23    6.04
   0   2   3  231.36    6.05
   0   2   3  229.04    6.03
  -1  -2  -3  169.10    4.42
  -1  -2  -3  169.68    4.41
   1   2   3  169.47    4.43
   1   2   3  162.87    4.41
  -2  -2  -3  302.76    7.99
  -2  -2  -3  312.28    7.97
   2   2   3  299.87    7.98
   2   2   3  311.09    8.00
  -3  -2  -3    0.39    0.07
  -3  -2  -3    0.39    0.05
   3   2   3    0.59    0.08
   3   2   3    0.55    0.08
   4   2   3   12.38    0.41
   4   2   3   11.79    0.39
   5   2   3   58.50    1.61
   5   2   3   60.12    1.63
   6   2   3   22.18    0.67
   6   2   3   21.51    0.66
   7   2   3   28.17    0.83
   8   2   3    8.58    0.35
   9   2   3    0.27    0.11
   9  -3  -3    1.84    0.23
   8  -3  -3    0.37    0.14
   7  -3  -3    4.28    0.30
   6  -3  -3    6.50    0.34
   5  -3  -3    1.45    0.15
   5  -3  -3    1.17    0.15
  -5   3   3    1.45    0.14
   4  -3  -3   52.10    1.51
   4  -3  -3   54.64    1.51
  -4   3   3   52.39    1.48
   3  -3  -3   16.85    0.55
   3  -3  -3   16.62    0.57
  -3   3   3   16.24    0.54
   2  -3  -3   27.48    0.83
   2  -3  -3   27.96    0.85
  -2   3   3   26.49    0.82
  -2   3   3   29.24    0.86
   1  -3  -3  110.14    2.93
   1  -3  -3  107.11    2.94
  -1   3   3  109.52    2.93
  -1   3   3  110.14    2.94
   0  -3  -3    0.71    0.09
   0  -3  -3    0.80    0.10
   0   3   3    0.60    0.09
   0   3   3    0.93    0.11
  -1  -3  -3  161.69    4.27
  -1  -3  -3  159.01    4.25
   1   3   3  164.59    4.28
   1   3   3  159.97    4.26
  -2  -3  -3  184.51    4.80
  -2  -3  -3  181.39    4.82
   2   3   3  183.61    4.83
   2   3   3  181.73    4.81
  -3  -3  -3   14.79    0.47
  -3  -3  -3   14.08    0.44
   3   3   3   15.08    0.49
   3   3   3   14.04    0.47
   4   3   3   45.06    1.27
   4   3   3   46.25    1.29
   5   3   3   46.03    1.27
   5   3   3   43.40    1.24
   6   3   3    7.05    0.29
   6   3   3    7.08    0.29
   7   3   3   16.83    0.54
   8   3   3    6.79    0.30
   9   3   3    0.37    0.11
   9  -4  -3    3.94    0.37
   8  -4  -3    0.39    0.16
   7  -4  -3    0.94    0.18
   6  -4  -3   14.75    0.60
   5  -4  -3    0.13    0.12
   4  -4  -3   17.22    0.63
  -4   4   3   17.34    0.59
   3  -4  -3   21.67    0.73
  -3   4   3   21.59    0.70
   2  -4  -3   14.88    0.54
  -2   4   3   14.98    0.52
   1  -4  -3   76.99    2.14
  -1   4   3   77.27    2.12
   0  -4  -3   68.03    1.89
   0   4   3   65.41    1.86
   0   4   3   69.26    1.90
  -1  -4  -3   80.77    2.25
   1   4   3   85.40    2.27
   1   4   3   80.26    2.24
  -2  -4  -3   99.47    2.72
  -2  -4  -3  101.56    2.71
   2   4   3   98.53    2.71
   2   4   3  102.88    2.74
  -3  -4  -3    0.18    0.07
  -3  -4  -3    0.09    0.05
   3   4   3    0.03    0.08
   3   4   3    0.06    0.06
  -4  -4  -3   11.92    0.38
  -4  -4  -3   12.36    0.40
   4   4   3   12.08    0.43
   4   4   3   12.81    0.45
   5   4   3   36.31    1.06
   5   4   3   37.42    1.08
   6   4   3    3.53    0.22
   7   4   3    6.39    0.29
   8   4   3    9.00    0.36
   9   4   3    0.07    0.10
   8  -5  -3    0.57    0.19
   7  -5  -3    0.54    0.18
   6  -5  -3   37.44    1.22
   5  -5  -3    0.74    0.18
  -5   5   3    0.74    0.15
   4  -5  -3   15.56    0.63
  -4   5   3   16.10    0.59
   3  -5  -3   22.33    0.79
  -3   5   3   22.96    0.76
   2  -5  -3   15.61    0.58
  -2   5   3   15.07    0.56
   1  -5  -3  141.74    3.83
  -1   5   3  141.54    3.81
   0  -5  -3   19.43    0.67
   0   5   3   18.80    0.65
  -1  -5  -3    9.11    0.38
   1   5   3    7.95    0.37
  -2  -5  -3   24.20    0.77
   2   5   3   24.58    0.80
   2   5   3   23.96    0.77
  -3  -5  -3    1.85    0.17
   3   5   3    1.65    0.17
   3   5   3    1.71    0.16
  -4  -5  -3   37.99    1.11
   4   5   3   38.58    1.15
   4   5   3   38.95    1.13
   5   5   3   21.63    0.71
   5   5   3   21.77    0.70
   6   5   3    0.03    0.10
   7   5   3    1.06    0.14
   8   5   3   11.70    0.45
   9   5   3    0.07    0.11
   7  -6  -3    1.11    0.23
   6  -6  -3   16.82    0.73
   5  -6  -3    0.15    0.16
  -5   6   3   -0.06    0.13
   4  -6  -3    7.86    0.46
  -4   6   3    7.97    0.43
   3  -6  -3   39.98    1.30
  -3   6   3   42.48    1.28
   2  -6  -3    7.14    0.40
  -2   6   3    7.36    0.40
   1  -6  -3   55.95    1.67
  -1   6   3   56.72    1.64
   0  -6  -3   44.58    1.34
   0   6   3   43.66    1.32
  -1  -6  -3    7.17    0.37
   1   6   3    7.01    0.37
  -2  -6  -3   15.20    0.57
   2   6   3   15.31    0.57
  -3  -6  -3    0.16    0.09
   3   6   3    0.03    0.11
  -4  -6  -3    5.65    0.29
   4   6   3    5.84    0.33
   5   6   3   30.02    0.94
   6   6   3    6.17    0.34
   7   6   3    0.02    0.12
   8   6   3    6.71    0.36
   9   6   3    0.03    0.12
   7  -7  -3    0.39    0.21
   6  -7  -3    3.06    0.34
   5  -7  -3    2.46    0.30
   4  -7  -3    1.18    0.23
  -4   7   3    1.42    0.22
   3  -7  -3    3.46    0.33
  -3   7   3    3.53    0.31
   2  -7  -3    0.67    0.18
  -2   7   3    0.76    0.19
   1  -7  -3   32.16    1.09
  -1   7   3   33.09    1.07
   0  -7  -3   17.96    0.69
   0   7   3   17.27    0.68
  -1  -7  -3    4.04    0.31
   1   7   3    3.61    0.32
  -2  -7  -3   12.56    0.52
   2   7   3   12.02    0.53
  -3  -7  -3    0.45    0.12
   3   7   3    0.56    0.16
  -4  -7  -3    2.32    0.21
   4   7   3    2.09    0.23
   5   7   3   19.87    0.72
   6   7   3    3.72    0.33
   7   7   3    1.08    0.19
   8   7   3    9.26    0.46
   9   7   3   -0.21    0.14
   6  -8  -3    2.57    0.35
   5  -8  -3    0.92    0.25
   4  -8  -3    0.45    0.20
  -4   8   3    0.61    0.21
   3  -8  -3    4.96    0.42
  -3   8   3    4.98    0.43
   2  -8  -3    2.11    0.27
  -2   8   3    1.69    0.26
   1  -8  -3   -0.09    0.14
  -1   8   3   -0.01    0.16
   0  -8  -3    3.92    0.36
   0   8   3    3.97    0.37
  -1  -8  -3    1.41    0.22
   1   8   3    1.20    0.22
  -2  -8  -3    8.80    0.45
   2   8   3    8.36    0.47
  -3  -8  -3   10.31    0.49
   3   8   3   10.61    0.52
  -4  -8  -3    1.12    0.17
   4   8   3    1.67    0.23
   5   8   3    2.65    0.28
   6   8   3   -0.04    0.16
   7   8   3    0.32    0.17
   8   8   3    5.05    0.40
   4  -9  -3    1.05    0.27
  -4   9   3    1.50    0.28
   3  -9  -3    2.73    0.35
  -3   9   3    2.32    0.31
   2  -9  -3    2.97    0.34
  -2   9   3    3.04    0.33
   1  -9  -3    2.13    0.29
  -1   9   3    2.59    0.31
   0  -9  -3    5.51    0.43
   0   9   3    5.32    0.45
  -1  -9  -3    2.99    0.31
   1   9   3    2.98    0.33
  -2  -9  -3    5.85    0.41
   2   9   3    5.59    0.46
  -3  -9  -3    8.78    0.48
   3   9   3    8.72    0.52
   4   9   3    2.46    0.30
   5   9   3   22.65    0.88
   6   9   3    7.48    0.50
   7   9   3    0.22    0.18
   3 -10  -3    2.18    0.34
  -3  10   3    2.48    0.36
   2 -10  -3    4.07    0.43
  -2  10   3    3.41    0.38
   1 -10  -3    1.25    0.27
  -1  10   3    1.22    0.28
   0 -10  -3    4.44    0.44
   0  10   3    3.86    0.38
  -1 -10  -3    0.46    0.20
   1  10   3    0.16    0.22
  -2 -10  -3    4.89    0.40
   2  10   3    3.94    0.39
   3  10   3    1.77    0.28
   4  10   3    0.25    0.21
   5  10   3   13.92    0.70
   6  10   3    2.81    0.34
   0 -11  -3    2.27    0.33
   0  11   3    2.72    0.36
  -1 -11  -3    0.45    0.22
   1  11   3    0.43    0.25
  -2 -11  -3    1.36    0.28
   2  11   3    2.00    0.34
   3  11   3    4.71    0.45
   3  10  -4    9.07    0.62
   2  10  -4    6.90    0.55
   1  10  -4    0.03    0.21
  -1 -10   4    0.03    0.18
   0  10  -4    1.96    0.32
   0 -10   4    1.40    0.29
  -1  10  -4   -0.04    0.21
   1 -10   4   -0.04    0.20
   5   9  -4    4.94    0.44
   4   9  -4    0.30    0.19
   3   9  -4    0.75    0.23
   2   9  -4    7.35    0.53
  -2  -9   4    7.82    0.52
   1   9  -4    3.24    0.34
  -1  -9   4    2.02    0.30
   0   9  -4    2.36    0.31
   0  -9   4    2.16    0.32
  -1   9  -4    4.73    0.43
   1  -9   4    4.15    0.43
  -2   9  -4   -0.01    0.18
   2  -9   4   -0.12    0.19
  -3   9  -4    0.02    0.18
   3  -9   4   -0.10    0.20
   7   8  -4    0.94    0.21
   6   8  -4    0.00    0.16
   5   8  -4    9.91    0.54
   4   8  -4    4.10    0.38
   3   8  -4    1.66    0.25
  -3  -8   4    1.39    0.22
   2   8  -4   -0.05    0.16
  -2  -8   4    0.02    0.15
   1   8  -4    0.54    0.20
  -1  -8   4    0.37    0.18
   0   8  -4    7.30    0.48
   0  -8   4    6.97    0.49
  -1   8  -4   13.25    0.65
   1  -8   4   13.76    0.70
  -2   8  -4    1.63    0.25
   2  -8   4    1.29    0.26
  -3   8  -4    9.98    0.56
   3  -8   4   10.20    0.64
  -4   8  -4    3.30    0.34
   4  -8   4    3.89    0.41
   5  -8   4    1.63    0.33
   8   7  -4    2.40    0.26
   7   7  -4    2.67    0.27
   6   7  -4    2.43    0.26
   5   7  -4    3.30    0.32
   4   7  -4   13.45    0.58
   3   7  -4    5.50    0.38
  -3  -7   4    5.77    0.36
   2   7  -4    8.04    0.45
  -2  -7   4    7.92    0.45
   1   7  -4    1.18    0.21
  -1  -7   4    1.33    0.22
   0   7  -4    3.37    0.31
   0  -7   4    3.79    0.35
  -1   7  -4    7.51    0.46
   1  -7   4    7.16    0.49
  -2   7  -4   28.86    1.03
   2  -7   4   29.52    1.08
  -3   7  -4   11.20    0.55
   3  -7   4   10.16    0.60
  -4   7  -4   11.48    0.57
   4  -7   4   11.62    0.65
   5  -7   4    2.02    0.32
   6  -7   4    2.76    0.36
   8   6  -4    3.78    0.33
   7   6  -4   14.11    0.58
   6   6  -4    0.02    0.12
   5   6  -4    3.27    0.29
   4   6  -4    2.44    0.25
  -4  -6   4    2.52    0.22
   3   6  -4    0.63    0.16
  -3  -6   4    0.68    0.15
   2   6  -4   37.51    1.18
  -2  -6   4   36.82    1.19
   1   6  -4    9.05    0.44
  -1  -6   4    8.63    0.46
   0   6  -4    3.60    0.30
   0  -6   4    3.11    0.31
  -1   6  -4    8.03    0.43
   1  -6   4    7.58    0.46
  -2   6  -4   29.13    0.98
   2  -6   4   27.65    1.02
  -3   6  -4   17.67    0.69
   3  -6   4   17.36    0.75
  -4   6  -4   22.70    0.82
   4  -6   4   22.51    0.90
  -5   6  -4    1.97    0.24
   5  -6   4    1.09    0.25
   6  -6   4    4.11    0.40
   7  -6   4   10.17    0.63
   9   5  -4    1.77    0.20
   8   5  -4    4.74    0.32
   7   5  -4   11.30    0.47
   6   5  -4    3.70    0.27
   5   5  -4   12.74    0.51
   4   5  -4   15.88    0.60
  -4  -5   4   16.40    0.56
   3   5  -4    0.17    0.11
  -3  -5   4    0.11    0.10
   2   5  -4    8.92    0.41
  -2  -5   4    9.49    0.43
   1   5  -4   23.92    0.81
  -1  -5   4   24.48    0.83
   0   5  -4   10.08    0.45
   0  -5   4   10.12    0.48
  -1   5  -4   45.75    1.38
  -2   5  -4    0.38    0.13
  -3   5  -4    0.12    0.12
  -4   5  -4   23.02    0.80
  -5   5  -4    8.04    0.41
   6  -5   4    1.33    0.25
   7  -5   4    6.91    0.50
   8  -5   4    0.38    0.22
   8   4  -4    0.55    0.13
   7   4  -4    5.65    0.31
   6   4  -4    1.46    0.16
   5   4  -4   11.60    0.46
   4   4  -4   82.74    2.29
   4   4  -4   80.68    2.27
  -4  -4   4   82.32    2.23
   3   4  -4    0.12    0.10
   3   4  -4    0.12    0.10
  -3  -4   4    0.07    0.09
   2   4  -4   24.17    0.79
  -2  -4   4   24.30    0.79
   1   4  -4   53.68    1.55
   0   4  -4    8.92    0.39
   0  -4   4    8.80    0.42
  -1   4  -4  134.12    3.76
   1  -4   4  144.56    3.81
  -2   4  -4    1.63    0.17
   2  -4   4    1.27    0.18
  -3   4  -4    1.11    0.16
   3  -4   4    0.85    0.17
  -4   4  -4    2.93    0.25
   4  -4   4    2.90    0.28
  -5   4  -4    3.09    0.25
   5  -4   4    2.38    0.27
   8  -4   4   -0.14    0.15
   8   3  -4    0.02    0.10
   7   3  -4   13.62    0.50
   6   3  -4   15.76    0.55
   5   3  -4   -0.13    0.08
   5   3  -4   -0.06    0.09
   4   3  -4  153.57    4.12
   4   3  -4  155.15    4.13
  -4  -3   4  156.22    4.06
  -4  -3   4  151.82    4.06
   3   3  -4   26.25    0.81
   3   3  -4   25.27    0.80
  -3  -3   4   25.55    0.78
   2   3  -4    0.28    0.10
   2   3  -4    0.20    0.10
  -2  -3   4    0.30    0.10
   1   3  -4   48.85    1.39
   1   3  -4   47.66    1.37
  -1  -3   4   46.33    1.38
   0   3  -4   47.79    1.36
   0  -3   4   46.00    1.37
  -1   3  -4  191.13    5.13
   1  -3   4  195.75    5.17
  -2   3  -4   46.16    1.35
   2  -3   4   46.78    1.39
  -3   3  -4   -0.07    0.08
   3  -3   4   -0.02    0.10
  -4   3  -4   21.15    0.69
   4  -3   4   20.48    0.75
  -5   3  -4    1.31    0.15
   5  -3   4    1.40    0.20
   6  -3   4    0.95    0.19
   7  -3   4   11.24    0.55
   9   2  -4    1.95    0.19
   8   2  -4    0.61    0.12
   7   2  -4   29.11    0.89
   6   2  -4   10.77    0.41
   5   2  -4    7.37    0.33
   5   2  -4    8.11    0.35
   4   2  -4   49.47    1.43
   4   2  -4   53.05    1.44
  -4  -2   4   50.57    1.37
  -4  -2   4   49.45    1.37
   3   2  -4   17.54    0.59
   3   2  -4   19.24    0.60
  -3  -2   4   18.15    0.57
  -3  -2   4   17.72    0.57
   2   2  -4   10.09    0.38
   2   2  -4    8.98    0.37
  -2  -2   4    9.35    0.36
  -2  -2   4    9.56    0.37
   1   2  -4  163.88    4.32
   1   2  -4  160.51    4.32
  -1  -2   4  162.28    4.33
  -1  -2   4  162.93    4.32
   0   2  -4   33.36    0.99
   0   2  -4   33.20    0.99
   0  -2   4   33.71    0.99
   0  -2   4   33.03    1.01
  -1   2  -4   16.51    0.55
  -1   2  -4   15.62    0.53
   1  -2   4   15.80    0.53
   1  -2   4   15.38    0.56
  -2   2  -4   86.41    2.36
   2  -2   4   85.99    2.40
   2  -2   4   87.83    2.37
  -3   2  -4   26.23    0.80
   3  -2   4   27.11    0.82
   3  -2   4   25.31    0.84
  -4   2  -4   46.72    1.33
   4  -2   4   45.25    1.38
   4  -2   4   47.91    1.36
  -5   2  -4    3.64    0.21
   5  -2   4    3.65    0.28
   5  -2   4    3.94    0.24
   6  -2   4    1.04    0.17
   7  -2   4   25.61    0.90
   8  -2   4    5.22    0.38
   9  -2   4    0.03    0.15
   9   1  -4    2.75    0.23
   8   1  -4    0.47    0.11
   7   1  -4   22.54    0.72
   6   1  -4   30.19    0.91
   5   1  -4    0.72    0.13
   5   1  -4    0.15    0.09
   4   1  -4    3.39    0.20
   4   1  -4    3.90    0.22
  -4  -1   4    3.51    0.15
   3   1  -4    7.71    0.32
   3   1  -4    8.52    0.32
  -3  -1   4    7.60    0.30
  -3  -1   4    7.54    0.29
   2   1  -4   10.16    0.39
   2   1  -4   11.21    0.39
  -2  -1   4   10.69    0.38
  -2  -1   4   10.53    0.38
   1   1  -4  159.36    4.33
   1   1  -4  165.84    4.34
  -1  -1   4  161.40    4.33
  -1  -1   4  166.57    4.34
   0   1  -4    6.98    0.29
   0   1  -4    6.72    0.29
   0  -1   4    6.88    0.30
   0  -1   4    7.00    0.29
  -1   1  -4    1.03    0.12
  -1   1  -4    0.87    0.10
   1  -1   4    1.05    0.11
   1  -1   4    0.78    0.12
  -2   1  -4   21.00    0.65
  -2   1  -4   20.09    0.64
   2  -1   4   20.50    0.64
   2  -1   4   19.75    0.66
  -3   1  -4    4.53    0.22
  -3   1  -4    4.34    0.22
   3  -1   4    4.49    0.22
   3  -1   4    4.06    0.25
  -4   1  -4   57.47    1.57
   4  -1   4   58.38    1.61
   4  -1   4   55.45    1.63
  -5   1  -4   50.67    1.37
  -5   1  -4   48.75    1.38
   5  -1   4   50.92    1.43
   5  -1   4   49.39    1.46
   6  -1   4    5.61    0.32
   7  -1   4   12.49    0.53
   8  -1   4    4.53    0.33
   9  -1   4    0.54    0.17
   9   0  -4    4.15    0.28
   8   0  -4    0.93    0.14
   7   0  -4   17.35    0.59
   6   0  -4   53.80    1.52
   5   0  -4    3.95    0.23
   5   0  -4    3.96    0.23
   4   0  -4   32.08    0.93
   4   0  -4   30.39    0.92
  -4   0   4   30.71    0.87
  -4   0   4   32.01    0.88
   3   0  -4    0.79    0.10
   3   0  -4    0.67    0.10
  -3   0   4    0.81    0.09
  -3   0   4    0.79    0.10
   2   0  -4    0.04    0.06
   2   0  -4   -0.02    0.05
  -2   0   4    0.11    0.07
  -2   0   4   -0.01    0.05
   1   0  -4   29.89    0.87
   1   0  -4   28.64    0.87
  -1   0   4   28.67    0.87
  -1   0   4   29.67    0.87
   0   0  -4   27.90    0.82
   0   0  -4   26.90    0.82
   0   0   4   27.34    0.82
   0   0   4   27.17    0.82
  -1   0  -4   18.41    0.59
  -1   0  -4   19.07    0.59
   1   0   4   18.22    0.59
   1   0   4   18.24    0.59
  -2   0  -4   17.16    0.55
  -2   0  -4   17.68    0.56
   2   0   4   17.56    0.56
   2   0   4   16.77    0.57
  -3   0  -4    8.62    0.32
  -3   0  -4    8.82    0.32
   3   0   4    8.92    0.33
   3   0   4    8.29    0.35
  -4   0  -4   12.26    0.40
  -4   0  -4   12.23    0.40
   4   0   4   12.52    0.44
   4   0   4   11.97    0.45
  -5   0  -4   67.45    1.86
   5   0   4   70.20    1.96
   5   0   4   73.07    1.94
   6   0   4   40.82    1.17
   6   0   4   36.84    1.16
   7   0   4   13.25    0.52
   8   0   4    3.68    0.29
   9   0   4    0.47    0.15
  10   0   4    4.55    0.36
   9  -1  -4    9.63    0.44
   8  -1  -4    0.10    0.11
   7  -1  -4    1.72    0.18
   6  -1  -4    4.58    0.27
   5  -1  -4    1.55    0.15
   5  -1  -4    1.44    0.15
   4  -1  -4   85.41    2.23
   4  -1  -4   80.45    2.22
  -4   1   4   79.67    2.18
  -4   1   4   79.53    2.18
   3  -1  -4   46.54    1.35
   3  -1  -4   48.52    1.35
  -3   1   4   47.99    1.34
  -3   1   4   47.64    1.33
   2  -1  -4    0.30    0.08
   2  -1  -4    0.33    0.07
  -2   1   4    0.46    0.08
   1  -1  -4   81.39    2.26
   1  -1  -4   84.02    2.26
  -1   1   4   85.16    2.26
  -1   1   4   81.65    2.25
   0  -1  -4  167.12    4.31
   0  -1  -4  156.97    4.31
   0   1   4  158.35    4.30
   0   1   4  168.12    4.32
  -1  -1  -4   32.08    0.92
  -1  -1  -4   31.56    0.93
   1   1   4   32.37    0.94
   1   1   4   30.77    0.92
  -2  -1  -4  125.03    3.31
  -2  -1  -4  120.73    3.32
   2   1   4  128.94    3.34
   2   1   4  123.66    3.32
  -3  -1  -4    0.70    0.08
  -3  -1  -4    0.62    0.08
   3   1   4    1.03    0.12
   3   1   4    1.27    0.12
  -4  -1  -4   11.94    0.38
  -4  -1  -4   11.44    0.37
   4   1   4   12.36    0.43
   4   1   4   11.70    0.43
   5   1   4   48.28    1.34
   5   1   4   46.03    1.35
   6   1   4   21.45    0.67
   6   1   4   19.97    0.68
   7   1   4   39.74    1.18
   8   1   4   15.93    0.58
   9   1   4   -0.04    0.11
   9  -2  -4    6.48    0.38
   8  -2  -4    0.11    0.12
   7  -2  -4    6.39    0.34
   6  -2  -4    5.87    0.32
   5  -2  -4   14.70    0.53
   5  -2  -4   15.41    0.53
  -5   2   4   14.30    0.47
   4  -2  -4    3.05    0.22
   4  -2  -4    3.12    0.20
  -4   2   4    3.09    0.20
   3  -2  -4  113.25    2.97
   3  -2  -4  108.70    2.97
  -3   2   4  107.64    2.95
   2  -2  -4   35.77    1.03
   2  -2  -4   34.50    1.03
  -2   2   4   34.99    1.02
  -2   2   4   34.89    1.03
   1  -2  -4  104.84    2.80
   1  -2  -4  103.32    2.80
  -1   2   4  101.73    2.79
  -1   2   4  105.09    2.81
   0  -2  -4   22.35    0.68
   0  -2  -4   21.03    0.68
   0   2   4   23.07    0.70
   0   2   4   21.31    0.68
  -1  -2  -4   37.33    1.06
  -1  -2  -4   36.95    1.08
   1   2   4   36.22    1.06
   1   2   4   37.67    1.09
  -2  -2  -4  273.67    7.20
  -2  -2  -4  271.82    7.18
   2   2   4  279.78    7.21
   2   2   4  273.62    7.19
  -3  -2  -4   21.85    0.65
  -3  -2  -4   21.39    0.67
   3   2   4   21.60    0.68
   3   2   4   22.90    0.70
  -4  -2  -4   27.22    0.78
  -4  -2  -4   26.56    0.77
   4   2   4   27.65    0.82
   4   2   4   28.33    0.84
   5   2   4   61.59    1.75
   5   2   4   64.74    1.76
   6   2   4   16.62    0.57
   6   2   4   17.39    0.58
   7   2   4   20.29    0.67
   8   2   4   23.76    0.77
   9   2   4    0.96    0.15
   9  -3  -4    2.04    0.25
   8  -3  -4    0.11    0.13
   7  -3  -4    2.71    0.25
   6  -3  -4   13.77    0.55
   5  -3  -4    0.25    0.12
   5  -3  -4    0.23    0.10
   4  -3  -4    2.44    0.23
   4  -3  -4    2.47    0.20
  -4   3   4    2.79    0.21
   3  -3  -4   31.02    0.94
   3  -3  -4   30.73    0.95
  -3   3   4   30.37    0.93
   2  -3  -4    2.95    0.19
   2  -3  -4    2.88    0.21
  -2   3   4    2.69    0.21
   1  -3  -4   40.56    1.17
   1  -3  -4   41.15    1.19
  -1   3   4   39.33    1.17
   0  -3  -4  237.58    6.37
   0  -3  -4  246.60    6.35
   0   3   4  240.56    6.35
  -1  -3  -4    7.85    0.31
  -1  -3  -4    7.78    0.33
   1   3   4    7.77    0.33
   1   3   4    7.88    0.33
  -2  -3  -4    9.21    0.34
  -2  -3  -4    9.39    0.37
   2   3   4    8.68    0.36
   2   3   4   10.20    0.38
  -3  -3  -4   44.95    1.29
  -3  -3  -4   47.07    1.32
   3   3   4   49.34    1.35
   3   3   4   45.06    1.31
  -4  -3  -4   74.97    2.03
  -4  -3  -4   74.95    2.04
   4   3   4   74.80    2.07
   4   3   4   78.65    2.10
   5   3   4   65.95    1.84
   5   3   4   67.62    1.87
   6   3   4    5.33    0.28
   7   3   4    2.69    0.22
   8   3   4    0.15    0.11
   9   3   4    1.62    0.18
   8  -4  -4    1.41    0.23
   7  -4  -4    4.24    0.35
   6  -4  -4   18.24    0.70
   5  -4  -4    3.54    0.30
  -5   4   4    4.10    0.26
   4  -4  -4    3.34    0.28
  -4   4   4    3.78    0.27
   3  -4  -4   49.80    1.46
  -3   4   4   48.61    1.43
   2  -4  -4    5.68    0.31
  -2   4   4    5.58    0.30
   1  -4  -4    8.60    0.38
  -1   4   4    8.83    0.38
   0  -4  -4  220.26    5.85
   0   4   4  221.19    5.83
  -1  -4  -4   11.23    0.43
   1   4   4   10.37    0.42
  -2  -4  -4   29.99    0.90
   2   4   4   29.34    0.91
   2   4   4   27.94    0.88
  -3  -4  -4   18.55    0.60
   3   4   4   18.00    0.62
   3   4   4   17.70    0.60
  -4  -4  -4    0.01    0.06
   4   4   4    0.00    0.09
   4   4   4    0.08    0.08
   5   4   4   58.37    1.64
   5   4   4   56.39    1.61
   6   4   4    7.95    0.35
   7   4   4    0.77    0.14
   8   4   4    2.91    0.25
   9   4   4    1.21    0.17
   8  -5  -4    1.75    0.27
   7  -5  -4    0.26    0.17
   6  -5  -4    9.07    0.50
   5  -5  -4   18.33    0.74
  -5   5   4   19.70    0.69
   4  -5  -4   16.30    0.66
  -4   5   4   17.10    0.63
   3  -5  -4   43.19    1.34
  -3   5   4   43.75    1.31
   2  -5  -4   11.82    0.51
  -2   5   4   11.50    0.49
   1  -5  -4   10.46    0.46
  -1   5   4   10.10    0.45
   0  -5  -4   17.03    0.61
   0   5   4   16.41    0.60
  -1  -5  -4    5.37    0.30
   1   5   4    5.39    0.31
  -2  -5  -4   32.62    1.00
   2   5   4   31.71    0.99
  -3  -5  -4   28.13    0.87
   3   5   4   26.90    0.87
  -4  -5  -4    0.20    0.08
   4   5   4    0.09    0.11
   4   5   4    0.08    0.09
  -5  -5  -4   23.07    0.66
   5   5   4   22.76    0.75
   6   5   4    3.60    0.27
   7   5   4    2.39    0.21
   8   5   4    9.70    0.43
   9   5   4    1.17    0.18
   7  -6  -4    0.33    0.19
   6  -6  -4    5.39    0.44
  -5   6   4    0.41    0.17
   4  -6  -4    1.70    0.24
  -4   6   4    2.18    0.25
   3  -6  -4   49.32    1.54
  -3   6   4   50.48    1.51
   2  -6  -4   22.48    0.83
  -2   6   4   23.64    0.82
   1  -6  -4    9.03    0.46
  -1   6   4    8.88    0.45
   0  -6  -4    1.56    0.20
   0   6   4    1.41    0.20
  -1  -6  -4    0.05    0.10
   1   6   4   -0.10    0.12
  -2  -6  -4    0.04    0.09
   2   6   4   -0.12    0.11
  -3  -6  -4   25.61    0.84
   3   6   4   25.43    0.85
  -4  -6  -4   11.24    0.44
   4   6   4   10.47    0.47
   5   6   4    9.09    0.42
   6   6   4    4.13    0.31
   7   6   4    0.37    0.15
   8   6   4    6.91    0.38
   9   6   4    3.83    0.32
   6  -7  -4    7.40    0.53
   5  -7  -4    0.70    0.22
   4  -7  -4    0.02    0.16
  -4   7   4   -0.20    0.15
   3  -7  -4    6.09    0.43
  -3   7   4    6.40    0.43
   2  -7  -4    5.37    0.39
  -2   7   4    5.62    0.41
   1  -7  -4    6.95    0.43
  -1   7   4    7.03    0.44
   0  -7  -4    9.72    0.49
   0   7   4    9.45    0.49
  -1  -7  -4    4.50    0.33
   1   7   4    4.18    0.35
  -2  -7  -4    2.36    0.24
   2   7   4    1.94    0.23
  -3  -7  -4    0.18    0.12
   3   7   4   -0.06    0.13
  -4  -7  -4    0.42    0.12
   4   7   4    0.29    0.15
   5   7   4    3.76    0.33
   6   7   4    7.96    0.43
   7   7   4    0.01    0.15
   8   7   4    7.84    0.44
   9   7   4    2.16    0.25
   5  -8  -4    1.03    0.26
   4  -8  -4    0.05    0.18
  -4   8   4    0.06    0.19
   3  -8  -4   11.72    0.62
  -3   8   4   11.28    0.59
   2  -8  -4    0.53    0.20
  -2   8   4    0.26    0.20
   1  -8  -4    0.03    0.16
  -1   8   4   -0.25    0.16
   0  -8  -4    6.50    0.44
   0   8   4    6.98    0.46
  -1  -8  -4   12.01    0.57
   1   8   4   11.24    0.57
  -2  -8  -4    4.15    0.34
   2   8   4    3.82    0.34
  -3  -8  -4   22.52    0.84
   3   8   4   24.51    0.88
  -4  -8  -4    9.67    0.46
   4   8   4   10.23    0.52
   5   8   4    0.29    0.17
   6   8   4    0.73    0.20
   7   8   4   -0.10    0.16
   8   8   4    7.10    0.46
   4  -9  -4    1.01    0.27
  -4   9   4    0.79    0.26
   3  -9  -4    5.81    0.50
  -3   9   4    6.61    0.53
   2  -9  -4    0.67    0.23
  -2   9   4    1.02    0.26
   1  -9  -4    0.30    0.19
  -1   9   4    0.52    0.23
   0  -9  -4    1.12    0.23
   0   9   4    0.92    0.25
  -1  -9  -4    5.48    0.42
   1   9   4    5.64    0.47
  -2  -9  -4    1.91    0.26
   2   9   4    2.15    0.30
  -3  -9  -4   17.14    0.71
   3   9   4   16.96    0.75
   4   9   4    8.88    0.54
   5   9   4    9.27    0.55
   6   9   4   10.90    0.59
   7   9   4    0.04    0.18
   3 -10  -4   -0.06    0.22
  -3  10   4   -0.29    0.22
   2 -10  -4    3.13    0.38
  -2  10   4    3.15    0.39
   1 -10  -4    0.15    0.20
  -1  10   4    0.17    0.23
   0 -10  -4    0.87    0.24
   0  10   4    1.34    0.29
  -1 -10  -4    5.98    0.47
   1  10   4    5.68    0.51
  -2 -10  -4    0.46    0.19
   2  10   4    0.22    0.22
   3  10   4    5.13    0.49
   4  10   4    5.57    0.50
   5  10   4    0.12    0.22
  -1 -11  -4    2.31    0.34
   1  11   4    2.28    0.37
  -2 -11  -4    0.82    0.25
   2  11   4    0.88    0.29
   5   9  -5    0.34    0.22
   4   9  -5    2.07    0.31
   3   9  -5   -0.17    0.18
   2   9  -5    3.38    0.37
  -2  -9   5    2.78    0.35
   1   9  -5    2.27    0.33
  -1  -9   5    1.85    0.31
   0   9  -5   -0.25    0.17
   0  -9   5   -0.24    0.18
  -1   9  -5    8.99    0.58
   1  -9   5    9.42    0.65
  -2   9  -5    0.54    0.23
   2  -9   5    0.43    0.24
   6   8  -5    0.67    0.21
   5   8  -5    0.32    0.19
   4   8  -5    5.19    0.43
   3   8  -5    0.30    0.18
  -3  -8   5    0.27    0.16
   2   8  -5    8.28    0.51
  -2  -8   5    8.26    0.52
   1   8  -5    9.54    0.56
  -1  -8   5    9.29    0.57
   0   8  -5    1.61    0.26
   0  -8   5    1.87    0.31
  -1   8  -5    5.24    0.45
   1  -8   5    6.07    0.51
  -2   8  -5    8.03    0.53
   2  -8   5    8.06    0.59
  -3   8  -5    4.74    0.44
   3  -8   5    4.00    0.43
  -4   8  -5    1.50    0.25
   4  -8   5    2.16    0.35
   7   7  -5    6.54    0.45
   6   7  -5    0.56    0.19
   5   7  -5    1.50    0.23
   4   7  -5    7.72    0.46
   3   7  -5    0.88    0.21
  -3  -7   5    0.61    0.17
   2   7  -5    4.61    0.38
  -2  -7   5    4.42    0.38
   1   7  -5   32.39    1.11
  -1  -7   5   31.93    1.14
   0   7  -5    9.04    0.51
   0  -7   5    9.21    0.55
  -1   7  -5   31.71    1.13
   1  -7   5   33.88    1.19
  -2   7  -5    5.79    0.44
   2  -7   5    6.15    0.50
  -3   7  -5    0.29    0.17
   3  -7   5    0.60    0.23
  -4   7  -5   14.43    0.67
   4  -7   5   15.40    0.77
   5  -7   5    4.98    0.49
   8   6  -5    0.37    0.16
   7   6  -5    3.25    0.32
   6   6  -5    1.92    0.24
   5   6  -5    5.66    0.37
   4   6  -5   10.85    0.52
  -4  -6   5   11.99    0.50
   3   6  -5    0.36    0.15
  -3  -6   5    0.20    0.13
   2   6  -5    0.04    0.13
  -2  -6   5    0.25    0.14
   1   6  -5   22.67    0.83
  -1  -6   5   23.13    0.86
   0   6  -5    4.90    0.36
   0  -6   5    5.12    0.39
  -1   6  -5   19.67    0.77
   1  -6   5   21.38    0.83
  -2   6  -5   17.43    0.70
   2  -6   5   16.32    0.75
  -3   6  -5    3.51    0.33
   3  -6   5    3.26    0.35
  -4   6  -5    4.88    0.38
   4  -6   5    5.40    0.47
  -5   6  -5    2.13    0.27
   5  -6   5    1.99    0.31
   6  -6   5    2.85    0.36
   8   5  -5   -0.08    0.12
   7   5  -5    3.61    0.31
   6   5  -5    0.17    0.12
   5   5  -5    1.03    0.17
   4   5  -5   58.90    1.73
  -4  -5   5   58.98    1.69
   3   5  -5   23.19    0.80
  -3  -5   5   23.16    0.80
   2   5  -5    0.27    0.13
  -2  -5   5    0.37    0.14
   1   5  -5   10.13    0.47
   0   5  -5    5.70    0.35
  -1   5  -5    0.10    0.13
  -2   5  -5   39.48    1.27
   2  -5   5   42.23    1.35
  -3   5  -5    0.59    0.16
   3  -5   5    0.63    0.19
  -4   5  -5    2.86    0.27
   4  -5   5    2.87    0.31
  -5   5  -5    6.67    0.40
   7  -5   5    9.05    0.59
   9   4  -5    2.24    0.22
   8   4  -5    5.90    0.35
   7   4  -5   22.58    0.78
   6   4  -5    3.82    0.28
   5   4  -5   -0.11    0.10
   4   4  -5    7.52    0.38
  -4  -4   5    7.65    0.34
   3   4  -5   33.49    1.07
  -3  -4   5   34.78    1.06
   2   4  -5   63.31    1.82
   1   4  -5  109.39    3.00
  -1  -4   5  108.59    3.02
   0   4  -5    1.32    0.17
   0  -4   5    1.49    0.19
  -1   4  -5   24.63    0.84
   1  -4   5   24.77    0.87
  -2   4  -5   55.29    1.62
   2  -4   5   54.93    1.67
  -3   4  -5    0.71    0.14
   3  -4   5    1.38    0.22
  -4   4  -5    1.51    0.19
   4  -4   5    1.68    0.24
  -5   4  -5   11.88    0.50
   5  -4   5   12.29    0.60
   6  -4   5    0.19    0.17
   7  -4   5    7.11    0.50
   9   3  -5    1.25    0.17
   8   3  -5    0.09    0.12
   7   3  -5   17.58    0.64
   6   3  -5   20.31    0.70
   5   3  -5    5.54    0.31
   4   3  -5    1.95    0.20
   4   3  -5    2.24    0.22
  -4  -3   5    1.87    0.18
   3   3  -5    1.53    0.17
   3   3  -5    2.54    0.22
   2   3  -5    5.28    0.30
  -2  -3   5    5.84    0.31
   1   3  -5  155.08    4.16
  -1  -3   5  153.93    4.17
   0   3  -5   79.44    2.22
   0  -3   5   79.41    2.25
  -1   3  -5    0.22    0.11
   1  -3   5    0.08    0.12
  -2   3  -5    1.89    0.19
   2  -3   5    1.88    0.21
  -3   3  -5   -0.10    0.09
   3  -3   5   -0.09    0.10
  -4   3  -5   11.15    0.46
   4  -3   5   11.19    0.53
  -5   3  -5   61.28    1.75
   5  -3   5   61.79    1.86
   6  -3   5    0.16    0.15
   7  -3   5    5.12    0.41
   8  -3   5    1.96    0.28
   9   2  -5    3.83    0.28
   8   2  -5    0.77    0.15
   7   2  -5    2.49    0.23
   6   2  -5   16.84    0.60
   5   2  -5    0.27    0.10
   5   2  -5    0.38    0.11
   4   2  -5    8.26    0.38
   4   2  -5    7.91    0.37
   3   2  -5    0.11    0.09
   3   2  -5    0.16    0.08
  -3  -2   5    0.20    0.09
   2   2  -5    5.74    0.29
   2   2  -5    5.60    0.29
  -2  -2   5    5.67    0.29
   1   2  -5   20.41    0.69
  -1  -2   5   21.24    0.71
   0   2  -5   61.17    1.72
   0  -2   5   60.30    1.74
  -1   2  -5   18.37    0.63
   1  -2   5   18.52    0.66
  -2   2  -5   23.31    0.75
   2  -2   5   23.03    0.78
  -3   2  -5    0.12    0.08
   3  -2   5    0.05    0.09
  -4   2  -5    0.98    0.14
   4  -2   5    1.18    0.18
  -5   2  -5   31.48    0.95
   5  -2   5   31.48    1.04
   6  -2   5   16.06    0.66
   7  -2   5   12.62    0.58
   8  -2   5    1.97    0.26
   9  -2   5    0.75    0.21
   9   1  -5   14.87    0.57
   8   1  -5    3.93    0.28
   7   1  -5    0.19    0.10
   6   1  -5    4.77    0.28
   5   1  -5    4.30    0.27
   5   1  -5    4.04    0.26
   4   1  -5   64.09    1.83
   4   1  -5   66.40    1.84
  -4  -1   5   65.66    1.78
  -4  -1   5   63.49    1.77
   3   1  -5   28.07    0.90
   3   1  -5   30.10    0.91
  -3  -1   5   29.11    0.88
   2   1  -5   46.87    1.38
   2   1  -5   48.19    1.38
  -2  -1   5   47.87    1.38
   1   1  -5    4.05    0.24
   1   1  -5    5.06    0.26
  -1  -1   5    3.64    0.25
   0   1  -5    9.47    0.39
   0   1  -5    9.97    0.40
   0  -1   5   10.15    0.41
  -1   1  -5    0.38    0.10
   1  -1   5    0.09    0.08
   1  -1   5   -0.01    0.08
  -2   1  -5  153.82    4.15
   2  -1   5  159.41    4.17
   2  -1   5  153.25    4.18
  -3   1  -5   43.06    1.25
   3  -1   5   42.14    1.29
   3  -1   5   44.17    1.27
  -4   1  -5    6.18    0.29
   4  -1   5    5.88    0.34
   4  -1   5    6.48    0.31
  -5   1  -5   11.84    0.42
   5  -1   5   12.26    0.47
   5  -1   5   11.10    0.49
   6  -1   5    7.49    0.40
   7  -1   5    3.09    0.28
   8  -1   5   13.42    0.60
   9  -1   5    0.65    0.19
   9   0  -5    5.08    0.34
   8   0  -5    5.85    0.33
   7   0  -5    6.63    0.34
   6   0  -5   20.19    0.69
   5   0  -5    8.98    0.39
   5   0  -5    9.62    0.40
   4   0  -5    7.56    0.34
   4   0  -5    7.39    0.34
  -4   0   5    7.23    0.30
  -4   0   5    7.49    0.32
   3   0  -5  127.37    3.53
   3   0  -5  136.29    3.55
  -3   0   5  130.27    3.52
   2   0  -5   29.66    0.93
   2   0  -5   31.66    0.94
  -2   0   5   30.37    0.93
   1   0  -5   86.51    2.45
   1   0  -5   90.67    2.46
  -1   0   5   86.31    2.45
  -1   0   5   94.59    2.51
   0   0  -5   11.95    0.45
   0   0  -5   12.26    0.45
   0   0   5   11.98    0.45
   0   0   5   11.85    0.45
  -1   0  -5   14.54    0.51
   1   0   5   14.03    0.52
   1   0   5   14.57    0.51
  -2   0  -5   45.28    1.32
   2   0   5   46.88    1.33
   2   0   5   45.03    1.33
  -3   0  -5  145.90    3.94
   3   0   5  152.35    3.97
   3   0   5  145.48    3.97
  -4   0  -5   91.48    2.51
   4   0   5   94.97    2.55
   4   0   5   91.81    2.56
  -5   0  -5   63.78    1.74
   5   0   5   64.88    1.81
   5   0   5   62.87    1.83
   6   0   5    0.84    0.16
   7   0   5    0.49    0.15
   8   0   5    9.46    0.47
   9   0   5    0.06    0.14
   9  -1  -5    1.67    0.21
   8  -1  -5    2.46    0.23
   7  -1  -5    0.16    0.12
   6  -1  -5   14.09    0.54
   5  -1  -5   -0.10    0.08
   5  -1  -5    0.03    0.10
  -5   1   5    0.01    0.06
  -5   1   5    0.03    0.05
   4  -1  -5    2.49    0.20
   4  -1  -5    2.36    0.21
  -4   1   5    2.14    0.19
   3  -1  -5   51.91    1.48
   3  -1  -5   50.75    1.47
  -3   1   5   50.63    1.46
   2  -1  -5   11.95    0.45
   2  -1  -5   11.92    0.44
  -2   1   5   11.37    0.44
   1  -1  -5  208.77    5.57
   1  -1  -5  220.04    5.57
  -1   1   5  202.01    5.56
   0  -1  -5  173.08    4.47
   0  -1  -5  165.71    4.47
   0   1   5  170.32    4.48
   0   1   5  161.70    4.46
  -1  -1  -5    2.97    0.19
  -1  -1  -5    2.88    0.20
   1   1   5    3.19    0.22
   1   1   5    3.15    0.21
  -2  -1  -5    5.70    0.28
   2   1   5    5.89    0.29
   2   1   5    6.04    0.29
  -3  -1  -5  130.51    3.51
   3   1   5  134.42    3.54
   3   1   5  128.31    3.53
  -4  -1  -5    7.72    0.31
   4   1   5    8.16    0.36
   4   1   5    7.69    0.36
  -5  -1  -5   46.66    1.32
  -5  -1  -5   49.65    1.33
   5   1   5   51.50    1.43
   5   1   5   46.85    1.42
   6   1   5   61.18    1.76
   7   1   5    2.00    0.21
   8   1   5    3.23    0.29
   9   1   5    0.67    0.17
  10   1   5    3.33    0.33
   9  -2  -5    0.26    0.15
   8  -2  -5    0.49    0.15
   7  -2  -5    0.30    0.14
   6  -2  -5   10.17    0.45
   5  -2  -5    1.42    0.17
   5  -2  -5    1.28    0.17
  -5   2   5    1.19    0.13
   4  -2  -5    8.51    0.37
   4  -2  -5    8.76    0.39
  -4   2   5    8.77    0.37
   3  -2  -5   22.65    0.74
   3  -2  -5   22.24    0.74
  -3   2   5   22.84    0.74
   2  -2  -5    6.38    0.32
   2  -2  -5    7.19    0.31
  -2   2   5    6.43    0.32
   1  -2  -5   33.04    1.00
   1  -2  -5   33.48    1.00
  -1   2   5   32.26    0.99
   0  -2  -5  117.62    3.15
   0   2   5  114.75    3.14
  -1  -2  -5   24.46    0.78
   1   2   5   23.79    0.77
   1   2   5   24.93    0.79
  -2  -2  -5   40.44    1.20
   2   2   5   42.25    1.22
   2   2   5   40.32    1.20
  -3  -2  -5   42.01    1.23
   3   2   5   42.84    1.26
   3   2   5   42.57    1.24
  -4  -2  -5    1.24    0.13
   4   2   5    1.09    0.14
   4   2   5    1.28    0.15
  -5  -2  -5    4.05    0.17
  -5  -2  -5    3.57    0.17
   5   2   5    3.80    0.26
   5   2   5    4.58    0.27
   6   2   5   19.29    0.67
   7   2   5    5.75    0.33
   8   2   5   18.67    0.68
   9   2   5    4.78    0.33
   9  -3  -5    4.02    0.39
   8  -3  -5    2.20    0.25
   7  -3  -5    0.41    0.16
   6  -3  -5    2.90    0.29
   5  -3  -5    6.07    0.36
  -5   3   5    6.13    0.31
   4  -3  -5   18.60    0.67
  -4   3   5   19.11    0.65
   3  -3  -5   62.92    1.82
  -3   3   5   64.17    1.80
   2  -3  -5   15.59    0.58
  -2   3   5   16.22    0.57
   1  -3  -5    2.82    0.22
  -1   3   5    2.32    0.22
   0  -3  -5   25.42    0.82
   0   3   5   25.69    0.81
  -1  -3  -5   24.70    0.79
   1   3   5   24.48    0.78
  -2  -3  -5   33.76    1.04
   2   3   5   35.04    1.05
   2   3   5   33.79    1.03
  -3  -3  -5   63.29    1.79
   3   3   5   65.36    1.82
   3   3   5   62.51    1.79
  -4  -3  -5    0.36    0.09
   4   3   5    0.49    0.11
   4   3   5    0.33    0.11
  -5  -3  -5    0.02    0.05
  -5  -3  -5    0.12    0.05
   5   3   5    0.01    0.10
   5   3   5   -0.04    0.08
   6   3   5   12.09    0.49
   7   3   5    3.24    0.27
   8   3   5    0.52    0.15
   9   3   5    1.33    0.19
   8  -4  -5    5.37    0.42
   7  -4  -5    5.78    0.40
   6  -4  -5    7.27    0.43
   5  -4  -5    6.67    0.41
  -5   4   5    8.53    0.39
   4  -4  -5    2.01    0.22
  -4   4   5    1.65    0.19
   3  -4  -5   52.91    1.59
  -3   4   5   54.08    1.57
   2  -4  -5   13.24    0.53
  -2   4   5   12.99    0.53
   1  -4  -5   13.98    0.55
  -1   4   5   14.11    0.54
   0  -4  -5   28.01    0.91
   0   4   5   28.36    0.89
  -1  -4  -5    8.49    0.38
   1   4   5    7.83    0.37
  -2  -4  -5   19.67    0.67
   2   4   5   18.63    0.65
  -3  -4  -5   65.96    1.84
   3   4   5   64.12    1.83
  -4  -4  -5    6.06    0.29
   4   4   5    5.81    0.32
   4   4   5    5.97    0.32
  -5  -4  -5    5.29    0.23
   5   4   5    5.22    0.31
   5   4   5    5.14    0.30
   6   4   5    1.12    0.18
   7   4   5    2.10    0.22
   8   4   5    9.04    0.43
   9   4   5    4.13    0.32
   8  -5  -5    1.79    0.28
   7  -5  -5    0.25    0.17
   6  -5  -5    5.89    0.42
   5  -5  -5   23.55    0.88
  -5   5   5   24.19    0.83
   4  -5  -5    1.63    0.23
  -4   5   5    1.45    0.21
   3  -5  -5   26.24    0.91
  -3   5   5   26.52    0.90
   2  -5  -5    6.98    0.40
  -2   5   5    7.73    0.41
   1  -5  -5   12.13    0.52
  -1   5   5   12.27    0.51
   0  -5  -5   28.97    0.94
   0   5   5   28.35    0.92
  -1  -5  -5    3.35    0.27
   1   5   5    3.16    0.28
  -2  -5  -5   11.93    0.48
   2   5   5   11.28    0.49
  -3  -5  -5   43.80    1.29
   3   5   5   41.43    1.28
  -4  -5  -5   14.12    0.52
   4   5   5   14.27    0.55
  -5  -5  -5    5.32    0.25
   5   5   5    5.35    0.33
   6   5   5    3.58    0.30
   7   5   5    6.67    0.38
   8   5   5    3.85    0.32
   9   5   5    7.67    0.43
   7  -6  -5    0.76    0.22
   6  -6  -5    0.04    0.17
   5  -6  -5    6.28    0.45
   4  -6  -5    1.77    0.24
  -4   6   5    1.91    0.25
   3  -6  -5   17.44    0.72
  -3   6   5   18.08    0.71
   2  -6  -5    4.31    0.35
  -2   6   5    4.47    0.35
   1  -6  -5    2.55    0.25
  -1   6   5    3.15    0.28
   0  -6  -5   42.88    1.35
   0   6   5   43.42    1.33
  -1  -6  -5   15.86    0.62
   1   6   5   15.19    0.62
  -2  -6  -5    2.34    0.23
   2   6   5    1.63    0.21
  -3  -6  -5   39.97    1.22
   3   6   5   38.27    1.21
  -4  -6  -5    4.71    0.29
   4   6   5    4.08    0.33
   5   6   5    3.19    0.31
   6   6   5   13.57    0.57
   7   6   5    4.30    0.35
   8   6   5    1.32    0.21
   9   6   5    3.28    0.30
   6  -7  -5    0.00    0.19
   5  -7  -5    8.38    0.54
   4  -7  -5    0.97    0.22
  -4   7   5    0.84    0.22
   3  -7  -5    1.39    0.25
  -3   7   5    1.32    0.24
   2  -7  -5    7.07    0.45
  -2   7   5    7.53    0.47
   1  -7  -5    0.29    0.16
  -1   7   5    0.26    0.17
   0  -7  -5   15.37    0.65
   0   7   5   14.65    0.64
  -1  -7  -5   14.64    0.62
   1   7   5   14.62    0.63
  -2  -7  -5    3.66    0.31
   2   7   5    3.64    0.34
  -3  -7  -5    2.29    0.23
   3   7   5    2.66    0.27
  -4  -7  -5    2.25    0.23
   4   7   5    2.26    0.26
   5   7   5    2.72    0.27
   6   7   5    9.98    0.51
   7   7   5    7.56    0.45
   8   7   5    1.62    0.24
   5  -8  -5    6.14    0.52
   4  -8  -5    0.33    0.21
  -4   8   5    0.38    0.21
   3  -8  -5    0.83    0.23
  -3   8   5    1.33    0.26
   2  -8  -5    6.08    0.47
  -2   8   5    5.93    0.47
   1  -8  -5    0.11    0.17
  -1   8   5   -0.11    0.19
   0  -8  -5   10.20    0.55
   0   8   5   10.00    0.56
  -1  -8  -5   19.92    0.80
   1   8   5   20.24    0.81
  -2  -8  -5    5.85    0.41
   2   8   5    5.84    0.45
  -3  -8  -5   29.97    1.05
   3   8   5   31.78    1.08
   4   8   5   10.65    0.56
   5   8   5    0.18    0.19
   6   8   5    1.63    0.26
   7   8   5    6.48    0.46
   8   8   5    0.70    0.22
   4  -9  -5    1.24    0.29
   3  -9  -5    1.34    0.28
  -3   9   5    1.03    0.28
   2  -9  -5    1.48    0.27
  -2   9   5    1.41    0.29
   1  -9  -5    0.52    0.21
  -1   9   5    0.44    0.24
   0  -9  -5    4.77    0.44
   0   9   5    4.58    0.41
  -1  -9  -5    8.58    0.52
   1   9   5    7.59    0.54
  -2  -9  -5    4.87    0.40
   2   9   5    4.45    0.45
  -3  -9  -5    5.26    0.41
   3   9   5    5.51    0.48
   4   9   5    9.66    0.57
   5   9   5    3.78    0.37
   6   9   5    7.09    0.51
   7   9   5    0.79    0.26
   2 -10  -5    0.49    0.24
  -2  10   5    0.35    0.26
   1 -10  -5    1.78    0.31
  -1  10   5    1.65    0.32
   0 -10  -5    0.79    0.25
   0  10   5    1.13    0.29
  -1 -10  -5    7.46    0.52
   1  10   5    7.37    0.57
  -2 -10  -5    0.52    0.20
   2  10   5    0.36    0.24
   3  10   5    0.76    0.25
   4  10   5    3.01    0.35
   5  10   5   -0.31    0.20
   3   9  -6    0.07    0.22
   2   9  -6    1.52    0.31
   1   9  -6    6.20    0.53
  -1  -9   6    6.53    0.54
   0   9  -6    1.35    0.31
   0  -9   6    1.40    0.31
  -1   9  -6    2.91    0.36
   1  -9   6    2.68    0.38
   5   8  -6    0.88    0.23
   4   8  -6    7.47    0.51
   3   8  -6    1.73    0.28
   2   8  -6    1.93    0.31
  -2  -8   6    1.51    0.28
   1   8  -6   20.19    0.86
  -1  -8   6   19.66    0.88
   0   8  -6    2.22    0.31
   0  -8   6    1.71    0.31
  -1   8  -6    8.40    0.56
   1  -8   6    8.56    0.61
  -2   8  -6    6.91    0.51
   2  -8   6    7.36    0.58
  -3   8  -6    0.93    0.23
   3  -8   6    0.65    0.25
   6   7  -6    0.08    0.16
   5   7  -6    0.98    0.23
   4   7  -6   10.22    0.56
   3   7  -6    8.65    0.52
  -3  -7   6    9.62    0.52
   2   7  -6    3.12    0.33
  -2  -7   6    2.86    0.32
   1   7  -6    9.03    0.54
  -1  -7   6    9.25    0.55
   0   7  -6    3.55    0.35
   0  -7   6    3.24    0.36
  -1   7  -6   10.35    0.58
   1  -7   6   10.64    0.63
  -2   7  -6   14.42    0.69
   2  -7   6   14.90    0.76
  -3   7  -6    2.45    0.31
   3  -7   6    1.90    0.32
  -4   7  -6    0.39    0.19
   4  -7   6    1.05    0.28
   5  -7   6    2.72    0.38
   7   6  -6    3.64    0.35
   6   6  -6    8.64    0.48
   5   6  -6    1.22    0.21
   4   6  -6    0.07    0.15
   3   6  -6    2.71    0.29
  -3  -6   6    2.33    0.27
   2   6  -6   17.45    0.71
  -2  -6   6   17.78    0.73
   1   6  -6   19.53    0.78
  -1  -6   6   20.02    0.81
   0   6  -6   -0.03    0.15
   0  -6   6   -0.03    0.15
  -1   6  -6    0.55    0.20
  -2   6  -6   12.93    0.61
  -3   6  -6    6.17    0.43
  -4   6  -6    3.29    0.33
   6  -6   6   -0.05    0.20
   8   5  -6    0.25    0.16
   7   5  -6    3.30    0.32
   6   5  -6   19.69    0.75
   5   5  -6    4.13    0.33
   4   5  -6    6.51    0.40
  -4  -5   6    7.15    0.37
   3   5  -6    2.32    0.25
  -3  -5   6    2.52    0.25
   2   5  -6    1.47    0.21
   1   5  -6   31.71    1.06
   0   5  -6    5.58    0.37
   0  -5   6    5.84    0.42
  -1   5  -6    4.14    0.34
   1  -5   6    4.82    0.39
  -2   5  -6    0.47    0.17
   2  -5   6    1.13    0.23
  -3   5  -6    0.20    0.15
   3  -5   6    0.04    0.16
  -4   5  -6    9.64    0.50
   4  -5   6    9.75    0.58
  -5   5  -6   19.48    0.76
   5  -5   6   20.07    0.88
   8   4  -6    0.63    0.16
   7   4  -6    0.00    0.12
   6   4  -6   18.18    0.69
   5   4  -6    9.31    0.45
   4   4  -6   18.04    0.69
  -4  -4   6   18.26    0.65
   3   4  -6   18.71    0.70
   2   4  -6   -0.05    0.11
  -2  -4   6    0.09    0.13
   1   4  -6   12.01    0.52
  -1  -4   6   11.73    0.54
   0   4  -6   10.69    0.48
   0  -4   6   10.19    0.51
  -1   4  -6    8.20    0.42
   1  -4   6    7.51    0.46
  -2   4  -6    8.67    0.45
   2  -4   6    9.12    0.50
  -3   4  -6    7.38    0.40
   3  -4   6    6.94    0.45
  -4   4  -6    0.13    0.13
   4  -4   6    0.30    0.17
  -5   4  -6   10.72    0.49
   5  -4   6   10.21    0.59
   6  -4   6   10.71    0.61
   7  -4   6    3.37    0.37
   9   3  -6    7.32    0.40
   8   3  -6    5.12    0.34
   7   3  -6    2.21    0.24
   6   3  -6   -0.01    0.09
   5   3  -6    0.07    0.11
   4   3  -6   21.40    0.75
   3   3  -6   59.52    1.75
  -3  -3   6   60.73    1.74
   2   3  -6    0.75    0.16
  -2  -3   6    0.76    0.15
   1   3  -6    0.83    0.16
  -1  -3   6    1.03    0.18
   0   3  -6    1.84    0.20
   0  -3   6    1.90    0.23
  -1   3  -6    8.85    0.42
   1  -3   6    7.82    0.45
  -2   3  -6   84.77    2.38
   2  -3   6   83.62    2.43
  -3   3  -6   18.12    0.67
   3  -3   6   17.76    0.72
  -4   3  -6    0.65    0.14
   4  -3   6    0.76    0.18
  -5   3  -6   13.00    0.53
   5  -3   6   12.94    0.62
   6  -3   6    4.37    0.41
   7  -3   6    1.59    0.27
   8  -3   6   11.98    0.65
   9   2  -6    1.94    0.22
   8   2  -6    8.22    0.42
   7   2  -6    0.40    0.14
   6   2  -6    1.19    0.17
   5   2  -6    0.45    0.12
   4   2  -6   16.57    0.61
  -4  -2   6   16.60    0.57
   3   2  -6   43.49    1.31
  -3  -2   6   43.11    1.29
   2   2  -6   30.90    0.99
  -2  -2   6   31.54    1.00
   1   2  -6   16.95    0.62
  -1  -2   6   16.42    0.63
   0   2  -6   17.96    0.65
   0  -2   6   18.21    0.67
  -1   2  -6   16.36    0.60
   1  -2   6   16.00    0.63
  -2   2  -6   46.23    1.37
   2  -2   6   45.43    1.41
  -3   2  -6   30.55    0.97
   3  -2   6   30.55    1.02
  -4   2  -6    4.57    0.29
   4  -2   6    4.52    0.34
  -5   2  -6   23.13    0.75
   5  -2   6   21.60    0.84
   6  -2   6    0.37    0.17
   7  -2   6    0.17    0.17
   8  -2   6    7.60    0.51
   9   1  -6    1.18    0.18
   8   1  -6    6.28    0.38
   7   1  -6    0.49    0.15
   6   1  -6    6.31    0.35
   5   1  -6   28.28    0.92
   4   1  -6    4.20    0.29
   4   1  -6    3.98    0.28
  -4  -1   6    4.45    0.26
   3   1  -6    4.36    0.28
  -3  -1   6    4.90    0.28
   2   1  -6    3.63    0.25
  -2  -1   6    3.77    0.26
   1   1  -6   17.04    0.62
  -1  -1   6   16.94    0.62
   0   1  -6   81.38    2.30
   0  -1   6   83.07    2.32
  -1   1  -6    3.61    0.25
   1  -1   6    3.18    0.27
  -2   1  -6   71.51    2.01
   2  -1   6   70.52    2.04
  -3   1  -6   89.22    2.46
   3  -1   6   87.94    2.50
  -4   1  -6    0.53    0.12
   4  -1   6    0.41    0.14
  -5   1  -6   37.56    1.10
   5  -1   6   36.02    1.18
   6  -1   6    3.80    0.33
   7  -1   6   -0.05    0.14
   8  -1   6    1.58    0.24
   9  -1   6    7.25    0.48
   9   0  -6    0.43    0.15
   8   0  -6    0.70    0.16
   7   0  -6    0.69    0.15
   6   0  -6    6.69    0.36
   5   0  -6   41.24    1.25
  -5   0   6   40.38    1.15
   4   0  -6    4.42    0.29
   4   0  -6    4.66    0.30
  -4   0   6    4.93    0.27
   3   0  -6   24.46    0.81
  -3   0   6   24.04    0.79
   2   0  -6   21.51    0.74
  -2   0   6   22.18    0.74
   1   0  -6    4.02    0.26
  -1   0   6    3.79    0.27
   0   0  -6   84.36    2.37
   0   0   6   86.19    2.38
  -1   0  -6   36.82    1.12
   1   0   6   36.53    1.13
  -2   0  -6   40.25    1.21
   2   0   6   40.58    1.23
  -3   0  -6   52.79    1.52
   3   0   6   52.31    1.55
  -4   0  -6   30.92    0.94
   4   0   6   30.31    0.99
  -5   0  -6   46.57    1.32
   5   0   6   45.37    1.40
   6   0   6   14.48    0.60
   7   0   6    0.33    0.15
   8   0   6    2.33    0.26
   9   0   6    4.76    0.40
   9  -1  -6    0.73    0.17
   8  -1  -6    3.31    0.31
   7  -1  -6    1.23    0.19
   6  -1  -6    0.30    0.12
   5  -1  -6   10.34    0.47
  -5   1   6   10.73    0.40
   4  -1  -6   19.50    0.69
  -4   1   6   19.55    0.66
   3  -1  -6   52.69    1.54
  -3   1   6   52.34    1.52
   2  -1  -6   10.44    0.44
  -2   1   6   10.22    0.44
   1  -1  -6    0.18    0.10
  -1   1   6    0.54    0.13
   0  -1  -6   53.88    1.53
   0   1   6   50.87    1.52
  -1  -1  -6   10.18    0.42
   1   1   6    9.80    0.43
  -2  -1  -6   67.58    1.90
   2   1   6   65.63    1.90
  -3  -1  -6   26.43    0.84
   3   1   6   25.56    0.85
  -4  -1  -6    1.98    0.19
   4   1   6    2.57    0.25
  -5  -1  -6    1.57    0.15
   5   1   6    1.72    0.21
   6   1   6   42.04    1.30
   7   1   6    7.40    0.42
   8   1   6    5.70    0.39
   9   1   6    4.50    0.36
   8  -2  -6    5.44    0.39
   7  -2  -6    0.30    0.15
   6  -2  -6    1.92    0.22
   5  -2  -6   17.32    0.67
  -5   2   6   18.56    0.62
   4  -2  -6    7.68    0.39
  -4   2   6    7.87    0.37
   3  -2  -6   29.69    0.95
  -3   2   6   29.04    0.93
   2  -2  -6   27.45    0.90
  -2   2   6   28.00    0.90
   1  -2  -6   14.58    0.55
  -1   2   6   13.94    0.54
   0  -2  -6    1.57    0.17
   0   2   6    1.11    0.15
  -1  -2  -6   12.00    0.48
   1   2   6   11.45    0.47
  -2  -2  -6   14.64    0.53
   2   2   6   13.15    0.53
  -3  -2  -6   36.34    1.10
   3   2   6   36.14    1.11
  -4  -2  -6    0.84    0.13
   4   2   6    0.89    0.15
  -5  -2  -6    0.68    0.10
   5   2   6    0.80    0.15
   5   2   6    0.59    0.15
   6   2   6    2.33    0.24
   7   2   6    1.45    0.21
   8   2   6   12.39    0.55
   9   2   6    8.42    0.46
   8  -3  -6    7.36    0.47
   7  -3  -6    0.45    0.17
   6  -3  -6    5.70    0.39
   5  -3  -6   17.48    0.69
  -5   3   6   17.91    0.64
   4  -3  -6    3.51    0.30
  -4   3   6    3.57    0.29
   3  -3  -6   26.08    0.88
  -3   3   6   25.58    0.86
   2  -3  -6   48.95    1.45
  -2   3   6   47.62    1.43
   1  -3  -6   13.64    0.53
  -1   3   6   12.84    0.52
   0  -3  -6   35.98    1.11
   0   3   6   35.40    1.10
  -1  -3  -6   23.19    0.78
   1   3   6   23.13    0.78
  -2  -3  -6    1.69    0.18
   2   3   6    1.64    0.19
  -3  -3  -6   49.77    1.46
   3   3   6   49.52    1.46
  -4  -3  -6    1.06    0.14
   4   3   6    1.10    0.16
  -5  -3  -6    0.11    0.08
   5   3   6   -0.11    0.11
   6   3   6   23.84    0.82
   7   3   6    0.06    0.13
   8   3   6    0.07    0.14
   9   3   6    7.49    0.44
   8  -4  -6    5.38    0.44
   7  -4  -6    2.71    0.30
   6  -4  -6    4.88    0.39
   5  -4  -6   14.74    0.63
  -5   4   6   14.10    0.58
   4  -4  -6    8.29    0.46
  -4   4   6    8.51    0.43
   3  -4  -6    3.12    0.30
  -3   4   6    3.16    0.31
   2  -4  -6    2.40    0.24
  -2   4   6    3.21    0.31
   1  -4  -6   22.34    0.79
  -1   4   6   22.26    0.78
   0  -4  -6   57.81    1.71
   0   4   6   58.58    1.70
  -1  -4  -6   35.78    1.11
   1   4   6   34.76    1.10
  -2  -4  -6    4.83    0.30
   2   4   6    4.47    0.33
  -3  -4  -6   28.26    0.91
   3   4   6   26.95    0.90
  -4  -4  -6    0.77    0.13
   4   4   6    0.52    0.15
  -5  -4  -6    0.17    0.09
   5   4   6    0.14    0.14
   6   4   6   60.04    1.76
   7   4   6    0.29    0.15
   8   4   6    7.28    0.41
   9   4   6    8.32    0.46
   7  -5  -6    0.33    0.18
   6  -5  -6    0.79    0.21
   5  -5  -6   12.65    0.61
   4  -5  -6    7.16    0.44
  -4   5   6    7.10    0.43
   3  -5  -6   -0.04    0.13
  -3   5   6    0.01    0.15
   2  -5  -6    2.29    0.25
  -2   5   6    1.87    0.23
   1  -5  -6    3.08    0.30
  -1   5   6    3.41    0.31
   0  -5  -6    7.33    0.41
   0   5   6    7.24    0.42
  -1  -5  -6   73.83    2.12
   1   5   6   73.46    2.11
  -2  -5  -6   17.55    0.65
   2   5   6   16.59    0.65
  -3  -5  -6   13.61    0.55
   3   5   6   13.77    0.56
  -4  -5  -6    6.76    0.35
   4   5   6    6.65    0.38
  -5  -5  -6    0.36    0.11
   5   5   6    0.01    0.14
   6   5   6   29.17    0.98
   7   5   6    1.77    0.24
   8   5   6    5.29    0.38
   9   5   6    8.84    0.48
   7  -6  -6    1.22    0.30
   6  -6  -6    0.69    0.22
   5  -6  -6    2.04    0.28
   4  -6  -6    2.72    0.31
  -4   6   6    2.52    0.29
   3  -6  -6    1.51    0.24
  -3   6   6    1.47    0.25
   2  -6  -6    6.00    0.40
  -2   6   6    4.94    0.40
   1  -6  -6    8.62    0.47
  -1   6   6    8.48    0.47
   0  -6  -6    0.08    0.13
   0   6   6    0.03    0.16
  -1  -6  -6    2.29    0.25
   1   6   6    2.19    0.24
  -2  -6  -6    1.68    0.21
   2   6   6    1.53    0.22
  -3  -6  -6   13.77    0.57
   3   6   6   12.77    0.57
  -4  -6  -6   20.01    0.72
   4   6   6   20.06    0.75
   5   6   6    1.65    0.23
   6   6   6   14.24    0.62
   7   6   6    4.22    0.38
   8   6   6    0.06    0.17
   6  -7  -6    0.28    0.21
   5  -7  -6    2.60    0.33
   4  -7  -6    1.63    0.27
  -4   7   6    2.09    0.29
   3  -7  -6    0.24    0.18
  -3   7   6    0.01    0.18
   2  -7  -6    9.07    0.53
  -2   7   6    8.54    0.53
   1  -7  -6    7.73    0.48
  -1   7   6    7.85    0.49
   0  -7  -6   13.75    0.63
   0   7   6   13.87    0.64
  -1  -7  -6   21.64    0.84
   1   7   6   22.46    0.84
  -2  -7  -6    4.84    0.36
   2   7   6    4.85    0.42
  -3  -7  -6   -0.06    0.11
   3   7   6   -0.18    0.16
  -4  -7  -6    4.96    0.34
   4   7   6    4.81    0.40
   5   7   6    2.64    0.29
   6   7   6   10.51    0.55
   7   7   6    9.28    0.52
   8   7   6    1.06    0.23
   5  -8  -6    3.26    0.41
   4  -8  -6    1.13    0.27
  -4   8   6    0.76    0.26
   3  -8  -6    0.10    0.19
  -3   8   6    0.22    0.22
   2  -8  -6    3.48    0.36
  -2   8   6    4.18    0.39
   1  -8  -6    3.44    0.36
  -1   8   6    3.56    0.36
   0  -8  -6   17.87    0.77
   0   8   6   17.99    0.78
  -1  -8  -6    7.13    0.48
   1   8   6    7.76    0.53
  -2  -8  -6    6.18    0.44
   2   8   6    6.77    0.50
  -3  -8  -6   11.08    0.56
   3   8   6   11.69    0.61
   4   8   6    5.64    0.46
   5   8   6    0.20    0.21
   6   8   6    3.19    0.33
   7   8   6    4.34    0.43
   3  -9  -6    0.45    0.24
  -3   9   6    0.30    0.25
   2  -9  -6    2.64    0.36
  -2   9   6    2.56    0.35
   1  -9  -6    3.69    0.40
  -1   9   6    4.21    0.40
   0  -9  -6    3.48    0.37
   0   9   6    3.35    0.36
  -1  -9  -6    1.66    0.27
   1   9   6    1.67    0.31
  -2  -9  -6    2.85    0.32
   2   9   6    2.41    0.33
  -3  -9  -6    2.40    0.29
   3   9   6    2.77    0.33
   4   9   6    1.25    0.27
   5   9   6    3.21    0.36
   6   9   6    0.26    0.22
   1 -10  -6    2.34    0.35
  -1  10   6    2.48    0.37
   0 -10  -6    2.19    0.34
   0  10   6    2.03    0.35
  -1 -10  -6    2.23    0.32
   1  10   6    2.53    0.36
  -2 -10  -6    1.11    0.25
   2  10   6    1.42    0.31
   3  10   6   -0.02    0.24
   4  10   6    1.26    0.30
   4   8  -7    0.00    0.19
   3   8  -7    7.04    0.54
   2   8  -7    9.28    0.60
  -2  -8   7    9.08    0.60
   1   8  -7    8.79    0.58
  -1  -8   7    7.35    0.57
   0   8  -7    5.27    0.49
   0  -8   7    5.34    0.53
  -1   8  -7    0.15    0.20
   1  -8   7    0.30    0.24
  -2   8  -7    4.28    0.44
   2  -8   7    4.20    0.47
   6   7  -7    4.09    0.42
   5   7  -7    1.67    0.27
   4   7  -7    0.45    0.20
   3   7  -7    3.43    0.35
   2   7  -7    0.03    0.18
  -2  -7   7    0.05    0.18
   1   7  -7    4.27    0.41
  -1  -7   7    3.86    0.41
   0   7  -7   15.03    0.72
   0  -7   7   14.14    0.74
  -1   7  -7    1.99    0.30
   1  -7   7    1.95    0.32
  -2   7  -7    1.64    0.28
   2  -7   7    1.70    0.32
  -3   7  -7    0.31    0.20
   3  -7   7    0.36    0.23
  -4   7  -7    1.58    0.27
   4  -7   7    1.92    0.34
   7   6  -7    0.18    0.19
   6   6  -7    5.93    0.43
   5   6  -7    5.83    0.43
   4   6  -7    2.79    0.31
   3   6  -7   11.46    0.58
  -3  -6   7   11.44    0.58
   2   6  -7    0.20    0.17
  -2  -6   7    0.29    0.19
   1   6  -7    0.18    0.18
  -1  -6   7    0.43    0.21
   0   6  -7    4.20    0.39
  -1   6  -7    2.84    0.32
  -2   6  -7    9.73    0.55
  -3   6  -7    4.72    0.41
  -4   6  -7    0.18    0.17
   7   5  -7    0.08    0.15
   6   5  -7    2.03    0.26
   5   5  -7    1.01    0.21
   4   5  -7    5.18    0.39
   3   5  -7   33.96    1.14
  -3  -5   7   32.92    1.13
   2   5  -7    4.12    0.35
   1   5  -7    1.14    0.22
  -1  -5   7    1.22    0.24
   0   5  -7    2.49    0.27
   0  -5   7    2.65    0.31
  -1   5  -7    1.09    0.22
   1  -5   7    1.17    0.23
  -2   5  -7   20.19    0.81
   2  -5   7   20.13    0.86
  -3   5  -7   14.85    0.66
   3  -5   7   15.48    0.75
  -4   5  -7    1.04    0.22
   4  -5   7    0.67    0.23
   5  -5   7    3.79    0.40
   6  -5   7    3.36    0.41
   8   4  -7    2.61    0.28
   7   4  -7    0.72    0.18
   6   4  -7    9.42    0.50
   5   4  -7    0.18    0.13
   4   4  -7    0.45    0.16
  -4  -4   7    0.63    0.15
   3   4  -7   13.87    0.60
   2   4  -7   14.56    0.62
  -2  -4   7   14.10    0.63
   1   4  -7   -0.09    0.12
  -1  -4   7   -0.11    0.14
   0   4  -7    3.57    0.31
   0  -4   7    3.50    0.33
  -1   4  -7    0.01    0.13
   1  -4   7    0.06    0.14
  -2   4  -7    7.46    0.44
   2  -4   7    7.09    0.47
  -3   4  -7   30.78    1.06
   3  -4   7   31.18    1.13
  -4   4  -7    6.46    0.40
   4  -4   7    6.50    0.49
  -5   4  -7   12.19    0.56
   5  -4   7   11.95    0.67
   6  -4   7    4.44    0.43
   7  -4   7    0.02    0.20
   8   3  -7    0.25    0.14
   7   3  -7    0.45    0.15
   6   3  -7    6.27    0.39
   5   3  -7    7.64    0.42
   4   3  -7    0.28    0.14
   3   3  -7    0.69    0.16
  -3  -3   7    0.82    0.16
   2   3  -7   13.82    0.58
  -2  -3   7   14.15    0.60
   1   3  -7    4.04    0.31
  -1  -3   7    4.62    0.35
   0   3  -7    3.72    0.30
   0  -3   7    3.11    0.31
  -1   3  -7   17.68    0.69
   1  -3   7   17.88    0.73
  -2   3  -7    3.68    0.31
   2  -3   7    4.19    0.36
  -3   3  -7   13.93    0.58
   3  -3   7   13.40    0.63
  -4   3  -7    7.93    0.42
   4  -3   7    7.78    0.49
  -5   3  -7   14.15    0.58
   5  -3   7   13.44    0.67
   6  -3   7    8.97    0.56
   7  -3   7    0.37    0.22
   8   2  -7    0.45    0.15
   7   2  -7    1.29    0.20
   6   2  -7    8.73    0.45
   5   2  -7   12.77    0.55
   4   2  -7    1.34    0.19
  -4  -2   7    1.46    0.18
   3   2  -7    3.75    0.29
  -3  -2   7    3.25    0.28
   2   2  -7    0.81    0.15
  -2  -2   7    1.63    0.20
   1   2  -7    0.66    0.15
  -1  -2   7    0.78    0.16
   0   2  -7   86.01    2.46
   0  -2   7   87.35    2.48
  -1   2  -7  120.31    3.30
   1  -2   7  117.99    3.33
  -2   2  -7    1.89    0.21
   2  -2   7    2.08    0.25
  -3   2  -7    7.87    0.41
   3  -2   7    7.75    0.45
  -4   2  -7    0.70    0.16
   4  -2   7    0.80    0.18
  -5   2  -7   -0.14    0.10
   5  -2   7   -0.06    0.14
   6  -2   7   21.09    0.86
   7  -2   7    4.41    0.42
   8  -2   7    4.03    0.40
   8   1  -7    5.32    0.37
   7   1  -7    0.56    0.16
   6   1  -7    0.77    0.16
   5   1  -7   12.22    0.54
   4   1  -7   18.69    0.70
  -4  -1   7   19.12    0.67
   3   1  -7   22.61    0.79
  -3  -1   7   22.11    0.78
   2   1  -7    7.82    0.39
  -2  -1   7    7.57    0.40
   1   1  -7   -0.08    0.09
  -1  -1   7   -0.16    0.11
   0   1  -7   20.15    0.73
   0  -1   7   20.45    0.75
  -1   1  -7   80.23    2.30
   1  -1   7   81.20    2.32
  -2   1  -7  145.92    3.99
   2  -1   7  146.85    4.02
  -3   1  -7   53.55    1.58
   3  -1   7   53.01    1.62
  -4   1  -7    0.05    0.10
   4  -1   7   -0.07    0.12
  -5   1  -7    1.54    0.18
   5  -1   7    1.21    0.21
   6  -1   7   12.32    0.59
   7  -1   7    0.61    0.19
   8  -1   7   10.46    0.59
   8   0  -7    5.76    0.39
   7   0  -7    0.01    0.12
   6   0  -7    0.27    0.13
   5   0  -7   14.99    0.61
   4   0  -7    0.90    0.17
  -4   0   7    0.71    0.14
   3   0  -7   20.42    0.74
  -3   0   7   20.76    0.73
   2   0  -7   64.19    1.90
  -2   0   7   66.57    1.90
   1   0  -7    4.08    0.29
  -1   0   7    3.89    0.31
   0   0  -7    6.60    0.36
   0   0   7    6.82    0.38
  -1   0  -7   13.96    0.56
   1   0   7   14.41    0.59
  -2   0  -7    8.35    0.42
   2   0   7    8.65    0.45
  -3   0  -7   46.31    1.40
   3   0   7   46.94    1.44
  -4   0  -7   54.87    1.62
   4   0   7   55.91    1.67
  -5   0  -7    9.76    0.42
   5   0   7    9.60    0.50
   6   0   7    0.70    0.18
   7   0   7    0.44    0.17
   8   0   7    1.92    0.26
   9   0   7    1.80    0.27
   8  -1  -7    3.92    0.35
   7  -1  -7    6.02    0.40
   6  -1  -7    4.23    0.34
   5  -1  -7   27.90    0.96
   4  -1  -7    4.73    0.34
   3  -1  -7    1.00    0.17
  -3   1   7    0.78    0.16
   2  -1  -7   33.65    1.10
  -2   1   7   35.84    1.11
   1  -1  -7    5.46    0.33
  -1   1   7    5.82    0.35
   0  -1  -7   34.51    1.10
   0   1   7   34.40    1.10
  -1  -1  -7   14.75    0.57
   1   1   7   13.54    0.57
  -2  -1  -7    2.54    0.24
   2   1   7    1.92    0.23
  -3  -1  -7    1.94    0.21
   3   1   7    1.97    0.24
  -4  -1  -7   -0.12    0.09
   4   1   7   -0.22    0.12
  -5  -1  -7   12.91    0.49
   5   1   7   12.42    0.57
   6   1   7   24.28    0.88
   7   1   7    4.26    0.36
   8   1   7   -0.02    0.15
   9   1   7    4.39    0.40
   8  -2  -7    1.32    0.23
   7  -2  -7    2.75    0.29
   6  -2  -7    3.30    0.33
   5  -2  -7   68.16    2.01
   4  -2  -7   13.02    0.57
  -4   2   7   13.83    0.56
   3  -2  -7    0.25    0.13
  -3   2   7    0.23    0.13
   2  -2  -7   21.27    0.77
  -2   2   7   21.84    0.77
   1  -2  -7    0.00    0.10
  -1   2   7    0.09    0.12
   0  -2  -7   30.84    0.99
   0   2   7   29.08    0.98
  -1  -2  -7   32.54    1.04
   1   2   7   31.66    1.04
  -2  -2  -7    0.67    0.14
   2   2   7    0.72    0.16
  -3  -2  -7    2.46    0.24
   3   2   7    2.11    0.22
  -4  -2  -7    2.56    0.24
   4   2   7    2.90    0.27
  -5  -2  -7    1.82    0.18
   5   2   7    1.77    0.23
   6   2   7    6.27    0.41
   7   2   7    6.65    0.42
   8   2   7    2.31    0.27
   9   2   7    5.69    0.43
   8  -3  -7    2.76    0.31
   7  -3  -7    3.19    0.32
   6  -3  -7   -0.16    0.14
   5  -3  -7    8.06    0.47
   4  -3  -7    5.35    0.37
  -4   3   7    4.94    0.35
   3  -3  -7   18.78    0.73
  -3   3   7   19.76    0.73
   2  -3  -7   56.07    1.68
  -2   3   7   55.92    1.66
   1  -3  -7    0.67    0.16
  -1   3   7    0.34    0.15
   0  -3  -7    7.68    0.40
   0   3   7    7.91    0.42
  -1  -3  -7   31.44    1.02
   1   3   7   30.95    1.02
  -2  -3  -7   14.92    0.59
   2   3   7   14.01    0.58
  -3  -3  -7    0.20    0.11
   3   3   7    0.42    0.15
  -4  -3  -7   12.12    0.49
   4   3   7   11.40    0.52
  -5  -3  -7    4.26    0.26
   5   3   7    4.93    0.36
   6   3   7    8.55    0.47
   7   3   7   14.26    0.62
   8   3   7    1.81    0.25
   9   3   7    6.68    0.45
   7  -4  -7    6.39    0.47
   6  -4  -7   -0.06    0.15
   5  -4  -7    3.17    0.32
   4  -4  -7   -0.02    0.14
  -4   4   7    0.02    0.15
   3  -4  -7    2.48    0.26
  -3   4   7    3.47    0.32
   2  -4  -7    6.19    0.40
  -2   4   7    6.70    0.41
   1  -4  -7   32.67    1.09
  -1   4   7   33.05    1.08
   0  -4  -7    9.67    0.48
   0   4   7   10.65    0.51
  -1  -4  -7   18.42    0.70
   1   4   7   18.42    0.71
  -2  -4  -7    7.49    0.40
   2   4   7    7.98    0.43
  -3  -4  -7    2.55    0.25
   3   4   7    2.15    0.23
  -4  -4  -7   15.93    0.60
   4   4   7   15.07    0.63
  -5  -4  -7   10.27    0.44
   5   4   7   10.39    0.52
   6   4   7    1.43    0.22
   7   4   7   21.94    0.82
   8   4   7    1.55    0.23
   9   4   7    3.16    0.32
   7  -5  -7    1.61    0.28
   6  -5  -7    0.56    0.20
   5  -5  -7    3.35    0.35
   4  -5  -7    0.17    0.17
  -4   5   7    0.31    0.17
   3  -5  -7    0.31    0.17
  -3   5   7    0.16    0.17
   2  -5  -7    4.86    0.38
  -2   5   7    5.46    0.40
   1  -5  -7   -0.06    0.12
  -1   5   7   -0.23    0.14
   0  -5  -7    0.08    0.13
   0   5   7   -0.04    0.15
  -1  -5  -7   21.65    0.81
   1   5   7   21.79    0.81
  -2  -5  -7    7.58    0.42
   2   5   7    7.58    0.45
  -3  -5  -7    7.25    0.40
   3   5   7    6.72    0.44
  -4  -5  -7   21.62    0.76
   4   5   7   20.63    0.79
   5   5   7    6.31    0.42
   6   5   7    1.83    0.25
   7   5   7    4.84    0.40
   8   5   7    0.38    0.17
   6  -6  -7    0.43    0.22
   5  -6  -7    0.70    0.23
   4  -6  -7    5.83    0.47
  -4   6   7    7.23    0.48
   3  -6  -7    0.03    0.16
  -3   6   7   -0.04    0.18
   2  -6  -7    8.12    0.49
  -2   6   7    7.59    0.49
   1  -6  -7   15.84    0.69
  -1   6   7   16.20    0.70
   0  -6  -7    2.00    0.25
   0   6   7    2.33    0.28
  -1  -6  -7    1.13    0.20
   1   6   7    1.18    0.23
  -2  -6  -7    2.42    0.26
   2   6   7    2.29    0.27
  -3  -6  -7    7.43    0.43
   3   6   7    7.11    0.46
  -4  -6  -7   15.21    0.63
   4   6   7   15.09    0.67
   5   6   7   10.63    0.57
   6   6   7   17.69    0.75
   7   6   7    0.45    0.20
   8   6   7    0.03    0.17
   5  -7  -7    0.10    0.20
   4  -7  -7    5.86    0.49
  -4   7   7    5.46    0.48
   3  -7  -7    0.19    0.20
  -3   7   7   -0.18    0.19
   2  -7  -7   11.22    0.61
  -2   7   7   10.78    0.61
   1  -7  -7   24.56    0.95
  -1   7   7   24.95    0.95
   0  -7  -7   -0.12    0.15
   0   7   7   -0.10    0.19
  -1  -7  -7   22.36    0.88
   1   7   7   24.16    0.91
  -2  -7  -7    8.16    0.48
   2   7   7    7.54    0.51
  -3  -7  -7    0.58    0.17
   3   7   7    0.40    0.22
  -4  -7  -7    9.83    0.50
   4   7   7    8.66    0.54
   5   7   7    6.36    0.47
   6   7   7    7.06    0.50
   7   7   7    1.70    0.28
   4  -8  -7    2.54    0.36
   3  -8  -7    1.31    0.28
  -3   8   7    1.30    0.29
   2  -8  -7    3.42    0.37
  -2   8   7    3.29    0.36
   1  -8  -7   12.06    0.64
  -1   8   7   11.66    0.66
   0  -8  -7   -0.10    0.16
   0   8   7   -0.24    0.21
  -1  -8  -7   10.57    0.58
   1   8   7   10.51    0.62
  -2  -8  -7    2.30    0.29
   2   8   7    2.30    0.32
  -3  -8  -7    0.41    0.17
   3   8   7    0.21    0.22
   4   8   7    5.84    0.49
   5   8   7    1.18    0.26
   6   8   7    1.18    0.26
  -3   9   7    1.49    0.35
   2  -9  -7    2.41    0.36
  -2   9   7    2.10    0.35
   1  -9  -7    8.05    0.57
  -1   9   7    9.35    0.62
   0  -9  -7    0.53    0.22
   0   9   7    0.59    0.27
  -1  -9  -7    0.65    0.21
   1   9   7    0.57    0.25
  -2  -9  -7    1.60    0.26
   2   9   7    2.00    0.32
  -3  -9  -7   -0.08    0.15
   3   9   7   -0.08    0.22
   4   9   7    1.99    0.31
   5   9   7    0.21    0.24
   0 -10  -7    1.05    0.28
   0  10   7    1.26    0.33
  -1 -10  -7    1.54    0.29
   1  10   7    1.84    0.34
  -2 -10  -7    3.16    0.37
   2  10   7    2.75    0.38
   3  10   7    0.72    0.29
   1   8  -8    0.22    0.23
  -1  -8   8    0.46    0.25
   0   8  -8    1.93    0.35
   4   7  -8    0.72    0.24
   3   7  -8   13.67    0.71
   2   7  -8    0.16    0.21
  -2  -7   8    0.13    0.20
   1   7  -8    0.49    0.24
  -1  -7   8    0.51    0.25
   0   7  -8    4.01    0.41
   0  -7   8    3.91    0.42
  -1   7  -8    0.36    0.22
   1  -7   8    0.22    0.24
  -2   7  -8    1.62    0.29
   2  -7   8    1.36    0.31
  -3   7  -8    7.50    0.55
   3  -7   8    7.29    0.64
   6   6  -8    2.22    0.34
   5   6  -8    1.45    0.26
   4   6  -8   -0.05    0.16
   3   6  -8    6.48    0.48
   2   6  -8    8.12    0.52
  -2  -6   8    7.92    0.54
   1   6  -8    0.86    0.24
   0   6  -8    9.28    0.57
  -1   6  -8   -0.30    0.16
  -2   6  -8    2.04    0.30
  -3   6  -8    4.91    0.44
  -4   6  -8    6.01    0.47
   6   5  -8    4.56    0.40
   5   5  -8    7.53    0.49
   4   5  -8    2.29    0.29
   3   5  -8    0.11    0.16
   2   5  -8    1.84    0.27
   1   5  -8    3.38    0.34
  -1  -5   8    3.24    0.36
   0   5  -8   27.23    1.02
   0  -5   8   28.28    1.08
  -1   5  -8   12.00    0.62
   1  -5   8   12.60    0.67
  -2   5  -8   -0.18    0.16
   2  -5   8   -0.12    0.17
  -3   5  -8    3.68    0.37
   3  -5   8    4.05    0.44
  -4   5  -8   10.09    0.56
   4  -5   8    9.39    0.65
   5  -5   8    0.92    0.27
   7   4  -8    0.05    0.15
   6   4  -8    1.16    0.21
   5   4  -8   14.55    0.66
   4   4  -8    2.80    0.30
   3   4  -8    0.94    0.21
  -3  -4   8    0.70    0.20
   2   4  -8    9.28    0.51
  -2  -4   8    9.72    0.53
   1   4  -8    3.43    0.34
  -1  -4   8    3.17    0.32
   0   4  -8   26.34    0.97
   0  -4   8   27.26    1.02
  -1   4  -8   23.77    0.91
   1  -4   8   24.25    0.96
  -2   4  -8    4.43    0.38
   2  -4   8    4.45    0.44
  -3   4  -8   10.09    0.54
   3  -4   8    9.03    0.60
  -4   4  -8    2.95    0.31
   4  -4   8    2.58    0.35
   5  -4   8    1.06    0.27
   6  -4   8    8.02    0.61
   7   3  -8   -0.11    0.12
   6   3  -8    0.92    0.20
   5   3  -8    2.96    0.30
   4   3  -8    3.96    0.35
  -4  -3   8    4.16    0.34
   3   3  -8   21.23    0.82
  -3  -3   8   21.80    0.82
   2   3  -8   23.42    0.87
  -2  -3   8   23.83    0.90
   1   3  -8    1.37    0.20
  -1  -3   8    1.35    0.23
   0   3  -8    0.13    0.13
   0  -3   8    0.18    0.16
  -1   3  -8    1.06    0.19
   1  -3   8    1.21    0.22
  -2   3  -8   20.81    0.81
   2  -3   8   22.14    0.88
  -3   3  -8   10.23    0.52
   3  -3   8    9.25    0.56
  -4   3  -8    3.31    0.33
   4  -3   8    3.71    0.37
   5  -3   8    1.86    0.30
   6  -3   8    5.85    0.50
   7  -3   8    4.65    0.46
   8   2  -8    3.73    0.36
   7   2  -8    6.70    0.43
   6   2  -8    1.75    0.24
   5   2  -8    1.24    0.20
   4   2  -8    0.33    0.15
  -4  -2   8    0.44    0.14
   3   2  -8    8.50    0.46
  -3  -2   8    8.99    0.47
   2   2  -8   58.04    1.80
  -2  -2   8   61.96    1.83
   1   2  -8   20.83    0.78
  -1  -2   8   19.93    0.79
   0   2  -8   50.13    1.53
   0  -2   8   48.95    1.55
  -1   2  -8   12.49    0.57
   1  -2   8   13.57    0.61
  -2   2  -8    1.98    0.24
   2  -2   8    2.13    0.26
  -3   2  -8    5.30    0.37
   3  -2   8    6.38    0.44
  -4   2  -8   14.64    0.62
   4  -2   8   14.54    0.68
  -5   2  -8    2.30    0.25
   5  -2   8    1.87    0.28
   6  -2   8    4.52    0.44
   7  -2   8    2.71    0.34
   8   1  -8    0.02    0.14
   7   1  -8    6.46    0.42
   6   1  -8    5.56    0.39
   5   1  -8    9.92    0.50
   4   1  -8    0.92    0.18
  -4  -1   8    1.08    0.17
   3   1  -8    0.07    0.12
  -3  -1   8    0.19    0.13
   2   1  -8   30.19    1.01
  -2  -1   8   28.74    1.00
   1   1  -8   26.82    0.94
  -1  -1   8   27.70    0.96
   0   1  -8   23.42    0.83
   0  -1   8   21.75    0.84
  -1   1  -8   85.10    2.46
   1  -1   8   86.68    2.49
  -2   1  -8    0.15    0.12
  -3   1  -8    8.94    0.45
   3  -1   8    9.30    0.51
  -4   1  -8    8.47    0.43
   4  -1   8    7.78    0.48
  -5   1  -8    2.74    0.27
   5  -1   8    2.34    0.29
   6  -1   8    3.86    0.39
   7  -1   8    1.38    0.25
   8  -1   8    0.92    0.25
   8   0  -8    0.12    0.16
   7   0  -8    0.51    0.17
   6   0  -8    1.12    0.21
   5   0  -8    5.90    0.39
   4   0  -8   12.41    0.58
  -4   0   8   13.36    0.55
   3   0  -8    0.02    0.11
  -3   0   8    0.15    0.13
   2   0  -8    7.04    0.40
  -2   0   8    7.18    0.42
   1   0  -8    3.04    0.27
  -1   0   8    3.10    0.29
   0   0  -8   11.81    0.53
   0   0   8   11.88    0.56
  -1   0  -8   68.91    2.01
   1   0   8   67.74    2.02
  -2   0  -8    9.98    0.48
  -3   0  -8    2.89    0.27
   3   0   8    3.49    0.34
  -4   0  -8   30.14    0.99
   4   0   8   29.10    1.04
  -5   0  -8    0.10    0.11
   5   0   8   -0.05    0.15
   6   0   8    8.47    0.52
   7   0   8    3.35    0.35
   8   0   8   -0.04    0.16
   8  -1  -8    2.23    0.28
   7  -1  -8    9.35    0.51
   6  -1  -8    4.23    0.36
   5  -1  -8    0.09    0.13
   4  -1  -8   12.78    0.59
  -4   1   8   14.12    0.58
   3  -1  -8    4.67    0.34
  -3   1   8    4.73    0.36
   2  -1  -8    7.34    0.42
  -2   1   8    7.24    0.42
   1  -1  -8    2.27    0.23
  -1   1   8    2.21    0.24
   0  -1  -8   -0.01    0.12
   0   1   8   -0.13    0.13
  -1  -1  -8   15.57    0.63
   1   1   8   15.28    0.65
  -2  -1  -8    3.50    0.30
   2   1   8    3.56    0.32
  -3  -1  -8    0.74    0.16
   3   1   8    0.48    0.17
  -4  -1  -8    9.52    0.46
   4   1   8   10.15    0.52
  -5  -1  -8    0.04    0.10
   5   1   8    0.01    0.15
   6   1   8   10.74    0.57
   7   1   8    3.14    0.33
   8   1   8    1.89    0.28
   7  -2  -8    5.02    0.43
   6  -2  -8    2.32    0.28
   5  -2  -8    9.87    0.53
   4  -2  -8   13.23    0.62
  -4   2   8   13.99    0.59
   3  -2  -8    3.61    0.33
  -3   2   8    3.56    0.33
   2  -2  -8   15.77    0.65
  -2   2   8   16.36    0.66
   1  -2  -8   18.16    0.71
  -1   2   8   18.61    0.72
   0  -2  -8    2.13    0.25
   0   2   8    2.43    0.27
  -1  -2  -8    5.82    0.37
   1   2   8    5.44    0.39
  -2  -2  -8    1.07    0.17
   2   2   8    1.03    0.20
  -3  -2  -8    7.66    0.41
   3   2   8    7.69    0.45
  -4  -2  -8   35.75    1.13
   4   2   8   34.83    1.17
  -5  -2  -8    6.39    0.35
   5   2   8    6.95    0.45
   6   2   8    2.04    0.27
   7   2   8   10.78    0.57
   8   2   8    3.97    0.40
   7  -3  -8    2.39    0.31
   6  -3  -8    0.44    0.19
   5  -3  -8   -0.01    0.15
   4  -3  -8    0.34    0.16
   3  -3  -8    9.55    0.51
  -3   3   8    9.80    0.51
   2  -3  -8   30.00    1.06
  -2   3   8   31.63    1.06
   1  -3  -8   12.39    0.56
  -1   3   8   12.19    0.57
   0  -3  -8    2.29    0.26
   0   3   8    1.98    0.25
  -1  -3  -8    7.36    0.41
   1   3   8    6.59    0.42
  -2  -3  -8    0.50    0.14
   2   3   8    0.47    0.16
  -3  -3  -8    5.27    0.35
   3   3   8    5.30    0.39
  -4  -3  -8   29.80    1.00
   4   3   8   30.35    1.04
  -5  -3  -8   16.63    0.64
   5   3   8   17.35    0.72
   6   3   8    6.61    0.45
   7   3   8    7.80    0.49
   8   3   8    2.76    0.31
   7  -4  -8    1.99    0.29
   6  -4  -8   -0.17    0.15
   5  -4  -8    0.26    0.18
   4  -4  -8    0.98    0.22
  -4   4   8    0.97    0.21
   3  -4  -8    0.99    0.21
  -3   4   8    1.05    0.22
   2  -4  -8    3.05    0.31
  -2   4   8    2.81    0.29
   1  -4  -8    9.91    0.52
  -1   4   8   10.44    0.53
   0  -4  -8   12.22    0.57
   0   4   8   11.95    0.57
  -1  -4  -8   10.56    0.52
   1   4   8   10.44    0.53
  -2  -4  -8   10.60    0.52
   2   4   8   10.39    0.53
  -3  -4  -8   -0.02    0.12
   3   4   8    0.02    0.15
  -4  -4  -8    8.09    0.44
   4   4   8    8.62    0.50
   5   4   8    8.04    0.49
   6   4   8    4.17    0.39
   7   4   8    2.93    0.31
   8   4   8    1.17    0.24
   6  -5  -8   -0.02    0.19
   5  -5  -8    0.50    0.21
   4  -5  -8    2.31    0.31
  -4   5   8    2.11    0.28
   3  -5  -8    4.30    0.41
  -3   5   8    4.76    0.42
   2  -5  -8    6.43    0.44
  -2   5   8    6.19    0.46
   1  -5  -8    0.68    0.19
  -1   5   8    0.35    0.20
   0  -5  -8    0.46    0.17
   0   5   8    0.69    0.21
  -1  -5  -8   14.10    0.64
   1   5   8   14.61    0.66
  -2  -5  -8   30.56    1.04
   2   5   8   28.55    1.03
  -3  -5  -8    2.37    0.26
   3   5   8    2.91    0.31
  -4  -5  -8   23.02    0.83
   4   5   8   22.37    0.87
   5   5   8    5.22    0.44
   6   5   8    1.89    0.27
   7   5   8    4.06    0.40
   8   5   8    1.21    0.25
   5  -6  -8    0.20    0.21
   4  -6  -8    2.07    0.31
  -4   6   8    2.38    0.31
   3  -6  -8   10.76    0.60
  -3   6   8    9.82    0.57
   2  -6  -8    5.86    0.46
  -2   6   8    5.13    0.47
   1  -6  -8    7.89    0.50
  -1   6   8    8.25    0.53
   0  -6  -8    3.94    0.37
   0   6   8    3.89    0.38
  -1  -6  -8    3.92    0.39
   1   6   8    3.84    0.36
  -2  -6  -8   17.55    0.74
   2   6   8   18.21    0.77
  -3  -6  -8    5.21    0.39
   3   6   8    5.52    0.46
  -4  -6  -8   16.74    0.69
   4   6   8   16.94    0.74
   5   6   8   18.23    0.79
   6   6   8    1.12    0.25
   7   6   8    6.46    0.49
   4  -7  -8    1.38    0.28
   3  -7  -8    2.42    0.34
  -3   7   8    2.82    0.36
   2  -7  -8    2.66    0.34
  -2   7   8    3.49    0.38
   1  -7  -8    3.28    0.36
  -1   7   8    3.99    0.40
   0  -7  -8    4.78    0.43
   0   7   8    4.36    0.41
  -1  -7  -8    0.36    0.20
   1   7   8    0.33    0.23
  -2  -7  -8    7.15    0.48
   2   7   8    7.69    0.55
  -3  -7  -8    2.98    0.31
   3   7   8    2.60    0.32
   4   7   8    6.21    0.50
   5   7   8    6.17    0.51
   6   7   8    0.23    0.21
   7   7   8    5.42    0.51
   3  -8  -8    3.84    0.42
  -3   8   8    4.38    0.44
   2  -8  -8    1.38    0.28
  -2   8   8    1.26    0.30
   1  -8  -8    0.20    0.21
  -1   8   8    0.11    0.24
   0  -8  -8    1.42    0.27
   0   8   8    0.87    0.28
  -1  -8  -8    0.42    0.20
   1   8   8    0.28    0.23
  -2  -8  -8    3.03    0.35
   2   8   8    2.55    0.35
  -3  -8  -8    0.09    0.16
   3   8   8    0.01    0.22
   4   8   8    0.16    0.22
   5   8   8    2.39    0.35
   6   8   8    0.06    0.24
   1  -9  -8    4.09    0.44
  -1   9   8    4.89    0.47
   0  -9  -8    0.39    0.22
   0   9   8   -0.01    0.24
  -1  -9  -8    1.00    0.24
   1   9   8    0.76    0.29
  -2  -9  -8    1.35    0.26
   2   9   8    1.79    0.33
   3   9   8    0.99    0.29
   4   9   8    0.15    0.24
   2   7  -9    0.01    0.21
   1   7  -9    2.05    0.34
  -1  -7   9    1.77    0.34
   0   7  -9    3.62    0.41
   0  -7   9    3.30    0.43
   4   6  -9    7.38    0.54
   3   6  -9    1.02    0.26
   2   6  -9   -0.13    0.18
  -2  -6   9   -0.03    0.20
   1   6  -9    1.96    0.32
   0   6  -9    2.98    0.36
  -1   6  -9   12.23    0.69
  -2   6  -9    0.75    0.24
   2  -6   9    0.65    0.29
  -3   6  -9    4.02    0.41
   3  -6   9    4.56    0.52
   5   5  -9    0.08    0.16
   4   5  -9    0.01    0.16
   3   5  -9    1.41    0.25
   2   5  -9   10.08    0.58
   1   5  -9    1.34    0.26
  -1  -5   9    0.16    0.21
   0   5  -9    1.96    0.29
   0  -5   9    1.67    0.30
  -1   5  -9    7.02    0.51
   1  -5   9    7.26    0.56
  -2   5  -9    3.58    0.38
   2  -5   9    3.89    0.44
  -3   5  -9   10.83    0.62
   3  -5   9   10.48    0.69
  -4   5  -9    1.54    0.28
   4  -5   9    1.52    0.34
   6   4  -9   -0.02    0.15
   5   4  -9    0.08    0.15
   4   4  -9    0.28    0.17
   3   4  -9    0.21    0.16
  -3  -4   9    0.00    0.17
   2   4  -9    4.99    0.42
  -2  -4   9    4.57    0.44
   1   4  -9    4.06    0.38
  -1  -4   9    2.98    0.35
   0   4  -9    5.68    0.44
   0  -4   9    5.35    0.48
  -1   4  -9    0.61    0.20
   1  -4   9    1.18    0.28
  -2   4  -9    1.65    0.26
   2  -4   9    1.33    0.28
  -3   4  -9   11.24    0.62
   3  -4   9   12.24    0.71
  -4   4  -9   12.40    0.64
   4  -4   9   13.41    0.75
   5  -4   9    0.62    0.26
   6   3  -9    0.70    0.20
   5   3  -9    5.66    0.44
   4   3  -9    1.69    0.26
   3   3  -9    0.40    0.17
  -3  -3   9    0.09    0.16
   2   3  -9   18.79    0.78
  -2  -3   9   19.62    0.81
   1   3  -9   22.37    0.87
  -1  -3   9   22.56    0.91
   0   3  -9    1.79    0.25
   0  -3   9    1.56    0.28
  -1   3  -9    5.01    0.39
   1  -3   9    5.37    0.46
  -2   3  -9    0.20    0.16
   2  -3   9    0.07    0.18
  -3   3  -9    1.00    0.21
   3  -3   9    1.02    0.25
  -4   3  -9   23.45    0.91
   4  -3   9   23.50    0.99
   5  -3   9    5.50    0.51
   6  -3   9    3.16    0.40
   7   2  -9    2.07    0.28
   6   2  -9    0.17    0.15
   5   2  -9    7.66    0.48
   4   2  -9   14.57    0.66
   3   2  -9    4.41    0.37
  -3  -2   9    4.25    0.38
   2   2  -9    0.82    0.19
  -2  -2   9    0.82    0.21
   1   2  -9   18.31    0.75
  -1  -2   9   17.89    0.77
   0   2  -9   31.41    1.10
   0  -2   9   32.54    1.14
  -1   2  -9   15.11    0.67
   1  -2   9   15.06    0.70
  -2   2  -9    0.59    0.18
   2  -2   9    0.85    0.21
  -3   2  -9    0.36    0.17
   3  -2   9    0.23    0.19
  -4   2  -9    3.33    0.32
   4  -2   9    2.87    0.33
   5  -2   9    0.44    0.21
   6  -2   9    8.92    0.61
   7  -2   9   16.07    0.87
   7   1  -9    2.38    0.29
   6   1  -9    0.29    0.16
   5   1  -9    0.43    0.16
   4   1  -9   15.61    0.67
  -4  -1   9   15.24    0.69
   3   1  -9   11.96    0.58
  -3  -1   9   12.66    0.59
   2   1  -9    6.90    0.43
  -2  -1   9    6.61    0.44
   1   1  -9    2.75    0.29
  -1  -1   9    2.81    0.30
   0   1  -9    0.42    0.16
   0  -1   9    0.02    0.16
  -1   1  -9    0.16    0.14
   1  -1   9    0.40    0.17
  -2   1  -9   48.41    1.50
   2  -1   9   45.70    1.52
  -3   1  -9    1.37    0.22
   3  -1   9    1.76    0.26
  -4   1  -9    2.09    0.25
   4  -1   9    1.93    0.27
   5  -1   9   -0.01    0.15
   6  -1   9   -0.13    0.16
   7  -1   9    4.11    0.42
   7   0  -9    4.32    0.40
   6   0  -9    0.38    0.17
   5   0  -9    0.08    0.14
   4   0  -9    1.76    0.25
  -4   0   9    1.81    0.23
   3   0  -9    5.79    0.40
  -3   0   9    5.73    0.41
   2   0  -9   17.16    0.72
  -2   0   9   17.73    0.73
   1   0  -9    8.32    0.47
  -1   0   9    9.35    0.51
   0   0  -9    0.01    0.12
   0   0   9    0.14    0.16
  -1   0  -9    1.78    0.24
   1   0   9    1.55    0.24
  -2   0  -9    5.30    0.39
   2   0   9    5.41    0.43
  -3   0  -9    5.30    0.37
   3   0   9    5.00    0.43
  -4   0  -9   13.92    0.61
   4   0   9   14.64    0.68
   5   0   9    1.94    0.28
   6   0   9    0.42    0.20
   7   0   9    1.54    0.27
   7  -1  -9   13.77    0.67
   6  -1  -9    5.03    0.41
   5  -1  -9    0.43    0.17
   4  -1  -9    2.00    0.27
  -4   1   9    2.17    0.26
   3  -1  -9    0.35    0.16
  -3   1   9    0.40    0.17
   2  -1  -9    2.47    0.28
  -2   1   9    2.78    0.29
   1  -1  -9   12.69    0.59
  -1   1   9   13.51    0.61
   0  -1  -9    4.74    0.36
   0   1   9    4.95    0.40
  -1  -1  -9    6.73    0.42
   1   1   9    5.92    0.44
  -2  -1  -9    0.41    0.15
   2   1   9    0.34    0.18
  -3  -1  -9   10.01    0.50
   3   1   9    8.84    0.53
  -4  -1  -9   18.50    0.73
   4   1   9   19.33    0.80
   5   1   9   11.98    0.62
   6   1   9    0.38    0.19
   7   1   9    4.36    0.44
   8   1   9    0.47    0.23
   7  -2  -9    0.41    0.20
   6  -2  -9    1.18    0.23
   5  -2  -9    2.18    0.28
   4  -2  -9   26.29    0.99
  -4   2   9   27.40    0.97
   3  -2  -9    0.41    0.17
  -3   2   9    0.82    0.20
   2  -2  -9    0.00    0.13
  -2   2   9    0.06    0.16
   1  -2  -9    1.92    0.24
  -1   2   9    1.77    0.25
   0  -2  -9    0.62    0.17
   0   2   9    0.97    0.22
  -1  -2  -9   14.44    0.64
   1   2   9   15.20    0.68
  -2  -2  -9   11.42    0.54
   2   2   9   10.50    0.57
  -3  -2  -9   10.57    0.53
   3   2   9   10.97    0.58
  -4  -2  -9   16.76    0.68
   4   2   9   17.72    0.76
   5   2   9    7.69    0.50
   6   2   9   13.07    0.65
   7   2   9   11.02    0.62
   8   2   9    1.44    0.28
   6  -3  -9    0.48    0.21
   5  -3  -9    3.42    0.35
   4  -3  -9    9.75    0.57
  -4   3   9   10.20    0.55
   3  -3  -9    9.76    0.54
  -3   3   9    9.82    0.54
   2  -3  -9    0.62    0.18
  -2   3   9    0.57    0.20
   1  -3  -9    5.87    0.41
  -1   3   9    5.87    0.44
   0  -3  -9    0.02    0.12
   0   3   9    0.19    0.17
  -1  -3  -9    1.76    0.24
   1   3   9    1.33    0.23
  -2  -3  -9    8.15    0.46
   2   3   9    7.95    0.50
  -3  -3  -9    8.38    0.47
   3   3   9    7.76    0.50
  -4  -3  -9   16.34    0.66
   4   3   9   15.44    0.71
   5   3   9    0.97    0.23
   6   3   9    2.11    0.30
   7   3   9    7.52    0.52
   8   3   9    9.87    0.63
   6  -4  -9    1.51    0.29
   5  -4  -9    0.17    0.19
   4  -4  -9    5.93    0.47
  -4   4   9    5.45    0.45
   3  -4  -9    3.33    0.35
  -3   4   9    3.65    0.36
   2  -4  -9    0.36    0.17
  -2   4   9    0.36    0.19
   1  -4  -9   15.61    0.70
  -1   4   9   16.25    0.72
   0  -4  -9    2.01    0.27
   0   4   9    1.05    0.22
  -1  -4  -9    8.76    0.49
   1   4   9    7.53    0.50
  -2  -4  -9    8.75    0.50
   2   4   9    8.93    0.53
  -3  -4  -9    5.47    0.39
   3   4   9    5.44    0.45
  -4  -4  -9    1.63    0.24
   4   4   9    0.93    0.22
   5   4   9    1.03    0.24
   6   4   9    0.31    0.21
   7   4   9    1.34    0.26
   5  -5  -9    1.02    0.26
   4  -5  -9    3.43    0.37
   3  -5  -9    6.01    0.49
  -3   5   9    6.32    0.50
   2  -5  -9    1.48    0.25
  -2   5   9    2.28    0.29
   1  -5  -9   10.50    0.58
  -1   5   9   10.37    0.58
   0  -5  -9   10.76    0.59
   0   5   9   11.63    0.61
  -1  -5  -9   10.03    0.56
   1   5   9   10.38    0.59
  -2  -5  -9    7.33    0.47
   2   5   9    7.21    0.51
  -3  -5  -9   17.16    0.73
   3   5   9   17.44    0.77
  -4  -5  -9    3.70    0.33
   4   5   9    2.77    0.32
   5   5   9    0.64    0.22
   6   5   9    0.42    0.21
   7   5   9    0.32    0.22
   4  -6  -9    3.28    0.37
   3  -6  -9    5.22    0.50
  -3   6   9    5.93    0.51
   2  -6  -9    0.69    0.22
  -2   6   9    0.43    0.23
   1  -6  -9    1.23    0.26
  -1   6   9    1.24    0.28
   0  -6  -9    8.18    0.53
   0   6   9    8.35    0.58
  -1  -6  -9    8.65    0.54
   1   6   9    9.30    0.59
  -2  -6  -9   12.39    0.63
   2   6   9   12.88    0.68
  -3  -6  -9    6.06    0.44
   3   6   9    5.38    0.49
   4   6   9    2.09    0.31
   5   6   9    1.57    0.28
   6   6   9    2.51    0.32
   3  -7  -9    1.15    0.27
  -3   7   9    1.09    0.28
   2  -7  -9   -0.36    0.16
  -2   7   9   -0.01    0.23
   1  -7  -9    0.98    0.25
  -1   7   9    0.76    0.28
   0  -7  -9    0.85    0.24
   0   7   9    1.18    0.29
  -1  -7  -9    0.06    0.17
   1   7   9   -0.32    0.21
  -2  -7  -9    1.97    0.29
   2   7   9    1.87    0.32
  -3  -7  -9    2.37    0.30
   3   7   9    2.15    0.33
   4   7   9    1.80    0.30
   5   7   9    0.94    0.26
   6   7   9    0.25    0.23
   2  -8  -9    0.03    0.21
  -2   8   9    0.15    0.26
   1  -8  -9    0.00    0.18
  -1   8   9    0.23    0.26
   0  -8  -9    1.86    0.31
   0   8   9    1.83    0.33
  -1  -8  -9    0.56    0.22
   1   8   9    0.16    0.24
  -2  -8  -9    0.44    0.20
   2   8   9    0.62    0.27
   3   8   9    0.23    0.25
   4   8   9   -0.17    0.22
   5   8   9    2.32    0.38
  -1  -9  -9   -0.09    0.19
   1   9   9   -0.24    0.27
   2   9   9    1.27    0.37
   2   6 -10   12.39    0.78
   1   6 -10    7.08    0.55
   0   6 -10    0.27    0.21
   4   5 -10   -0.16    0.16
   3   5 -10    2.61    0.35
   2   5 -10    4.45    0.44
  -2  -5  10    3.91    0.43
   1   5 -10   11.56    0.65
  -1  -5  10   10.41    0.68
   0   5 -10    2.95    0.36
   0  -5  10    2.33    0.37
  -1   5 -10    9.15    0.59
   1  -5  10    8.09    0.64
  -2   5 -10    0.50    0.23
   2  -5  10    0.19    0.24
  -3   5 -10    0.00    0.19
   3  -5  10   -0.38    0.20
   5   4 -10    3.39    0.37
   4   4 -10   17.42    0.80
   3   4 -10    0.20    0.17
   2   4 -10    0.35    0.19
  -2  -4  10    0.33    0.22
   1   4 -10    2.64    0.33
  -1  -4  10    2.12    0.32
   0   4 -10    0.23    0.18
   0  -4  10    0.45    0.24
  -1   4 -10   16.99    0.78
   1  -4  10   15.43    0.82
  -2   4 -10   10.97    0.62
   2  -4  10   10.32    0.68
  -3   4 -10    5.80    0.49
   3  -4  10    5.08    0.50
  -4   4 -10    0.15    0.19
   4  -4  10   -0.15    0.21
   5   3 -10    0.23    0.18
   4   3 -10   14.28    0.71
   3   3 -10   11.44    0.60
  -3  -3  10   10.93    0.63
   2   3 -10   16.82    0.76
  -2  -3  10   16.79    0.79
   1   3 -10    2.38    0.30
  -1  -3  10    1.99    0.31
   0   3 -10    2.29    0.30
   0  -3  10    2.41    0.34
  -1   3 -10    1.84    0.28
   1  -3  10    1.81    0.29
  -2   3 -10   13.62    0.68
   2  -3  10   14.44    0.75
  -3   3 -10    9.36    0.56
   3  -3  10    9.89    0.64
  -4   3 -10    4.56    0.42
   4  -3  10    3.26    0.39
   5  -3  10    3.47    0.40
   6   2 -10    1.22    0.23
   5   2 -10    0.11    0.16
   4   2 -10    3.54    0.36
   3   2 -10    1.03    0.22
  -3  -2  10    1.55    0.26
   2   2 -10   11.75    0.60
  -2  -2  10   10.44    0.60
   1   2 -10   12.39    0.63
  -1  -2  10   13.61    0.68
   0   2 -10    0.12    0.15
   0  -2  10    0.25    0.20
  -1   2 -10   -0.06    0.14
   1  -2  10    0.16    0.18
  -2   2 -10    1.93    0.28
   2  -2  10    2.42    0.33
  -3   2 -10    3.71    0.36
   3  -2  10    2.80    0.35
  -4   2 -10    3.61    0.35
   4  -2  10    3.16    0.38
   5  -2  10    2.57    0.37
   6  -2  10    2.69    0.39
   6   1 -10    1.73    0.26
   5   1 -10    2.47    0.31
   4   1 -10    5.49    0.44
   3   1 -10    0.09    0.16
  -3  -1  10    0.10    0.15
   2   1 -10   -0.10    0.14
  -2  -1  10   -0.03    0.15
   1   1 -10   13.24    0.63
  -1  -1  10   12.15    0.64
   0   1 -10    0.12    0.15
   0  -1  10   -0.08    0.17
  -1   1 -10    2.85    0.31
   1  -1  10    3.37    0.36
  -2   1 -10    0.21    0.15
   2  -1  10    0.04    0.17
  -3   1 -10    0.12    0.14
   3  -1  10    0.01    0.17
  -4   1 -10    1.93    0.27
   4  -1  10    2.03    0.31
   5  -1  10    1.46    0.28
   6  -1  10    0.40    0.23
   6   0 -10    0.31    0.17
   5   0 -10    2.11    0.28
   4   0 -10   10.76    0.58
   3   0 -10    2.34    0.30
  -3   0  10    2.41    0.29
   2   0 -10    0.38    0.17
  -2   0  10    0.39    0.19
   1   0 -10    5.46    0.42
  -1   0  10    5.17    0.44
   0   0 -10    2.50    0.30
   0   0  10    1.93    0.29
  -1   0 -10    6.77    0.45
   1   0  10    6.49    0.49
  -2   0 -10   18.61    0.78
   2   0  10   18.90    0.82
  -3   0 -10    1.05    0.20
   3   0  10    1.45    0.26
  -4   0 -10    0.02    0.13
   4   0  10   -0.08    0.17
   5   0  10    0.76    0.23
   6   0  10    3.41    0.37
   6  -1 -10    1.01    0.23
   5  -1 -10    0.17    0.17
   4  -1 -10    4.41    0.41
   3  -1 -10    4.15    0.39
  -3   1  10    4.59    0.41
   2  -1 -10    0.36    0.16
  -2   1  10    0.22    0.18
   1  -1 -10    4.70    0.40
  -1   1  10    5.67    0.45
   0  -1 -10    9.07    0.51
   0   1  10    8.45    0.53
  -1  -1 -10    0.60    0.18
   1   1  10    0.57    0.21
  -2  -1 -10   58.72    1.84
   2   1  10   59.87    1.87
  -3  -1 -10    9.26    0.52
   3   1  10   10.89    0.60
  -4  -1 -10    5.64    0.40
   4   1  10    6.25    0.49
   5   1  10    6.09    0.49
   6   1  10    0.67    0.23
   7   1  10    3.87    0.42
   6  -2 -10    0.07    0.16
   5  -2 -10    1.39    0.26
   4  -2 -10    0.53    0.20
   3  -2 -10    3.81    0.38
  -3   2  10    2.80    0.31
   2  -2 -10    0.13    0.16
  -2   2  10    0.11    0.17
   1  -2 -10    1.60    0.25
  -1   2  10    1.96    0.28
   0  -2 -10    2.33    0.28
   0   2  10    1.91    0.28
  -1  -2 -10   -0.02    0.14
   1   2  10    0.33    0.19
  -2  -2 -10   37.53    1.28
   2   2  10   37.90    1.31
  -3  -2 -10    9.13    0.52
   3   2  10    9.94    0.59
  -4  -2 -10    3.34    0.32
   4   2  10    2.37    0.33
   5   2  10   17.02    0.79
   6   2  10    3.24    0.37
   7   2  10    5.07    0.50
   5  -3 -10    0.70    0.22
   4  -3 -10    0.19    0.18
   3  -3 -10    1.14    0.24
  -3   3  10    1.54    0.26
   2  -3 -10    0.32    0.18
  -2   3  10    0.44    0.20
   1  -3 -10    5.35    0.43
  -1   3  10    5.01    0.47
   0  -3 -10   11.17    0.58
   0   3  10   10.92    0.62
  -1  -3 -10    0.04    0.16
   1   3  10    0.02    0.21
  -2  -3 -10    2.73    0.31
   2   3  10    1.84    0.30
  -3  -3 -10    5.74    0.42
   3   3  10    6.42    0.51
  -4  -3 -10    0.81    0.18
   4   3  10    0.44    0.22
   5   3  10    7.45    0.55
   6   3  10    0.64    0.24
   7   3  10    3.86    0.42
   5  -4 -10    1.42    0.29
   4  -4 -10    7.41    0.54
   3  -4 -10    4.57    0.44
  -3   4  10    5.19    0.48
   2  -4 -10    1.25    0.24
  -2   4  10    1.19    0.26
   1  -4 -10    4.29    0.42
  -1   4  10    5.06    0.49
   0  -4 -10   13.52    0.67
   0   4  10   14.69    0.72
  -1  -4 -10    5.80    0.44
   1   4  10    5.92    0.50
  -2  -4 -10    7.14    0.48
   2   4  10    7.32    0.55
  -3  -4 -10    1.49    0.24
   3   4  10    1.59    0.30
  -4  -4 -10    0.07    0.14
   4   4  10   -0.07    0.19
   5   4  10    1.60    0.29
   6   4  10    3.90    0.41
   4  -5 -10    3.52    0.41
   3  -5 -10    2.44    0.36
  -3   5  10    2.67    0.34
   2  -5 -10    1.82    0.31
  -2   5  10    1.49    0.28
   1  -5 -10   12.35    0.66
  -1   5  10   12.59    0.70
   0  -5 -10   12.75    0.67
   0   5  10   13.09    0.70
  -1  -5 -10    2.40    0.30
   1   5  10    2.81    0.36
  -2  -5 -10    5.67    0.44
   2   5  10    5.18    0.50
  -3  -5 -10    3.28    0.34
   3   5  10    2.74    0.34
   4   5  10    0.22    0.21
   5   5  10    0.22    0.22
   6   5  10    2.81    0.36
   3  -6 -10    1.89    0.33
  -3   6  10    1.76    0.32
   2  -6 -10    0.13    0.21
  -2   6  10   -0.09    0.21
   1  -6 -10    1.90    0.31
  -1   6  10    1.56    0.31
   0  -6 -10    2.90    0.34
   0   6  10    2.86    0.37
  -1  -6 -10    5.32    0.47
   1   6  10    4.59    0.45
  -2  -6 -10    1.97    0.30
   2   6  10    1.55    0.30
  -3  -6 -10    3.32    0.35
   3   6  10    2.57    0.34
   4   6  10   -0.08    0.20
   5   6  10    0.31    0.24
   2  -7 -10    0.06    0.21
  -2   7  10   -0.13    0.21
   1  -7 -10    0.86    0.26
  -1   7  10    1.04    0.29
   0  -7 -10    1.26    0.27
   0   7  10    1.10    0.31
  -1  -7 -10   -0.05    0.17
   1   7  10    0.17    0.24
  -2  -7 -10   -0.07    0.16
   2   7  10   -0.11    0.22
  -3  -7 -10    5.49    0.46
   3   7  10    6.26    0.57
   4   7  10    0.22    0.25
   0  -8 -10    0.60    0.24
   0   8  10    0.40    0.29
  -1  -8 -10    0.70    0.25
   1   8  10    0.72    0.29
  -2  -8 -10   -0.31    0.16
   2   8  10   -0.03    0.25
   3   4 -11    1.24    0.31
   2   4 -11    4.95    0.47
  -2  -4  11    4.41    0.46
   1   4 -11    5.30    0.47
  -1  -4  11    3.60    0.44
   0   4 -11    1.86    0.31
   0  -4  11    1.22    0.31
  -1   4 -11    0.62    0.24
   1  -4  11    0.44    0.28
  -2   4 -11    9.83    0.61
   2  -4  11   10.18    0.70
   4   3 -11    1.41    0.28
   3   3 -11   -0.04    0.16
   2   3 -11    0.54    0.20
  -2  -3  11    0.30    0.22
   1   3 -11    4.81    0.45
  -1  -3  11    5.43    0.53
   0   3 -11    2.29    0.32
   0  -3  11    2.11    0.34
  -1   3 -11    4.54    0.45
   1  -3  11    4.76    0.48
  -2   3 -11    1.61    0.28
   2  -3  11    1.96    0.34
  -3   3 -11    0.10    0.18
   3  -3  11    0.14    0.22
   4   2 -11    2.98    0.35
   3   2 -11    0.55    0.21
   2   2 -11    1.57    0.29
  -2  -2  11    1.35    0.27
   1   2 -11    0.24    0.17
  -1  -2  11    0.08    0.19
   0   2 -11    0.16    0.16
   0  -2  11   -0.04    0.18
  -1   2 -11    4.39    0.41
   1  -2  11    3.42    0.38
  -2   2 -11    6.12    0.47
   2  -2  11    6.29    0.55
  -3   2 -11    0.15    0.17
   3  -2  11   -0.15    0.19
  -4   2 -11    0.46    0.21
   4  -2  11    0.57    0.25
   5   1 -11    0.38    0.20
   4   1 -11    4.38    0.44
   3   1 -11    2.29    0.30
  -3  -1  11    2.17    0.32
   2   1 -11    0.38    0.19
  -2  -1  11    0.42    0.21
   1   1 -11    0.38    0.18
  -1  -1  11   -0.01    0.18
   0   1 -11    0.34    0.18
   0  -1  11    0.42    0.21
  -1   1 -11    0.53    0.19
   1  -1  11    0.36    0.21
  -2   1 -11    5.46    0.44
   2  -1  11    5.91    0.52
  -3   1 -11    0.67    0.20
   3  -1  11    0.78    0.26
  -4   1 -11    0.14    0.17
   4  -1  11    0.10    0.19
   5  -1  11    3.50    0.40
   5   0 -11    0.04    0.16
   4   0 -11    0.18    0.17
   3   0 -11    1.91    0.28
  -3   0  11    2.18    0.30
   2   0 -11   10.00    0.58
  -2   0  11   10.11    0.60
   1   0 -11    6.20    0.47
  -1   0  11    5.54    0.48
   0   0 -11    2.28    0.30
   0   0  11    2.82    0.34
  -1   0 -11    5.42    0.44
   1   0  11    6.95    0.52
  -2   0 -11    6.96    0.47
   2   0  11    7.66    0.56
  -3   0 -11    4.00    0.39
   3   0  11    3.35    0.37
  -4   0 -11    0.19    0.16
   4   0  11    0.43    0.23
   5   0  11    6.17    0.53
   5  -1 -11    0.44    0.20
   4  -1 -11   -0.13    0.15
   3  -1 -11    0.13    0.17
  -3   1  11    0.23    0.19
   2  -1 -11    0.19    0.17
  -2   1  11    0.83    0.23
   1  -1 -11   12.48    0.65
  -1   1  11   12.81    0.68
   0  -1 -11   10.76    0.59
   0   1  11   10.90    0.63
  -1  -1 -11   15.68    0.74
   1   1  11   16.51    0.78
  -2  -1 -11    0.67    0.20
   2   1  11    0.76    0.24
  -3  -1 -11    9.50    0.54
   3   1  11    9.46    0.61
  -4  -1 -11    5.75    0.43
   4   1  11    6.05    0.53
   5   1  11    7.05    0.58
   5  -2 -11    0.39    0.21
   4  -2 -11    0.17    0.19
   3  -2 -11    0.45    0.18
  -3   2  11    0.39    0.21
   2  -2 -11    0.12    0.17
  -2   2  11    0.04    0.19
   1  -2 -11    2.33    0.31
  -1   2  11    2.64    0.34
   0  -2 -11    3.41    0.36
   0   2  11    3.13    0.35
  -1  -2 -11    8.46    0.53
   1   2  11    9.53    0.60
  -2  -2 -11    5.24    0.44
   2   2  11    6.07    0.53
  -3  -2 -11    1.97    0.27
   3   2  11    1.62    0.30
  -4  -2 -11    0.52    0.17
   4   2  11    0.43    0.24
   5   2  11    3.97    0.42
   6   2  11    9.27    0.66
   4  -3 -11    0.71    0.23
   3  -3 -11    2.20    0.31
  -3   3  11    2.67    0.33
   2  -3 -11    1.36    0.27
  -2   3  11    1.58    0.30
   1  -3 -11    4.71    0.44
  -1   3  11    5.44    0.49
   0  -3 -11    4.62    0.43
   0   3  11    5.80    0.51
  -1  -3 -11    0.06    0.16
   1   3  11    0.31    0.23
  -2  -3 -11    9.43    0.56
   2   3  11    9.76    0.64
  -3  -3 -11    0.70    0.20
   3   3  11    0.85    0.27
   4   3  11    0.88    0.26
   5   3  11    1.84    0.32
   6   3  11    2.21    0.38
   4  -4 -11    0.35    0.22
   3  -4 -11    8.18    0.58
  -3   4  11    8.95    0.60
   2  -4 -11    7.35    0.54
  -2   4  11    8.78    0.61
   1  -4 -11    3.77    0.41
  -1   4  11    3.05    0.38
   0  -4 -11    3.71    0.39
   0   4  11    4.86    0.46
  -1  -4 -11    0.06    0.17
   1   4  11    0.10    0.23
  -2  -4 -11    2.64    0.31
   2   4  11    3.45    0.41
  -3  -4 -11    1.47    0.25
   3   4  11    1.17    0.28
   4   4  11    1.17    0.29
   5   4  11    7.33    0.62
   3  -5 -11    0.83    0.26
  -3   5  11    1.32    0.33
   2  -5 -11    3.66    0.41
  -2   5  11    3.93    0.42
   1  -5 -11    4.70    0.47
  -1   5  11    5.56    0.55
   0  -5 -11    6.55    0.52
   0   5  11    7.83    0.61
  -1  -5 -11    0.18    0.18
   1   5  11    0.17    0.24
  -2  -5 -11    0.45    0.20
   2   5  11   -0.04    0.23
  -3  -5 -11    0.14    0.17
   3   5  11   -0.14    0.22
   4   5  11    0.11    0.23
   5   5  11    5.71    0.57
   2  -6 -11    1.04    0.28
  -2   6  11    1.01    0.30
   1  -6 -11    0.01    0.19
  -1   6  11   -0.22    0.22
   0  -6 -11    1.58    0.29
   0   6  11    1.20    0.31
  -1  -6 -11    0.58    0.21
   1   6  11    0.76    0.28
  -2  -6 -11    1.59    0.29
   2   6  11    1.37    0.30
  -3  -6 -11    0.56    0.21
   3   6  11    0.30    0.25
   4   6  11    0.13    0.25
  -1  -7 -11   -0.07    0.18
   1   7  11    0.11    0.25
  -2  -7 -11    1.02    0.27
   2   7  11    1.29    0.34
   0   3 -12    1.84    0.33
   0  -3  12    1.87    0.36
   2   2 -12    2.40    0.34
  -2  -2  12    1.95    0.34
   1   2 -12    0.22    0.19
  -1  -2  12    0.05    0.22
   0   2 -12    0.93    0.25
   0  -2  12    0.91    0.28
  -1   2 -12    0.50    0.21
   1  -2  12    0.48    0.25
  -2   2 -12    0.74    0.22
   2  -2  12    0.83    0.28
   3   1 -12    0.14    0.19
   2   1 -12    0.51    0.21
  -2  -1  12    0.49    0.24
   1   1 -12    3.52    0.38
  -1  -1  12    5.24    0.51
   0   1 -12    9.31    0.59
   0  -1  12    9.72    0.65
  -1   1 -12    1.19    0.25
   1  -1  12    1.57    0.32
  -2   1 -12    0.19    0.19
   2  -1  12   -0.01    0.20
  -3   1 -12    0.26    0.18
   3  -1  12    0.00    0.20
   3   0 -12    3.24    0.37
   2   0 -12    1.56    0.28
  -2   0  12    1.85    0.30
   1   0 -12    1.53    0.29
  -1   0  12    1.36    0.30
   0   0 -12    7.05    0.52
   0   0  12    7.56    0.58
  -1   0 -12    7.48    0.53
   1   0  12    7.27    0.58
  -2   0 -12    5.34    0.45
   2   0  12    5.68    0.53
  -3   0 -12    1.27    0.25
   3   0  12    1.27    0.30
   4   0  12    0.71    0.26
   3  -1 -12    2.30    0.32
   2  -1 -12    2.89    0.35
  -2   1  12    3.46    0.38
   1  -1 -12    0.43    0.20
  -1   1  12    0.77    0.26
   0  -1 -12    4.71    0.45
   0   1  12    4.48    0.45
  -1  -1 -12    1.54    0.28
   1   1  12    1.06    0.28
  -2  -1 -12    4.65    0.43
   2   1  12    3.36    0.41
  -3  -1 -12    3.41    0.36
   3   1  12    3.42    0.40
   4   1  12    2.15    0.34
   3  -2 -12    1.52    0.29
   2  -2 -12    8.57    0.58
  -2   2  12    8.62    0.60
   1  -2 -12    1.18    0.26
  -1   2  12    1.20    0.29
   0  -2 -12    2.21    0.31
   0   2  12    2.27    0.35
  -1  -2 -12    2.12    0.30
   1   2  12    1.98    0.33
  -2  -2 -12    0.01    0.17
   2   2  12    0.13    0.23
  -3  -2 -12    2.79    0.33
   3   2  12    2.32    0.35
   4   2  12    1.68    0.33
   2  -3 -12    3.60    0.40
  -2   3  12    5.52    0.53
   1  -3 -12    1.61    0.29
  -1   3  12    1.24    0.29
   0  -3 -12    0.95    0.25
   0   3  12    0.72    0.27
  -1  -3 -12    9.48    0.59
   1   3  12    9.36    0.66
  -2  -3 -12    0.07    0.17
   2   3  12    0.35    0.25
  -3  -3 -12    6.53    0.49
   3   3  12    5.91    0.59
   4   3  12    2.43    0.38
   2  -4 -12    3.20    0.39
  -2   4  12    3.06    0.40
   1  -4 -12    0.27    0.21
  -1   4  12    0.57    0.27
   0  -4 -12   -0.08    0.17
   0   4  12    0.32    0.26
  -1  -4 -12    1.46    0.28
   1   4  12    1.71    0.34
  -2  -4 -12    0.12    0.17
   2   4  12    0.07    0.25
  -3  -4 -12    4.49    0.44
   3   4  12    3.89    0.45
  -1   5  12    0.99    0.34
   0  -5 -12   -0.13    0.17
   0   5  12    0.32    0.28
  -1  -5 -12    0.20    0.21
   1   5  12    0.32    0.27
  -2  -5 -12    0.29    0.19
   2   5  12   -0.05    0.24
   0   0   0    0.00    0.00
;
_shelx_hkl_checksum              25458
_shelx_res_file
;
TITL 104
    shelx.res
    created by SHELXL-2017/1 at 18:36:37 on 08-Sep-2019
CELL  0.71073   8.1300   8.5072   9.7386   83.240   87.646   81.533
ZERR     1.00   0.0007   0.0011   0.0013    0.004    0.003    0.004
LATT   1
SFAC  C    H    CL   CU   N    O
UNIT  28 18 4 1 4 2
MERG   2
FMAP   2
PLAN  -1
SIZE     0.300   0.350   0.350
ACTA
BOND   $H
CONF
L.S.  18
TEMP    23.00
WGHT    0.046100    0.293400
FVAR       0.28435
CU    4    0.500000    0.500000    0.500000    10.50000    0.02975    0.02729 =
         0.02922   -0.00101   -0.00773   -0.00160
CL1   3    0.318322    0.739706    0.016206    11.00000    0.06483    0.11850 =
         0.05672    0.03610    0.00437   -0.02172
CL2   3   -0.141423    0.454552    0.330484    11.00000    0.03352    0.05114 =
         0.07431    0.00246    0.00107   -0.00792
O1    6    0.595361    0.307384    0.598627    11.00000    0.06448    0.02801 =
         0.03635   -0.00330   -0.02049    0.00344
N1    5    0.443594    0.379446    0.345488    11.00000    0.02742    0.03382 =
         0.02637   -0.00137   -0.00579   -0.00314
N2    5    0.339209    0.445740    0.234147    11.00000    0.03599    0.04155 =
         0.02733   -0.00328   -0.00894   -0.00156
C1    1    0.659257    0.173643    0.551347    11.00000    0.03463    0.02646 =
         0.04037    0.00155   -0.00868   -0.00626
C2    1    0.630071    0.136429    0.418233    11.00000    0.03008    0.02970 =
         0.03772   -0.00247    0.00065   -0.00561
C3    1    0.705076   -0.011691    0.376164    11.00000    0.04738    0.03693 =
         0.04649   -0.00794    0.00436   -0.00197
AFIX  43
H3    2    0.684470   -0.036821    0.288672    11.00000   -1.20000
AFIX   0
C4    1    0.807104   -0.118306    0.461700    11.00000    0.04840    0.03308 =
         0.07022   -0.00571    0.00381    0.00590
AFIX  43
H4    2    0.857619   -0.214233    0.432071    11.00000   -1.20000
AFIX   0
C5    1    0.834502   -0.082425    0.592300    11.00000    0.04714    0.03353 =
         0.07000    0.00669   -0.01346    0.00387
AFIX  43
H5    2    0.903270   -0.155502    0.650883    11.00000   -1.20000
AFIX   0
C6    1    0.762517    0.058782    0.637766    11.00000    0.05292    0.03358 =
         0.04984    0.00367   -0.02066   -0.00256
AFIX  43
H6    2    0.782038    0.079204    0.726963    11.00000   -1.20000
AFIX   0
C7    1    0.519807    0.239220    0.325147    11.00000    0.03284    0.03573 =
         0.02872   -0.00613    0.00012   -0.00665
AFIX  43
H7    2    0.500996    0.201827    0.242030    11.00000   -1.20000
AFIX   0
C8    1    0.203088    0.521731    0.270983    11.00000    0.03045    0.04141 =
         0.02676   -0.00162   -0.00599   -0.00678
AFIX  43
H8    2    0.179795    0.526076    0.364870    11.00000   -1.20000
AFIX   0
C9    1    0.079000    0.604263    0.170456    11.00000    0.03502    0.03519 =
         0.03171   -0.00677   -0.00946   -0.00158
C10   1    0.116370    0.708251    0.055389    11.00000    0.05345    0.05070 =
         0.03178   -0.00142   -0.00992   -0.00513
C11   1   -0.007446    0.791968   -0.029235    11.00000    0.08423    0.05061 =
         0.04223    0.00418   -0.02634   -0.00356
AFIX  43
H11   2    0.019998    0.861210   -0.105066    11.00000   -1.20000
AFIX   0
C12   1   -0.169198    0.772984   -0.001507    11.00000    0.07669    0.05174 =
         0.07130   -0.00245   -0.04738    0.00999
AFIX  43
H12   2   -0.251592    0.830675   -0.058269    11.00000   -1.20000
AFIX   0
C13   1   -0.212982    0.669866    0.109105    11.00000    0.04187    0.04991 =
         0.08501   -0.01061   -0.02894    0.00290
AFIX  43
H13   2   -0.323355    0.655485    0.126954    11.00000   -1.20000
AFIX   0
C14   1   -0.087170    0.588073    0.193112    11.00000    0.03704    0.03305 =
         0.04815   -0.00882   -0.01263   -0.00060
HKLF 4
REM  104
REM R1 =  0.0326 for    2708 Fo > 4sig(Fo)  and  0.0394 for all    3090 data
REM    178 parameters refined using      0 restraints
END
WGHT      0.0395      0.3168
REM Highest difference peak  0.441,  deepest hole -0.456,  1-sigma level  0.059
Q1    1   0.3539  0.6568 -0.0040  11.00000  0.05    0.44
;
_shelx_res_checksum              21987
loop_
_space_group_symop_operation_xyz
'x, y, z'
'-x, -y, -z'
loop_
_atom_site_type_symbol
_atom_site_label
_atom_site_fract_x
_atom_site_fract_y
_atom_site_fract_z
_atom_site_U_iso_or_equiv
_atom_site_adp_type
_atom_site_calc_flag
_atom_site_occupancy
Cu Cu 0.500000 0.500000 0.500000 0.02898(11) Uani d 1
Cl Cl1 0.31832(11) 0.73971(12) 0.01621(8) 0.0830(3) Uani d 1
Cl Cl2 -0.14142(7) 0.45455(7) 0.33048(7) 0.05364(17) Uani d 1
O O1 0.5954(2) 0.30738(17) 0.59863(16) 0.0435(4) Uani d 1
N N1 0.4436(2) 0.37945(19) 0.34549(16) 0.0293(3) Uani d 1
N N2 0.3392(2) 0.4457(2) 0.23415(17) 0.0352(4) Uani d 1
C C1 0.6593(3) 0.1736(2) 0.5513(2) 0.0338(4) Uani d 1
C C2 0.6301(3) 0.1364(2) 0.4182(2) 0.0325(4) Uani d 1
C C3 0.7051(3) -0.0117(3) 0.3762(3) 0.0439(5) Uani d 1
H H3 0.684470 -0.036821 0.288672 0.053 Uiso calc 1
C C4 0.8071(3) -0.1183(3) 0.4617(3) 0.0519(6) Uani d 1
H H4 0.857619 -0.214233 0.432071 0.062 Uiso calc 1
C C5 0.8345(3) -0.0824(3) 0.5923(3) 0.0519(6) Uani d 1
H H5 0.903270 -0.155502 0.650883 0.062 Uiso calc 1
C C6 0.7625(3) 0.0588(3) 0.6378(3) 0.0459(5) Uani d 1
H H6 0.782038 0.079204 0.726963 0.055 Uiso calc 1
C C7 0.5198(3) 0.2392(2) 0.3251(2) 0.0321(4) Uani d 1
H H7 0.500996 0.201827 0.242030 0.038 Uiso calc 1
C C8 0.2031(2) 0.5217(2) 0.2710(2) 0.0327(4) Uani d 1
H H8 0.179795 0.526076 0.364870 0.039 Uiso calc 1
C C9 0.0790(3) 0.6043(2) 0.1705(2) 0.0338(4) Uani d 1
C C10 0.1164(3) 0.7083(3) 0.0554(2) 0.0456(5) Uani d 1
C C11 -0.0074(4) 0.7920(3) -0.0292(3) 0.0597(7) Uani d 1
H H11 0.019998 0.861210 -0.105066 0.072 Uiso calc 1
C C12 -0.1692(4) 0.7730(3) -0.0015(3) 0.0676(9) Uani d 1
H H12 -0.251592 0.830675 -0.058269 0.081 Uiso calc 1
C C13 -0.2130(3) 0.6699(3) 0.1091(3) 0.0589(7) Uani d 1
H H13 -0.323355 0.655485 0.126954 0.071 Uiso calc 1
C C14 -0.0872(3) 0.5881(2) 0.1931(2) 0.0392(5) Uani d 1
loop_
_atom_site_aniso_label
_atom_site_aniso_U_11
_atom_site_aniso_U_22
_atom_site_aniso_U_33
_atom_site_aniso_U_12
_atom_site_aniso_U_13
_atom_site_aniso_U_23
Cu 0.02975(19) 0.02729(17) 0.02922(18) -0.00160(12) -0.00773(12) -0.00101(12)
Cl1 0.0648(5) 0.1185(7) 0.0567(4) -0.0217(5) 0.0044(3) 0.0361(4)
Cl2 0.0335(3) 0.0511(3) 0.0743(4) -0.0079(2) 0.0011(3) 0.0025(3)
O1 0.0645(11) 0.0280(7) 0.0364(8) 0.0034(7) -0.0205(7) -0.0033(6)
N1 0.0274(8) 0.0338(8) 0.0264(7) -0.0031(6) -0.0058(6) -0.0014(6)
N2 0.0360(9) 0.0415(9) 0.0273(8) -0.0016(7) -0.0089(7) -0.0033(7)
C1 0.0346(11) 0.0265(9) 0.0404(10) -0.0063(8) -0.0087(8) 0.0015(7)
C2 0.0301(10) 0.0297(9) 0.0377(10) -0.0056(7) 0.0007(8) -0.0025(7)
C3 0.0474(14) 0.0369(11) 0.0465(12) -0.0020(9) 0.0044(10) -0.0079(9)
C4 0.0484(14) 0.0331(11) 0.0702(17) 0.0059(10) 0.0038(12) -0.0057(11)
C5 0.0471(14) 0.0335(11) 0.0700(17) 0.0039(10) -0.0135(12) 0.0067(11)
C6 0.0529(14) 0.0336(10) 0.0498(13) -0.0026(9) -0.0207(11) 0.0037(9)
C7 0.0328(10) 0.0357(9) 0.0287(9) -0.0066(8) 0.0001(7) -0.0061(7)
C8 0.0304(10) 0.0414(10) 0.0268(9) -0.0068(8) -0.0060(7) -0.0016(7)
C9 0.0350(11) 0.0352(10) 0.0317(10) -0.0016(8) -0.0095(8) -0.0068(8)
C10 0.0534(15) 0.0507(13) 0.0318(10) -0.0051(11) -0.0099(9) -0.0014(9)
C11 0.084(2) 0.0506(14) 0.0422(13) -0.0036(13) -0.0263(13) 0.0042(11)
C12 0.077(2) 0.0517(15) 0.0713(18) 0.0100(14) -0.0474(16) -0.0024(13)
C13 0.0419(15) 0.0499(14) 0.085(2) 0.0029(11) -0.0289(13) -0.0106(13)
C14 0.0370(12) 0.0330(10) 0.0482(12) -0.0006(8) -0.0126(9) -0.0088(9)
loop_
_atom_type_symbol
_atom_type_description
_atom_type_scat_dispersion_real
_atom_type_scat_dispersion_imag
_atom_type_scat_source
C C 0.0033 0.0016 'International Tables Vol C Tables 4.2.6.8 and 6.1.1.4'
H H 0.0000 0.0000 'International Tables Vol C Tables 4.2.6.8 and 6.1.1.4'
Cl Cl 0.1484 0.1585 'International Tables Vol C Tables 4.2.6.8 and 6.1.1.4'
Cu Cu 0.3201 1.2651 'International Tables Vol C Tables 4.2.6.8 and 6.1.1.4'
N N 0.0061 0.0033 'International Tables Vol C Tables 4.2.6.8 and 6.1.1.4'
O O 0.0106 0.0060 'International Tables Vol C Tables 4.2.6.8 and 6.1.1.4'
loop_
_geom_angle_atom_site_label_1
_geom_angle_atom_site_label_2
_geom_angle_atom_site_label_3
_geom_angle_site_symmetry_1
_geom_angle_site_symmetry_3
_geom_angle
O1 Cu O1 . 2_666 180.00(10)
O1 Cu N1 . . 90.28(6)
O1 Cu N1 2_666 . 89.72(6)
O1 Cu N1 . 2_666 89.72(6)
O1 Cu N1 2_666 2_666 90.28(6)
N1 Cu N1 . 2_666 180.0
C1 O1 Cu . . 128.77(13)
C7 N1 N2 . . 111.28(16)
C7 N1 Cu . . 123.02(13)
N2 N1 Cu . . 124.88(12)
C8 N2 N1 . . 113.85(16)
O1 C1 C6 . . 118.78(19)
O1 C1 C2 . . 123.59(18)
C6 C1 C2 . . 117.63(19)
C1 C2 C3 . . 119.48(19)
C1 C2 C7 . . 122.47(18)
C3 C2 C7 . . 117.97(19)
C4 C3 C2 . . 121.2(2)
C4 C3 H3 . . 119.4
C2 C3 H3 . . 119.4
C3 C4 C5 . . 119.3(2)
C3 C4 H4 . . 120.3
C5 C4 H4 . . 120.3
C6 C5 C4 . . 121.4(2)
C6 C5 H5 . . 119.3
C4 C5 H5 . . 119.3
C5 C6 C1 . . 121.0(2)
C5 C6 H6 . . 119.5
C1 C6 H6 . . 119.5
N1 C7 C2 . . 126.18(18)
N1 C7 H7 . . 116.9
C2 C7 H7 . . 116.9
N2 C8 C9 . . 122.34(18)
N2 C8 H8 . . 118.8
C9 C8 H8 . . 118.8
C14 C9 C10 . . 116.3(2)
C14 C9 C8 . . 119.63(19)
C10 C9 C8 . . 124.0(2)
C11 C10 C9 . . 121.3(3)
C11 C10 Cl1 . . 117.8(2)
C9 C10 Cl1 . . 120.87(18)
C12 C11 C10 . . 120.1(3)
C12 C11 H11 . . 120.0
C10 C11 H11 . . 120.0
C11 C12 C13 . . 121.1(2)
C11 C12 H12 . . 119.4
C13 C12 H12 . . 119.4
C14 C13 C12 . . 117.9(3)
C14 C13 H13 . . 121.1
C12 C13 H13 . . 121.1
C13 C14 C9 . . 123.3(2)
C13 C14 Cl2 . . 118.0(2)
C9 C14 Cl2 . . 118.66(16)
loop_
_geom_bond_atom_site_label_1
_geom_bond_atom_site_label_2
_geom_bond_site_symmetry_2
_geom_bond_distance
Cu O1 . 1.8776(14)
Cu O1 2_666 1.8776(14)
Cu N1 . 2.0211(16)
Cu N1 2_666 2.0211(16)
Cl1 C10 . 1.722(3)
Cl2 C14 . 1.737(2)
O1 C1 . 1.306(2)
N1 C7 . 1.294(2)
N1 N2 . 1.416(2)
N2 C8 . 1.258(3)
C1 C6 . 1.411(3)
C1 C2 . 1.407(3)
C2 C3 . 1.415(3)
C2 C7 . 1.428(3)
C3 C4 . 1.365(3)
C3 H3 . 0.9300
C4 C5 . 1.377(4)
C4 H4 . 0.9300
C5 C6 . 1.371(3)
C5 H5 . 0.9300
C6 H6 . 0.9300
C7 H7 . 0.9300
C8 C9 . 1.476(3)
C8 H8 . 0.9300
C9 C14 . 1.384(3)
C9 C10 . 1.396(3)
C10 C11 . 1.385(3)
C11 C12 . 1.361(5)
C11 H11 . 0.9300
C12 C13 . 1.376(5)
C12 H12 . 0.9300
C13 C14 . 1.387(3)
C13 H13 . 0.9300
loop_
_geom_torsion_atom_site_label_1
_geom_torsion_atom_site_label_2
_geom_torsion_atom_site_label_3
_geom_torsion_atom_site_label_4
_geom_torsion_site_symmetry_1
_geom_torsion
N1 Cu O1 C1 . 25.25(19)
N1 Cu O1 C1 2_666 -154.75(19)
C7 N1 N2 C8 . 141.33(19)
Cu N1 N2 C8 . -48.8(2)
Cu O1 C1 C6 . 163.39(17)
Cu O1 C1 C2 . -17.0(3)
O1 C1 C2 C3 . 179.9(2)
C6 C1 C2 C3 . -0.5(3)
O1 C1 C2 C7 . -3.5(3)
C6 C1 C2 C7 . 176.1(2)
C1 C2 C3 C4 . -0.9(3)
C7 C2 C3 C4 . -177.7(2)
C2 C3 C4 C5 . 1.4(4)
C3 C4 C5 C6 . -0.6(4)
C4 C5 C6 C1 . -0.9(4)
O1 C1 C6 C5 . -179.0(2)
C2 C1 C6 C5 . 1.4(4)
N2 N1 C7 C2 . -177.83(19)
Cu N1 C7 C2 . 12.1(3)
C1 C2 C7 N1 . 4.8(3)
C3 C2 C7 N1 . -178.5(2)
N1 N2 C8 C9 . 178.03(18)
N2 C8 C9 C14 . 134.7(2)
N2 C8 C9 C10 . -49.5(3)
C14 C9 C10 C11 . 1.1(3)
C8 C9 C10 C11 . -174.8(2)
C14 C9 C10 Cl1 . 179.69(17)
C8 C9 C10 Cl1 . 3.8(3)
C9 C10 C11 C12 . -0.4(4)
Cl1 C10 C11 C12 . -179.1(2)
C10 C11 C12 C13 . -0.8(4)
C11 C12 C13 C14 . 1.2(4)
C12 C13 C14 C9 . -0.5(4)
C12 C13 C14 Cl2 . -178.6(2)
C10 C9 C14 C13 . -0.6(3)
C8 C9 C14 C13 . 175.5(2)
C10 C9 C14 Cl2 . 177.47(16)
C8 C9 C14 Cl2 . -6.4(3)

_cod_database_fobs_code 2243222
