#------------------------------------------------------------------------------
#$Date: 2019-10-09 07:05:28 +0300 (Wed, 09 Oct 2019) $
#$Revision: 219185 $
#$URL: file:///home/coder/svn-repositories/cod/cif/2/24/31/2243135.cif $
#------------------------------------------------------------------------------
#
# This file is available in the Crystallography Open Database (COD),
# http://www.crystallography.net/. The original data for this entry
# were provided by IUCr Journals, http://journals.iucr.org/.
#
# The file may be used within the scientific community so long as
# proper attribution is given to the journal article from which the
# data were obtained.
#
data_2243135
loop_
_publ_author_name
'Bogdanov, Georgii'
'Tillotson, John P.'
'Timofeeva, Tatiana'
_publ_section_title
;
 Crystal structures, syntheses, and spectroscopic and electrochemical
 measurements of two push--pull chromophores:
 2-[4-(dimethylamino)benzylidene]-1<i>H</i>-indene-1,3(2<i>H</i>)-dione
 and
 (<i>E</i>)-2-{3-[4-(dimethylamino)phenyl]allylidene}-1<i>H</i>-indene-1,3(2<i>H</i>)-dione
;
_journal_issue                   11
_journal_name_full               'Acta Crystallographica Section E'
_journal_page_first              1595
_journal_page_last               1599
_journal_paper_doi               10.1107/S205698901901329X
_journal_volume                  75
_journal_year                    2019
_chemical_absolute_configuration unk
_chemical_formula_iupac          'C20 H17 N O2'
_chemical_formula_moiety         'C20 H17 N O2'
_chemical_formula_sum            'C20 H17 N O2'
_chemical_formula_weight         303.35
_chemical_name_systematic
(<i>E</i>)-2-{3-[4-(Dimethylamino)phenyl]allylidene}-1<i>H</i>-indene-1,3(2<i>H</i>)-dione
_space_group_crystal_system      monoclinic
_space_group_IT_number           4
_space_group_name_Hall           'P 2yb'
_space_group_name_H-M_alt        'P 1 21 1'
_symmetry_space_group_name_Hall  'P 2yb'
_symmetry_space_group_name_H-M   'P 1 21 1'
_atom_sites_solution_hydrogens   geom
_atom_sites_solution_primary     dual
_atom_sites_solution_secondary   difmap
_audit_creation_method           SHELXL-2018/3
_cell_angle_alpha                90
_cell_angle_beta                 104.500(2)
_cell_angle_gamma                90
_cell_formula_units_Z            2
_cell_length_a                   11.072(2)
_cell_length_b                   3.9664(8)
_cell_length_c                   17.557(4)
_cell_measurement_reflns_used    6074
_cell_measurement_temperature    150(2)
_cell_measurement_theta_max      31.615
_cell_measurement_theta_min      2.397
_cell_volume                     746.5(3)
_computing_cell_refinement
;
SAINT (Bruker, 2015)
;
_computing_data_collection
;
APEX3 (Bruker, 2015)
;
_computing_data_reduction
;
SAINT (Bruker, 2015)
;
_computing_molecular_graphics
;
Mercury (Macrae <i>et al.</i>,  2008)
;
_computing_publication_material
;
<i>SHELXL2018/3</i> (Sheldrick, 2015b), PLATON (Spek, 2009)
and publCIF (Westrip, 2010)
;
_computing_structure_refinement
;
<i>SHELXL2018/3</i> (Sheldrick, 2015b)
;
_computing_structure_solution
;
<i>SHELXT2017/1</i> (Sheldrick, 2015a)
;
_diffrn_ambient_temperature      150(2)
_diffrn_measured_fraction_theta_full 0.997
_diffrn_measured_fraction_theta_max 0.934
_diffrn_measurement_device_type  'Bruker APEXII CCD'
_diffrn_measurement_method       '\f and \w scans'
_diffrn_radiation_type           MoK\a
_diffrn_radiation_wavelength     0.71073
_diffrn_reflns_av_R_equivalents  0.0438
_diffrn_reflns_av_unetI/netI     0.0515
_diffrn_reflns_limit_h_max       16
_diffrn_reflns_limit_h_min       -15
_diffrn_reflns_limit_k_max       5
_diffrn_reflns_limit_k_min       -5
_diffrn_reflns_limit_l_max       25
_diffrn_reflns_limit_l_min       -24
_diffrn_reflns_number            8685
_diffrn_reflns_theta_full        25.242
_diffrn_reflns_theta_max         31.696
_diffrn_reflns_theta_min         1.198
_diffrn_source                   'fine-focus sealed tube'
_exptl_absorpt_coefficient_mu    0.087
_exptl_absorpt_correction_T_max  0.7463
_exptl_absorpt_correction_T_min  0.5839
_exptl_absorpt_correction_type   multi-scan
_exptl_absorpt_process_details
;
(SADABS; Krause <i>et al.</i>,  2015)
;
_exptl_crystal_colour            blue
_exptl_crystal_density_diffrn    1.350
_exptl_crystal_description       needle
_exptl_crystal_F_000             320
_exptl_crystal_size_max          0.40
_exptl_crystal_size_mid          0.12
_exptl_crystal_size_min          0.10
_refine_diff_density_max         0.222
_refine_diff_density_min         -0.331
_refine_ls_abs_structure_details
;
Flack <i>x</i> determined using 1732 quotients
[(<i>I</i>^+^)-(<i>I</i>^-^)]/[(<i>I</i>^+^)+(<i>I</i>^-^)]
(Parsons <i>et al.</i>,  2013)
;
_refine_ls_abs_structure_Flack   -0.1(5)
_refine_ls_extinction_method     none
_refine_ls_goodness_of_fit_ref   1.115
_refine_ls_hydrogen_treatment    constr
_refine_ls_matrix_type           full
_refine_ls_number_parameters     210
_refine_ls_number_reflns         4531
_refine_ls_number_restraints     1
_refine_ls_restrained_S_all      1.115
_refine_ls_R_factor_all          0.0453
_refine_ls_R_factor_gt           0.0438
_refine_ls_shift/su_max          0.000
_refine_ls_shift/su_mean         0.000
_refine_ls_structure_factor_coef Fsqd
_refine_ls_weighting_details
'w=1/[\s^2^(Fo^2^)+(0.0488P)^2^+0.2055P] where P=(Fo^2^+2Fc^2^)/3'
_refine_ls_weighting_scheme      calc
_refine_ls_wR_factor_gt          0.1201
_refine_ls_wR_factor_ref         0.1214
_reflns_number_gt                4358
_reflns_number_total             4531
_reflns_threshold_expression     'I > 2\s(I)'
_cod_data_source_file            su5515sup1.cif
_cod_data_source_block           ID2
_cod_database_code               2243135
_shelx_space_group_comment
;
The symmetry employed for this shelxl refinement is uniquely defined
by the following loop, which should always be used as a source of
symmetry information in preference to the above space-group names.
They are only intended as comments.
;
_shelx_estimated_absorpt_t_min   0.5839
_shelx_estimated_absorpt_t_max   0.7463
_shelx_hkl_file
;
   1   0   0   39.50    2.10
  -1   0   0   33.00    2.10
   2   0   0 4479.55  290.77
  -2   0   0 5423.06  288.57
   3   0   0    3.60    0.30
  -3   0   0    3.80    0.30
   3   0   0    3.70    0.30
   4   0   0  848.22   47.00
  -4   0   0  715.63   47.00
   4   0   0  860.01   47.00
   5   0   0   83.79    4.90
   5   0   0   81.59    5.00
  -5   0   0   85.39    5.00
   6   0   0 1621.14   99.29
  -6   0   0 1727.63   99.39
   6   0   0 1778.82   99.49
  -7   0   0   61.69    3.70
   7   0   0   57.49    3.60
   7   0   0   58.79    3.50
   8   0   0    2.60    0.40
   8   0   0    3.50    0.30
  -8   0   0    1.60    0.40
   9   0   0   13.10    1.00
   9   0   0   13.40    0.90
  -9   0   0   12.70    1.10
  10   0   0   28.40    1.90
 -10   0   0   27.50    2.10
  10   0   0   28.90    1.80
 -11   0   0   54.59    3.60
 -12   0   0   38.50    2.80
 -13   0   0   31.60    2.40
 -14   0   0   31.90    2.50
 -15   0   0    2.50    0.80
   0   1   0    0.10    0.10
   0   1   0    0.00    0.10
   1  -1   0 4018.90  239.28
   1   1   0 4144.09  239.18
  -1   1   0 3722.23  239.08
   1   1   0 4573.34  239.48
  -2  -1   0 1815.82  121.19
   2  -1   0 2009.90  120.89
   2   1   0 2276.47  121.19
  -2   1   0 2168.88  120.89
  -2   1   0 2110.99  120.99
   3  -1   0  241.58   14.10
  -3  -1   0  243.78   14.10
   3   1   0  213.98   14.20
  -3   1   0  251.27   14.10
   3   1   0  233.38   14.10
  -3   1   0  266.37   14.20
   4  -1   0  161.68    9.20
   4  -1   0  139.39    9.30
   4   1   0  161.18    9.30
  -4   1   0  167.88    9.30
  -5  -1   0  352.06   20.10
   5  -1   0  324.77   20.00
   5  -1   0  345.67   19.90
   5   1   0  335.57   20.10
  -5   1   0  352.76   20.00
   6  -1   0   73.69    4.50
   6  -1   0   83.99    4.40
  -6  -1   0   66.49    4.50
  -6   1   0   73.39    4.60
   6   1   0   74.69    4.60
   7  -1   0   95.19    5.20
   7  -1   0   83.99    5.30
  -7  -1   0   82.79    5.30
  -7   1   0   89.99    5.40
   7   1   0   85.69    5.40
  -8  -1   0    2.90    0.50
   8  -1   0    3.40    0.40
   8  -1   0    3.70    0.40
   8   1   0    3.30    0.50
  -8   1   0    2.20    0.50
   9  -1   0   87.89    5.10
   9  -1   0   83.59    5.10
  -9  -1   0   87.29    5.30
   9   1   0   85.79    5.30
  -9   1   0   80.09    5.30
 -10  -1   0   43.10    2.90
  10  -1   0   42.80    2.70
  10   1   0   45.60    2.90
 -10   1   0   42.80    2.90
  11  -1   0   61.49    3.90
 -11  -1   0   63.99    4.20
 -11   1   0   64.39    4.20
  11   1   0   65.89    4.10
 -12  -1   0    2.10    0.60
 -12   1   0    0.90    0.50
 -13  -1   0   -0.20    0.50
 -13   1   0    0.00    0.50
 -14  -1   0   13.00    1.50
 -14   1   0   12.20    1.40
   0  -2   0  363.26   21.40
   0  -2   0  371.86   21.50
   0   2   0  363.86   21.50
  -1  -2   0  543.85   31.90
  -1  -2   0  546.85   31.80
   1  -2   0  545.85   31.90
   1   2   0  557.94   31.90
  -1   2   0  535.25   31.90
   2  -2   0  283.17   17.10
  -2  -2   0  289.47   17.00
   2   2   0  311.87   17.10
  -2   2   0  277.17   17.10
   2   2   0  295.47   17.20
  -3  -2   0  497.05   31.40
   3  -2   0  536.55   31.40
   3   2   0  527.95   31.60
   3   2   0  555.64   31.50
  -3   2   0  545.65   31.50
  -3   2   0  572.24   31.40
  -4  -2   0  175.18   11.10
   4  -2   0  185.78   11.00
   4   2   0  192.38   11.20
   4   2   0  194.58   11.10
  -4   2   0  186.08   11.20
  -4   2   0  193.38   11.10
   5  -2   0  240.88   14.20
  -5  -2   0  256.57   14.30
   5   2   0  231.88   14.40
  -5   2   0  238.98   14.30
  -6  -2   0   62.99    4.00
   6  -2   0   65.99    3.90
   6  -2   0   62.79    4.00
   6   2   0   66.49    4.10
  -6   2   0   67.29    4.00
  -7  -2   0  315.37   17.00
   7  -2   0  279.97   16.90
   7  -2   0  303.17   16.80
   7   2   0  255.77   17.00
  -7   2   0  280.27   16.90
  -8  -2   0   55.99    3.50
   8  -2   0   51.99    3.40
   8   2   0   53.49    3.60
  -8   2   0   54.79    3.50
  -9  -2   0  174.08   10.50
   9  -2   0  177.08   10.40
  -9   2   0  174.28   10.50
   9   2   0  170.18   10.60
 -10  -2   0   33.30    2.50
  10  -2   0   37.50    2.50
  10   2   0   41.90    2.70
 -10   2   0   34.00    2.50
  11  -2   0    1.50    0.50
 -11  -2   0    0.90    0.50
  11   2   0    1.50    0.60
 -11   2   0    1.70    0.60
 -12  -2   0   25.80    2.10
  12  -2   0   26.80    1.90
  12   2   0   26.40    2.20
 -12   2   0   26.90    2.10
 -13  -2   0   14.60    1.60
  13  -2   0   14.20    1.30
 -13   2   0   15.40    1.50
 -14  -2   0   48.70    3.60
 -14   2   0   53.49    3.60
   0  -3   0    0.10    0.20
   0  -3   0    0.20    0.30
   0   3   0    0.10    0.30
   1  -3   0   56.69    3.50
  -1  -3   0   57.19    3.80
   1  -3   0   58.49    3.70
  -1  -3   0   55.39    3.50
   1   3   0   66.19    3.70
  -1   3   0   57.09    3.70
  -2  -3   0   22.10    1.40
  -2  -3   0   22.10    1.70
   2  -3   0   21.00    1.60
  -2   3   0   21.20    1.60
   2   3   0   22.30    1.60
  -2   3   0   20.00    1.40
   3  -3   0   39.60    2.60
  -3  -3   0   40.90    2.50
  -3  -3   0   43.80    2.80
   3   3   0   38.60    2.60
  -3   3   0   40.40    2.70
  -3   3   0   38.90    2.50
   4  -3   0  131.89    7.80
  -4  -3   0  132.19    8.10
  -4  -3   0  134.99    7.80
   4   3   0  128.99    7.90
  -4   3   0  125.09    8.00
  -5  -3   0   94.89    5.60
   5  -3   0   88.69    5.50
  -5   3   0   91.09    5.70
   5   3   0   91.39    5.60
  -6  -3   0   81.99    5.00
   6  -3   0   81.49    4.90
   6  -3   0   80.29    5.10
   6   3   0   83.59    5.30
  -6   3   0   80.29    5.00
  -7  -3   0   37.70    2.50
   7  -3   0   36.30    2.50
   7   3   0   34.20    2.60
  -7   3   0   37.30    2.50
  -8  -3   0   61.29    4.10
   8  -3   0   69.99    4.20
   8   3   0   61.59    4.30
  -8   3   0   63.99    4.10
  -9  -3   0   48.40    3.20
   9  -3   0   49.70    3.20
  -9   3   0   45.90    3.20
   9   3   0   46.80    3.40
 -10  -3   0   12.00    1.20
  10  -3   0   12.30    1.20
 -10   3   0   15.20    1.70
  10   3   0   13.30    1.50
 -11  -3   0   31.80    2.30
  11  -3   0   33.40    2.40
  11   3   0   28.70    2.50
  12  -3   0   17.40    1.50
 -12  -3   0   15.40    1.50
  12   3   0   19.00    1.90
  13  -3   0   21.40    1.70
 -13  -3   0   22.10    1.90
  13   3   0   17.00    2.00
   0  -4   0   46.70    3.20
   0   4   0   46.40    3.20
   1  -4   0   10.70    1.10
  -1  -4   0    8.30    1.10
   1   4   0   10.20    1.10
  -1   4   0   11.10    1.10
  -2  -4   0    1.50    0.70
   2  -4   0    2.10    0.60
  -2   4   0    2.00    0.70
   2   4   0    1.70    0.60
  -3  -4   0   17.80    1.70
   3  -4   0   17.70    1.40
  -3   4   0   17.00    1.50
   3   4   0   16.90    1.50
   4  -4   0   58.89    3.90
  -4  -4   0   59.59    4.20
   4   4   0   58.59    3.90
  -4   4   0   63.39    4.10
  -5  -4   0   84.09    5.60
   5  -4   0   86.19    5.30
  -5   4   0   85.49    5.50
   6  -4   0    7.60    1.10
  -6  -4   0    7.70    1.30
   7  -4   0    1.50    0.70
  -7  -4   0    1.40    0.80
   8  -4   0    6.90    1.00
  -8  -4   0    4.10    1.10
  -9  -4   0    1.20    0.80
   9  -4   0    0.00    0.50
  10  -4   0    4.50    0.90
 -10  -4   0    3.00    1.10
 -11  -4   0    0.50    1.20
   0  -5   0   -0.10    0.50
   0   5   0   -0.20    0.60
  -1  -5   0   22.00    2.10
   1  -5   0   23.50    2.10
  -1   5   0   23.70    2.10
   1   5   0   26.70    2.10
   2  -5   0   19.90    1.90
  -2  -5   0   22.00    2.10
  -2   5   0   22.50    2.10
   2   5   0   23.40    2.00
   3  -5   0    9.70    1.20
  -3  -5   0    8.30    1.40
  -3   5   0   13.30    1.60
  -4  -5   0   13.50    1.70
  -4   5   0   10.70    1.50
   5  -5   0   14.80    1.50
  -5  -5   0   12.10    1.80
  -6  -5   0    4.80    1.20
   6  -5   0    4.60    1.00
 -15   0   1    1.60    0.80
 -14   0   1   15.50    1.60
 -13   0   1    3.30    0.80
 -12   0   1   33.80    2.50
  11   0  -1    8.80    0.90
 -11   0   1    6.50    0.90
  10   0  -1   97.19    5.60
 -10   0   1   85.09    5.70
  -9   0   1   53.49    3.20
   9   0  -1   51.79    3.10
   9   0  -1   42.60    2.90
   8   0  -1    0.70    0.20
  -8   0   1    1.10    0.30
   8   0  -1    0.70    0.30
   7   0  -1  410.06   23.60
   7   0  -1  391.86   23.50
  -7   0   1  411.46   23.70
   6   0  -1  146.69    8.90
  -6   0   1  155.68    9.00
   6   0  -1  152.28    8.90
   5   0  -1  102.89    6.00
   5   0  -1   95.39    5.90
  -5   0   1  105.49    6.00
   4   0  -1  270.27   17.70
   4   0  -1  324.17   17.70
  -4   0   1  316.67   17.70
  -3   0   1   82.29    5.00
   3   0  -1   87.79    5.00
   2   0  -1  554.14   32.20
  -2   0   1  552.54   32.20
  -1   0   1   25.60    1.50
   0   0  -1    0.20    0.10
  -1   0  -1  402.66   24.00
   1   0   1  423.56   24.10
  -2   0  -1 1453.65   85.89
   2   0   1 1434.76   85.89
   2   0   1 1538.05   85.89
   3   0   1  976.90   55.39
  -3   0  -1  893.11   55.29
   3   0   1  985.80   55.39
  -4   0  -1  114.29    6.80
   4   0   1  114.69    6.80
   4   0   1  116.29    6.70
   5   0   1  249.48   14.80
   5   0   1  260.27   14.80
  -5   0  -1  250.87   14.90
   6   0   1   31.60    1.90
   6   0   1   30.00    1.90
  -6   0  -1   29.80    2.00
  -7   0  -1   41.20    2.80
   7   0   1   43.00    2.70
   7   0   1   45.20    2.60
   8   0   1  337.27   20.40
  -8   0  -1  355.36   20.50
   8   0   1  352.16   20.30
   9   0   1   66.99    4.10
   9   0   1   65.89    4.00
  -9   0  -1   64.09    4.20
 -10   0  -1   14.10    1.30
 -11   0  -1   37.00    2.60
 -12   0  -1    9.40    1.10
 -13   0  -1    8.00    1.10
 -14   0  -1   11.10    1.40
 -15  -1   1    7.60    1.30
 -15   1   1    7.90    1.20
 -14  -1   1    3.60    0.80
 -14   1   1    2.00    0.80
 -13  -1   1  100.79    6.40
 -13   1   1   98.19    6.30
 -12  -1   1   37.40    2.70
 -12   1   1   38.60    2.70
  12   1  -1   38.60    2.70
 -11  -1   1   17.60    1.70
  11  -1  -1   24.20    1.50
 -11   1   1   19.30    1.70
  11   1  -1   25.80    1.80
  10  -1  -1   22.10    1.50
 -10  -1   1   22.60    1.70
  10   1  -1   22.60    1.70
 -10   1   1   23.70    1.70
  -9  -1   1  194.08   11.80
   9  -1  -1  193.08   11.70
   9  -1  -1  203.68   11.70
  -9   1   1  194.58   11.80
   9   1  -1  203.28   11.80
   8  -1  -1  177.18   11.00
  -8  -1   1  189.68   11.20
   8  -1  -1  193.58   11.00
   8   1  -1  183.38   11.20
  -8   1   1  184.08   11.20
   8   1  -1  195.08   11.00
   7  -1  -1  114.69    7.10
   7  -1  -1  124.99    7.10
  -7  -1   1  120.89    7.20
  -7   1   1  114.79    7.20
   7   1  -1  120.19    7.20
   7   1  -1  123.89    7.10
   6  -1  -1  189.48   11.60
  -6  -1   1  177.88   11.70
   6  -1  -1  212.78   11.50
   6   1  -1  196.68   11.70
  -6   1   1  205.18   11.70
   6   1  -1  200.18   11.50
   5  -1  -1 1111.59   64.49
  -5  -1   1 1000.00   64.49
   5  -1  -1 1149.58   64.49
  -5   1   1 1124.69   64.49
   5   1  -1 1157.28   64.59
  -4  -1   1  767.82   46.20
   4  -1  -1  777.72   46.10
  -4   1   1  833.32   46.20
   4   1  -1  725.43   46.20
  -4   1   1  860.81   46.20
  -3  -1   1  219.38   12.50
   3  -1  -1  203.58   12.40
  -3   1   1  210.48   12.50
   3   1  -1  220.88   12.50
  -3   1   1  212.18   12.50
   2  -1  -1 1063.09   66.29
  -2  -1   1 1119.69   66.29
  -2   1   1 1134.09   66.49
  -2   1   1 1254.47   66.29
   2   1  -1 1132.59   66.29
   1  -1  -1 1861.21  114.09
  -1  -1   1 2215.78  113.89
   1   1  -1 1889.71  113.79
   1   1  -1 1866.41  113.99
  -1   1   1 1952.90  114.09
   0  -1  -1  628.54   38.10
   0   1   1  724.53   38.10
   0   1  -1  638.54   38.00
   0   1  -1  641.44   38.10
   0   1  -1  638.14   38.00
  -1  -1  -1 9763.12  542.85
   1  -1   1 8280.37  543.85
  -1  -1  -1 9999.00  539.85
  -1   1  -1 8793.42  545.15
   1   1   1 8975.60  545.95
  -1   1  -1 9808.92  539.65
   2  -1   1 4689.43  304.97
  -2  -1  -1 5819.92  305.17
  -2   1  -1 5152.78  305.17
   2   1   1 5158.58  305.07
   2   1   1 4694.73  305.27
  -2   1  -1 5983.90  305.47
  -3  -1  -1 1128.49   68.99
   3  -1   1 1278.97   69.09
   3   1   1 1195.28   69.19
   3   1   1 1157.88   69.09
  -3   1  -1 1178.98   69.09
   4  -1   1   15.70    1.00
   4  -1   1   16.40    1.00
  -4  -1  -1   13.80    1.00
  -4   1  -1   14.60    1.00
   4   1   1   15.00    1.10
   4   1   1   16.40    1.00
   5  -1   1   63.69    4.10
  -5  -1  -1   63.99    4.20
   5  -1   1   76.59    4.10
   5   1   1   75.29    4.10
  -5   1  -1   68.29    4.20
   5   1   1   62.69    4.20
  -6  -1  -1  212.48   13.90
   6  -1   1  223.38   13.90
   6  -1   1  258.17   13.80
  -6   1  -1  230.98   14.00
   6   1   1  243.28   14.00
   6   1   1  250.37   13.90
   7  -1   1  249.68   14.90
   7  -1   1  260.37   14.90
   7   1   1  235.88   15.00
  -7   1  -1  257.37   15.00
   7   1   1  266.47   14.90
   8  -1   1  203.28   12.40
   8  -1   1  220.78   12.40
  -8  -1  -1  222.28   12.60
  -8   1  -1  205.18   12.50
   8   1   1  218.58   12.40
   8   1   1  193.28   12.50
   9  -1   1  184.48   11.10
  -9  -1  -1  200.68   11.30
   9   1   1  184.98   11.30
  -9   1  -1  184.58   11.30
  10  -1   1  132.19    8.20
 -10  -1  -1  138.19    8.40
  10   1   1  145.89    8.40
 -10   1  -1  136.09    8.40
 -11  -1  -1    6.40    0.90
  11  -1   1    8.20    0.70
  11   1   1    7.00    0.90
 -11   1  -1    6.30    0.90
 -12  -1  -1    7.10    1.00
  12  -1   1    7.00    0.70
 -12   1  -1    7.10    1.00
 -13  -1  -1    9.10    1.20
 -13   1  -1   10.00    1.30
 -14  -1  -1    2.00    0.80
 -14   1  -1    2.50    0.80
 -14  -2   1    3.00    0.80
 -14   2   1    3.20    0.90
 -13  -2   1   11.20    1.40
 -13   2   1   14.00    1.40
  13   2  -1   14.20    1.50
  12  -2  -1    6.60    0.80
 -12  -2   1    7.00    1.00
  12   2  -1    5.10    1.00
 -12   2   1    7.20    1.00
 -11  -2   1   60.79    4.10
  11  -2  -1   58.39    3.90
  11   2  -1   73.09    4.30
 -11   2   1   58.19    4.00
  10  -2  -1   20.70    1.50
 -10  -2   1   19.60    1.60
  10   2  -1   18.90    1.70
 -10   2   1   19.40    1.60
   9  -2  -1    4.00    0.60
  -9  -2   1    4.80    0.70
   9   2  -1    6.50    0.90
  -9   2   1    4.00    0.70
   8  -2  -1  234.88   12.70
   8  -2  -1  218.08   12.90
  -8  -2   1  185.58   12.90
  -8   2   1  222.28   12.90
   8   2  -1  220.18   13.00
  -7  -2   1   85.49    5.40
   7  -2  -1   88.49    5.20
   7  -2  -1   89.69    5.40
   7   2  -1   83.79    5.50
  -7   2   1   89.19    5.30
  -6  -2   1   11.30    0.90
   6  -2  -1    9.60    0.90
   6  -2  -1   11.40    0.80
   6   2  -1   12.00    1.00
   6   2  -1   11.40    0.80
  -6   2   1   11.20    0.90
  -5  -2   1    8.60    0.80
   5  -2  -1   10.50    0.70
   5   2  -1   11.20    1.00
  -5   2   1    9.00    0.90
  -5   2   1   10.30    0.80
   4  -2  -1  216.48   12.40
  -4  -2   1  203.28   12.50
  -4   2   1  210.78   12.60
  -4   2   1  212.78   12.40
   4   2  -1  215.58   12.60
  -3  -2   1  406.26   24.50
   3  -2  -1  431.56   24.50
  -3   2   1  443.16   24.60
   3   2  -1  415.96   24.60
   3   2  -1  397.46   24.50
   2  -2  -1  342.47   20.00
  -2  -2   1  362.96   19.90
  -2   2   1  355.46   20.00
  -2   2   1  332.37   19.90
   2   2  -1  321.07   20.00
   2   2  -1  328.77   19.90
   1  -2  -1  199.48   11.80
  -1  -2   1  184.18   11.80
  -1  -2   1  210.58   11.90
   1   2  -1  184.88   11.80
  -1   2   1  204.08   11.90
  -1   2   1  220.38   11.70
   0  -2   1   10.70    0.80
   0  -2  -1   10.20    0.80
   0  -2  -1   10.30    0.70
   0   2   1    9.80    0.80
   0   2  -1   10.60    0.80
   1  -2   1  342.87   19.40
  -1  -2  -1  283.27   19.30
  -1  -2  -1  359.26   19.50
  -1   2  -1  348.47   19.50
  -1   2  -1  346.97   19.40
   1   2   1  310.87   19.40
   2  -2   1 1284.57   73.29
  -2  -2  -1 1151.28   73.19
   2   2   1 1432.76   73.29
  -2   2  -1 1228.38   73.29
  -2   2  -1 1204.58   73.29
  -3  -2  -1 1064.39   59.29
   3  -2   1 1003.50   59.29
   3   2   1 1028.60   59.29
  -3   2  -1 1053.99   59.39
   3   2   1  953.20   59.39
  -3   2  -1 1011.80   59.29
  -4  -2  -1  439.26   27.70
   4  -2   1  491.65   27.70
  -4   2  -1  501.95   27.70
  -4   2  -1  500.25   27.80
   4   2   1  443.46   27.70
   4   2   1  469.75   27.80
   5  -2   1  113.29    7.10
   5  -2   1  118.29    7.20
  -5  -2  -1  125.99    7.20
   5   2   1  115.69    7.30
   5   2   1  121.09    7.10
  -5   2  -1  124.79    7.20
   6  -2   1    2.20    0.40
  -6  -2  -1    3.20    0.50
   6   2   1    1.90    0.50
   6   2   1    2.60    0.40
  -6   2  -1    3.70    0.50
   7  -2   1   57.19    3.50
  -7  -2  -1   53.89    3.50
   7  -2   1   54.39    3.30
  -7   2  -1   52.59    3.50
   7   2   1   55.69    3.60
  -8  -2  -1   41.40    2.70
   8  -2   1   39.40    2.60
  -8   2  -1   40.60    2.70
   8   2   1   38.70    2.80
  -9  -2  -1  110.09    6.10
   9  -2   1   99.19    6.10
   9   2   1   88.39    6.20
  -9   2  -1   98.09    6.10
 -10  -2  -1   26.10    2.20
  10  -2   1   34.20    2.20
  10   2   1   37.00    2.50
 -10   2  -1   32.90    2.30
 -11  -2  -1    1.00    0.50
  11  -2   1    1.40    0.50
  11   2   1    0.90    0.60
 -11   2  -1    1.00    0.50
  12  -2   1   56.69    3.50
 -12  -2  -1   55.79    3.70
  12   2   1   51.39    3.80
 -12   2  -1   53.59    3.70
  13  -2   1   21.60    1.60
 -13  -2  -1   21.10    1.90
 -13   2  -1   19.40    1.90
 -14  -2  -1    4.20    0.90
 -14   2  -1    6.10    1.00
  13  -3  -1   23.00    1.80
 -13  -3   1   19.00    1.80
  13   3  -1   19.60    2.10
  12  -3  -1   12.20    1.30
 -12  -3   1    9.60    1.20
  12   3  -1    9.20    1.40
 -11  -3   1   58.89    3.80
  11  -3  -1   55.69    3.80
  11   3  -1   57.79    4.10
  10  -3  -1   10.10    1.10
 -10  -3   1   10.00    1.10
  10   3  -1   12.10    1.40
   9  -3  -1   13.90    1.30
  -9  -3   1   15.80    1.30
   9   3  -1   16.00    1.50
  -8  -3   1   89.49    6.20
   8  -3  -1  105.09    6.30
   8   3  -1  109.69    6.50
  -7  -3   1   46.60    2.90
   7  -3  -1   39.00    2.90
   7  -3  -1   45.60    2.80
   7   3  -1   46.90    3.20
   6  -3  -1   32.00    2.10
  -6  -3   1   30.30    2.10
   6   3  -1   32.30    2.40
  -6   3   1   33.30    2.30
   5  -3  -1   15.70    1.00
  -5  -3   1   13.40    1.00
   5   3  -1    8.70    0.90
  -5   3   1   12.10    1.10
   5   3  -1   11.40    1.10
   4  -3  -1   75.79    4.70
  -4  -3   1   70.29    4.70
   4   3  -1   82.79    4.70
  -4   3   1   81.29    4.90
   4   3  -1   72.89    4.90
  -3  -3   1  144.69    8.90
  -3  -3   1  154.58    8.70
   3  -3  -1  138.59    8.70
   3   3  -1  148.49    8.70
  -3   3   1  140.09    8.80
   2  -3  -1  147.39    9.50
  -2  -3   1  152.18    9.40
  -2  -3   1  165.78    9.70
   2   3  -1  175.08    9.60
  -2   3   1  158.98    9.60
   1  -3  -1   38.30    2.30
  -1  -3   1   40.30    2.60
  -1  -3   1   37.50    2.40
   1  -3  -1   34.50    2.50
   1   3  -1   40.40    2.50
  -1   3   1   36.30    2.50
   0  -3  -1  189.18   10.80
   0  -3   1  182.18   10.70
   0  -3  -1  167.08   10.60
   0  -3   1  180.58   10.80
   0   3   1  181.78   10.80
   0   3  -1  184.48   10.80
  -1  -3  -1    9.00    0.70
  -1  -3  -1   13.40    1.10
   1  -3   1   11.30    1.00
   1   3   1   11.40    1.00
  -1   3  -1    9.70    0.80
  -1   3  -1   10.10    0.90
  -2  -3  -1   83.19    5.00
   2  -3   1   80.49    5.10
  -2  -3  -1   81.19    5.30
   2   3   1   89.29    5.20
  -2   3  -1   84.39    5.20
  -3  -3  -1  167.78    9.60
   3  -3   1  159.38    9.70
  -3  -3  -1  154.98    9.80
   3   3   1  168.38    9.70
  -3   3  -1  159.48    9.80
  -4  -3  -1  284.07   15.60
  -4  -3  -1  256.97   15.80
   4  -3   1  262.27   15.60
  -4   3  -1  271.67   15.70
   4   3   1  263.87   15.70
  -4   3  -1  248.48   15.60
  -5  -3  -1  170.88   11.20
  -5  -3  -1  203.58   11.00
   5  -3   1  181.98   10.90
   5  -3   1  181.58   11.10
  -5   3  -1  186.28   11.00
   5   3   1  183.68   11.00
   6  -3   1  236.28   13.10
  -6  -3  -1  214.38   13.30
  -6  -3  -1  207.78   13.00
   6   3   1  218.58   13.00
  -6   3  -1  219.68   13.00
   7  -3   1   12.90    1.20
  -7  -3  -1   12.50    1.00
   7   3   1   10.70    1.20
  -7   3  -1   12.10    1.10
   8  -3   1   10.30    1.10
  -8  -3  -1    9.40    1.00
  -8   3  -1   10.20    1.00
   8   3   1   11.80    1.20
   9  -3   1    6.70    0.90
  -9  -3  -1    7.20    0.90
   9   3   1    7.30    1.10
  -9   3  -1    5.90    0.90
 -10  -3  -1   18.20    1.50
  10  -3   1   18.00    1.60
 -10   3  -1   20.10    1.70
  10   3   1   19.50    1.80
  11  -3   1   11.40    1.30
 -11  -3  -1   13.30    1.30
 -11   3  -1   13.10    1.40
  11   3   1   11.80    1.50
  12  -3   1    5.10    0.90
 -12  -3  -1    5.80    1.10
 -12  -3  -1    7.50    1.10
  13  -3   1    7.40    1.00
 -11  -4   1    2.60    1.10
  11  -4  -1    0.80    0.80
  10  -4  -1   28.00    2.20
 -10  -4   1   23.80    2.30
   9  -4  -1    3.80    0.80
  -9  -4   1    4.00    1.10
   8  -4  -1    1.60    0.60
  -8  -4   1    0.90    0.70
   7  -4  -1    2.00    0.70
  -7  -4   1    1.60    0.80
  -6  -4   1   23.00    2.10
  -6   4   1   22.90    2.00
  -5  -4   1   81.79    5.10
   5  -4  -1   72.19    4.70
  -5   4   1   72.09    4.90
  -4  -4   1   53.29    3.70
   4  -4  -1   50.79    3.40
  -4   4   1   52.09    3.60
   3  -4  -1    0.50    0.40
  -3  -4   1    1.50    0.70
  -3   4   1    0.60    0.50
   3   4  -1    0.80    0.50
   2  -4  -1   18.00    1.50
  -2  -4   1   18.90    1.70
  -2   4   1   19.80    1.60
   2   4  -1   19.50    1.60
  -1  -4   1   17.10    1.60
   1  -4  -1   19.90    1.60
  -1   4   1   20.70    1.70
   1   4  -1   18.40    1.60
   0  -4   1   99.99    6.70
   0  -4  -1  109.59    6.70
   0   4   1  110.79    6.70
   0   4  -1  106.99    6.70
  -1  -4  -1   21.80    1.90
   1  -4   1   24.50    1.90
   1   4   1   23.70    1.90
  -1   4  -1   24.90    1.90
   2  -4   1    4.00    0.70
  -2  -4  -1    4.00    0.90
  -2   4  -1    5.10    0.80
   2   4   1    5.30    0.80
   3  -4   1   -0.40    0.40
  -3  -4  -1   -0.70    0.40
  -3   4  -1    0.00    0.50
   3   4   1    0.70    0.50
  -4  -4  -1  105.49    7.10
   4  -4   1  109.49    6.80
   4   4   1  110.19    6.90
  -4   4  -1  117.39    7.00
  -5  -4  -1   33.50    2.70
   5  -4   1   32.40    2.40
  -6  -4  -1   99.29    6.30
   6  -4   1   91.39    6.00
   7  -4   1   29.80    2.40
  -7  -4  -1   34.20    2.70
   8  -4   1    3.90    0.90
  -8  -4  -1    2.60    0.90
  -9  -4  -1    9.60    1.50
   9  -4   1    9.30    1.20
 -10  -4  -1   13.80    1.90
  10  -4   1   21.60    1.70
  -7  -5   1    7.10    2.00
   7  -5  -1    7.20    1.40
  -6  -5   1    2.10    1.00
   6  -5  -1    4.60    0.90
  -5  -5   1    1.70    0.90
  -5   5   1    2.60    1.00
   4  -5  -1   18.00    2.40
  -4  -5   1   18.50    2.00
  -4   5   1   21.30    2.00
   3  -5  -1    3.70    0.80
  -3  -5   1    5.40    1.10
  -3   5   1    3.60    0.90
   2  -5  -1    2.90    0.80
  -2  -5   1    2.70    0.80
   2   5  -1    3.40    1.20
  -2   5   1    2.80    0.80
   1  -5  -1    5.90    1.00
  -1  -5   1    3.00    0.90
  -1   5   1    5.60    1.10
   1   5  -1    7.10    1.10
   0  -5  -1    2.90    0.80
   0  -5   1    1.90    0.70
   0   5   1    3.40    0.90
   0   5  -1    2.40    0.80
  -1  -5  -1    1.30    0.80
   1  -5   1    1.10    0.70
   1   5   1    2.20    0.80
  -1   5  -1    1.30    0.70
  -2  -5  -1   10.40    1.60
   2  -5   1   15.70    1.50
  -2   5  -1   16.50    1.60
   2   5   1   15.40    1.60
  -3  -5  -1    0.10    0.70
  -3   5  -1    0.70    0.60
  -4  -5  -1    2.50    1.00
   4  -5   1    3.90    0.80
  -5  -5  -1    1.00    0.90
   5  -5   1    0.90    0.70
   6  -5   1   47.60    3.30
  -6  -5  -1   42.40    3.50
 -15   0   2    6.70    1.10
 -14   0   2    0.60    0.60
 -13   0   2   -0.60    0.50
 -12   0   2   25.30    2.00
  11   0  -2  137.79    8.30
 -11   0   2  137.09    8.40
  10   0  -2   71.89    4.30
 -10   0   2   66.09    4.40
  -9   0   2   87.79    5.50
   9   0  -2   90.89    5.40
   8   0  -2   60.79    3.80
  -8   0   2   62.09    3.90
  -7   0   2  180.48   10.70
   7   0  -2  179.98   10.60
   6   0  -2  474.65   27.80
  -6   0   2  477.85   27.80
   5   0  -2  331.67   18.50
  -5   0   2  301.47   18.50
   4   0  -2  967.20   55.99
  -4   0   2  960.70   56.09
   3   0  -2  694.43   39.70
  -3   0   2  670.53   39.70
  -2   0   2   25.50    1.60
   2   0  -2   29.30    1.60
  -2   0   2   23.80    1.50
   1   0  -2 1276.97   86.89
  -1   0   2 1710.73   86.89
   0   0   2    2.00    0.10
   0   0  -2    1.90    0.20
  -1   0  -2 2108.99  124.69
   1   0   2 2176.68  124.59
  -2   0  -2 1599.84  100.49
   2   0   2 1800.22  100.49
   2   0   2 1778.62  100.39
   3   0   2  135.29    8.20
  -3   0  -2  139.19    8.30
   3   0   2  148.59    8.20
   4   0   2   81.89    4.90
  -4   0  -2   80.19    4.90
   4   0   2   84.99    4.90
   5   0   2  154.48    8.40
   5   0   2  143.49    8.40
  -5   0  -2  131.59    8.50
  -6   0  -2   64.39    3.90
   6   0   2   64.19    3.80
   6   0   2   61.39    3.80
   7   0   2  133.59    8.20
   7   0   2  139.49    8.20
  -7   0  -2  143.69    8.30
   8   0   2    8.50    0.70
   8   0   2    7.50    0.70
  -8   0  -2    7.90    0.80
  10   0   2  335.87   20.30
 -10   0  -2  360.46   20.60
  11   0   2   28.40    1.90
 -11   0  -2   32.60    2.30
 -12   0  -2    0.50    0.50
 -13   0  -2    6.40    1.10
 -14   0  -2   53.49    3.80
 -15  -1   2   25.20    2.30
 -15   1   2   26.80    2.20
 -14  -1   2    5.70    1.00
 -14   1   2    5.60    1.00
 -13  -1   2    4.90    0.90
 -13   1   2    4.30    0.90
 -12  -1   2    0.50    0.50
  12   1  -2    0.20    0.40
 -12   1   2    0.60    0.50
  11  -1  -2   39.50    2.60
 -11  -1   2   40.50    2.80
 -11   1   2   43.00    2.80
  11   1  -2   41.80    2.80
  10  -1  -2   86.39    5.00
  10  -1  -2   76.69    5.00
 -10  -1   2   82.99    5.20
  10   1  -2   86.19    5.20
 -10   1   2   79.09    5.10
  -9  -1   2   58.09    4.00
   9  -1  -2   62.39    3.90
   9  -1  -2   66.59    3.90
  -9   1   2   64.79    4.00
   9   1  -2   62.99    4.00
   8  -1  -2    3.60    0.40
   8  -1  -2    3.10    0.40
  -8  -1   2    4.10    0.60
  -8   1   2    2.10    0.40
   8   1  -2    3.00    0.50
   7  -1  -2    0.50    0.20
  -7  -1   2    1.10    0.30
   7  -1  -2    0.80    0.20
   7   1  -2    0.70    0.20
   7   1  -2    0.50    0.30
  -7   1   2    0.30    0.20
   6  -1  -2  188.78   10.40
  -6  -1   2  152.18   10.50
   6  -1  -2  169.58   10.50
  -6   1   2  185.78   10.50
   6   1  -2  180.28   10.40
   6   1  -2  186.88   10.50
  -5  -1   2  254.27   14.90
   5  -1  -2  248.88   14.80
  -5   1   2  271.07   14.90
  -5   1   2  253.67   14.90
   5   1  -2  247.38   14.80
   5   1  -2  248.68   14.90
  -4  -1   2   33.30    2.20
  -4   1   2   35.50    2.20
  -4   1   2   38.60    2.20
   4   1  -2   33.60    2.10
   4   1  -2   37.40    2.30
   3  -1  -2  297.57   17.60
  -3  -1   2  314.37   17.60
  -3   1   2  330.57   17.60
   3   1  -2  276.77   17.50
   3   1  -2  283.17   17.60
  -3   1   2  304.57   17.60
  -2  -1   2   71.49    4.30
   2  -1  -2   76.69    4.30
   2   1  -2   65.69    4.40
  -2   1   2   77.79    4.40
   1  -1  -2 1014.00   58.69
  -1  -1   2  997.60   58.69
  -1   1   2 1062.29   58.69
   1   1  -2  964.00   58.69
   0  -1  -2 1763.72  117.39
   0  -1  -2 1919.81  117.79
   0   1  -2 1826.72  117.59
   0   1  -2 1998.20  117.49
   0   1   2 2309.47  117.89
   0   1  -2 2324.67  117.89
   1  -1   2 1687.13  109.29
  -1  -1  -2 1733.23  109.39
  -1  -1  -2 1926.61  109.19
  -1   1  -2 2001.70  109.59
   1   1   2 2051.49  109.59
   2  -1   2  379.26   25.10
  -2  -1  -2  459.55   25.00
   2  -1   2  399.16   25.00
  -2   1  -2  446.76   25.10
   2   1   2  466.15   25.10
  -3  -1  -2  261.27   16.40
   3  -1   2  261.47   16.40
   3  -1   2  292.17   16.30
   3   1   2  246.48   16.40
  -3   1  -2  297.97   16.40
   3   1   2  319.67   16.40
  -4  -1  -2  259.47   14.70
   4  -1   2  242.48   14.60
   4  -1   2  264.77   14.70
   4   1   2  245.38   14.70
   4   1   2  261.97   14.70
  -4   1  -2  230.68   14.70
   5  -1   2  144.39    8.70
   5  -1   2  152.38    8.60
  -5  -1  -2  158.28    8.70
  -5   1  -2  139.69    8.70
   5   1   2  149.69    8.60
   5   1   2  136.29    8.70
  -6  -1  -2   33.30    2.00
   6  -1   2   29.90    1.90
   6  -1   2   32.50    1.90
   6   1   2   31.10    1.90
  -6   1  -2   28.30    2.00
   6   1   2   26.80    2.00
  -7  -1  -2   36.40    2.40
   7  -1   2   35.90    2.30
   7  -1   2   38.70    2.30
   7   1   2   37.10    2.30
   7   1   2   37.90    2.50
  -7   1  -2   38.50    2.50
  -8  -1  -2   20.00    1.50
   8  -1   2   19.40    1.40
   8   1   2   19.90    1.50
  -8   1  -2   21.10    1.50
   8   1   2   21.10    1.40
   9  -1   2  124.79    7.30
  -9  -1  -2  118.19    7.40
   9   1   2  123.49    7.30
   9   1   2  118.09    7.40
  -9   1  -2  125.39    7.50
  10  -1   2   18.20    1.30
 -10  -1  -2   18.50    1.50
 -10   1  -2   17.40    1.50
  10   1   2   20.40    1.50
 -11  -1  -2   28.90    2.30
  11  -1   2   32.50    2.10
 -11   1  -2   32.50    2.30
  12  -1   2   80.69    5.00
 -12  -1  -2   82.79    5.30
 -12   1  -2   81.19    5.30
 -13  -1  -2   25.00    2.10
 -13   1  -2   24.00    2.10
 -14  -1  -2   29.60    2.40
 -14   1  -2   29.00    2.40
 -14  -2   2   47.50    3.40
 -14   2   2   45.80    3.30
 -13  -2   2    0.20    0.60
  13   2  -2    0.60    0.60
 -13   2   2    0.80    0.60
  12  -2  -2   49.60    3.30
 -12  -2   2   52.49    3.50
  12   2  -2   51.39    3.60
 -12   2   2   51.59    3.50
  11  -2  -2    4.80    0.70
 -11  -2   2    4.60    0.80
  11   2  -2    5.10    0.90
 -11   2   2    5.10    0.80
  10  -2  -2   16.40    1.30
 -10  -2   2   16.30    1.40
  10   2  -2   18.10    1.50
 -10   2   2   16.50    1.40
   9  -2  -2   32.50    2.20
  -9  -2   2   28.30    2.20
   9  -2  -2   33.60    2.00
  -9   2   2   31.40    2.20
   9   2  -2   31.20    2.30
  -8  -2   2   50.89    3.20
   8  -2  -2   47.20    3.20
   8  -2  -2   50.59    3.00
  -8   2   2   52.79    3.20
   8   2  -2   44.70    3.30
   7  -2  -2   40.90    3.00
  -7  -2   2   47.70    3.00
   7  -2  -2   47.40    2.90
   7   2  -2   53.19    3.20
  -7   2   2   48.00    3.00
   6  -2  -2   27.60    1.80
  -6  -2   2   29.90    1.90
   6   2  -2   28.50    1.80
   6   2  -2   29.60    2.00
  -6   2   2   27.70    1.90
  -6   2   2   27.30    1.90
  -5  -2   2   27.30    1.90
   5  -2  -2   29.30    1.90
   5   2  -2   28.60    1.90
  -5   2   2   28.70    1.90
   5   2  -2   30.40    2.00
  -5   2   2   32.80    2.00
   4  -2  -2   76.59    4.70
  -4  -2   2   79.29    4.80
   4   2  -2   83.59    4.90
  -4   2   2   74.59    4.80
   3  -2  -2  277.47   15.70
  -3  -2   2  242.78   15.70
   3   2  -2  238.88   15.70
  -3   2   2  275.77   15.60
  -3   2   2  300.37   15.80
  -2  -2   2   66.39    4.20
   2  -2  -2   68.29    4.30
   2   2  -2   72.29    4.30
  -2   2   2   74.69    4.30
   2   2  -2   67.39    4.20
  -2   2   2   71.89    4.20
  -1  -2   2  180.58   10.60
   1  -2  -2  174.98   10.60
   1   2  -2  178.88   10.60
   1   2  -2  163.38   10.60
  -1   2   2  194.18   10.70
  -1   2   2  184.48   10.50
   0  -2   2    9.40    0.70
   0  -2  -2    7.60    0.70
   0  -2  -2    8.50    0.60
   0   2  -2    8.50    0.70
   0   2  -2    9.30    0.70
   0   2   2    9.20    0.80
   1  -2   2 1605.14   96.09
  -1  -2  -2 1565.94   96.09
  -1  -2  -2 1544.85   96.19
  -1   2  -2 1727.03   96.49
   1   2   2 1793.32   96.19
  -1   2  -2 1686.63   96.19
  -2  -2  -2  184.18   10.40
   2  -2   2  161.18   10.30
  -2  -2  -2  157.98   10.20
   2   2   2  181.68   10.40
  -2   2  -2  179.98   10.40
  -2   2  -2  186.78   10.30
   3  -2   2  752.22   43.90
  -3  -2  -2  817.52   44.10
  -3  -2  -2  720.83   43.90
  -3   2  -2  769.02   44.00
   3   2   2  737.53   44.00
  -3   2  -2  730.63   44.00
   4  -2   2  262.37   15.80
  -4  -2  -2  251.17   15.80
   4  -2   2  269.07   15.70
  -4   2  -2  282.47   15.80
   4   2   2  292.57   15.80
   4   2   2  256.97   15.90
   5  -2   2   73.49    4.80
  -5  -2  -2   78.89    4.80
   5  -2   2   81.29    4.70
   5   2   2   81.39    4.80
  -5   2  -2   80.69    4.80
   5   2   2   77.59    4.90
  -6  -2  -2   24.50    1.70
   6  -2   2   24.60    1.70
   6  -2   2   24.60    1.60
   6   2   2   24.30    1.70
  -6   2  -2   26.40    1.70
   6   2   2   26.70    1.90
   7  -2   2  243.78   14.20
  -7  -2  -2  231.98   14.20
  -7   2  -2  238.58   14.30
   7   2   2  246.68   14.40
   7   2   2  239.98   14.20
  -8  -2  -2  104.09    6.10
   8  -2   2  102.29    6.00
   8   2   2   94.89    6.20
   8   2   2   97.69    6.00
  -8   2  -2   95.49    6.10
   9  -2   2    5.90    0.70
  -9  -2  -2    4.60    0.70
   9   2   2    3.10    0.70
  -9   2  -2    4.90    0.70
  10  -2   2   12.30    1.10
 -10  -2  -2   10.80    1.10
  10   2   2   12.30    1.20
 -10   2  -2   11.40    1.10
  11  -2   2   14.40    1.20
 -11  -2  -2   12.70    1.30
 -11   2  -2   13.30    1.30
  11   2   2   15.20    1.40
 -12  -2  -2    3.00    0.80
  12  -2   2    4.50    0.70
 -12   2  -2    3.50    0.80
  13  -2   2   29.60    2.10
 -13  -2  -2   31.80    2.40
 -13   2  -2   26.70    2.30
 -14  -2  -2    6.60    1.10
 -14   2  -2    4.70    1.10
 -13  -3   2   21.40    1.90
  13  -3  -2   21.60    1.70
  13   3  -2   18.10    2.00
  12  -3  -2   13.40    1.30
 -12  -3   2   12.80    1.30
  12   3  -2   11.90    1.60
 -11  -3   2    9.80    1.20
  11  -3  -2   12.80    1.30
  11   3  -2   12.10    1.50
 -10  -3   2   55.59    3.60
  10  -3  -2   54.99    3.60
  10   3  -2   53.29    3.80
  -9  -3   2   16.40    1.40
   9  -3  -2   15.00    1.40
   9   3  -2   14.80    1.50
  -8  -3   2    6.20    0.80
   8  -3  -2    4.80    0.80
   8   3  -2    5.40    0.90
  -7  -3   2   63.59    3.70
   7  -3  -2   57.59    3.60
   7   3  -2   52.49    3.90
  -7   3   2   60.39    3.90
   6  -3  -2   80.59    4.90
  -6  -3   2   86.99    5.00
  -6   3   2   81.09    5.10
   6   3  -2   70.49    5.10
   5  -3  -2    4.50    0.60
  -5  -3   2    5.50    0.60
   5   3  -2    3.30    0.70
  -5   3   2    4.30    0.70
   4  -3  -2   40.80    2.70
  -4  -3   2   45.20    2.70
  -4   3   2   43.70    2.90
   4   3  -2   39.70    2.80
   4   3  -2   39.60    2.70
   3  -3  -2   31.70    2.10
  -3  -3   2   31.20    2.00
   3   3  -2   30.50    2.20
   3   3  -2   29.20    2.00
  -3   3   2   28.30    2.10
  -2  -3   2  213.58   12.00
   2  -3  -2  192.08   11.90
  -2   3   2  200.78   12.00
   2   3  -2  194.08   11.90
  -1  -3   2  173.68    9.90
  -1  -3   2  155.78   10.00
   1  -3  -2  171.58   10.00
  -1   3   2  160.28   10.00
   1   3  -2  168.08    9.90
   0  -3  -2    7.10    0.80
   0  -3   2    6.10    0.60
   0  -3   2    6.70    0.80
   0   3   2    7.20    0.80
   0   3  -2    7.10    0.70
   1  -3   2  133.59    8.70
  -1  -3  -2  131.89    8.80
   1   3   2  150.68    8.80
  -1   3  -2  164.38    8.80
   2  -3   2   49.30    3.20
  -2  -3  -2   51.59    3.40
   2   3   2   50.49    3.30
  -2   3  -2   48.20    3.10
  -2   3  -2   52.39    3.30
   3  -3   2  142.09    8.60
  -3  -3  -2  135.29    8.80
  -3  -3  -2  141.19    8.60
  -3   3  -2  143.49    8.60
   3   3   2  151.28    8.70
  -3   3  -2  147.69    8.70
   4  -3   2  114.79    6.70
  -4  -3  -2  114.69    7.00
   4  -3   2  122.09    6.90
  -4  -3  -2   97.59    6.70
  -4   3  -2  110.39    6.80
   4   3   2  115.09    6.80
   5  -3   2  399.16   25.30
  -5  -3  -2  418.96   25.50
  -5  -3  -2  392.26   25.20
   5  -3   2  450.25   25.20
  -5   3  -2  449.76   25.30
   5   3   2  470.25   25.30
  -6  -3  -2   10.30    1.00
   6  -3   2   12.50    1.10
  -6  -3  -2   12.10    1.40
  -6   3  -2   12.00    1.10
   6   3   2   13.90    1.10
  -7  -3  -2   23.10    1.60
  -7  -3  -2   21.50    1.90
   7  -3   2   21.40    1.70
  -7   3  -2   22.30    1.70
  -8  -3  -2   10.50    1.00
   8  -3   2   10.50    1.10
  -8  -3  -2   10.60    1.30
  -8   3  -2    9.40    1.10
   9  -3   2    7.80    0.90
  -9  -3  -2    8.00    0.90
  -9  -3  -2    6.90    1.10
  -9   3  -2    6.60    0.90
 -10  -3  -2    4.30    0.90
  10  -3   2    3.80    0.70
 -10  -3  -2    3.20    0.90
 -10   3  -2    4.30    0.80
  11  -3   2   25.70    1.90
 -11  -3  -2   19.30    2.00
 -11   3  -2   23.40    2.00
  12  -3   2   27.70    2.10
 -12   3  -2   27.10    2.30
 -13   3  -2    1.40    0.90
 -11  -4   2   24.90    2.80
  11  -4  -2   33.70    2.50
  10  -4  -2    9.00    1.20
 -10  -4   2    8.70    1.40
  -9  -4   2    1.70    0.80
   9  -4  -2    1.50    0.60
  -8  -4   2    2.10    0.80
   8  -4  -2    2.20    0.60
  -7  -4   2  122.69    8.10
  -7   4   2  128.99    7.90
   6  -4  -2   43.60    2.80
  -6  -4   2   38.10    3.10
  -6   4   2   42.80    3.00
  -5  -4   2   67.69    4.70
   5  -4  -2   69.29    4.40
  -5   4   2   68.59    4.60
  -4  -4   2    9.20    1.20
   4  -4  -2    7.70    0.90
  -4   4   2    8.30    1.10
  -3  -4   2   22.50    2.00
   3  -4  -2   22.00    1.80
  -3   4   2   24.10    1.90
   3   4  -2   22.50    1.80
   2  -4  -2    8.50    1.00
  -2  -4   2    8.80    1.20
   2   4  -2    8.50    1.00
  -2   4   2   10.00    1.20
  -1  -4   2   53.59    3.80
   1  -4  -2   59.39    3.80
  -1   4   2   54.49    3.70
   1   4  -2   56.09    3.70
   0  -4   2   18.80    1.60
   0  -4  -2   19.40    1.60
   0   4  -2   16.80    1.50
   0   4   2   18.30    1.60
   1  -4   2   90.79    6.20
  -1  -4  -2   98.69    6.30
  -1   4  -2  104.49    6.30
   1   4   2  104.09    6.30
  -2  -4  -2   37.80    2.60
   2  -4   2   30.70    2.40
  -2   4  -2   34.60    2.50
   2   4   2   34.20    2.50
  -3  -4  -2    7.70    1.20
   3  -4   2    5.60    0.80
  -3   4  -2    9.40    1.10
   3   4   2    8.20    1.00
   4  -4   2   10.20    1.20
  -4  -4  -2    9.80    1.30
   4   4   2    8.90    1.10
  -5  -4  -2   66.39    4.60
   5  -4   2   67.09    4.40
  -6  -4  -2   34.70    2.90
   6  -4   2   38.10    2.70
  -7  -4  -2   66.29    5.10
   7  -4   2   84.19    5.00
   8  -4   2   45.90    3.20
  -8  -4  -2   46.20    3.50
   9  -4   2    2.90    0.80
  -9  -4  -2    2.70    0.90
 -10  -4  -2   10.30    1.60
   7  -5  -2    9.20    1.60
  -7  -5   2   10.60    1.80
  -6  -5   2    6.40    1.30
  -6   5   2    7.20    1.30
  -5  -5   2   15.20    2.00
  -5   5   2   18.60    2.00
   4  -5  -2   28.20    2.20
  -4  -5   2   27.50    2.50
  -4   5   2   26.40    2.30
   3  -5  -2   12.60    1.40
  -3  -5   2   10.10    1.50
  -3   5   2   10.10    1.40
  -2  -5   2    5.10    1.10
   2  -5  -2    8.60    1.20
  -2   5   2    9.30    1.30
  -1  -5   2    3.20    0.80
   1  -5  -2    4.70    0.90
   1   5  -2    5.80    1.00
  -1   5   2    4.70    1.00
   0  -5   2   45.40    3.20
   0  -5  -2   40.20    3.20
   0   5   2   42.00    3.20
   0   5  -2   45.30    3.20
   1  -5   2   16.40    1.60
  -1  -5  -2   14.30    1.60
  -1   5  -2   16.70    1.60
   1   5   2   17.60    1.70
   2  -5   2   44.30    3.40
  -2  -5  -2   47.90    3.60
  -2   5  -2   50.59    3.50
   2   5   2   50.99    3.50
  -3  -5  -2   11.50    1.60
   3  -5   2    8.40    1.20
   3   5   2    8.90    1.40
  -4  -5  -2    0.60    0.70
   4  -5   2    1.20    0.70
   5  -5   2   13.70    1.50
  -5  -5  -2   11.90    1.70
  -6  -5  -2   20.80    2.20
   6  -5   2   22.40    2.00
 -15   0   3    1.30    0.70
 -14   0   3    6.50    1.00
 -13   0   3   29.70    2.30
  12   0  -3  119.29    7.50
 -12   0   3  124.79    7.60
 -11   0   3    3.00    0.60
  11   0  -3    4.10    0.60
 -10   0   3  102.19    6.40
  10   0  -3  104.39    6.30
  -9   0   3    4.90    0.70
   9   0  -3    7.20    0.50
   9   0  -3    6.70    0.70
   8   0  -3   27.40    1.80
  -8   0   3   30.70    2.00
   8   0  -3   29.70    1.90
  -7   0   3  223.48   13.00
   7   0  -3  215.48   12.90
  -6   0   3  444.26   28.50
   6   0  -3  529.45   28.40
  -5   0   3  411.76   23.80
   5   0  -3  402.96   23.70
  -4   0   3  402.26   22.60
   4   0  -3  371.06   22.50
  -3   0   3  334.67   20.20
  -3   0   3  342.57   20.20
   3   0  -3  363.56   20.20
   2   0  -3   68.09    3.70
  -2   0   3   57.99    3.70
  -1   0   3  399.96   22.80
  -1   0   3  383.46   22.70
   1   0  -3  388.56   22.80
   0   0  -3    1.70    0.20
   0   0   3    2.10    0.20
  -1   0  -3  219.98   14.50
   1   0   3  275.57   14.40
  -2   0  -3   81.49    5.10
   2   0   3   90.29    5.10
   3   0   3 1360.06   78.19
   3   0   3 1490.95   78.39
  -3   0  -3 1187.88   78.19
   4   0   3    3.10    0.30
   5   0   3   30.00    1.80
  -5   0  -3   27.60    1.90
   5   0   3   31.20    1.80
  -6   0  -3    8.90    0.80
   6   0   3    8.80    0.70
   6   0   3    9.50    0.70
  -7   0  -3   43.90    2.80
   7   0   3   43.70    2.70
   7   0   3   42.40    2.70
  -8   0  -3   13.10    1.20
   8   0   3   14.50    1.00
   8   0   3   12.90    1.00
   9   0   3   86.39    5.20
  -9   0  -3   85.89    5.40
 -10   0  -3  237.28   13.60
  10   0   3  218.58   13.40
 -11   0  -3   65.09    4.10
  11   0   3   59.09    3.80
 -12   0  -3    0.80    0.60
 -13   0  -3    7.90    1.10
 -14   0  -3    1.60    0.70
 -15  -1   3   38.70    3.00
 -15   1   3   41.90    3.00
 -14  -1   3    5.70    1.00
 -14   1   3    7.00    1.00
 -13  -1   3   28.80    2.20
 -13   1   3   28.40    2.20
  13   1  -3   25.90    2.20
 -12  -1   3    8.10    1.10
 -12   1   3    6.80    1.00
  12   1  -3    7.20    1.00
  11  -1  -3   15.30    1.20
 -11  -1   3   15.00    1.30
 -11   1   3   13.70    1.30
  11   1  -3   17.30    1.40
  10  -1  -3    8.20    0.70
  10  -1  -3   10.20    0.80
 -10   1   3    8.30    0.90
  10   1  -3    9.40    0.90
   9  -1  -3  154.98    8.50
  -9  -1   3  130.79    8.70
   9  -1  -3  144.29    8.50
   9   1  -3  140.99    8.70
  -9   1   3  145.39    8.70
   8  -1  -3  134.49    7.40
   8  -1  -3  123.09    7.50
  -8  -1   3  118.39    7.60
  -8   1   3  129.99    7.50
   8   1  -3  119.19    7.60
   7  -1  -3  107.89    6.10
  -7  -1   3   98.29    6.30
   7  -1  -3  101.19    6.20
  -7   1   3   99.49    6.20
   7   1  -3  109.29    6.30
   7   1  -3  102.79    6.10
  -6  -1   3   24.70    1.80
   6   1  -3   27.40    1.60
   6   1  -3   27.10    1.80
  -6   1   3   27.90    1.80
   5  -1  -3   79.29    4.50
  -5   1   3   73.59    4.50
   5   1  -3   69.39    4.40
   5   1  -3   81.49    4.60
  -4  -1   3   95.39    5.60
   4  -1  -3   89.49    5.50
  -4   1   3   89.09    5.50
   4   1  -3   93.69    5.60
   4   1  -3   99.09    5.40
  -4   1   3   88.79    5.50
   3  -1  -3  209.48   12.20
  -3  -1   3  216.98   12.30
   3   1  -3  201.58   12.30
   3   1  -3  213.18   12.20
  -3   1   3  205.78   12.30
   2  -1  -3  269.87   16.10
  -2  -1   3  265.17   16.10
   2   1  -3  300.27   16.20
  -2   1   3  268.47   16.10
   1  -1  -3  349.96   23.00
   1   1  -3  422.66   23.00
   1   1  -3  422.36   23.00
   1   1  -3  391.56   23.00
  -1   1   3  388.06   23.00
   0  -1  -3  155.18    8.80
   0  -1  -3  169.58    8.90
   0   1  -3  148.69    8.90
   0   1  -3  133.49    8.90
   0   1   3  151.48    8.90
  -1  -1  -3  872.61   47.40
  -1  -1  -3  790.82   47.40
   1  -1   3  759.02   47.40
   1   1   3  835.52   47.40
  -1   1  -3  815.12   47.40
   2  -1   3  307.07   18.30
  -2  -1  -3  288.27   18.40
  -2  -1  -3  317.17   18.40
  -2   1  -3  319.27   18.40
   2   1   3  344.17   18.40
   3  -1   3  144.89    8.60
  -3  -1  -3  145.29    8.60
  -3  -1  -3  152.48    8.70
   3  -1   3  133.79    8.50
  -3   1  -3  150.18    8.60
   3   1   3  150.48    8.60
   4  -1   3  123.19    7.10
   4  -1   3  131.59    7.00
  -4  -1  -3  102.19    7.10
  -4   1  -3  114.69    7.10
   4   1   3  113.99    7.10
   4   1   3  128.39    7.10
   5  -1   3  232.78   13.30
   5  -1   3  219.28   13.40
  -5  -1  -3  234.48   13.40
  -5   1  -3  238.08   13.40
   5   1   3  238.18   13.30
   5   1   3  202.68   13.40
   6  -1   3  174.58    9.60
   6  -1   3  164.98    9.70
  -6  -1  -3  172.08    9.80
   6   1   3  137.49    9.70
   6   1   3  170.28    9.70
  -6   1  -3  161.88    9.80
   7  -1   3  133.79    7.40
  -7  -1  -3  108.69    7.50
   7   1   3  129.09    7.50
  -7   1  -3  128.79    7.60
   7   1   3  123.19    7.40
   8  -1   3  198.08   11.80
  -8  -1  -3  219.68   11.90
   8   1   3  184.38   11.90
  -8   1  -3  195.78   11.90
   8   1   3  200.88   11.80
   9  -1   3   28.30    2.00
  -9  -1  -3   31.80    2.20
   9   1   3   28.40    2.10
   9   1   3   36.20    2.00
  -9   1  -3   27.50    2.20
  10  -1   3   65.09    4.00
 -10  -1  -3   66.19    4.20
  10   1   3   62.09    4.00
 -10   1  -3   65.59    4.20
  11  -1   3   21.90    1.60
 -11  -1  -3   22.70    1.80
 -11   1  -3   23.30    1.80
  12  -1   3   15.30    1.20
 -12  -1  -3   14.60    1.60
 -12   1  -3   15.70    1.50
 -13  -1  -3    7.10    1.00
 -13   1  -3    4.10    0.90
 -14  -1  -3   19.20    1.90
 -14   1  -3   20.30    1.90
 -15   2   3   16.90    1.90
 -14  -2   3   51.09    3.70
 -14   2   3   52.19    3.60
  14   2  -3   51.79    3.80
 -13  -2   3   15.50    1.60
  13   2  -3   19.10    1.80
 -13   2   3   18.90    1.60
  12  -2  -3   37.60    2.40
 -12  -2   3   35.60    2.60
  12   2  -3   34.40    2.70
 -12   2   3   34.70    2.50
  11  -2  -3   36.10    2.50
 -11  -2   3   37.00    2.70
  11   2  -3   35.90    2.70
 -11   2   3   41.30    2.60
  10  -2  -3   37.80    2.60
 -10  -2   3   41.20    2.70
  10   2  -3   38.30    2.80
 -10   2   3   39.40    2.60
  -9  -2   3   59.59    3.80
   9  -2  -3   60.29    3.60
   9  -2  -3   60.19    3.70
   9   2  -3   54.69    3.80
  -9   2   3   56.69    3.70
   8  -2  -3   70.99    4.30
  -8  -2   3   71.69    4.40
   8  -2  -3   60.99    4.30
   8   2  -3   76.09    4.60
  -8   2   3   73.59    4.40
   7  -2  -3   31.30    2.00
  -7  -2   3   31.00    2.20
   7   2  -3   33.60    2.30
  -7   2   3   33.00    2.20
  -7   2   3   31.90    2.10
  -6  -2   3   43.60    2.90
   6  -2  -3   44.10    2.80
   6   2  -3   48.70    3.00
  -6   2   3   45.20    3.00
  -6   2   3   47.70    2.90
   5  -2  -3   25.60    1.70
  -5  -2   3   25.50    1.80
   5   2  -3   26.10    1.90
  -5   2   3   27.50    1.80
   5   2  -3   27.80    1.70
   4  -2  -3  431.26   25.60
  -4  -2   3  464.35   25.60
  -4   2   3  440.96   25.50
   4   2  -3  393.46   25.50
   4   2  -3  454.85   25.70
  -4   2   3  441.66   25.70
  -3  -2   3  153.68    8.40
   3  -2  -3  129.49    8.40
  -3   2   3  152.38    8.30
  -3   2   3  150.88    8.50
   3   2  -3  119.79    8.40
   2  -2  -3   21.40    1.50
  -2  -2   3   23.50    1.50
  -2   2   3   22.70    1.50
   2   2  -3   21.70    1.40
  -2   2   3   20.80    1.30
   2   2  -3   24.20    1.50
  -1  -2   3  226.48   13.70
   1  -2  -3  231.38   13.70
   1  -2  -3  229.58   13.50
   1   2  -3  238.58   13.70
  -1   2   3  236.98   13.80
   1   2  -3  234.88   13.70
   0  -2  -3  143.89    8.30
   0  -2   3  129.29    8.50
   0  -2  -3  134.29    8.50
   0   2  -3  147.79    8.50
   0   2  -3  153.98    8.50
   0   2   3  147.39    8.50
   1  -2   3  508.75   31.70
  -1  -2  -3  516.15   31.80
  -1  -2  -3  552.84   31.60
   1   2   3  587.74   31.70
  -1   2  -3  549.95   31.70
   2  -2   3 1131.39   66.49
  -2  -2  -3 1095.29   66.59
  -2  -2  -3 1278.57   66.49
  -2   2  -3 1110.29   66.49
   2   2   3 1100.89   66.59
  -3  -2  -3  653.73   36.60
   3  -2   3  645.54   36.40
  -3  -2  -3  545.25   36.40
   3   2   3  631.14   36.50
  -3   2  -3  652.13   36.50
   4  -2   3   20.80    1.40
  -4  -2  -3   23.60    1.40
  -4  -2  -3   21.50    1.60
   4  -2   3   21.00    1.50
   4   2   3   21.70    1.50
  -4   2  -3   20.90    1.50
   5  -2   3    1.70    0.40
  -5  -2  -3    1.60    0.50
   5  -2   3    2.50    0.30
  -5  -2  -3    2.50    0.40
   5   2   3    2.20    0.40
  -5   2  -3    2.20    0.40
  -6  -2  -3  152.48    8.20
   6  -2   3  127.29    8.20
   6   2   3  131.29    8.20
  -6   2  -3  129.69    8.20
   6   2   3  143.49    8.30
   7  -2   3   96.09    5.80
  -7  -2  -3   92.79    5.80
   7   2   3   93.69    5.90
   7   2   3  100.49    5.80
  -7   2  -3   94.59    5.90
   8  -2   3   14.40    1.10
  -8  -2  -3   13.20    1.20
   8   2   3   14.70    1.10
   8   2   3   13.20    1.30
  -8   2  -3   13.80    1.20
   9  -2   3   10.30    0.90
  -9  -2  -3    9.20    1.00
  -9   2  -3   10.80    1.10
   9   2   3    9.90    1.20
 -10  -2  -3   28.60    2.20
  10  -2   3   30.90    2.10
  10   2   3   31.10    2.30
 -10   2  -3   29.70    2.20
  11  -2   3    4.40    0.70
 -11  -2  -3    5.60    0.80
 -11   2  -3    4.50    0.80
 -12  -2  -3   18.90    1.70
  12  -2   3   19.60    1.50
 -12   2  -3   16.00    1.70
  13  -2   3    1.70    0.50
 -13  -2  -3    1.90    0.70
 -13   2  -3    0.30    0.60
 -14  -2  -3   17.10    1.70
  13  -3  -3   79.99    4.80
 -13  -3   3   67.29    4.90
  13   3  -3   75.39    5.20
 -12  -3   3   43.90    3.10
  12  -3  -3   41.10    2.90
  12   3  -3   44.20    3.30
 -11  -3   3    0.90    0.60
  11  -3  -3    1.90    0.60
  11   3  -3    0.70    0.60
  10  -3  -3   34.40    2.40
 -10  -3   3   30.90    2.40
  10   3  -3   34.20    2.60
   9  -3  -3   13.00    1.30
  -9  -3   3   14.20    1.20
   9   3  -3   15.30    1.50
   8  -3  -3   43.90    2.70
  -8  -3   3   44.00    2.90
   8  -3  -3   41.30    2.90
   8   3  -3   41.60    3.10
  -7  -3   3   53.09    3.20
   7  -3  -3   49.30    3.10
   7   3  -3   44.00    3.30
  -7   3   3   46.30    3.30
   6  -3  -3   50.19    3.20
  -6  -3   3   55.09    3.30
   6   3  -3   48.60    3.40
  -6   3   3   51.09    3.40
   5  -3  -3   25.10    1.70
  -5  -3   3   24.00    1.70
   5   3  -3   24.50    1.90
  -5   3   3   25.10    1.90
  -4  -3   3   34.90    2.20
   4  -3  -3   34.40    2.20
  -4   3   3   34.00    2.40
   4   3  -3   30.00    2.30
  -3  -3   3    5.50    0.60
   3  -3  -3    4.00    0.60
  -3   3   3    3.50    0.60
   3   3  -3    4.50    0.60
   3   3  -3    3.60    0.60
  -2  -3   3   28.20    2.00
  -2  -3   3   29.80    1.90
   2  -3  -3   24.50    1.90
   2   3  -3   30.00    1.90
  -2   3   3   27.90    2.00
  -1  -3   3    8.10    0.80
  -1  -3   3    4.60    0.60
   1   3  -3    5.60    0.70
  -1   3   3    5.00    0.70
   0  -3   3   81.99    4.90
   0  -3   3   76.59    5.00
   0   3  -3   89.59    5.00
   0   3   3   74.59    5.00
  -1  -3  -3   35.50    2.50
   1  -3   3   33.80    2.40
  -1   3  -3   37.80    2.40
  -1   3  -3   35.00    2.30
   1   3   3   39.50    2.50
   2  -3   3  211.28   14.40
  -2  -3  -3  245.98   14.50
   2   3   3  255.17   14.50
  -2   3  -3  245.78   14.40
  -2   3  -3  260.17   14.50
   3  -3   3  406.26   23.10
   3  -3   3  395.66   23.10
  -3  -3  -3  350.66   23.20
   3   3   3  401.76   23.20
  -3   3  -3  411.36   23.10
   4  -3   3    8.70    0.80
  -4  -3  -3    9.80    1.20
   4  -3   3    7.70    0.90
   4   3   3    9.00    0.90
  -4   3  -3   10.20    0.90
  -5  -3  -3   18.40    1.70
   5  -3   3   19.00    1.50
   5   3   3   19.10    1.40
  -5   3  -3   17.40    1.40
   6  -3   3   59.79    3.90
  -6  -3  -3   65.39    4.20
  -6   3  -3   64.89    4.00
   6   3   3   56.99    3.90
   7  -3   3    4.70    0.70
  -7  -3  -3    5.90    1.00
  -7   3  -3    6.10    0.80
  -8  -3  -3    4.30    0.90
   8  -3   3    4.30    0.70
  -8   3  -3    5.10    0.80
   9  -3   3   71.89    4.50
  -9  -3  -3   65.89    4.70
  -9   3  -3   71.19    4.60
 -10  -3  -3   22.40    2.10
  10  -3   3   23.30    1.80
 -10   3  -3   24.20    1.90
  11  -3   3   32.60    2.30
 -11  -3  -3   27.60    2.50
 -11   3  -3   31.30    2.40
  12  -3   3    2.00    0.70
 -12   3  -3    1.90    0.70
  11  -4  -3    6.10    1.00
  11   4  -3    5.90    1.30
  10  -4  -3    4.00    0.90
  10   4  -3    3.70    1.00
   9  -4  -3    4.60    0.90
   9   4  -3    6.20    1.20
   8  -4  -3   27.00    2.10
   8   4  -3   26.70    2.30
  -7  -4   3   18.20    1.90
  -7   4   3   19.00    1.80
  -6  -4   3   10.00    1.40
   6  -4  -3   13.00    1.10
  -6   4   3   12.40    1.40
  -5  -4   3    5.00    1.00
   5  -4  -3    7.30    0.90
  -5   4   3    5.40    0.90
  -4  -4   3    7.10    1.10
   4  -4  -3    6.40    0.90
  -4   4   3    7.20    1.10
  -3  -4   3   50.89    3.70
   3  -4  -3   48.10    3.40
  -3   4   3   49.60    3.60
   3   4  -3   61.39    3.50
   2  -4  -3    4.10    0.80
  -2  -4   3    4.60    0.90
  -2   4   3    4.30    0.80
   2   4  -3    3.60    0.70
   1  -4  -3    8.30    1.10
  -1  -4   3    8.60    1.10
  -1   4   3    8.10    1.10
   1   4  -3   10.00    1.10
   0  -4  -3   49.20    3.30
   0  -4   3   46.60    3.30
   0   4  -3   46.90    3.30
   0   4   3   51.29    3.40
  -1  -4  -3   14.00    1.40
   1  -4   3   13.00    1.20
   1   4   3   11.80    1.30
  -1   4  -3   12.80    1.30
  -2  -4  -3   25.10    2.00
   2  -4   3   23.10    1.80
  -2   4  -3   24.40    1.90
   2   4   3   21.80    1.90
   3  -4   3   45.40    3.00
   3  -4   3   46.90    3.00
  -3  -4  -3   43.20    3.20
   3   4   3   42.80    3.10
   4  -4   3   49.20    3.60
  -4  -4  -3   58.19    3.90
   4   4   3   57.49    3.70
  -5  -4  -3   15.50    1.60
   5  -4   3   14.10    1.30
   5   4   3   13.20    1.30
   6  -4   3   59.49    3.90
  -6  -4  -3   57.29    4.20
   7  -4   3    7.50    1.00
  -7  -4  -3    7.00    1.20
   8  -4   3   19.40    1.70
  -8  -4  -3   16.30    2.00
   9  -4   3   53.39    3.40
  -9  -4  -3   42.90    3.60
 -10  -4  -3   13.60    1.80
  10  -4   3   17.70    1.90
  -7  -5   3   -0.10    0.90
  -7   5   3   -0.50    0.70
  -6  -5   3   21.50    2.20
  -6   5   3   20.30    2.00
   5  -5  -3   32.30    2.30
  -5  -5   3   25.90    2.60
  -5   5   3   32.10    2.60
   4  -5  -3   44.90    3.10
  -4  -5   3   38.70    3.30
  -4   5   3   46.10    3.30
   3  -5  -3   27.90    2.10
  -3  -5   3   24.20    2.30
  -3   5   3   23.00    2.20
   2  -5  -3    4.50    0.90
  -2  -5   3    2.70    0.90
  -2   5   3    3.40    0.90
   1  -5  -3    5.00    1.00
  -1  -5   3    6.00    1.10
  -1   5   3    7.20    1.20
   1   5  -3    8.30    1.20
   0  -5   3    8.10    1.20
   0  -5  -3   11.60    1.40
   0   5   3    7.70    1.20
   0   5  -3    6.70    1.20
  -1  -5  -3   11.60    1.50
   1  -5   3    9.10    1.30
   1   5   3   10.50    1.30
  -1   5  -3   10.60    1.40
  -2  -5  -3   41.10    3.10
   2  -5   3   43.40    2.90
   2   5   3   36.90    3.00
  -3  -5  -3    7.80    1.40
   3  -5   3    8.10    1.10
   3   5   3    9.20    1.30
  -4  -5  -3    6.20    1.20
   4  -5   3    8.70    1.20
   5  -5   3    1.00    0.70
  -5  -5  -3    0.30    0.80
   6  -5   3    3.00    0.90
  -6  -5  -3    1.60    0.90
 -15   0   4    2.00    0.80
 -14   0   4    2.20    0.70
 -13   0   4   60.49    4.00
 -12   0   4   10.30    1.00
  12   0  -4    8.80    1.00
 -11   0   4   19.20    1.60
  11   0  -4   22.30    1.60
  10   0  -4  105.99    6.30
 -10   0   4  100.09    6.40
  -9   0   4   72.69    4.50
   9   0  -4   72.09    4.50
  -8   0   4   53.29    3.40
   8   0  -4   54.69    3.20
   8   0  -4   55.39    3.40
   7   0  -4   17.90    1.10
   7   0  -4   17.10    1.20
  -7   0   4   18.10    1.30
   6   0  -4   56.29    3.50
   6   0  -4   60.89    3.60
  -6   0   4   59.19    3.60
   5   0  -4   17.70    1.30
   5   0  -4   23.80    1.30
  -5   0   4   22.40    1.40
  -4   0   4  398.76   22.80
   4   0  -4  382.86   22.80
  -3   0   4  146.29    8.60
  -3   0   4  141.19    8.50
   3   0  -4  151.48    8.60
  -2   0   4  787.52   44.50
  -2   0   4  723.43   44.50
   2   0  -4  786.72   44.70
   1   0  -4   62.99    3.40
  -1   0   4   55.29    3.40
   1   0  -4   53.09    3.40
   0   0  -4  444.66   28.30
   0   0  -4  503.85   28.40
   0   0   4  512.95   28.40
  -1   0  -4  721.93   47.00
   1   0   4  897.11   47.20
   2   0   4  263.97   13.90
  -2   0  -4  216.68   13.80
  -2   0  -4  232.58   13.90
  -3   0  -4   61.89    3.80
  -3   0  -4   60.79    3.90
   3   0   4   69.49    3.80
   4   0   4  133.79    8.10
  -4   0  -4  141.19    8.20
  -5   0  -4    4.20    0.50
   5   0   4    5.00    0.40
   6   0   4    1.40    0.30
  -6   0  -4    1.30    0.30
   6   0   4    1.60    0.20
   7   0   4  244.98   14.80
  -7   0  -4  244.18   14.90
   7   0   4  267.07   14.80
   8   0   4  242.78   14.00
  -8   0  -4  232.08   14.10
   9   0   4  479.35   28.30
  -9   0  -4  488.75   28.50
  10   0   4   15.10    1.20
 -10   0  -4   19.40    1.50
 -11   0  -4   46.80    3.10
  11   0   4   43.90    2.90
 -12   0  -4    2.30    0.70
 -13   0  -4  106.79    6.80
 -14   0  -4    4.10    0.90
 -15  -1   4   80.09    5.30
 -15   1   4   77.29    5.20
 -14  -1   4    1.30    0.60
 -14   1   4    2.00    0.70
 -13  -1   4    6.20    0.90
  13   1  -4    5.50    0.90
 -13   1   4    6.80    0.90
 -12  -1   4   42.20    2.90
 -12   1   4   40.50    2.90
  12   1  -4   43.90    3.00
 -11  -1   4  165.58   10.20
  11  -1  -4  171.08   10.00
  11   1  -4  170.18   10.20
 -11   1   4  166.38   10.20
  10  -1  -4   10.80    0.90
  10  -1  -4   11.60    0.90
 -10  -1   4   11.00    1.10
  10   1  -4   10.80    1.10
 -10   1   4   10.50    1.00
  -9  -1   4   11.20    1.10
   9  -1  -4   10.70    0.90
   9  -1  -4   13.50    0.90
   9   1  -4   14.10    1.10
  -9   1   4   12.00    1.10
   8  -1  -4   23.60    1.50
  -8  -1   4   24.10    1.70
   8  -1  -4   21.90    1.50
   8   1  -4   22.80    1.70
  -8   1   4   24.60    1.60
   7  -1  -4   16.00    1.20
  -7  -1   4   16.60    1.30
   7  -1  -4   18.80    1.10
   7   1  -4   16.40    1.30
  -7   1   4   17.20    1.20
   6  -1  -4  323.07   19.50
  -6  -1   4  343.37   19.60
  -6   1   4  335.97   19.60
  -6   1   4  344.87   19.60
   6   1  -4  350.36   19.40
   6   1  -4  305.67   19.60
   5  -1  -4   29.30    1.90
  -5   1   4   28.60    1.90
  -5   1   4   30.70    1.90
   5   1  -4   31.60    2.00
   4  -1  -4   66.29    4.00
  -4  -1   4   68.49    4.10
   4   1  -4   65.99    4.00
  -4   1   4   66.59    4.00
  -4   1   4   65.59    4.00
   3  -1  -4  563.84   30.60
  -3  -1   4  512.85   30.60
   3   1  -4  469.45   30.60
  -3   1   4  554.34   30.60
  -2  -1   4  277.87   17.30
   2  -1  -4  286.17   17.30
   2   1  -4  298.77   17.30
  -2   1   4  309.47   17.30
  -2   1   4  306.47   17.20
   1  -1  -4  602.74   40.10
   1   1  -4  753.12   40.10
  -1   1   4  669.03   40.00
  -1   1   4  734.33   40.10
   1   1  -4  687.83   40.10
   0  -1  -4  317.07   18.60
   0  -1  -4  319.87   18.50
   0   1  -4  300.17   18.60
   0   1   4  332.07   18.60
   0   1  -4  317.87   18.50
   1  -1   4  237.28   14.20
  -1  -1  -4  230.88   14.10
  -1  -1  -4  224.08   14.20
  -1   1  -4  250.97   14.20
   1   1   4  270.37   14.20
  -2  -1  -4  207.98   13.20
   2  -1   4  231.58   13.10
   2  -1   4  216.08   13.20
  -2  -1  -4  244.98   13.30
  -2   1  -4  215.78   13.30
   2   1   4  238.78   13.20
   3  -1   4  259.17   17.10
   3  -1   4  300.57   17.00
  -3  -1  -4  283.57   17.10
  -3  -1  -4  297.27   17.10
  -3   1  -4  294.87   17.10
   3   1   4  315.57   17.10
  -4  -1  -4   83.29    5.10
   4  -1   4   97.39    5.10
  -4  -1  -4   72.49    5.10
   4   1   4   88.59    5.10
  -4   1  -4   84.99    5.20
   5  -1   4  249.38   13.30
   5  -1   4  238.38   13.40
  -5  -1  -4  211.98   13.40
   5   1   4  237.68   13.40
   5   1   4  198.78   13.40
  -5   1  -4  228.48   13.50
  -6  -1  -4   22.30    1.60
   6  -1   4   23.00    1.50
  -6   1  -4   25.80    1.70
   6   1   4   20.10    1.60
   6   1   4   24.80    1.50
   7  -1   4    9.20    0.80
  -7  -1  -4    8.20    0.80
  -7   1  -4    8.40    0.90
   7   1   4    9.60    0.90
   7   1   4   10.10    0.80
   8  -1   4   43.50    2.80
  -8  -1  -4   42.90    2.90
  -8   1  -4   42.10    2.90
   8   1   4   45.60    2.80
   8   1   4   45.10    2.90
   9  -1   4   17.80    1.30
  -9  -1  -4   16.20    1.40
   9   1   4   17.80    1.40
   9   1   4   18.60    1.30
  -9   1  -4   16.70    1.40
  10  -1   4   32.20    2.10
 -10  -1  -4   29.10    2.20
 -10   1  -4   30.70    2.30
  10   1   4   30.70    2.00
  11  -1   4   50.29    3.10
 -11  -1  -4   48.10    3.30
 -11   1  -4   48.10    3.40
  12  -1   4   70.39    4.40
 -12  -1  -4   71.89    4.70
 -12   1  -4   73.09    4.80
 -13  -1  -4   18.60    1.80
  13  -1   4   15.70    1.70
 -13   1  -4   18.90    1.70
 -14  -1  -4   28.50    2.40
 -14   1  -4   30.40    2.50
 -15   2   4   13.30    1.50
 -14  -2   4   43.00    3.20
  14   2  -4   42.90    3.30
 -14   2   4   44.40    3.10
 -13  -2   4    1.80    0.70
 -13   2   4    2.20    0.70
  13   2  -4    1.80    0.70
 -12  -2   4   68.89    4.40
 -12   2   4   68.69    4.30
  12   2  -4   62.59    4.40
 -11  -2   4   36.10    2.50
  11  -2  -4   31.90    2.30
 -11   2   4   33.90    2.40
  11   2  -4   33.40    2.50
 -10  -2   4   13.30    1.30
  10  -2  -4   12.90    1.10
  10  -2  -4   13.80    1.00
  10   2  -4   13.70    1.30
 -10   2   4   14.70    1.20
   9  -2  -4   38.50    2.70
  -9  -2   4   40.30    2.80
   9  -2  -4   40.60    2.50
   9   2  -4   41.50    2.80
  -9   2   4   41.50    2.70
   8  -2  -4   68.09    4.40
   8  -2  -4   73.89    4.30
  -8  -2   4   67.29    4.40
  -8   2   4   77.69    4.40
   8   2  -4   64.09    4.50
   7  -2  -4    6.90    0.60
  -7  -2   4    8.40    0.80
  -7   2   4    9.10    0.90
   7   2  -4    6.00    0.80
  -7   2   4    7.80    0.70
  -6  -2   4   29.10    1.90
   6  -2  -4   26.40    1.80
   6   2  -4   27.20    2.00
  -6   2   4   29.40    1.90
   5  -2  -4   39.40    2.50
  -5  -2   4   37.80    2.60
   5   2  -4   38.90    2.40
   5   2  -4   45.70    2.70
  -5   2   4   38.30    2.60
   4  -2  -4  145.49    8.80
  -4   2   4  146.39    8.90
   4   2  -4  159.18    9.00
   4   2  -4  143.69    8.80
  -4   2   4  151.88    8.80
   3  -2  -4   50.39    3.10
  -3  -2   4   50.89    3.10
   3   2  -4   47.50    3.10
  -3   2   4   46.90    2.90
  -3   2   4   51.49    3.10
  -2  -2   4   12.80    1.10
   2  -2  -4   16.10    1.10
   2   2  -4   17.10    1.20
  -2   2   4   15.80    1.20
   2   2  -4   15.30    1.10
  -2   2   4   16.10    0.90
   1  -2  -4   31.90    1.90
  -1  -2   4   29.00    1.90
  -1   2   4   26.80    1.90
   1   2  -4   28.00    1.80
   0  -2  -4  103.29    5.70
   0   2   4   89.89    5.70
   0   2  -4   86.29    5.60
   0   2  -4   99.29    5.60
   0   2  -4   89.79    5.60
  -1  -2  -4   95.39    5.20
   1  -2   4   77.99    5.30
   1  -2   4   88.39    5.30
  -1  -2  -4   87.39    5.40
   1   2   4   87.79    5.30
  -1   2  -4   88.69    5.30
   2  -2   4  639.84   36.80
  -2  -2  -4  671.43   36.70
  -2  -2  -4  653.33   36.90
   2  -2   4  565.44   36.80
   2   2   4  593.44   36.80
  -2   2  -4  664.63   36.90
  -3  -2  -4   25.50    1.90
   3  -2   4   25.80    1.70
  -3  -2  -4   28.50    1.70
   3  -2   4   26.80    1.80
   3   2   4   27.00    1.80
  -3   2  -4   26.60    1.80
   4  -2   4  128.39    8.00
  -4  -2  -4  138.09    7.90
  -4  -2  -4  138.09    8.10
   4  -2   4  128.99    7.80
  -4   2  -4  138.39    8.00
   4   2   4  130.59    8.00
  -5  -2  -4  103.19    6.40
  -5  -2  -4  110.89    6.50
   5  -2   4  101.09    6.40
   5   2   4  104.29    6.40
  -5   2  -4  111.99    6.50
   6  -2   4  349.57   23.20
  -6  -2  -4  400.96   23.40
  -6  -2  -4  428.56   23.20
   6   2   4  401.36   23.20
  -6   2  -4  399.26   23.30
   7  -2   4   10.30    0.90
  -7  -2  -4   11.10    1.10
  -7  -2  -4   10.80    1.00
   7   2   4   11.10    0.90
  -7   2  -4   11.10    1.00
  -8  -2  -4   30.60    2.20
   8  -2   4   32.00    2.20
  -8  -2  -4   28.80    2.30
   8   2   4   34.60    2.20
  -8   2  -4   34.80    2.30
  -9  -2  -4    2.10    0.50
   9  -2   4    2.30    0.50
  -9  -2  -4    1.60    0.60
  -9   2  -4    2.80    0.60
 -10  -2  -4   72.29    4.60
  10  -2   4   73.89    4.50
 -10   2  -4   71.09    4.70
  11  -2   4   92.59    5.50
 -11  -2  -4   83.69    5.70
 -11   2  -4   92.09    5.80
  12  -2   4   14.90    1.30
 -12  -2  -4   15.10    1.50
 -12   2  -4   14.00    1.50
  13  -2   4   28.00    2.00
 -13  -2  -4   24.90    2.20
 -13   2  -4   23.90    2.20
 -13  -3   4   80.09    5.20
  13   3  -4   74.79    5.30
 -12  -3   4    1.40    0.70
  12  -3  -4    0.70    0.60
  12   3  -4    0.00    0.60
 -11  -3   4   43.20    3.00
  11  -3  -4   39.40    2.90
  11   3  -4   42.80    3.20
  10  -3  -4    1.00    0.50
 -10  -3   4    0.60    0.50
  10   3  -4    1.10    0.60
   9  -3  -4   29.30    2.10
  -9  -3   4   33.10    2.30
   9  -3  -4   30.10    2.30
   9   3  -4   33.50    2.50
   8  -3  -4    8.50    0.80
  -8  -3   4    8.90    1.00
  -8   3   4    9.00    1.10
   8   3  -4   10.80    1.30
   7  -3  -4  125.29    7.40
  -7  -3   4  123.39    7.50
  -7   3   4  117.29    7.60
   7   3  -4  125.79    7.70
  -6  -3   4   35.70    2.40
   6  -3  -4   35.10    2.30
   6   3  -4   35.50    2.60
  -6   3   4   35.20    2.50
  -5  -3   4   56.99    3.70
   5  -3  -4   58.29    3.60
   5   3  -4   57.99    3.80
  -5   3   4   57.79    3.80
  -4  -3   4    3.30    0.50
  -4   3   4    3.70    0.60
   3  -3  -4   33.70    2.30
  -3  -3   4   37.20    2.30
   3   3  -4   32.90    2.40
   3   3  -4   37.30    2.30
  -3   3   4   32.90    2.40
   2  -3  -4   72.09    4.60
  -2  -3   4   79.89    4.50
  -2   3   4   67.39    4.60
   2   3  -4   65.69    4.60
   2   3  -4   77.99    4.50
  -1  -3   4   35.20    2.50
   1  -3  -4   39.80    2.60
  -1  -3   4   38.50    2.50
  -1   3   4   40.10    2.60
   1   3  -4   35.20    2.50
   0  -3   4    2.20    0.50
   0  -3  -4    2.90    0.60
   0   3  -4    2.20    0.40
   0   3  -4    2.30    0.40
   0   3   4    1.90    0.50
   1  -3   4   49.70    3.30
  -1  -3  -4   52.09    3.40
  -1   3  -4   54.49    3.30
  -1   3  -4   56.99    3.40
   1   3   4   48.60    3.40
  -2  -3  -4  224.28   14.20
   2  -3   4  253.87   14.10
  -2   3  -4  227.48   14.00
   2   3   4  242.98   14.10
   3  -3   4  175.78   10.80
  -3  -3  -4  194.88   11.10
  -3   3  -4  184.28   10.90
   3   3   4  177.78   10.90
  -4  -3  -4  336.67   20.50
   4  -3   4  344.77   20.30
   4   3   4  342.87   20.30
  -4   3  -4  353.66   20.30
  -5  -3  -4   62.39    4.00
   5  -3   4   54.69    3.70
  -5   3  -4   59.99    3.70
   5   3   4   56.89    3.70
   6  -3   4    6.90    0.90
  -6  -3  -4    9.60    1.20
  -6   3  -4    8.90    1.00
   6   3   4   11.20    1.00
   7  -3   4   24.20    1.80
  -7  -3  -4   19.20    1.90
   7   3   4   23.40    1.70
  -7   3  -4   24.90    1.80
  -8  -3  -4   73.99    5.10
   8  -3   4   80.09    4.90
  -8   3  -4   77.89    5.00
  -9  -3  -4    2.80    0.80
   9  -3   4    2.50    0.60
  -9   3  -4    2.50    0.70
  10  -3   4   30.20    2.10
 -10  -3  -4   22.80    2.30
 -10   3  -4   29.40    2.20
  11  -3   4   25.60    2.00
 -11   3  -4   26.20    2.20
  12  -3   4    7.00    0.90
 -12   3  -4    5.70    1.10
  11  -4  -4   46.20    3.20
  11   4  -4   38.90    3.50
  10  -4  -4   29.00    2.30
  10   4  -4   28.70    2.50
   9  -4  -4   10.50    1.20
   9   4  -4    7.90    1.30
   8   4  -4    8.30    1.30
  -8   4   4    6.40    1.10
   7  -4  -4    3.00    0.60
   7   4  -4    3.50    0.80
  -7   4   4    2.30    0.80
   6  -4  -4   87.49    5.40
   6   4  -4   82.79    5.70
  -6   4   4   89.99    5.70
   5  -4  -4   61.59    3.90
  -5  -4   4   55.59    4.20
  -5   4   4   63.19    4.10
  -4  -4   4    9.30    1.30
   4  -4  -4   11.20    1.10
  -4   4   4    9.40    1.20
  -3  -4   4   25.10    2.10
   3  -4  -4   24.40    1.90
  -3   4   4   27.90    2.10
  -2  -4   4   24.10    2.00
   2  -4  -4   26.60    2.00
  -2   4   4   23.40    1.90
   2   4  -4   24.00    1.90
  -1  -4   4   15.10    1.50
   1  -4  -4   16.50    1.50
  -1   4   4   18.60    1.50
   1   4  -4   17.50    1.50
   0  -4   4    8.70    1.10
   0  -4  -4    8.60    1.10
   0   4  -4   11.00    1.10
   0   4   4    8.50    1.10
  -1  -4  -4   33.40    2.40
   1  -4   4   29.00    2.30
   1   4   4   31.80    2.40
  -1   4  -4   33.00    2.30
   2  -4   4  128.29    7.40
   2  -4   4  105.99    7.40
  -2  -4  -4  129.69    7.60
   2   4   4  119.99    7.50
  -3  -4  -4   17.10    1.70
   3  -4   4   16.20    1.50
   3   4   4   17.20    1.50
   4  -4   4  101.89    6.20
  -4  -4  -4  101.79    6.50
   4   4   4   95.09    6.20
   5  -4   4   54.09    3.50
  -5  -4  -4   51.89    3.80
   5   4   4   51.99    3.60
  -6  -4  -4    9.50    1.50
   6  -4   4   11.50    1.30
   7  -4   4   11.30    1.30
  -7  -4  -4    7.50    1.30
  -8  -4  -4   21.90    2.20
   8  -4   4   25.30    2.00
   9  -4   4    1.20    0.70
  -9  -4  -4   -0.30    0.60
 -10  -4  -4    3.30    1.00
  -7  -5   4    1.60    0.90
  -7   5   4    3.50    1.20
  -6  -5   4   10.70    1.60
  -6   5   4   10.70    1.50
  -5  -5   4   44.70    3.50
   5  -5  -4   44.20    3.10
  -5   5   4   44.10    3.40
  -4  -5   4    5.40    1.10
   4  -5  -4    7.10    1.00
  -4   5   4    6.40    1.20
  -3  -5   4    8.30    1.30
   3  -5  -4   10.00    1.30
  -3   5   4    9.70    1.40
  -2  -5   4    7.30    1.20
   2  -5  -4    6.90    1.10
  -2   5   4    6.20    1.20
   1  -5  -4   10.40    1.40
  -1  -5   4   10.20    1.40
  -1   5   4    9.70    1.30
   0  -5  -4   90.19    5.40
   0  -5   4   72.89    5.20
   0   5   4   75.99    5.30
  -1  -5  -4   82.79    5.70
   1  -5   4   81.99    5.50
   1   5   4   93.29    5.70
   2  -5   4   16.60    1.60
  -2  -5  -4   19.10    1.80
   2   5   4   15.40    1.80
   3  -5   4   10.40    1.30
  -3  -5  -4   12.00    1.60
   3   5   4   10.00    1.30
   4  -5   4    7.00    1.10
  -4  -5  -4    5.70    1.20
   5  -5   4    2.50    0.80
  -5  -5  -4    1.00    0.90
   6  -5   4   19.10    2.10
 -15   0   5    2.30    0.80
 -14   0   5    9.60    1.20
  13   0  -5    7.60    1.00
 -13   0   5    5.80    0.90
  12   0  -5    4.20    0.70
 -12   0   5    4.10    0.70
 -11   0   5   39.00    2.70
  11   0  -5   37.40    2.60
 -10   0   5  252.77   14.80
  10   0  -5  243.78   14.70
  -9   0   5  118.99    7.50
   9   0  -5  129.39    7.50
   8   0  -5    9.00    0.70
   8   0  -5    8.30    0.60
  -8   0   5    8.60    0.80
   7   0  -5    9.50    0.70
   7   0  -5   10.40    0.80
  -7   0   5   11.60    0.90
   6   0  -5   11.30    0.80
  -6   0   5   13.60    0.90
  -5   0   5  849.81   49.50
   5   0  -5  904.41   49.60
  -5   0   5  800.82   49.60
   4   0  -5   11.50    0.70
  -4   0   5    9.70    0.70
  -4   0   5    9.40    0.70
   3   0  -5   12.00    0.80
  -3   0   5   12.70    0.90
  -3   0   5   13.20    0.80
  -2   0   5   27.20    1.60
  -2   0   5   24.80    1.60
   2   0  -5   26.10    1.60
   1   0  -5  690.53   42.50
  -1   0   5  760.72   42.40
   1   0  -5  733.03   42.40
   0   0  -5  580.84   33.60
   0   0   5  572.34   33.50
  -1   0  -5   82.59    5.10
   1   0   5   90.09    5.10
  -2   0  -5  108.69    6.20
  -2   0  -5  102.69    6.30
  -3   0  -5  390.66   25.10
  -3   0  -5  471.25   25.00
   3   0   5  425.16   25.00
  -4   0  -5  200.88   12.30
  -4   0  -5  203.78   12.40
   4   0   5  228.08   12.40
  -5   0  -5    0.80    0.20
  -5   0  -5    0.50    0.20
   5   0   5    0.40    0.20
  -6   0  -5    8.30    0.80
   6   0   5    9.30    0.70
   6   0   5    8.70    0.70
   7   0   5  223.08   12.40
  -7   0  -5  198.18   12.60
  -8   0  -5  282.97   16.90
   8   0   5  285.97   16.70
  -9   0  -5   13.30    1.30
   9   0   5   14.40    1.10
  10   0   5   15.40    1.20
 -10   0  -5   17.50    1.50
  11   0   5    0.80    0.40
 -11   0  -5    0.20    0.40
  12   0   5   -0.30    0.30
 -12   0  -5   -0.10    0.50
 -13   0  -5   41.80    3.10
 -14   0  -5    2.50    0.80
 -15  -1   5   10.50    1.30
 -15   1   5    8.00    1.20
 -14  -1   5    8.50    1.20
 -14   1   5    8.20    1.10
  14   1  -5    8.70    1.20
 -13  -1   5    8.70    1.20
 -13   1   5   10.10    1.10
  13   1  -5    9.90    1.20
  12  -1  -5   52.09    3.20
 -12  -1   5   48.30    3.40
 -12   1   5   49.90    3.30
  12   1  -5   47.50    3.40
  11  -1  -5   45.20    2.90
 -11  -1   5   43.70    3.00
  11   1  -5   43.00    3.00
 -11   1   5   47.20    3.00
 -10  -1   5  174.38    9.60
  10  -1  -5  164.58    9.40
  10  -1  -5  146.59    9.40
 -10   1   5  154.18    9.50
  10   1  -5  153.18    9.60
   9  -1  -5  110.79    6.50
   9  -1  -5  102.69    6.50
  -9  -1   5  115.79    6.70
  -9   1   5  101.89    6.60
   9   1  -5  110.49    6.60
   8  -1  -5   72.89    4.60
   8  -1  -5   79.19    4.60
  -8  -1   5   79.09    4.70
  -8   1   5   76.19    4.70
   8   1  -5   72.79    4.70
   7  -1  -5   74.99    4.40
  -7  -1   5   71.39    4.50
  -7   1   5   74.79    4.50
   7   1  -5   63.59    4.50
  -7   1   5   80.39    4.50
   6  -1  -5  237.18   14.50
  -6  -1   5  257.37   14.60
   6   1  -5  252.87   14.60
  -6   1   5  239.08   14.50
  -6   1   5  249.88   14.50
   5  -1  -5   87.19    5.30
  -5  -1   5   82.89    5.40
  -5   1   5   93.79    5.40
   5   1  -5   89.09    5.40
  -5   1   5   93.69    5.30
  -4  -1   5   18.80    1.30
   4  -1  -5   19.60    1.20
  -4   1   5   14.80    1.20
   4   1  -5   19.80    1.30
  -3  -1   5  502.15   32.10
   3  -1  -5  540.75   32.10
  -3  -1   5  530.25   32.20
  -3   1   5  562.94   32.20
   3   1  -5  625.44   32.20
  -2  -1   5   50.89    3.20
   2  -1  -5   50.69    3.10
  -2  -1   5   54.39    3.00
  -2   1   5   51.49    3.10
  -2   1   5   50.49    3.10
  -1  -1   5   86.69    5.00
   1  -1  -5   72.59    5.10
  -1   1   5   91.59    5.00
   1   1  -5   81.89    5.10
  -1   1   5   90.59    5.10
   1   1  -5   90.99    5.10
   0  -1   5   20.00    1.20
   0  -1  -5   20.70    1.30
   0  -1  -5   20.30    1.20
   0   1  -5   17.30    1.30
   0   1   5   19.90    1.30
  -1  -1  -5  106.69    6.80
  -1  -1  -5  106.39    6.80
   1  -1   5  118.29    6.80
  -1   1  -5  114.19    6.80
  -1   1  -5  121.79    6.90
   1   1   5  125.09    6.80
  -2  -1  -5  700.53   42.90
  -2  -1  -5  692.93   42.90
   2  -1   5  753.42   42.80
   2  -1   5  742.63   42.90
   2   1   5  809.82   42.90
  -2   1  -5  723.63   43.00
  -3  -1  -5   91.89    5.60
   3  -1   5   95.09    5.60
  -3  -1  -5  100.39    5.70
  -3   1  -5   87.79    5.70
   3   1   5   98.49    5.70
  -4  -1  -5   40.50    2.50
   4  -1   5   37.40    2.40
  -4  -1  -5   39.20    2.50
  -4   1  -5   37.30    2.50
   4   1   5   42.30    2.40
  -5  -1  -5  105.99    6.80
  -5  -1  -5  115.19    6.90
   5  -1   5  117.59    6.80
  -5   1  -5  114.69    6.90
   5   1   5  116.89    6.80
  -6  -1  -5  281.97   18.20
   6  -1   5  339.17   18.20
  -6   1  -5  286.27   18.30
   6   1   5  331.67   18.20
   7  -1   5  365.36   20.80
  -7  -1  -5  359.46   20.90
   7   1   5  348.47   20.80
  -7   1  -5  346.57   20.90
   8  -1   5  462.25   26.90
  -8  -1  -5  484.45   27.10
   8   1   5  444.46   26.90
  -8   1  -5  447.96   27.10
  -9  -1  -5   34.30    2.20
   9  -1   5   31.80    2.00
  -9   1  -5   26.50    2.20
   9   1   5   30.60    2.00
  10  -1   5  132.19    7.60
 -10  -1  -5  117.99    7.70
 -10   1  -5  120.59    7.80
  10   1   5  131.49    7.60
 -11  -1  -5  164.08   10.20
  11  -1   5  161.78    9.90
 -11   1  -5  176.78   10.30
 -12  -1  -5    3.10    0.80
  12  -1   5    3.10    0.60
 -12   1  -5    4.20    0.90
  13  -1   5   13.40    1.20
 -13  -1  -5   15.20    1.60
 -13   1  -5   13.60    1.60
 -14  -1  -5   35.60    3.40
  15   2  -5   17.60    2.00
 -15   2   5   17.40    1.70
 -14  -2   5   82.09    5.10
  14   2  -5   67.59    5.10
 -14   2   5   80.19    5.00
 -13  -2   5    5.80    1.00
 -13   2   5    5.00    0.90
  13   2  -5    6.20    1.10
 -12  -2   5   19.90    1.70
 -12   2   5   17.10    1.60
  12   2  -5   19.70    1.80
  11  -2  -5   92.39    6.00
  11  -2  -5  104.79    6.00
 -11  -2   5  107.19    6.20
  11   2  -5   91.39    6.20
 -11   2   5   94.89    6.10
  10  -2  -5   18.50    1.30
  10  -2  -5   17.90    1.40
 -10  -2   5   17.50    1.50
 -10   2   5   18.60    1.40
  10   2  -5   18.00    1.60
  -9  -2   5   20.30    1.50
   9  -2  -5   16.10    1.40
   9  -2  -5   19.70    1.30
   9   2  -5   20.40    1.60
  -9   2   5   19.50    1.40
  -8  -2   5  186.38   12.60
   8  -2  -5  211.38   12.40
   8   2  -5  202.88   12.70
  -8   2   5  228.58   12.60
  -8   2   5  225.18   12.50
   7  -2  -5    8.40    0.70
  -7  -2   5    8.00    0.80
  -7   2   5    8.50    0.90
   7   2  -5    8.10    0.90
  -7   2   5    9.20    0.70
  -6  -2   5   71.09    4.40
   6  -2  -5   72.19    4.30
   6   2  -5   63.89    4.40
  -6   2   5   74.09    4.40
  -5  -2   5  116.19    7.20
   5  -2  -5  120.49    7.10
  -5   2   5  115.39    7.20
  -5   2   5  122.99    7.10
   5   2  -5  120.39    7.20
   4  -2  -5  119.59    7.00
  -4  -2   5  115.29    7.10
  -4   2   5  122.29    6.90
  -4   2   5  111.09    7.10
   4   2  -5  109.79    6.90
   4   2  -5  126.69    7.10
   3  -2  -5   19.20    1.30
  -3  -2   5   17.40    1.30
  -3   2   5   19.30    1.40
   3   2  -5   20.20    1.40
  -3   2   5   18.50    1.10
  -2  -2   5  235.48   13.00
   2  -2  -5  239.48   13.00
   2   2  -5  195.88   12.90
  -2   2   5  228.58   13.00
   2   2  -5  197.78   12.90
   1  -2  -5   70.79    4.50
  -1   2   5   74.99    4.50
   1   2  -5   70.19    4.50
   1   2  -5   78.39    4.50
   0  -2  -5   75.29    4.60
   0  -2   5   71.99    4.50
   0   2  -5   72.59    4.60
   0   2   5   81.49    4.70
   0   2  -5   77.09    4.60
  -1  -2  -5   12.40    0.70
   1  -2   5   10.30    0.80
   1   2   5   11.30    0.90
  -2  -2  -5   88.29    5.00
   2  -2   5   80.69    5.00
  -2  -2  -5   80.59    5.10
  -2   2  -5   82.29    5.10
   2   2   5   86.59    5.10
   3  -2   5  155.38    9.20
  -3  -2  -5  164.48    9.40
   3  -2   5  138.69    9.20
   3   2   5  158.38    9.30
  -3   2  -5  165.08    9.30
  -4  -2  -5  319.47   17.20
   4  -2   5  306.57   17.30
   4  -2   5  289.17   17.10
  -4  -2  -5  268.57   17.40
   4   2   5  280.97   17.30
  -4   2  -5  295.97   17.30
  -5  -2  -5   49.99    3.30
   5  -2   5   49.10    3.10
  -5  -2  -5   52.99    3.10
  -5   2  -5   48.40    3.20
   5   2   5   47.20    3.10
   6  -2   5  137.79    8.00
  -6  -2  -5  123.69    7.90
  -6  -2  -5  129.39    8.10
   6   2   5  139.19    8.00
  -6   2  -5  133.69    8.10
   7  -2   5   28.90    2.00
  -7  -2  -5   28.00    2.00
  -7  -2  -5   30.70    2.10
  -7   2  -5   28.70    2.10
   7   2   5   26.70    1.90
   8  -2   5    7.80    0.80
  -8  -2  -5    7.30    1.00
  -8  -2  -5    8.90    0.90
   8   2   5   10.20    0.90
  -8   2  -5    9.80    1.10
  -9  -2  -5   19.50    1.50
  -9  -2  -5   16.90    1.60
   9  -2   5   19.70    1.40
  -9   2  -5   20.40    1.60
   9   2   5   18.70    1.50
  10  -2   5   50.59    3.20
 -10  -2  -5   47.60    3.30
 -10   2  -5   48.00    3.40
 -11  -2  -5   64.19    4.20
  11  -2   5   66.29    4.10
 -11   2  -5   58.59    4.20
  12  -2   5   65.69    3.90
 -12  -2  -5   53.89    4.00
 -12   2  -5   60.39    4.20
 -13  -2  -5   14.40    1.60
  13  -2   5   17.30    1.40
 -13   2  -5   15.20    1.80
 -13  -3   5   31.30    2.50
  13   3  -5   31.20    2.70
 -12  -3   5   11.40    1.40
  12  -3  -5   12.00    1.30
  12   3  -5   12.20    1.60
  11  -3  -5   18.50    1.60
 -11  -3   5   18.90    1.70
  11   3  -5   17.90    1.80
 -10  -3   5    2.80    0.70
  10  -3  -5    4.80    0.80
  10   3  -5    5.50    1.00
   9  -3  -5   10.10    0.90
  -9  -3   5   10.20    1.20
   9   3  -5   10.50    1.30
  -8  -3   5   10.20    1.10
   8  -3  -5   10.50    0.90
   8   3  -5   12.30    1.30
  -8   3   5   11.70    1.20
   7  -3  -5   60.79    3.70
  -7  -3   5   64.89    3.90
  -7   3   5   59.59    3.90
   7   3  -5   53.49    3.90
  -6  -3   5   24.60    1.80
   6  -3  -5   24.80    1.70
  -6   3   5   22.40    1.80
   6   3  -5   24.70    1.90
   5  -3  -5   30.00    2.10
  -5  -3   5   31.90    2.10
   5   3  -5   30.50    2.20
  -5   3   5   28.00    2.20
  -4  -3   5   49.10    3.00
   4  -3  -5   46.80    3.00
   4   3  -5   43.50    3.10
  -4   3   5   45.50    3.10
   3  -3  -5  206.38   11.60
  -3  -3   5  186.08   11.60
   3   3  -5  191.08   11.70
  -3   3   5  195.08   11.70
   2  -3  -5  194.58   12.10
  -2  -3   5  190.88   12.00
   2   3  -5  212.68   12.10
  -2   3   5  211.48   12.10
   1  -3  -5   81.39    5.50
  -1  -3   5   86.59    5.50
  -1  -3   5   89.59    5.40
   1   3  -5   97.39    5.40
  -1   3   5   86.39    5.50
   0  -3  -5    1.90    0.50
   0  -3   5    2.10    0.50
   0  -3   5    1.90    0.40
   0   3  -5    2.00    0.40
   0   3   5    2.20    0.50
   1  -3   5    8.30    0.80
   1  -3   5    9.30    0.90
  -1  -3  -5   11.50    1.00
  -1   3  -5    9.30    0.90
   1   3   5    7.20    0.90
   2  -3   5  202.08   12.30
  -2  -3  -5  218.28   12.50
   2  -3   5  196.38   12.30
  -2   3  -5  221.48   12.40
   2   3   5  203.28   12.40
   3  -3   5  124.39    7.50
   3  -3   5  123.19    7.60
  -3  -3  -5  125.69    7.80
  -3   3  -5  125.89    7.60
   3   3   5  130.89    7.70
   4  -3   5  318.07   19.90
  -4  -3  -5  337.27   20.10
  -4   3  -5  348.77   20.00
   4   3   5  349.07   20.00
   5  -3   5   94.29    5.90
  -5  -3  -5   99.39    6.10
  -5   3  -5   95.89    6.00
   5   3   5   95.49    6.00
   6  -3   5    3.70    0.60
  -6  -3  -5    1.40    0.60
  -6   3  -5    1.90    0.50
   6   3   5    2.50    0.50
   7  -3   5   17.60    1.40
  -7  -3  -5   18.90    1.70
   7   3   5   14.20    1.40
  -7   3  -5   21.60    1.60
  -8  -3  -5   11.10    1.40
   8  -3   5   13.60    1.20
  -8   3  -5   11.70    1.30
  -9  -3  -5   13.30    1.60
   9  -3   5   16.20    1.40
  -9   3  -5   15.30    1.40
 -10  -3  -5   20.20    2.00
  10  -3   5   23.00    1.80
 -10   3  -5   23.10    2.00
  11  -3   5   20.10    1.70
 -11   3  -5   18.50    1.80
 -12   3  -5    1.00    0.80
  11  -4  -5   44.40    3.20
  11   4  -5   46.50    3.80
  10  -4  -5   24.50    2.20
  10   4  -5   29.40    2.50
   9   4  -5   14.90    1.60
   8  -4  -5    3.30    0.60
  -8   4   5    2.10    0.80
   8   4  -5    1.20    0.70
   7  -4  -5   14.30    1.20
   7   4  -5   12.50    1.40
  -7   4   5   11.40    1.50
  -6  -4   5    2.80    0.70
   6  -4  -5    2.80    0.60
  -6   4   5    3.50    0.80
   6   4  -5    2.40    0.70
  -5  -4   5   12.30    1.20
   5  -4  -5   12.80    1.20
  -5   4   5   12.80    1.30
   5   4  -5   11.60    1.30
  -4  -4   5   49.10    3.20
   4  -4  -5   50.09    3.20
  -4  -4   5   44.00    3.40
  -4   4   5   46.10    3.30
   3  -4  -5   77.09    4.90
  -3  -4   5   79.89    5.00
  -3  -4   5   76.29    4.80
  -3   4   5   69.49    4.90
  -2  -4   5    6.50    0.90
   2  -4  -5    7.20    1.00
  -2  -4   5    6.80    1.10
  -2   4   5    7.90    1.10
   2   4  -5    9.00    1.00
   1  -4  -5    1.10    0.50
  -1  -4   5    1.10    0.50
  -1  -4   5    1.70    0.50
   1   4  -5    1.60    0.50
  -1   4   5    1.50    0.60
   0  -4   5   19.40    1.70
   0  -4   5   24.90    1.70
   0  -4   5   21.30    1.80
   0  -4  -5   22.80    1.80
   0   4   5   21.10    1.80
  -1  -4  -5   82.99    4.90
   1  -4   5   72.19    4.70
   1  -4   5   67.49    4.60
   1   4   5   74.49    4.80
   2  -4   5   87.29    5.30
  -2  -4  -5   85.19    5.50
   2   4   5   79.49    5.40
   3  -4   5  438.56   24.50
  -3  -4  -5  410.36   24.70
   3   4   5  396.56   24.60
  -4  -4  -5   71.79    4.80
   4  -4   5   72.29    4.60
   4   4   5   69.09    4.60
  -5  -4  -5   54.99    3.80
   5  -4   5   54.19    3.50
   5   4   5   49.40    3.60
   6  -4   5   16.70    1.60
  -6  -4  -5   19.40    1.90
  -7  -4  -5   11.00    1.60
   7  -4   5   13.20    1.30
   8  -4   5    0.40    0.60
  -8  -4  -5    0.20    0.70
   9  -4   5   44.90    3.00
  -9  -4  -5   37.40    3.20
 -10  -4  -5    8.40    1.50
  -7  -5   5    4.10    1.30
  -6  -5   5   16.20    2.10
   6  -5  -5   22.20    1.80
  -6   5   5   18.20    2.10
   5  -5  -5    4.30    0.90
  -5  -5   5    2.30    1.00
  -5   5   5    1.80    0.90
   4  -5  -5   58.09    3.80
  -4  -5   5   55.19    4.10
  -4   5   5   53.39    4.00
  -3  -5   5    0.60    0.80
   3  -5  -5    1.10    0.70
  -3   5   5    0.10    0.70
   2  -5  -5    8.90    1.30
  -2  -5   5    7.30    1.20
  -2   5   5    8.60    1.30
  -1  -5   5   11.00    1.50
   1  -5  -5   12.70    1.50
  -1   5   5   16.60    1.60
   0  -5   5   38.40    2.80
   0  -5  -5   41.50    3.10
   0  -5   5   37.80    3.10
   0   5   5   42.30    3.00
   1  -5   5   47.60    3.20
  -1  -5  -5   46.90    3.50
   1   5   5   46.00    3.40
   2  -5   5   72.89    4.90
  -2  -5  -5   82.19    5.20
   2   5   5   71.49    5.00
  -3  -5  -5   50.49    3.70
   3  -5   5   50.69    3.40
   3   5   5   47.40    3.50
  -4  -5  -5    2.10    0.90
   4  -5   5    2.80    0.80
  -5  -5  -5   15.30    2.10
   5  -5   5   19.50    1.80
 -15   0   6   73.39    4.90
 -14   0   6    2.20    0.60
  14   0  -6    0.60    0.60
 -13   0   6    9.20    1.20
  13   0  -6   11.60    1.10
  12   0  -6   21.20    1.60
 -12   0   6   17.70    1.60
  11   0  -6   35.00    2.40
 -11   0   6   37.10    2.50
 -10   0   6  396.16   23.70
  10   0  -6  409.26   23.70
   9   0  -6  132.69    8.00
  -9   0   6  133.59    8.10
  -8   0   6   42.60    2.70
   8   0  -6   39.20    2.60
  -7   0   6    0.50    0.30
   7   0  -6   -0.20    0.20
   7   0  -6    0.10    0.10
   6   0  -6  125.09    7.50
   6   0  -6  124.19    7.40
  -6   0   6  132.89    7.60
  -5   0   6   82.39    5.00
  -5   0   6   80.29    5.10
   5   0  -6   91.39    5.10
  -4   0   6  665.73   41.90
   4   0  -6  777.82   41.90
  -4   0   6  718.53   42.00
  -3   0   6  240.08   14.30
  -3   0   6  231.38   14.40
   3   0  -6  264.47   14.30
  -2   0   6 1215.68   72.99
  -2   0   6 1271.27   72.99
   2   0  -6 1274.67   73.19
   1   0  -6   65.69    4.20
  -1   0   6   75.29    4.20
   1   0  -6   71.29    4.20
   0   0  -6 1178.88   63.49
   0   0   6 1090.19   63.49
   0   0  -6  998.10   63.29
  -2   0  -6  331.57   20.40
  -2   0  -6  390.96   20.30
   2   0   6  322.67   20.30
  -3   0  -6 2491.75  130.89
  -3   0  -6 2063.09  130.69
   3   0   6 2195.38  131.09
   4   0   6   14.40    0.80
  -4   0  -6    9.40    0.90
  -4   0  -6   11.30    0.80
  -5   0  -6  108.19    7.00
  -5   0  -6  131.89    7.20
   5   0   6  118.09    7.00
  -6   0  -6  165.48   10.60
   6   0   6  188.58   10.50
  -7   0  -6  218.58   13.00
   7   0   6  217.18   12.80
   8   0   6  171.38   10.40
  -8   0  -6  182.08   10.60
  -9   0  -6  717.63   41.10
   9   0   6  682.83   40.80
  10   0   6   80.69    5.00
 -10   0  -6   83.19    5.30
 -11   0  -6    1.30    0.60
  11   0   6    1.40    0.40
  12   0   6    2.70    0.50
 -12   0  -6    2.50    0.80
 -13   0  -6    7.60    1.20
 -15  -1   6   17.80    1.70
 -15   1   6   15.10    1.60
 -14  -1   6   14.90    1.50
 -14   1   6   15.50    1.50
  14   1  -6   13.20    1.50
 -13  -1   6   29.40    2.30
 -13   1   6   29.70    2.20
  13   1  -6   28.10    2.20
 -12  -1   6   76.09    4.90
  12  -1  -6   75.29    4.70
 -12   1   6   77.19    4.90
  12   1  -6   76.09    4.90
  11  -1  -6   44.30    2.80
 -11  -1   6   42.70    3.00
  11   1  -6   44.40    3.00
 -11   1   6   40.80    2.90
  10  -1  -6   46.50    2.90
 -10  -1   6   43.50    3.00
 -10   1   6   45.20    3.00
  10   1  -6   44.80    3.00
  -9  -1   6    9.60    0.90
   8  -1  -6  210.28   13.60
   8  -1  -6  233.58   13.60
  -8  -1   6  239.98   13.80
  -8   1   6  252.27   13.70
   8   1  -6  221.68   13.70
   7  -1  -6  199.68   12.30
  -7  -1   6  203.78   12.50
  -7   1   6  211.18   12.40
  -7   1   6  218.68   12.40
   7   1  -6  215.88   12.50
  -6  -1   6  142.59    8.50
   6  -1  -6  143.09    8.40
   6   1  -6  134.29    8.50
  -6   1   6  140.19    8.40
  -6   1   6  148.29    8.40
   5  -1  -6  254.57   15.80
  -5  -1   6  282.47   15.90
  -5   1   6  278.97   15.80
  -5   1   6  271.87   15.80
   5   1  -6  259.67   15.80
   4  -1  -6  216.88   13.10
  -4  -1   6  214.38   13.20
  -4   1   6  226.88   13.20
   4   1  -6  238.08   13.20
  -3  -1   6   88.99    5.30
  -3  -1   6   90.99    5.20
   3  -1  -6   88.09    5.30
   3   1  -6   91.59    5.30
  -3   1   6   82.79    5.30
  -2  -1   6    4.90    0.30
   2  -1  -6    3.90    0.40
  -2  -1   6    3.50    0.50
   2   1  -6    4.10    0.40
  -2   1   6    4.40    0.40
  -2   1   6    5.60    0.40
  -1  -1   6  227.98   15.10
   1  -1  -6  269.47   15.20
  -1   1   6  272.17   15.20
   1   1  -6  265.67   15.30
   1   1  -6  247.18   15.20
  -1   1   6  276.47   15.10
   0  -1  -6  980.40   63.09
   0  -1  -6 1133.69   63.19
   0  -1   6 1123.59   63.09
   0   1  -6 1114.89   63.19
   0   1   6 1076.89   63.19
  -1  -1  -6  406.96   25.70
   1  -1   6  471.75   25.70
  -1  -1  -6  419.86   25.70
  -1   1  -6  449.76   25.70
   1   1   6  456.05   25.80
  -1   1  -6  442.66   25.80
   2  -1   6    0.50    0.20
  -2  -1  -6    0.60    0.20
  -2  -1  -6    0.60    0.20
   2   1   6    0.80    0.20
  -2   1  -6    0.80    0.20
  -3  -1  -6  144.39    9.30
   3  -1   6  173.98    9.30
  -3  -1  -6  158.58    9.30
  -3   1  -6  145.79    9.40
   3   1   6  164.48    9.30
   4  -1   6  480.75   26.00
  -4  -1  -6  423.76   26.00
  -4  -1  -6  380.36   26.00
  -4   1  -6  464.05   26.10
   4   1   6  475.25   26.00
  -5  -1  -6   29.00    2.10
   5  -1   6   33.70    2.00
  -5  -1  -6   30.70    2.10
   5   1   6   33.20    2.00
  -5   1  -6   30.50    2.10
  -6  -1  -6  167.68   10.40
   6  -1   6  177.68   10.30
  -6   1  -6  176.78   10.50
   6   1   6  177.78   10.40
  -7  -1  -6   77.19    4.70
   7  -1   6   74.39    4.60
  -7   1  -6   72.39    4.70
   7   1   6   76.99    4.60
   8  -1   6   55.09    3.30
  -8  -1  -6   50.09    3.40
   8   1   6   53.79    3.30
  -8   1  -6   52.29    3.50
  -9  -1  -6  368.96   21.40
   9  -1   6  351.26   21.20
   9   1   6  370.86   21.20
  -9   1  -6  355.56   21.40
  10  -1   6   40.90    2.80
 -10  -1  -6   42.80    3.00
  10   1   6   44.90    2.80
 -10   1  -6   45.10    3.10
  11  -1   6   19.10    1.50
 -11  -1  -6   20.40    1.70
 -11   1  -6   22.90    1.80
  11   1   6   18.00    1.80
  12  -1   6   11.90    1.10
 -12  -1  -6   14.60    1.40
 -12   1  -6   14.10    1.50
  13  -1   6    1.90    0.60
 -13  -1  -6    1.10    0.70
 -13   1  -6    1.20    0.70
  15   2  -6    6.20    1.20
 -14  -2   6   19.90    1.90
  14   2  -6   17.30    1.90
 -13  -2   6    2.80    0.80
  13   2  -6    3.00    0.80
 -13   2   6    2.30    0.70
 -12  -2   6   24.50    2.20
 -12   2   6   33.70    2.20
  12   2  -6   29.80    2.30
  11  -2  -6   52.99    3.20
  11  -2  -6   48.60    3.20
 -11  -2   6   52.79    3.40
  11   2  -6   48.00    3.50
 -11   2   6   48.80    3.30
 -10  -2   6   35.80    2.60
  10  -2  -6   36.40    2.30
  10  -2  -6   34.70    2.40
 -10   2   6   39.40    2.50
  10   2  -6   35.90    2.60
  -9  -2   6   44.70    3.00
   9  -2  -6   45.30    2.80
  -9   2   6   45.40    2.90
   9   2  -6   39.60    3.00
  -9   2   6   46.30    3.00
   8  -2  -6   54.39    3.40
  -8  -2   6   59.89    3.70
  -8   2   6   55.89    3.60
  -8   2   6   57.99    3.50
   8   2  -6   51.69    3.60
  -7  -2   6   32.90    2.20
   7  -2  -6   29.10    2.00
   7   2  -6   31.20    2.20
  -7   2   6   30.50    2.10
  -6  -2   6   79.39    4.80
   6  -2  -6   85.39    4.70
   6   2  -6   81.29    4.90
  -6   2   6   78.49    4.80
  -6   2   6   65.99    4.70
   5  -2  -6  371.56   21.20
  -5  -2   6  337.97   21.30
   5   2  -6  365.66   21.30
  -5   2   6  357.66   21.30
  -5   2   6  376.86   21.10
  -4  -2   6    4.30    0.40
   4  -2  -6    6.00    0.60
  -4  -2   6    6.20    0.60
   4   2  -6    6.80    0.60
  -4   2   6    6.20    0.40
  -4   2   6    5.70    0.70
  -3  -2   6   99.99    5.80
  -3  -2   6  104.59    6.00
   3  -2  -6   99.39    5.90
   3   2  -6   85.89    5.90
  -3   2   6  100.39    6.00
  -3   2   6  100.19    5.80
  -2  -2   6  180.68   11.50
  -2  -2   6  198.58   11.60
   2  -2  -6  217.48   11.60
  -2   2   6  191.98   11.60
   2   2  -6  192.68   11.60
   1  -2  -6  814.62   44.70
  -1  -2   6  694.13   44.60
   1   2  -6  730.03   44.70
   1   2  -6  798.72   44.70
  -1   2   6  796.62   44.80
   0  -2  -6  330.07   19.20
   0   2  -6  338.37   19.20
   0   2   6  326.97   19.20
   0   2  -6  310.67   19.20
  -1  -2  -6   91.29    5.90
  -1  -2  -6  108.59    5.70
   1   2   6   96.49    5.90
  -1   2  -6   90.79    5.90
  -2  -2  -6    7.50    0.60
   2  -2   6    7.50    0.70
  -2  -2  -6    7.00    0.70
   2  -2   6    8.30    0.60
   2   2   6    8.50    0.70
  -2   2  -6    7.90    0.70
  -3  -2  -6   10.80    0.80
  -3  -2  -6   10.80    0.90
   3  -2   6    9.90    0.80
   3  -2   6    9.40    0.70
  -3   2  -6   10.20    0.90
   3   2   6   10.10    0.80
  -4  -2  -6   97.49    5.70
   4  -2   6   86.39    5.60
  -4  -2  -6   94.49    5.60
   4   2   6   94.59    5.60
  -4   2  -6   89.79    5.70
  -5  -2  -6  324.87   18.30
  -5  -2  -6  307.27   18.40
   5  -2   6  300.77   18.30
   5   2   6  315.67   18.30
  -5   2  -6  306.67   18.40
  -6  -2  -6  219.28   12.60
  -6  -2  -6  197.88   12.50
   6  -2   6  205.48   12.50
   6   2   6  213.58   12.50
  -6   2  -6  218.08   12.60
   7  -2   6   96.49    5.70
  -7  -2  -6   83.59    5.80
  -7  -2  -6  101.39    5.80
  -7   2  -6   92.09    5.90
   7   2   6   95.99    5.80
  -8  -2  -6   20.40    1.60
  -8  -2  -6   18.90    1.70
   8  -2   6   21.50    1.50
   8   2   6   20.20    1.50
  -8   2  -6   20.10    1.70
  -9  -2  -6    8.40    1.00
   9  -2   6    6.70    0.80
   9   2   6    7.00    0.80
  -9   2  -6    7.00    1.00
 -10  -2  -6   68.09    4.50
  10  -2   6   73.59    4.40
 -10   2  -6   67.59    4.60
 -11  -2  -6   29.20    2.30
  11  -2   6   31.50    2.10
 -11   2  -6   28.80    2.40
 -12  -2  -6  109.79    7.00
  12  -2   6  111.99    6.80
 -12   2  -6  110.39    7.10
  13  -2   6    1.90    0.60
 -13  -2  -6    3.00    0.80
 -13  -3   6   17.70    1.70
  13   3  -6   15.50    1.90
  12  -3  -6   65.39    4.30
 -12  -3   6   62.79    4.40
  12   3  -6   67.09    4.60
 -11  -3   6   13.20    1.40
  11  -3  -6   14.70    1.40
  11   3  -6   12.80    1.60
 -10  -3   6   72.39    4.50
  10  -3  -6   57.99    4.30
  10  -3  -6   69.49    4.30
  10   3  -6   76.59    4.70
   9  -3  -6   50.59    3.30
  -9  -3   6   52.69    3.50
  -9   3   6   56.79    3.50
   9   3  -6   45.90    3.50
   8  -3  -6   34.80    2.30
  -8  -3   6   35.10    2.50
  -8   3   6   36.10    2.60
   8   3  -6   36.70    2.60
  -7  -3   6   55.89    3.60
   7  -3  -6   53.39    3.40
  -7   3   6   52.79    3.60
   7   3  -6   52.19    3.60
   6  -3  -6   47.30    3.00
  -6  -3   6   49.90    3.10
   6   3  -6   47.90    3.30
  -6   3   6   43.80    3.20
  -5  -3   6   28.20    1.90
   5  -3  -6   26.70    1.90
   5   3  -6   27.20    2.00
  -5   3   6   24.90    2.00
   4  -3  -6   36.80    2.50
  -4  -3   6   39.00    2.50
   4   3  -6   35.00    2.60
  -4   3   6   36.90    2.60
   3  -3  -6   10.30    0.90
  -3  -3   6    7.50    0.80
  -3   3   6    7.60    0.90
   3   3  -6    6.80    0.90
  -2  -3   6  110.89    6.60
   2  -3  -6  102.49    6.50
  -2  -3   6  109.89    6.40
   2   3  -6  109.29    6.60
  -2   3   6  103.09    6.60
   1  -3  -6   76.49    5.30
  -1  -3   6   90.79    5.30
  -1  -3   6   81.29    5.20
  -1   3   6   82.69    5.40
   1   3  -6   98.69    5.40
   0  -3  -6    6.10    0.80
   0  -3   6    6.40    0.70
   0  -3   6    6.30    0.70
   0   3   6    5.50    0.80
   0   3  -6    4.80    0.70
   1  -3   6    8.40    0.80
   1  -3   6    6.70    0.80
  -1  -3  -6    8.10    1.00
  -1   3  -6    7.60    0.80
   1   3   6    6.90    0.80
  -2  -3  -6  107.19    6.50
   2  -3   6   98.19    6.30
   2  -3   6  109.69    6.40
   2   3   6   99.89    6.40
  -2   3  -6  107.39    6.40
  -3  -3  -6  126.79    7.70
   3  -3   6  126.09    7.50
  -3   3  -6  121.69    7.50
   3   3   6  120.69    7.60
  -4  -3  -6  160.88    9.80
   4  -3   6  159.68    9.60
   4   3   6  153.48    9.60
  -4   3  -6  165.88    9.70
   5  -3   6  147.39    9.20
  -5  -3  -6  159.68    9.40
  -5   3  -6  153.78    9.30
   5   3   6  151.18    9.30
   6  -3   6   77.79    4.60
  -6  -3  -6   75.69    4.80
  -6   3  -6   68.19    4.60
   6   3   6   65.49    4.50
   7  -3   6    6.30    0.80
  -7  -3  -6    6.50    1.00
  -7   3  -6    6.50    0.90
   7   3   6    4.80    0.80
   8  -3   6   12.40    1.20
  -8  -3  -6   11.80    1.50
  -8   3  -6   13.80    1.40
   9  -3   6   16.80    1.50
  -9  -3  -6   14.10    1.60
  -9   3  -6   16.20    1.60
  10  -3   6   34.20    2.40
 -10   3  -6   32.20    2.60
  11  -3   6   45.10    3.00
 -11   3  -6   40.60    3.20
  11  -4  -6    8.20    1.20
 -10  -4   6   10.40    1.50
  10  -4  -6   10.60    1.30
  10   4  -6   11.10    1.50
  -9  -4   6   12.50    1.40
  -9   4   6   12.30    1.50
   9   4  -6   11.30    1.60
   8  -4  -6   12.80    1.20
  -8  -4   6   10.40    1.20
  -8   4   6   15.20    1.50
   8   4  -6    9.20    1.40
  -7  -4   6    3.70    0.80
   7  -4  -6    4.70    0.70
   7   4  -6    4.20    1.00
  -7   4   6    2.00    0.80
   6  -4  -6   15.80    1.40
  -6  -4   6   19.30    1.50
  -6   4   6   16.30    1.60
   6   4  -6   16.70    1.70
  -5  -4   6    8.60    1.00
   5  -4  -6    9.80    1.00
   5   4  -6   10.60    1.30
  -5   4   6    7.80    1.10
   4  -4  -6   19.10    1.60
  -4  -4   6   18.00    1.70
  -4  -4   6   19.60    1.60
  -4   4   6   18.90    1.70
  -3  -4   6    6.70    1.10
   3  -4  -6    6.20    0.90
  -3  -4   6    6.90    0.90
  -3   4   6    6.30    1.00
  -2  -4   6   43.90    2.90
  -2  -4   6   41.90    2.80
  -2  -4   6   42.40    3.00
   2  -4  -6   40.00    2.90
  -2   4   6   42.40    3.00
  -1  -4   6   54.99    3.60
   1  -4  -6   54.39    3.60
  -1  -4   6   52.39    3.50
  -1  -4   6   46.70    3.30
  -1   4   6   54.49    3.60
   0  -4   6   26.50    2.00
   0  -4   6   26.70    2.10
   0  -4  -6   24.80    2.10
   0  -4   6   30.50    2.00
   0   4   6   28.30    2.20
   1  -4   6   12.40    1.20
   1  -4   6   13.50    1.20
  -1  -4  -6   11.60    1.30
   1   4   6   12.40    1.30
  -2  -4  -6   56.99    3.70
   2  -4   6   50.09    3.40
   2   4   6   48.40    3.50
   3  -4   6   17.00    1.50
  -3  -4  -6   19.70    1.80
   3   4   6   17.60    1.60
  -4  -4  -6  135.29    8.60
   4  -4   6  145.19    8.40
   4   4   6  129.99    8.40
  -5  -4  -6   74.99    4.50
   5  -4   6   56.79    4.10
   5   4   6   59.79    4.20
   6  -4   6    1.80    0.70
  -6  -4  -6    0.10    0.70
   6   4   6    0.40    0.50
   7  -4   6   10.40    1.20
  -7  -4  -6    8.40    1.40
   8  -4   6    5.10    0.90
  -8  -4  -6    4.10    1.00
   9  -4   6   12.70    1.60
  -9  -4  -6   13.20    1.80
  -7  -5   6   -0.60    0.70
   6  -5  -6    4.90    0.90
  -6  -5   6    2.90    1.00
  -6   5   6    5.10    1.10
   5  -5  -6    8.00    1.10
  -5  -5   6    5.20    1.20
  -5   5   6    4.30    1.10
   4  -5  -6   20.80    1.80
  -4  -5   6   20.50    2.10
  -4   5   6   20.90    2.00
  -3  -5   6   23.60    2.10
   3  -5  -6   18.50    1.80
  -3   5   6   18.70    1.90
  -2  -5   6   13.60    1.70
   2  -5  -6   15.60    1.70
  -2   5   6   14.70    1.70
   1  -5  -6   -0.30    0.60
  -1  -5   6    0.60    0.70
  -1   5   6    1.00    0.70
   0  -5  -6   11.50    1.50
   0  -5   6   14.10    1.30
   0   5   6   12.10    1.60
  -1  -5  -6    7.80    1.30
   1  -5   6    8.20    1.10
   1   5   6    8.10    1.30
   2  -5   6   12.90    1.40
  -2  -5  -6    8.70    1.40
   2   5   6   11.00    1.40
  -3  -5  -6    1.60    0.80
   3  -5   6    1.20    0.70
   3   5   6    1.10    0.60
  -4  -5  -6   58.29    4.20
   4  -5   6   57.09    3.80
   4   5   6   51.59    3.90
   5  -5   6   51.79    3.60
 -15   0   7    7.80    1.20
  14   0  -7   10.80    1.20
 -14   0   7   11.90    1.40
  13   0  -7   47.00    3.10
 -13   0   7   45.20    3.20
  12   0  -7   43.20    2.90
 -12   0   7   42.40    3.00
 -11   0   7   58.49    3.80
  11   0  -7   58.59    3.70
  10   0  -7  335.47   19.80
 -10   0   7  337.57   19.90
   9   0  -7  124.39    7.40
  -9   0   7  122.69    7.50
  -8   0   7  125.69    7.50
   8   0  -7  122.39    7.40
   7   0  -7  409.16   27.10
   7   0  -7  499.35   27.30
  -7   0   7  494.45   27.40
   6   0  -7  162.08    9.40
  -6   0   7  157.68    9.50
  -5   0   7  286.87   17.20
   5   0  -7  291.77   17.30
  -5   0   7  307.87   17.30
  -4   0   7 1478.05   78.29
   4   0  -7 1247.88   78.49
  -4   0   7 1311.27   78.29
   3   0  -7  270.27   17.30
  -3   0   7  312.77   17.30
  -3   0   7  305.67   17.30
  -2   0   7 1143.89   66.29
   2   0  -7 1149.89   66.39
  -2   0   7 1120.89   66.19
  -1   0   7  107.79    6.00
   1   0  -7   97.69    6.10
   1   0  -7  100.19    6.00
   0   0  -7  413.76   24.80
   0   0  -7  430.46   24.90
   0   0   7  433.86   24.80
  -1   0  -7  105.99    6.80
   1   0   7  124.09    6.80
   2   0   7 1429.66   77.99
  -2   0  -7 1164.48   77.89
  -2   0  -7 1423.26   77.89
  -3   0  -7   49.60    3.00
   3   0   7   52.29    2.90
  -3   0  -7   43.90    2.90
   4   0   7  223.98   12.90
  -4   0  -7  220.78   12.80
  -4   0  -7  213.88   13.00
   5   0   7  282.77   15.80
  -5   0  -7  254.87   15.90
   6   0   7   13.20    1.00
  -6   0  -7   15.60    1.20
   7   0   7   55.59    3.50
  -7   0  -7   56.49    3.60
   8   0   7  246.58   15.50
  -8   0  -7  281.97   15.70
   9   0   7    4.20    0.60
  -9   0  -7    4.20    0.70
 -10   0  -7  272.57   15.80
  10   0   7  255.27   15.50
 -11   0  -7    2.40    0.70
  11   0   7    1.60    0.40
 -12   0  -7    0.50    0.50
  12   0   7    0.00    0.40
 -13   0  -7    2.30    0.90
 -15  -1   7   31.10    2.50
  15   1  -7   32.20    2.60
 -15   1   7   34.20    2.50
 -14  -1   7   39.90    2.90
  14   1  -7   37.30    2.80
 -14   1   7   36.10    2.70
  13  -1  -7   13.00    1.20
 -13  -1   7   12.90    1.40
  13   1  -7   12.50    1.30
 -13   1   7   14.90    1.30
 -12  -1   7   26.80    2.10
  12  -1  -7   26.40    1.90
 -12   1   7   29.20    2.10
  12   1  -7   26.70    2.10
 -11  -1   7   89.59    5.70
  11  -1  -7   91.69    5.50
 -11   1   7   91.39    5.60
  11   1  -7   88.09    5.70
 -10  -1   7   75.89    5.20
  10  -1  -7   83.69    5.00
 -10   1   7   83.89    5.20
  10   1  -7   86.79    5.20
  -9  -1   7  375.66   25.60
   9  -1  -7  459.85   25.50
   9   1  -7  463.75   25.70
  -9   1   7  444.46   25.60
  -8  -1   7  126.39    8.30
   8  -1  -7  140.19    8.10
   8   1  -7  142.49    8.30
  -8   1   7  135.79    8.20
  -8   1   7  140.69    8.20
  -7  -1   7    1.00    0.40
   7  -1  -7    1.30    0.30
  -7   1   7    1.30    0.30
   7   1  -7    1.90    0.40
  -7   1   7    1.50    0.30
  -6  -1   7   21.50    1.50
   6  -1  -7   22.30    1.40
   6   1  -7   23.10    1.50
  -6   1   7   20.80    1.50
  -6   1   7   21.90    1.50
  -5  -1   7  309.77   17.60
   5  -1  -7  274.47   17.50
   5   1  -7  323.17   17.60
  -5   1   7  288.97   17.50
  -5   1   7  299.87   17.50
  -4  -1   7  660.03   35.40
   4  -1  -7  572.74   35.40
  -4  -1   7  652.93   35.60
   4   1  -7  584.74   35.50
  -4   1   7  571.64   35.50
  -3  -1   7 1061.19   63.89
   3  -1  -7 1111.99   63.89
  -3  -1   7 1236.48   63.99
  -3   1   7 1041.20   63.99
   3   1  -7 1047.60   63.89
  -2  -1   7   96.09    5.70
  -2  -1   7  102.19    5.60
   2  -1  -7  100.99    5.70
  -2   1   7   94.39    5.60
  -2   1   7   89.69    5.70
   2   1  -7   87.89    5.70
  -1  -1   7   92.79    6.00
   1  -1  -7   99.29    6.00
   1   1  -7  103.09    6.00
   1   1  -7  116.09    6.10
  -1   1   7   99.69    6.10
   0  -1   7  455.85   30.00
   0  -1  -7  540.05   30.00
   0   1   7  520.55   30.10
   0   1  -7  548.65   30.20
  -1  -1  -7  943.01   52.59
   1  -1   7  879.21   52.59
  -1  -1  -7  846.32   52.59
  -1   1  -7  950.30   52.49
  -1   1  -7  825.32   52.69
   1   1   7  979.50   52.59
  -2  -1  -7   29.90    1.90
  -2  -1  -7   28.60    1.90
   2  -1   7   31.00    1.90
  -2   1  -7   31.50    2.00
   2   1   7   31.90    1.90
  -2   1  -7   29.70    1.80
  -3  -1  -7  481.15   27.10
  -3  -1  -7  492.35   27.10
   3  -1   7  442.06   27.00
  -3   1  -7  436.06   27.10
   3   1   7  465.55   27.10
  -4  -1  -7  191.48   12.00
   4  -1   7  201.98   11.90
  -4  -1  -7  207.68   12.00
  -4   1  -7  203.88   12.00
   4   1   7  208.68   12.00
  -5  -1  -7  249.48   14.90
   5  -1   7  268.67   14.80
  -5   1  -7  216.88   14.90
   5   1   7  272.57   14.90
  -6  -1  -7   72.79    4.10
   6  -1   7   63.59    4.00
   6   1   7   64.29    4.00
  -6   1  -7   59.19    4.10
   7  -1   7  228.48   13.60
  -7  -1  -7  221.38   13.70
   7   1   7  231.18   13.60
  -7   1  -7  243.48   13.80
  -8  -1  -7  131.09    7.90
   8  -1   7  126.69    7.70
  -8   1  -7  131.99    7.90
   8   1   7  125.89    7.70
  -9  -1  -7   60.39    4.10
   9  -1   7   59.89    3.90
   9   1   7   67.79    3.90
  -9   1  -7   61.49    4.10
  10  -1   7   78.39    4.90
 -10  -1  -7   79.79    5.10
 -10   1  -7   76.09    5.10
  10   1   7   81.49    4.90
  11  -1   7   94.39    5.90
 -11  -1  -7  101.19    6.10
  11   1   7   94.29    5.90
 -11   1  -7   95.59    6.20
 -12  -1  -7   74.49    4.50
  12  -1   7   62.49    4.20
 -12   1  -7   65.39    4.50
  13  -1   7    7.20    0.90
 -13  -1  -7    9.00    1.20
 -13   1  -7    7.40    1.20
  15   2  -7    5.90    1.20
 -14  -2   7   34.60    2.70
  14   2  -7   34.50    2.80
 -13  -2   7   29.00    2.30
  13   2  -7   27.90    2.40
  12  -2  -7   55.19    3.60
 -12  -2   7   59.69    3.90
  12   2  -7   58.99    4.00
 -12   2   7   55.89    4.20
 -11  -2   7   13.40    1.30
  11  -2  -7   15.70    1.20
  11   2  -7   13.80    1.40
 -11   2   7   14.20    1.30
  10  -2  -7   53.29    3.20
 -10  -2   7   57.29    3.50
  10  -2  -7   45.00    3.30
  10   2  -7   50.39    3.50
 -10   2   7   53.59    3.30
  -9  -2   7   92.09    5.80
   9  -2  -7   93.69    5.60
  -9   2   7   96.39    5.80
  -9   2   7   91.69    5.70
   9   2  -7   92.49    5.90
  -8  -2   7   34.40    2.40
   8  -2  -7   36.30    2.30
  -8   2   7   36.40    2.40
  -8   2   7   35.80    2.30
   8   2  -7   32.80    2.50
  -7  -2   7  148.69    8.60
   7  -2  -7  138.49    8.40
  -7   2   7  139.09    8.50
   7   2  -7  139.09    8.60
  -6  -2   7   38.00    2.40
   6  -2  -7   33.80    2.30
  -6   2   7   33.20    2.40
   6   2  -7   35.40    2.40
  -6   2   7   36.40    2.20
   5  -2  -7   20.70    1.50
  -5  -2   7   20.50    1.50
  -5   2   7   21.70    1.40
   5   2  -7   22.70    1.60
  -5   2   7   21.60    1.60
  -4  -2   7   48.90    3.10
  -4  -2   7   50.59    2.90
   4  -2  -7   50.99    3.10
   4   2  -7   49.60    3.10
  -4   2   7   43.60    3.10
   3  -2  -7  228.18   13.70
  -3  -2   7  218.28   13.80
   3   2  -7  242.58   13.80
  -3   2   7  243.38   13.80
   2  -2  -7   41.10    2.70
  -2  -2   7   46.30    2.80
  -2  -2   7   37.60    2.60
  -2   2   7   41.80    2.80
   2   2  -7   48.50    2.80
  -1  -2   7   36.10    2.40
   1  -2  -7   42.50    2.60
   1   2  -7   42.40    2.60
  -1   2   7   35.60    2.60
   1   2  -7   43.10    2.60
   0  -2   7  129.29    7.70
   0  -2  -7  114.89    7.80
   0   2  -7  121.59    7.70
   0   2   7  146.09    7.90
   0   2  -7  141.29    7.90
   1  -2   7  111.49    6.30
  -1  -2  -7  102.69    6.10
  -1   2  -7   99.99    6.20
   1   2   7  106.29    6.30
  -1   2  -7  102.29    6.30
   2  -2   7  111.99    6.20
  -2  -2  -7  102.39    6.30
   2  -2   7   97.19    6.10
  -2  -2  -7   99.39    6.10
   2   2   7   98.99    6.20
  -2   2  -7  106.99    6.30
   3  -2   7   83.79    4.70
  -3  -2  -7   76.99    4.60
  -3  -2  -7   66.29    4.70
   3   2   7   71.69    4.70
  -3   2  -7   82.29    4.80
   4  -2   7  184.38   11.60
  -4  -2  -7  221.78   11.60
  -4  -2  -7  190.48   11.80
   4   2   7  192.88   11.70
  -4   2  -7  193.78   11.80
  -5  -2  -7  184.08   11.70
  -5  -2  -7  213.78   11.60
   5  -2   7  188.98   11.60
  -5   2  -7  192.38   11.70
   5   2   7  199.28   11.70
   6  -2   7  106.59    6.10
  -6  -2  -7   93.19    6.20
  -6  -2  -7  107.19    6.20
   6   2   7   94.89    6.20
  -6   2  -7  102.79    6.30
  -7  -2  -7  161.28    9.80
   7  -2   7  160.68    9.70
  -7  -2  -7  165.28    9.90
   7   2   7  159.68    9.80
  -7   2  -7  168.08    9.90
   8  -2   7   19.20    1.40
  -8  -2  -7   15.70    1.60
  -8  -2  -7   18.50    1.50
  -8   2  -7   17.50    1.50
   8   2   7   18.70    1.40
   9  -2   7    9.00    0.90
  -9  -2  -7    8.10    0.90
  -9   2  -7    6.50    1.00
   9   2   7    6.70    0.80
  10  -2   7  119.99    7.40
 -10  -2  -7  125.49    7.60
 -10   2  -7  121.59    7.70
 -11  -2  -7  111.89    7.10
  11  -2   7  116.09    7.00
 -11   2  -7  113.89    7.30
 -12  -2  -7   68.19    4.30
  12  -2   7   62.59    4.10
 -12   2  -7   59.39    4.40
 -13  -2  -7   18.50    1.80
 -13  -3   7   41.10    2.90
  13   3  -7   33.20    3.00
 -12  -3   7   66.79    4.30
  12   3  -7   57.89    4.40
  11  -3  -7   51.29    3.50
 -11  -3   7   56.29    3.70
  11   3  -7   52.19    3.80
  10  -3  -7   36.40    2.30
 -10  -3   7   30.50    2.50
  10   3  -7   35.60    2.70
   9  -3  -7   14.20    1.20
  -9  -3   7   13.20    1.30
  -9   3   7   15.90    1.40
   9   3  -7   13.80    1.40
   8  -3  -7   47.20    3.00
  -8  -3   7   47.40    3.20
   8   3  -7   47.20    3.30
  -8   3   7   47.50    3.30
  -7  -3   7  113.09    6.70
   7  -3  -7  106.39    6.50
   7   3  -7  104.39    6.70
  -7   3   7  105.29    6.70
   6  -3  -7   48.20    3.00
  -6  -3   7   46.20    3.10
  -6   3   7   46.80    3.20
   6   3  -7   44.70    3.20
  -5  -3   7    8.60    0.90
   5  -3  -7    7.70    0.90
  -5   3   7    8.40    1.00
   5   3  -7    7.50    1.00
  -4  -3   7   10.70    1.00
  -3  -3   7   14.70    1.20
  -3  -3   7   12.20    1.00
   3  -3  -7   14.60    1.20
   3   3  -7   14.00    1.20
  -3   3   7   13.70    1.20
  -2  -3   7   29.90    2.00
  -2  -3   7   28.00    1.90
   2  -3  -7   28.70    2.00
   2   3  -7   26.70    2.00
  -2   3   7   28.20    2.10
  -1  -3   7   26.20    1.90
   1  -3  -7   26.00    1.90
  -1  -3   7   27.10    1.80
   1   3  -7   27.10    1.90
  -1   3   7   28.00    2.00
   0  -3   7   68.69    4.50
   0  -3   7   71.49    4.40
   0  -3  -7   77.49    4.60
   0   3  -7   71.29    4.50
   0   3   7   68.69    4.50
   1  -3   7  145.19    8.40
   1  -3   7  134.19    8.50
  -1  -3  -7  142.89    8.60
  -1   3  -7  144.39    8.50
   1   3   7  137.49    8.60
  -2  -3  -7   23.20    1.90
   2  -3   7   23.00    1.70
  -2   3  -7   26.10    1.80
   2   3   7   26.20    1.90
  -3  -3  -7   30.30    2.20
   3  -3   7   28.30    2.00
   3   3   7   26.70    2.00
  -3   3  -7   27.50    2.00
  -4  -3  -7   19.10    1.60
   4   3   7   14.30    1.30
   5  -3   7   57.49    3.30
  -5  -3  -7   51.69    3.50
  -5   3  -7   50.09    3.40
   5   3   7   43.00    3.30
  -6  -3  -7   77.29    5.20
   6  -3   7   81.79    5.00
   6   3   7   80.89    5.10
  -6   3  -7   81.89    5.20
   7  -3   7    6.60    0.80
  -7  -3  -7    6.00    1.00
   7   3   7    6.70    0.90
  -7   3  -7    6.70    1.00
   8  -3   7    5.40    0.80
  -8  -3  -7    4.00    0.90
  -8   3  -7    4.10    0.80
   8   3   7    5.30    0.80
   9  -3   7   18.30    1.60
  -9   3  -7   21.30    1.80
  10  -3   7    2.50    0.70
 -10   3  -7    1.90    0.80
  11  -3   7    1.10    0.60
 -11   3  -7    1.90    0.80
  11  -4  -7   19.30    1.80
 -11  -4   7   21.80    1.90
 -10  -4   7    6.70    1.10
  10   4  -7    7.40    1.30
  -9  -4   7   23.20    2.00
   9  -4  -7   27.20    1.90
  -9   4   7   26.80    2.30
   9   4  -7   23.90    2.20
  -8  -4   7   25.90    2.00
   8  -4  -7   22.20    1.80
   8   4  -7   24.10    2.20
  -8   4   7   22.60    2.10
   7  -4  -7   22.90    1.70
  -7  -4   7   19.40    1.80
  -7   4   7   21.30    1.90
   7   4  -7   24.60    2.00
  -6  -4   7   20.90    1.70
   6  -4  -7   21.70    1.70
   6   4  -7   20.10    1.80
  -6   4   7   19.90    1.80
   5  -4  -7    7.20    1.00
  -5  -4   7    6.80    0.90
  -5   4   7    6.60    1.10
   5   4  -7    6.20    1.00
  -4  -4   7   30.70    2.20
   4  -4  -7   30.60    2.30
   4   4  -7   29.90    2.40
  -4   4   7   32.90    2.40
  -3  -4   7   27.40    2.30
  -3  -4   7   27.10    2.10
   3  -4  -7   28.90    2.10
  -3   4   7   30.40    2.30
  -2  -4   7   73.39    4.90
  -2  -4   7   76.49    4.80
   2  -4  -7   73.69    4.80
  -2  -4   7   80.19    4.80
  -2   4   7   69.89    4.90
  -1  -4   7   28.10    2.00
  -1  -4   7   22.00    1.90
  -1  -4   7   25.80    1.80
   1  -4  -7   25.00    2.00
  -1   4   7   24.50    2.00
   0  -4   7   10.00    1.10
   0  -4   7   10.10    1.20
   0  -4   7   11.60    1.00
   0  -4  -7   11.00    1.30
   0   4   7   12.10    1.30
   1  -4   7   13.90    1.20
  -1  -4  -7   15.20    1.50
  -1   4  -7   13.60    1.30
   1   4   7   12.70    1.30
   2  -4   7   14.20    1.30
  -2  -4  -7   12.50    1.40
  -2   4  -7   14.10    1.30
   2   4   7   13.60    1.30
  -3  -4  -7    3.00    0.80
   3  -4   7    4.20    0.70
  -3   4  -7    4.10    0.80
   3   4   7    4.00    0.80
  -4  -4  -7   38.10    2.90
   4  -4   7   40.30    2.70
  -4   4  -7   37.90    2.70
   4   4   7   32.20    2.70
   5  -4   7   24.50    1.80
  -5  -4  -7   19.60    1.90
  -5   4  -7   21.00    1.80
   5   4   7   19.10    1.80
   6  -4   7    1.00    0.50
  -6  -4  -7    0.90    0.70
   6   4   7    0.40    0.50
  -7  -4  -7   17.70    2.00
   7  -4   7   20.80    1.70
   8  -4   7    1.60    0.70
  -8  -4  -7    0.00    0.80
  -9  -4  -7    9.20    1.40
   7  -5  -7    1.10    0.60
  -6  -5   7   12.00    1.70
   6  -5  -7   13.80    1.40
  -6   5   7    8.90    1.50
   5  -5  -7    8.80    1.20
  -5  -5   7    6.70    1.30
  -5   5   7    5.70    1.20
   4  -5  -7    9.10    1.20
  -4  -5   7   10.50    1.50
  -4   5   7    8.60    1.40
  -3  -5   7   17.10    1.90
   3  -5  -7   18.40    1.80
  -3   5   7   19.10    2.00
  -2  -5   7    9.30    1.40
   2  -5  -7   10.60    1.40
  -2   5   7    8.60    1.30
   1  -5  -7    2.70    0.90
  -1   5   7    2.60    0.90
   0  -5   7    8.30    1.50
   0  -5  -7    4.90    1.00
   0   5   7    3.70    1.00
   1  -5   7    2.50    0.70
  -1  -5  -7    2.50    0.90
   1   5   7    1.20    0.80
   2  -5   7    5.80    0.90
  -2  -5  -7    4.10    1.00
   2   5   7    4.10    0.90
  -3  -5  -7   18.10    2.00
   3  -5   7   20.50    1.80
   3   5   7   19.10    1.80
  -4  -5  -7   14.10    1.80
   4  -5   7   12.10    1.40
   4   5   7    9.50    1.40
  15   0  -8    7.60    1.20
 -15   0   8    8.80    1.20
  14   0  -8   20.80    1.70
 -14   0   8   20.30    1.80
  13   0  -8   12.60    1.20
 -13   0   8   13.50    1.30
 -12   0   8   15.40    1.30
  12   0  -8   12.50    1.20
  11   0  -8   46.10    3.10
 -11   0   8   47.50    3.20
 -10   0   8  118.39    7.10
  10   0  -8  111.29    6.90
  -9   0   8    1.90    0.50
   8   0  -8  408.46   23.60
  -8   0   8  398.66   23.70
  -7   0   8   42.60    2.70
   7   0  -8   42.60    2.70
  -6   0   8   56.69    3.40
  -6   0   8   51.39    3.20
   6   0  -8   53.19    3.30
  -5   0   8   82.49    5.10
  -5   0   8   79.69    5.00
   5   0  -8   91.89    5.10
   4   0  -8  165.68    9.20
  -4   0   8  155.18    9.30
  -4   0   8  149.88    9.20
   3   0  -8  401.26   23.10
  -3   0   8  398.16   23.10
  -3   0   8  387.96   23.10
  -2   0   8 1367.36   78.19
   2   0  -8 1324.57   78.49
  -2   0   8 1340.97   78.19
   1   0  -8  265.07   15.70
   1   0  -8  272.27   15.70
  -1   0   8  267.67   15.70
   0   0  -8 1309.57   72.29
   0   0   8 1291.57   72.39
   0   0  -8 1126.19   72.29
   1   0   8  105.69    6.20
  -1   0  -8  105.69    6.30
  -2   0  -8  169.18   10.10
   2   0   8  173.18   10.10
  -3   0  -8    0.30    0.20
   3   0   8    0.60    0.20
  -3   0  -8    1.00    0.10
   4   0   8  742.93   38.60
  -4   0  -8  589.94   38.60
  -4   0  -8  651.43   38.50
  -5   0  -8   20.00    1.40
   5   0   8   18.00    1.30
  -6   0  -8  283.97   16.10
   6   0   8  259.37   15.90
  -7   0  -8  197.18   11.80
   7   0   8  195.58   11.60
  -8   0  -8  132.39    7.70
   8   0   8  117.99    7.50
  -9   0  -8   28.70    2.10
   9   0   8   24.30    1.80
  10   0   8   34.50    2.30
 -10   0  -8   34.70    2.60
  11   0   8    8.80    0.90
 -11   0  -8    7.10    1.10
 -12   0  -8    0.80    0.70
  12   0   8    0.70    0.40
 -13   0  -8   85.79    5.70
 -15  -1   8    3.20    0.90
 -15   1   8    4.60    0.90
  15   1  -8    4.30    0.90
 -14  -1   8    1.70    0.70
  14   1  -8    2.50    0.70
 -14   1   8    1.20    0.60
  13  -1  -8    2.90    0.60
 -13  -1   8    4.40    0.80
  13   1  -8    2.70    0.70
 -13   1   8    2.30    0.70
  12  -1  -8   43.30    2.90
 -12  -1   8   46.10    3.10
  12   1  -8   44.60    3.10
 -12   1   8   45.70    3.10
 -11  -1   8  282.77   16.90
  11  -1  -8  294.87   16.80
 -11   1   8  279.07   16.90
  11   1  -8  278.87   16.90
 -10  -1   8  107.59    6.90
  10  -1  -8  114.99    6.70
  10   1  -8  113.09    6.90
 -10   1   8  108.99    6.80
   9  -1  -8  218.48   12.80
  -9  -1   8  211.78   13.00
   9   1  -8  226.38   13.00
  -9   1   8  214.08   12.90
   8  -1  -8   68.79    4.20
  -8  -1   8   70.89    4.40
   8   1  -8   72.79    4.40
  -8   1   8   67.39    4.30
  -8   1   8   70.49    4.30
  -7  -1   8  227.08   13.70
   7  -1  -8  250.87   13.60
  -7   1   8  216.18   13.60
  -7   1   8  232.28   13.60
   7   1  -8  226.18   13.70
  -6  -1   8  245.98   13.30
   6  -1  -8  213.48   13.20
  -6   1   8  210.38   13.20
   6   1  -8  217.68   13.30
  -6   1   8  237.38   13.20
   5  -1  -8  365.06   21.90
  -5  -1   8  396.16   22.00
  -5   1   8  351.56   22.00
   5   1  -8  394.56   22.00
  -5   1   8  368.46   21.90
   4  -1  -8   26.70    1.80
  -4  -1   8   27.30    1.90
   4   1  -8   30.50    1.80
  -4   1   8   26.50    1.80
  -3  -1   8   82.59    4.80
   3  -1  -8   70.69    4.90
  -3  -1   8   90.39    5.00
  -3   1   8   78.89    4.90
   3   1  -8   88.49    4.90
  -2  -1   8  911.21   57.49
   2  -1  -8  886.71   57.59
   2   1  -8 1098.69   57.59
  -2   1   8 1029.80   57.59
  -2   1   8 1024.90   57.59
   1  -1  -8  196.98   12.60
  -1  -1   8  234.28   12.60
   1  -1  -8  243.78   12.60
   1   1  -8  212.68   12.60
   1   1  -8  200.18   12.70
  -1   1   8  201.28   12.70
   0  -1   8  420.76   26.90
   0  -1  -8  511.95   26.90
   0  -1  -8  472.15   27.00
   0   1   8  492.05   27.00
   0   1  -8  411.36   27.00
   1  -1   8  137.89    8.30
  -1  -1  -8  135.99    8.30
  -1  -1  -8  137.59    8.40
   1   1   8  143.29    8.40
  -1   1  -8  144.29    8.40
  -1   1  -8  147.99    8.30
   2  -1   8   96.59    5.40
  -2  -1  -8   84.39    5.40
  -2  -1  -8   99.59    5.50
  -2   1  -8   90.19    5.30
   2   1   8   98.19    5.50
  -2   1  -8   75.49    5.50
  -3  -1  -8  328.17   18.40
   3  -1   8  311.27   18.30
  -3  -1  -8  299.77   18.40
  -3   1  -8  325.17   18.50
   3   1   8  304.77   18.40
   4  -1   8  107.69    6.00
  -4  -1  -8   95.89    6.00
  -4   1  -8   96.69    6.10
   4   1   8   99.59    6.00
  -5  -1  -8  342.77   19.80
   5  -1   8  323.17   19.70
   5   1   8  353.86   19.70
  -5   1  -8  325.07   19.80
  -6  -1  -8  103.89    6.80
   6  -1   8  113.29    6.70
  -6   1  -8  114.59    6.90
   6   1   8  119.09    6.80
  -7  -1  -8    5.80    0.80
   7  -1   8    7.60    0.80
   7   1   8    6.50    0.70
  -7   1  -8    4.40    0.70
  -8  -1  -8   10.60    1.10
   8  -1   8   13.60    1.00
  -8   1  -8   11.10    1.20
   8   1   8   11.20    1.00
  -9  -1  -8   91.49    5.90
   9  -1   8   91.69    5.70
   9   1   8   93.09    5.70
  -9   1  -8   97.79    6.00
  10  -1   8   23.90    1.90
 -10  -1  -8   27.90    2.10
  10   1   8   26.80    1.90
 -10   1  -8   29.20    2.20
  11  -1   8   47.90    3.20
 -11  -1  -8   47.20    3.40
 -11   1  -8   49.10    3.50
  11   1   8   51.19    3.20
 -12  -1  -8    0.70    0.70
  12  -1   8    0.60    0.40
 -12   1  -8    2.10    0.80
  13  -1   8    2.30    0.60
 -13  -1  -8    3.90    0.90
  15   2  -8    5.00    1.20
 -14  -2   8   43.30    3.00
  14   2  -8   34.80    3.00
 -13  -2   8  114.09    7.20
  13   2  -8  112.59    7.30
 -12  -2   8   70.79    4.50
  12  -2  -8   67.59    4.20
  12   2  -8   64.19    4.50
 -11  -2   8  184.58   10.70
  11  -2  -8  165.58   10.40
  11   2  -8  178.48   10.80
 -10  -2   8  241.58   14.50
  10  -2  -8  239.68   14.20
  10   2  -8  241.18   14.50
  -9  -2   8   62.19    4.10
   9  -2  -8   64.09    4.00
   9   2  -8   65.39    4.20
  -9   2   8   64.89    4.10
   8  -2  -8  202.18   12.10
  -8  -2   8  205.88   12.30
   8   2  -8  199.98   12.30
  -8   2   8  210.38   12.20
   7  -2  -8  412.46   23.70
  -7  -2   8  413.36   23.80
   7   2  -8  373.56   23.80
  -7   2   8  418.26   23.80
   6  -2  -8   33.40    2.20
  -6  -2   8   35.30    2.30
   6   2  -8   33.60    2.40
  -6   2   8   34.80    2.30
   5  -2  -8  134.29    7.60
  -5  -2   8  122.29    7.70
   5   2  -8  124.89    7.70
  -5   2   8  127.99    7.70
  -4  -2   8   29.20    1.90
  -4   2   8   24.80    1.90
   4   2  -8   27.50    1.90
  -3  -2   8   84.99    5.40
   3  -2  -8   90.69    5.30
  -3  -2   8   85.99    5.20
  -3   2   8   88.09    5.40
   3   2  -8   88.19    5.40
  -2  -2   8   60.79    3.70
   2  -2  -8   65.39    3.90
  -2  -2   8   61.09    3.90
  -2   2   8   60.39    3.90
   2   2  -8   63.19    3.90
   1  -2  -8  328.07   19.20
  -1  -2   8  304.87   19.10
   1   2  -8  346.17   19.20
   1   2  -8  329.87   19.30
  -1   2   8  327.77   19.30
   0  -2   8   97.49    5.50
   0  -2  -8  101.69    5.60
   0   2   8   85.99    5.60
   0   2  -8   81.59    5.60
  -1  -2  -8   57.69    3.30
   1  -2   8   46.80    3.30
  -1   2  -8   61.29    3.50
  -1   2  -8   53.69    3.30
   1   2   8   55.29    3.50
   2  -2   8  114.69    6.40
   2  -2   8  100.49    6.40
  -2  -2  -8  102.19    6.50
  -2  -2  -8  113.59    6.40
  -2   2  -8  108.29    6.60
   2   2   8  105.19    6.50
  -3  -2  -8   36.60    2.20
  -3  -2  -8   37.50    2.40
   3  -2   8   33.50    2.20
  -3   2  -8   31.90    2.30
   3   2   8   33.30    2.30
  -4  -2  -8   19.40    1.60
  -4  -2  -8   21.30    1.50
   4  -2   8   20.80    1.50
   4   2   8   21.90    1.50
  -4   2  -8   22.30    1.60
   5  -2   8   34.50    2.30
  -5  -2  -8   37.60    2.40
  -5  -2  -8   39.70    2.50
   5   2   8   34.20    2.40
  -5   2  -8   35.10    2.50
  -6  -2  -8   68.89    4.70
  -6  -2  -8   78.69    4.60
   6  -2   8   77.79    4.60
   6   2   8   72.89    4.70
  -6   2  -8   74.69    4.80
  -7  -2  -8   23.00    1.70
   7  -2   8   25.80    1.80
  -7  -2  -8   23.60    1.80
   7   2   8   23.90    1.80
  -7   2  -8   24.30    1.90
   8  -2   8    3.60    0.60
  -8  -2  -8    2.60    0.60
  -8   2  -8    2.20    0.70
   8   2   8    4.40    0.70
  -9  -2  -8    1.30    0.50
   9  -2   8    1.00    0.50
  -9   2  -8    1.00    0.60
   9   2   8    1.40    0.50
 -10  -2  -8   20.90    1.70
  10  -2   8   22.30    1.70
  10   2   8   19.00    1.70
 -10   2  -8   19.80    1.90
 -11  -2  -8    6.70    1.00
  11  -2   8    6.30    0.90
 -11   2  -8    6.50    1.10
  12  -2   8   35.40    2.50
 -12   2  -8   38.50    3.10
 -13  -3   8   24.50    2.20
  13   3  -8   25.30    2.30
 -12  -3   8   29.10    2.30
  12   3  -8   25.70    2.40
  11  -3  -8    6.00    0.90
  11  -3  -8    4.20    0.70
 -11  -3   8    4.20    0.90
  11   3  -8    5.90    1.00
 -10  -3   8   11.60    1.30
  10  -3  -8    9.60    1.00
 -10   3   8   11.40    1.30
  10   3  -8    9.00    1.30
  -9  -3   8   48.40    3.10
   9  -3  -8   43.30    2.90
  -9   3   8   41.40    3.10
   9   3  -8   45.60    3.20
   8  -3  -8   35.70    2.40
  -8  -3   8   36.10    2.50
   8   3  -8   31.60    2.60
  -8   3   8   36.50    2.60
   7  -3  -8   33.30    2.20
  -7  -3   8   31.90    2.30
   7   3  -8   30.60    2.40
  -7   3   8   33.70    2.40
  -6  -3   8  176.38   10.70
   6  -3  -8  193.08   10.60
  -6   3   8  177.68   10.70
   6   3  -8  158.38   10.70
   5  -3  -8   63.29    3.80
  -5  -3   8   62.99    3.90
   5   3  -8   57.89    4.00
  -5   3   8   56.29    3.90
  -4   3   8   19.30    1.60
   3  -3  -8   33.00    2.30
  -3  -3   8   39.40    2.20
  -3  -3   8   31.10    2.30
   3   3  -8   31.20    2.40
  -3   3   8   33.50    2.40
   2  -3  -8    1.80    0.50
  -2  -3   8    2.00    0.40
  -2  -3   8    1.40    0.50
  -2   3   8    2.70    0.60
   2   3  -8    2.50    0.50
  -1  -3   8  173.18    9.70
   1  -3  -8  149.59    9.70
  -1  -3   8  138.69    9.50
  -1   3   8  162.08    9.70
   1   3  -8  181.68    9.70
   0  -3   8   29.70    2.10
   0  -3  -8   37.80    2.40
   0  -3   8   29.70    2.20
   0   3  -8   33.10    2.30
   0   3   8   33.30    2.30
   1  -3   8   42.40    2.80
  -1  -3  -8   42.30    2.90
   1  -3   8   39.60    2.70
  -1   3  -8   45.90    2.90
   1   3   8   44.50    2.90
   2  -3   8   85.79    5.20
  -2  -3  -8   79.99    5.40
   2   3   8   84.79    5.40
  -2   3  -8   90.39    5.40
   3  -3   8    2.10    0.50
  -3  -3  -8    1.70    0.60
  -3   3  -8    2.20    0.50
   3   3   8    1.20    0.50
  -4  -3  -8   17.00    1.50
   4  -3   8   18.70    1.30
  -4   3  -8   15.80    1.40
   4   3   8   13.40    1.30
  -5  -3  -8   21.80    2.00
   5  -3   8   27.60    1.80
  -5   3  -8   27.70    2.00
   5   3   8   23.80    1.90
  -6  -3  -8   20.60    1.80
   6  -3   8   20.10    1.60
   6   3   8   19.90    1.60
  -6   3  -8   21.00    1.70
   7  -3   8   60.79    3.60
  -7  -3  -8   49.90    3.80
  -7   3  -8   51.89    3.70
   7   3   8   55.69    3.70
   8  -3   8   32.60    2.20
  -8  -3  -8   25.40    2.30
  -8   3  -8   30.10    2.30
   8   3   8   28.70    2.20
   9  -3   8    2.60    0.60
  -9   3  -8    1.90    0.70
  10  -3   8    5.50    0.90
 -10   3  -8    7.20    1.20
  11  -4  -8    6.10    1.00
 -11  -4   8    6.60    1.10
 -10  -4   8    7.80    1.20
 -10   4   8    7.50    1.30
  10   4  -8    8.70    1.40
  -9  -4   8    3.30    0.80
   9  -4  -8    4.20    0.70
   9   4  -8    4.30    1.00
  -9   4   8    2.50    0.90
   8  -4  -8   21.60    1.70
  -8  -4   8   22.90    1.80
  -8   4   8   18.40    1.80
   8   4  -8   19.30    1.90
  -7  -4   8   44.80    3.20
   7  -4  -8   49.70    3.10
  -7   4   8   45.00    3.40
   7   4  -8   44.80    3.40
   6  -4  -8   21.20    1.70
  -6  -4   8   19.90    1.70
   6   4  -8   21.30    1.90
  -6   4   8   21.80    1.90
   5  -4  -8   35.20    2.40
  -5  -4   8   30.60    2.40
  -5   4   8   33.90    2.60
   5   4  -8   30.90    2.50
  -4  -4   8   82.69    5.50
   4  -4  -8   93.69    5.60
  -4   4   8   81.19    5.60
   4   4  -8   90.39    5.70
   3  -4  -8    5.50    0.90
  -3  -4   8    4.90    0.80
  -3  -4   8    6.20    1.00
  -3   4   8    5.00    0.90
  -2  -4   8   32.20    2.30
  -2  -4   8   32.10    2.40
   2  -4  -8   27.90    2.30
  -2   4   8   28.70    2.30
  -1  -4   8   23.40    1.70
  -1  -4   8   24.30    1.90
   1  -4  -8   26.70    2.00
  -1  -4   8   22.80    1.90
  -1   4   8   23.90    2.00
   0  -4   8   13.40    1.10
   0  -4  -8   11.80    1.30
   0  -4   8   11.50    1.30
   0   4   8   11.10    1.30
  -1  -4  -8   20.90    2.00
   1  -4   8   26.80    1.80
   1   4   8   26.60    2.00
  -1   4  -8   23.40    1.90
  -2  -4  -8   37.50    2.70
   2  -4   8   38.10    2.50
  -2   4  -8   33.80    2.60
   2   4   8   35.80    2.70
   3  -4   8   20.70    1.60
  -3  -4  -8   16.30    1.70
   3   4   8   18.50    1.70
  -3   4  -8   20.40    1.70
   4  -4   8   21.60    1.70
  -4  -4  -8   24.40    2.00
  -4   4  -8   22.30    1.90
   4   4   8   21.90    1.90
   5  -4   8    9.50    1.10
  -5  -4  -8    6.30    1.20
   5   4   8    6.10    1.00
  -5   4  -8    5.60    1.00
  -6  -4  -8   40.60    2.90
   6  -4   8   37.80    2.60
   6   4   8   31.70    2.70
  -6   4  -8   34.20    2.70
   7  -4   8   12.30    1.30
  -7  -4  -8   12.50    1.60
  -7   4  -8   13.10    1.60
  -8  -4  -8   15.60    2.00
   8  -4   8   24.20    1.80
  -9  -4  -8    9.30    1.70
   7  -5  -8    4.20    0.80
   6  -5  -8    2.80    0.80
  -6  -5   8    2.70    1.00
  -6   5   8    2.70    1.00
   5  -5  -8   47.70    3.30
  -5  -5   8   43.80    3.60
  -5   5   8   45.50    3.50
  -4  -5   8    0.10    0.80
   4  -5  -8    2.50    0.80
  -4   5   8    3.10    1.00
   3  -5  -8   34.60    2.60
  -3  -5   8   32.40    2.70
  -3   5   8   29.60    2.70
   2  -5  -8    1.40    0.80
  -2   5   8    0.50    0.70
   1  -5  -8   18.50    1.90
  -1   5   8   17.90    1.90
   0  -5  -8    8.70    1.30
   0   5   8    5.70    1.20
   1  -5   8    7.20    1.00
  -1  -5  -8    7.30    1.30
   1   5   8    5.80    1.10
  -2  -5  -8    1.00    0.70
   2  -5   8    1.20    0.60
   2   5   8    1.00    0.60
   3  -5   8   16.60    1.50
  -3  -5  -8   15.30    1.80
   3   5   8   11.30    1.60
   4  -5   8    3.30    0.80
   4   5   8    3.90    1.00
 -15   0   9    7.40    1.20
  15   0  -9    6.70    1.00
 -14   0   9    8.70    1.10
  14   0  -9    7.80    1.00
 -13   0   9    4.80    0.80
  13   0  -9    4.30    0.80
 -12   0   9   26.30    2.00
  12   0  -9   24.80    1.90
  11   0  -9   30.50    2.10
 -11   0   9   30.60    2.20
  10   0  -9  281.47   16.40
 -10   0   9  273.97   16.50
   9   0  -9 1257.47   71.29
  -9   0   9 1190.78   71.39
   8   0  -9  428.66   25.60
  -8   0   9  447.26   25.70
  -7   0   9   88.19    5.10
   7   0  -9   85.29    5.20
  -7   0   9   86.59    5.30
  -6   0   9   34.70    2.20
  -6   0   9   37.80    2.30
  -5   0   9    4.40    0.50
  -5   0   9    3.70    0.40
   5   0  -9    4.30    0.40
  -4   0   9  115.69    6.70
   4   0  -9  109.89    6.70
  -4   0   9  112.19    6.60
  -3   0   9 1100.69   64.19
  -3   0   9 1227.18   64.29
   3   0  -9  985.70   64.29
  -2   0   9   37.30    2.40
  -2   0   9   38.30    2.30
   2   0  -9   37.90    2.30
  -1   0   9   78.79    4.80
   1   0  -9   78.29    4.70
   1   0  -9   82.89    4.80
   0   0  -9   10.80    0.80
   0   0   9   11.40    0.80
   0   0  -9   10.50    0.70
   1   0   9  283.07   16.90
  -1   0  -9  295.27   17.00
   2   0   9   97.09    5.60
  -2   0  -9   96.79    5.60
  -2   0  -9   86.79    5.50
  -3   0  -9    0.70    0.30
   3   0   9    0.80    0.20
  -3   0  -9    1.00    0.10
   4   0   9   31.30    2.00
  -4   0  -9   30.20    2.10
   5   0   9   31.50    2.10
  -5   0  -9   34.00    2.20
  -6   0  -9    5.50    0.70
   6   0   9    6.00    0.60
  -7   0  -9    6.80    0.90
   7   0   9    9.70    0.80
  -8   0  -9   99.09    6.10
   8   0   9   94.39    5.90
   9   0   9   25.30    1.80
  -9   0  -9   27.80    2.10
 -10   0  -9    0.80    0.60
  10   0   9    1.80    0.50
  11   0   9   19.70    1.60
 -11   0  -9   24.70    2.00
 -12   0  -9    6.40    1.10
  12   0   9    5.00    0.80
  16   1  -9   30.10    2.70
 -15  -1   9   29.50    2.30
 -15   1   9   26.00    2.20
  15   1  -9   23.70    2.20
  14  -1  -9   10.20    1.10
 -14  -1   9   11.80    1.40
 -14   1   9   11.50    1.30
  14   1  -9   10.90    1.40
 -13  -1   9   48.40    3.20
  13  -1  -9   45.30    3.00
 -13   1   9   44.90    3.10
  13   1  -9   40.60    3.10
  12  -1  -9   20.00    1.50
 -12  -1   9   21.60    1.70
  12   1  -9   20.20    1.70
 -12   1   9   16.90    1.60
  11  -1  -9   49.70    3.20
 -11  -1   9   46.50    3.40
  11   1  -9   53.39    3.40
 -11   1   9   50.59    3.30
  10  -1  -9  157.28    9.50
 -10  -1   9  161.88    9.70
  10   1  -9  157.28    9.70
 -10   1   9  162.58    9.60
   9  -1  -9  392.66   23.00
  -9  -1   9  402.76   23.20
   9   1  -9  376.86   23.10
  -9   1   9  376.46   23.10
  -9   1   9  414.16   23.10
   8  -1  -9   14.00    1.10
  -8  -1   9   17.10    1.30
  -8   1   9   17.60    1.20
   8   1  -9   17.00    1.30
  -8   1   9   15.10    1.20
   7  -1  -9  182.58   10.80
  -7  -1   9  181.68   10.90
  -7   1   9  187.68   10.80
  -7   1   9  192.38   10.80
   7   1  -9  167.58   10.90
  -6  -1   9  269.07   15.80
   6  -1  -9  257.17   15.70
   6   1  -9  269.77   15.80
  -6   1   9  269.47   15.70
  -6   1   9  272.27   15.70
  -5  -1   9   41.70    2.30
   5  -1  -9   37.00    2.40
  -5  -1   9   40.40    2.60
  -5   1   9   35.50    2.40
  -5   1   9   36.80    2.50
   5   1  -9   42.50    2.50
   4  -1  -9  165.68    9.50
  -4  -1   9  178.18    9.40
  -4  -1   9  156.68    9.60
  -4   1   9  147.19    9.50
   4   1  -9  152.58    9.50
   3  -1  -9    7.40    0.60
  -3  -1   9    8.90    0.70
  -3  -1   9    7.10    0.50
   3   1  -9    6.30    0.60
  -3   1   9    5.90    0.60
  -2  -1   9   91.39    5.20
   2  -1  -9   85.09    5.30
   2   1  -9   84.19    5.40
   2   1  -9  101.89    5.30
  -2   1   9   91.59    5.30
  -2   1   9   74.19    5.20
   1  -1  -9   73.59    4.30
  -1  -1   9   72.79    4.30
   1  -1  -9   73.29    4.30
  -1   1   9   69.69    4.40
   1   1  -9   75.99    4.40
   1   1  -9   66.29    4.30
   0  -1   9    0.50    0.20
   0  -1  -9    0.70    0.20
   0  -1  -9    0.80    0.20
   0   1   9    0.80    0.20
   0   1  -9    0.80    0.30
   0   1  -9    0.30    0.10
   1  -1   9  181.28   10.10
  -1  -1  -9  166.58   10.10
  -1  -1  -9  170.68   10.10
   1   1   9  173.28   10.10
  -1   1  -9  164.18   10.20
  -1   1  -9  169.98   10.00
   2  -1   9  167.38    9.90
  -2  -1  -9  164.38   10.00
  -2  -1  -9  161.98   10.00
  -2   1  -9  170.58    9.90
   2   1   9  182.08   10.00
  -2   1  -9  164.18   10.00
  -3  -1  -9   70.39    4.30
   3  -1   9   67.39    4.30
  -3  -1  -9   75.89    4.30
  -3   1  -9   68.79    4.40
   3   1   9   71.09    4.30
  -4  -1  -9  126.19    7.20
   4  -1   9  116.99    7.10
   4   1   9  122.39    7.20
  -4   1  -9  111.69    7.20
   5  -1   9   14.10    1.00
  -5  -1  -9   13.50    1.10
   5   1   9   13.70    1.00
  -5   1  -9   13.10    1.10
  -6  -1  -9   75.99    4.70
   6  -1   9   73.19    4.60
  -6   1  -9   73.99    4.80
   6   1   9   77.69    4.60
   7  -1   9  155.98    9.60
  -7  -1  -9  156.98    9.70
  -7   1  -9  164.28    9.80
   7   1   9  167.28    9.60
   8  -1   9   70.99    4.20
  -8  -1  -9   63.49    4.30
  -8   1  -9   66.79    4.40
   8   1   9   67.29    4.20
   9  -1   9   29.80    2.00
  -9  -1  -9   27.90    2.10
   9   1   9   27.10    2.00
  -9   1  -9   27.60    2.20
 -10  -1  -9   25.30    2.00
  10  -1   9   23.20    1.80
  10   1   9   24.40    1.80
 -10   1  -9   27.70    2.20
  11  -1   9    4.10    0.70
 -11  -1  -9    3.70    0.90
  11   1   9    4.50    0.70
 -11   1  -9    5.60    1.10
  12  -1   9    8.10    1.00
 -12  -1  -9   10.60    1.30
 -12   1  -9    7.80    1.30
 -14  -2   9   23.10    2.00
  14   2  -9   23.40    2.10
 -13  -2   9   17.60    1.70
  13  -2  -9   17.60    1.40
  13   2  -9   14.10    1.60
  12  -2  -9   34.80    2.30
 -12  -2   9   33.90    2.60
  12   2  -9   34.30    2.60
  11  -2  -9   10.10    1.00
 -11  -2   9   10.70    1.20
  11   2  -9    9.90    1.30
  10  -2  -9   63.39    4.00
 -10  -2   9   62.19    4.20
  10   2  -9   63.99    4.30
 -10   2   9   67.89    4.20
   9  -2  -9    9.40    0.90
  -9  -2   9   10.30    1.00
   9   2  -9    9.90    1.00
  -9   2   9   10.60    1.00
   8  -2  -9   74.09    4.30
  -8  -2   9   71.89    4.50
  -8   2   9   73.49    4.50
   8   2  -9   61.39    4.50
  -7  -2   9   85.49    5.60
   7  -2  -9   96.29    5.50
  -7   2   9   91.09    5.60
   7   2  -9   89.19    5.70
   6  -2  -9  278.07   15.00
  -6  -2   9  229.68   15.10
   6   2  -9  255.27   15.10
  -6   2   9  250.17   15.10
   5  -2  -9  276.97   16.80
  -5  -2   9  281.87   16.90
   5   2  -9  283.77   16.90
  -5   2   9  298.27   16.90
   4  -2  -9  147.09    8.40
  -4  -2   9  146.69    8.30
  -4  -2   9  135.49    8.50
   4   2  -9  141.39    8.50
  -4   2   9  132.89    8.50
  -3  -2   9   14.40    0.90
   3  -2  -9   12.60    1.00
  -3  -2   9   13.00    1.10
   3   2  -9   13.20    1.10
  -3   2   9   14.10    1.10
  -2  -2   9   66.59    4.10
  -2  -2   9   69.89    4.30
   2  -2  -9   72.49    4.20
  -2   2   9   67.99    4.30
   2   2  -9   63.19    4.20
   1  -2  -9   53.99    3.50
  -1  -2   9   53.19    3.40
   1   2  -9   58.29    3.50
   1   2  -9   61.29    3.60
  -1   2   9   53.29    3.50
   0  -2   9  254.17   15.30
   0  -2  -9  236.98   15.40
   0   2  -9  281.17   15.50
   0   2   9  272.77   15.40
   1  -2   9  118.79    6.90
  -1  -2  -9  101.29    7.00
   1   2   9  118.39    7.00
  -1   2  -9  121.29    6.90
  -1   2  -9  116.69    7.00
  -2  -2  -9  106.89    5.90
   2  -2   9   98.29    5.70
  -2   2  -9   86.49    5.90
   2   2   9   89.19    5.80
  -3  -2  -9   29.10    1.80
   3  -2   9   27.70    1.80
  -3  -2  -9   27.10    1.90
  -3   2  -9   26.30    1.90
   3   2   9   25.20    1.90
  -4  -2  -9   31.20    2.30
  -4  -2  -9   33.60    2.10
   4  -2   9   36.50    2.20
   4   2   9   30.30    2.20
  -4   2  -9   31.10    2.30
  -5  -2  -9  145.29    8.00
   5  -2   9  129.79    7.90
  -5  -2  -9  141.99    8.10
   5   2   9  122.79    8.00
  -5   2  -9  123.69    8.10
  -6  -2  -9  135.19    8.30
   6  -2   9  140.99    8.20
   6   2   9  137.59    8.30
  -6   2  -9  134.19    8.40
  -7  -2  -9   14.80    1.30
   7  -2   9   16.00    1.20
  -7   2  -9   13.30    1.30
   7   2   9   14.30    1.30
  -8  -2  -9   16.00    1.30
   8  -2   9   17.00    1.30
   8   2   9   13.40    1.30
  -8   2  -9   15.80    1.50
  -9  -2  -9   31.10    2.40
   9  -2   9   34.90    2.30
   9   2   9   29.00    2.30
  -9   2  -9   35.30    2.50
  10  -2   9   24.40    1.70
 -10   2  -9   24.60    2.00
  10   2   9   19.40    1.80
  11  -2   9    2.10    0.60
 -11   2  -9    1.10    0.80
 -13  -3   9   18.40    1.80
  13   3  -9   18.60    2.30
 -12  -3   9   57.49    3.90
  12   3  -9   52.59    3.90
  11  -3  -9    6.80    0.90
 -11  -3   9    9.20    1.20
  11  -3  -9    7.50    0.90
  11   3  -9    8.30    1.30
  10  -3  -9    8.70    1.00
 -10  -3   9   10.50    1.30
 -10   3   9    8.30    1.20
  10   3  -9   11.60    1.40
  -9  -3   9   30.50    2.30
   9  -3  -9   30.70    2.10
  -9   3   9   29.20    2.30
   9   3  -9   29.30    2.40
   8  -3  -9   17.60    1.30
  -8  -3   9   16.70    1.40
  -8   3   9   16.00    1.50
   8   3  -9   14.40    1.50
   7  -3  -9   30.50    2.10
  -7  -3   9   29.90    2.20
  -7   3   9   27.80    2.20
   7   3  -9   31.60    2.30
   6  -3  -9  104.79    6.60
  -6  -3   9  117.69    6.70
  -6   3   9  108.69    6.70
   6   3  -9   99.89    6.70
   5  -3  -9   91.59    5.20
  -5  -3   9   81.09    5.30
  -5   3   9   81.89    5.30
   5   3  -9   77.89    5.30
   4  -3  -9  193.58   10.60
  -4  -3   9  170.28   10.60
   4   3  -9  170.58   10.70
  -4   3   9  169.58   10.70
   3  -3  -9  152.28    8.50
  -3  -3   9  117.79    8.40
   3   3  -9  141.19    8.50
  -3   3   9  144.69    8.50
   2  -3  -9   78.09    4.90
  -2  -3   9   75.79    4.80
  -2  -3   9   75.89    5.00
  -2   3   9   81.09    5.00
   2   3  -9   82.49    5.00
  -1  -3   9   29.90    2.30
   1  -3  -9   34.60    2.30
  -1  -3   9   31.80    2.10
  -1   3   9   29.80    2.30
   1   3  -9   35.60    2.30
   0  -3   9   99.99    6.10
   0  -3  -9  106.89    6.30
   0   3   9   97.59    6.30
   0   3  -9  100.59    6.30
   1  -3   9   13.90    1.20
  -1  -3  -9   17.20    1.40
  -1   3  -9   18.20    1.40
   1   3   9   17.20    1.40
   2  -3   9   32.70    2.10
  -2  -3  -9   30.20    2.20
  -2   3  -9   27.70    2.10
   2   3   9   29.30    2.20
   3  -3   9   55.49    3.20
  -3  -3  -9   51.69    3.40
  -3   3  -9   47.30    3.30
   3   3   9   44.90    3.30
  -4  -3  -9    2.70    0.70
   4  -3   9    2.90    0.60
  -4   3  -9    2.80    0.60
   4   3   9    2.50    0.60
  -5  -3  -9   18.80    1.60
   5  -3   9   18.90    1.40
  -5   3  -9   17.90    1.60
   5   3   9   15.40    1.50
   6  -3   9   34.20    2.30
  -6  -3  -9   31.20    2.50
   6   3   9   33.90    2.50
  -6   3  -9   35.30    2.50
  -7  -3  -9   22.60    2.10
   7  -3   9   30.30    2.00
  -7   3  -9   29.80    2.30
   7   3   9   28.10    2.10
   8  -3   9   35.70    2.40
  -8   3  -9   33.00    2.60
   8   3   9   30.10    2.40
   9  -3   9   30.80    2.30
  -9   3  -9   30.80    2.50
  10  -3   9    4.30    0.90
 -10   3  -9    4.90    1.10
 -11  -4   9   12.90    1.50
  11  -4  -9   12.70    1.40
 -10  -4   9    5.30    1.00
  10  -4  -9    6.70    0.90
  10   4  -9    6.00    1.20
 -10   4   9    5.80    1.10
   9  -4  -9   15.10    1.40
  -9  -4   9   18.70    1.60
  -9   4   9   16.60    1.70
   9   4  -9   15.20    1.90
  -8  -4   9    2.60    0.70
   8  -4  -9    2.80    0.70
  -8   4   9    2.70    0.80
   8   4  -9    2.40    0.90
  -7  -4   9    9.60    1.20
   7  -4  -9   11.30    1.10
   7   4  -9   11.00    1.40
  -7   4   9    9.70    1.40
   6  -4  -9   26.10    1.90
  -6  -4   9   25.10    2.00
  -6   4   9   23.10    2.10
   6   4  -9   23.20    2.00
  -5  -4   9   98.19    6.30
   5  -4  -9  101.79    6.30
  -5   4   9  100.29    6.50
   5   4  -9  102.79    6.50
   4  -4  -9   90.59    5.60
  -4  -4   9   90.99    5.70
  -4   4   9   88.59    5.80
   4   4  -9   85.29    5.70
   3  -4  -9   36.40    2.50
  -3  -4   9   35.00    2.50
  -3   4   9   30.70    2.60
   3   4  -9   35.70    2.60
  -2  -4   9   82.29    4.90
   2  -4  -9   68.19    4.80
  -2  -4   9   75.69    4.90
  -2   4   9   71.69    4.90
  -1  -4   9    1.50    0.60
   1  -4  -9    0.60    0.60
  -1  -4   9    0.40    0.50
  -1  -4   9    0.70    0.40
  -1   4   9    0.20    0.50
   0  -4  -9   21.00    1.80
   0  -4   9   19.40    1.70
   0  -4   9   22.60    1.60
   0   4   9   19.40    1.80
  -1  -4  -9   19.80    1.80
   1  -4   9   25.00    1.70
  -1   4  -9   19.30    1.70
   1   4   9   19.60    1.80
  -2  -4  -9   41.90    3.10
   2  -4   9   42.70    2.80
  -2   4  -9   39.90    2.90
   2   4   9   41.20    3.00
   3  -4   9    6.20    0.80
  -3  -4  -9    7.40    1.10
  -3   4  -9    6.20    0.90
   3   4   9    5.80    1.00
  -4  -4  -9   14.70    1.60
   4  -4   9   14.90    1.30
  -4   4  -9   14.70    1.60
   4   4   9   13.30    1.50
   5  -4   9    4.70    0.80
  -5  -4  -9    4.80    1.00
  -5   4  -9    3.10    0.80
   5   4   9    4.20    0.90
   6  -4   9    8.50    1.00
  -6  -4  -9    8.10    1.30
  -6   4  -9    6.70    1.10
   6   4   9    7.20    1.10
   7  -4   9    1.60    0.70
  -7  -4  -9    1.50    0.90
  -7   4  -9    1.90    0.80
  -8  -4  -9   14.30    1.80
  -8   4  -9   16.20    1.80
   7  -5  -9   15.70    1.60
  -6  -5   9    5.70    1.20
   6  -5  -9    4.60    0.90
   5  -5  -9   35.40    2.50
  -5  -5   9   29.10    2.70
  -5   5   9   30.40    2.70
  -4  -5   9   57.29    4.30
   4  -5  -9   64.29    4.20
  -4   5   9   60.19    4.40
  -3  -5   9    3.70    1.00
   3  -5  -9    5.30    1.00
  -3   5   9    6.10    1.10
   2  -5  -9   46.60    3.30
  -2   5   9   41.30    3.30
   1  -5  -9    2.90    0.90
  -1   5   9    4.20    1.00
   0  -5  -9    0.60    0.70
   0   5   9   -0.20    0.60
   1  -5   9    1.20    0.90
  -1  -5  -9    1.20    0.80
   1   5   9    0.60    0.60
   2  -5   9    2.80    0.70
  -2  -5  -9    2.30    0.90
   2   5   9    3.00    0.90
   3  -5   9   16.20    1.50
   3   5   9   12.90    1.70
   4  -5   9   15.30    1.70
   4   5   9    9.60    1.50
  15   0 -10  100.79    6.50
 -15   0  10  104.79    6.60
 -14   0  10   13.10    1.50
  14   0 -10   12.70    1.30
  13   0 -10    0.10    0.40
 -13   0  10    0.50    0.50
  12   0 -10    1.10    0.40
 -12   0  10    1.60    0.60
 -11   0  10   16.40    1.30
  11   0 -10   13.30    1.20
  10   0 -10   19.20    1.50
  -9   0  10   31.50    2.20
   9   0 -10   32.30    2.10
  -8   0  10   59.89    3.80
   8   0 -10   60.59    3.70
  -7   0  10   51.49    3.20
   7   0 -10   49.50    3.10
  -6   0  10    2.40    0.30
  -6   0  10    2.40    0.40
   6   0 -10    2.10    0.30
  -5   0  10   13.20    1.10
  -5   0  10   12.10    0.90
   5   0 -10   17.20    1.00
  -4   0  10   40.20    2.60
   4   0 -10   44.30    2.60
  -4   0  10   44.10    2.70
  -3   0  10    4.00    0.50
   3   0 -10    5.00    0.40
  -3   0  10    3.90    0.40
   2   0 -10   68.69    4.20
  -2   0  10   70.29    4.10
   2   0 -10   65.29    4.10
   1   0 -10   26.60    1.70
   0   0 -10  255.07   15.50
   0   0  10  270.57   15.40
   1   0  10  152.88    8.80
  -1   0 -10  143.39    8.80
   2   0  10   18.20    1.20
  -2   0 -10   19.10    1.20
  -2   0 -10   17.30    1.30
  -3   0 -10   66.49    4.20
   3   0  10   68.29    4.10
   4   0  10   81.89    4.90
  -4   0 -10   79.19    5.00
   5   0  10   65.69    4.00
  -5   0 -10   62.49    4.10
  -6   0 -10  101.59    6.60
   6   0  10  113.19    6.50
   7   0  10  136.49    8.00
  -7   0 -10  128.89    8.20
   8   0  10   36.70    2.50
  -8   0 -10   39.30    2.70
   9   0  10    0.60    0.40
  -9   0 -10    0.90    0.50
 -10   0 -10   25.70    2.20
  10   0  10   26.60    1.90
 -11   0 -10   10.10    1.30
  11   0  10    8.00    1.00
 -12   0 -10   15.10    1.70
  12   0  10   14.20    1.30
 -15  -1  10   17.50    1.70
 -15   1  10   15.10    1.60
  15   1 -10   16.40    1.70
 -14  -1  10   60.49    3.90
  14  -1 -10   51.39    3.70
  14   1 -10   56.19    3.90
 -14   1  10   57.09    3.80
 -13  -1  10    8.50    1.10
  13  -1 -10    6.30    0.80
  13   1 -10    7.70    1.10
 -13   1  10   10.50    1.10
 -12  -1  10    3.80    0.80
  12  -1 -10    4.70    0.70
  12   1 -10    4.00    0.70
 -12   1  10    4.20    0.80
 -11  -1  10   96.99    6.30
  11  -1 -10   98.69    6.10
 -11   1  10  100.49    6.20
  11   1 -10  102.89    6.30
 -10  -1  10   81.99    5.20
  10  -1 -10   77.89    5.00
  10   1 -10   83.29    5.10
 -10   1  10   81.69    5.10
  -9  -1  10   11.30    1.10
   9  -1 -10   12.10    1.00
   9   1 -10   12.30    1.10
  -9   1  10   11.30    1.00
  -8  -1  10  610.14   36.40
   8  -1 -10  628.04   36.20
   8   1 -10  610.84   36.40
  -8   1  10  618.34   36.30
  -8   1  10  636.44   36.30
  -7  -1  10  134.39    8.10
   7  -1 -10  133.09    7.90
  -7   1  10  127.19    8.00
  -7   1  10  128.69    8.00
   7   1 -10  143.39    8.10
  -6  -1  10   88.19    5.30
   6  -1 -10   84.79    5.20
  -6   1  10   86.49    5.20
   6   1 -10   82.79    5.20
  -6   1  10   85.99    5.20
  -5  -1  10   87.39    5.50
   5  -1 -10   95.79    5.30
  -5   1  10   76.09    5.30
   5   1 -10   96.49    5.40
  -5   1  10   87.89    5.40
   4  -1 -10   29.90    2.10
  -4  -1  10   33.50    2.20
  -4  -1  10   34.80    2.00
   4   1 -10   35.40    2.10
  -4   1  10   31.30    2.10
   3  -1 -10   65.39    4.20
  -3  -1  10   70.39    4.10
  -3  -1  10   75.69    4.40
  -3   1  10   64.49    4.20
   3   1 -10   72.89    4.20
  -2  -1  10  241.88   14.80
   2  -1 -10  228.28   14.90
   2   1 -10  280.77   14.90
  -2   1  10  268.97   15.00
   2   1 -10  251.77   15.00
   1  -1 -10  516.95   28.70
  -1  -1  10  471.45   28.60
   1  -1 -10  458.75   28.70
  -1   1  10  500.55   28.70
   1   1 -10  509.75   28.80
   1   1 -10  491.35   28.60
   0  -1 -10   28.30    1.70
   0  -1 -10   27.70    1.70
   0  -1  10   24.40    1.60
   0   1 -10   25.10    1.80
   0   1 -10   24.30    1.60
   0   1  10   27.40    1.70
   1  -1  10  190.08   10.80
  -1  -1 -10  192.18   10.90
  -1  -1 -10  190.68   10.90
  -1   1 -10  172.58   11.00
  -1   1 -10  173.38   10.80
   1   1  10  187.28   10.90
   2  -1  10   87.39    5.30
  -2  -1 -10   81.39    5.30
  -2  -1 -10   87.29    5.30
   2   1  10   94.59    5.30
  -2   1 -10   89.99    5.40
  -3  -1 -10   54.39    3.80
   3  -1  10   67.79    3.90
  -3  -1 -10   63.39    3.90
  -3   1 -10   62.19    4.00
   3   1  10   69.79    3.90
  -5  -1 -10   54.09    3.40
   5  -1  10   51.39    3.30
   5   1  10   56.29    3.40
  -5   1 -10   49.30    3.40
   6  -1  10   25.10    1.60
  -6  -1 -10   23.60    1.70
  -6   1 -10   21.20    1.80
   6   1  10   21.10    1.60
   7  -1  10   20.70    1.60
  -7  -1 -10   26.20    1.80
   7   1  10   25.00    1.70
  -7   1 -10   24.20    1.90
  -8  -1 -10   28.10    2.10
   8  -1  10   25.90    1.90
   8   1  10   27.90    1.90
  -8   1 -10   25.50    2.10
  -9  -1 -10   55.79    3.50
   9  -1  10   48.30    3.30
   9   1  10   48.30    3.30
  -9   1 -10   52.99    3.60
 -10  -1 -10   38.00    2.60
  10  -1  10   31.80    2.40
 -10   1 -10   35.40    2.70
  10   1  10   35.80    2.40
  11  -1  10    8.20    1.00
 -11  -1 -10    9.50    1.30
  11   1  10    9.50    1.10
 -11   1 -10   10.50    1.40
  12  -1  10   15.00    1.40
 -12  -1 -10   17.20    1.80
 -12   1 -10   17.80    2.70
 -14  -2  10   19.40    1.80
  14   2 -10   17.00    1.80
 -13  -2  10   16.20    1.60
  13  -2 -10   17.10    1.40
  13   2 -10   18.60    1.80
  12  -2 -10   66.79    4.40
 -12  -2  10   77.39    4.70
  12   2 -10   66.59    4.60
  11  -2 -10   20.40    1.50
 -11  -2  10   20.20    1.70
  11   2 -10   21.70    1.80
 -10  -2  10   11.60    1.20
  10  -2 -10   11.10    1.00
 -10   2  10   11.40    1.10
  10   2 -10   10.70    1.20
  -9  -2  10   23.50    1.90
   9  -2 -10   24.50    1.70
  -9   2  10   25.80    1.80
   9   2 -10   23.90    1.90
  -8  -2  10  111.79    7.20
   8  -2 -10  118.09    7.00
  -8   2  10  116.39    7.10
   8   2 -10  116.99    7.20
  -7  -2  10   51.39    3.50
   7  -2 -10   53.19    3.30
   7   2 -10   51.79    3.50
  -7   2  10   55.09    3.50
  -6  -2  10  126.99    7.50
   6  -2 -10  129.09    7.40
   6   2 -10  114.09    7.50
  -6   2  10  119.59    7.50
   5  -2 -10   24.00    1.70
  -5  -2  10   22.20    1.80
  -5   2  10   23.30    1.80
   5   2 -10   27.80    1.80
  -4  -2  10   14.20    1.20
   3  -2 -10   12.40    1.00
  -3  -2  10   13.20    0.80
  -3  -2  10   11.40    1.10
  -3   2  10   10.80    1.00
   3   2 -10   12.10    1.00
   2  -2 -10   61.09    3.60
  -2  -2  10   63.49    3.40
  -2  -2  10   54.29    3.70
  -2   2  10   53.99    3.60
   2   2 -10   48.90    3.50
   1  -2 -10   33.80    2.20
  -1  -2  10   35.30    2.10
  -1   2  10   29.80    2.20
   1   2 -10   31.50    2.30
   1   2 -10   32.20    2.10
   0  -2 -10  120.59    8.00
   0  -2  10  154.38    7.90
   0   2  10  140.19    8.10
   0   2 -10  120.79    7.90
   0   2 -10  129.19    8.10
   1  -2  10   37.60    2.60
  -1  -2 -10   46.30    2.80
   1   2  10   44.30    2.80
  -1   2 -10   38.90    2.80
  -2  -2 -10    1.90    0.50
   2  -2  10    2.00    0.40
   2   2  10    1.90    0.50
  -2   2 -10    2.70    0.50
   3  -2  10   61.79    3.60
   3   2  10   53.09    3.70
  -3   2 -10   56.59    3.70
   4  -2  10   20.10    1.40
  -4  -2 -10   18.80    1.50
   4   2  10   17.40    1.40
  -4   2 -10   18.20    1.50
   5  -2  10   36.80    2.30
  -5  -2 -10   32.10    2.40
  -5   2 -10   34.60    2.50
   5   2  10   36.00    2.40
   6  -2  10   23.10    1.60
  -6  -2 -10   21.90    1.80
  -6   2 -10   21.10    1.80
   6   2  10   22.50    1.70
   7  -2  10   41.70    2.70
  -7   2 -10   41.10    3.00
   7   2  10   40.60    2.80
   8  -2  10   73.49    4.40
   8   2  10   66.39    4.50
  -8   2 -10   72.69    4.70
   9  -2  10   24.20    1.70
  -9   2 -10   22.50    1.90
   9   2  10   19.00    1.70
  10  -2  10   49.99    3.40
 -10   2 -10   58.49    3.80
  10   2  10   48.00    3.50
  11  -2  10    4.20    0.80
 -11   2 -10    5.30    1.10
 -13  -3  10   24.40    2.30
  12  -3 -10   15.20    1.30
 -12  -3  10   14.70    1.70
  12   3 -10   16.40    1.80
 -11  -3  10   19.50    1.80
  11  -3 -10   18.40    1.50
 -11   3  10   19.00    1.80
  11   3 -10   19.60    1.90
 -10  -3  10   43.50    3.00
  10  -3 -10   43.40    2.80
  10   3 -10   44.40    3.20
 -10   3  10   37.70    3.00
   9  -3 -10   31.30    2.10
  -9  -3  10   30.30    2.30
  -9   3  10   30.50    2.30
   9   3 -10   27.80    2.30
  -8  -3  10   27.20    2.00
   8  -3 -10   23.90    1.80
  -8   3  10   26.90    2.10
   8   3 -10   23.60    2.00
   7  -3 -10   80.39    4.80
  -7  -3  10   74.89    4.90
  -7   3  10   75.29    4.90
   7   3 -10   71.99    4.90
  -6  -3  10   64.49    4.10
   6  -3 -10   65.29    3.90
  -6   3  10   54.89    4.00
   6   3 -10   59.39    4.10
   5  -3 -10   88.59    5.30
  -5  -3  10   87.29    5.40
  -5   3  10   86.99    5.50
   5   3 -10   80.19    5.40
  -4  -3  10  227.58   12.60
   4  -3 -10  198.98   12.50
   4   3 -10  208.38   12.60
  -4   3  10  203.48   12.60
   3  -3 -10   34.80    2.40
  -3  -3  10   33.60    2.50
   3   3 -10   35.10    2.40
  -3   3  10   34.90    2.50
  -2  -3  10   86.19    4.90
  -2  -3  10   81.29    5.10
   2  -3 -10   79.49    5.00
  -2   3  10   75.79    5.10
   2   3 -10   76.09    5.00
   1  -3 -10   52.59    3.80
  -1  -3  10   63.69    3.70
   1   3 -10   60.19    3.80
  -1   3  10   62.29    3.90
   0  -3  10   28.80    1.80
   0  -3 -10   23.30    1.90
   0   3 -10   24.00    1.90
   0   3  10   27.00    2.00
   1  -3  10   73.89    4.30
  -1  -3 -10   66.89    4.40
   1   3  10   66.69    4.40
  -1   3 -10   66.89    4.40
  -2  -3 -10    3.20    0.70
   2  -3  10    3.30    0.50
   2   3  10    4.30    0.70
  -2   3 -10    5.00    0.80
   3  -3  10   66.19    4.00
  -3  -3 -10   59.69    4.20
  -3   3 -10   70.09    4.20
   3   3  10   58.09    4.10
   4  -3  10    5.00    0.70
  -4  -3 -10    3.00    0.70
   4   3  10    5.10    0.80
  -4   3 -10    4.50    0.80
   5  -3  10    9.00    0.90
  -5  -3 -10    9.20    1.20
  -5   3 -10    9.60    1.20
   5   3  10    7.20    1.00
   6  -3  10    8.20    0.90
  -6  -3 -10    5.80    1.00
  -6   3 -10    7.50    1.10
   6   3  10    7.80    1.00
  -7  -3 -10   21.80    2.00
   7  -3  10   27.60    1.90
   7   3  10   23.70    2.00
  -7   3 -10   22.00    2.00
   8  -3  10    2.20    0.60
   8   3  10    2.60    0.70
  -8   3 -10    2.50    0.80
   9  -3  10   12.60    1.30
  -9   3 -10   12.80    1.60
 -11  -4  10    0.30    0.60
 -11   4  10    0.80    0.80
 -10  -4  10   20.10    1.90
  10  -4 -10   24.90    1.80
  10   4 -10   23.00    2.20
 -10   4  10   21.80    2.10
  -9  -4  10   46.20    3.40
   9  -4 -10   46.30    3.10
   9   4 -10   48.70    3.60
  -9   4  10   45.90    3.40
   8  -4 -10    9.40    1.10
  -8  -4  10    6.80    1.10
  -8   4  10    5.40    1.10
   8   4 -10    6.40    1.20
  -7  -4  10   56.59    3.70
   7  -4 -10   55.39    3.60
  -7   4  10   49.99    3.80
   7   4 -10   52.09    3.80
  -6  -4  10    1.00    0.60
   6  -4 -10    0.50    0.50
  -6   4  10    0.60    0.60
   6   4 -10    0.20    0.50
  -5  -4  10   11.30    1.30
   5  -4 -10   15.10    1.30
   5   4 -10   11.10    1.40
  -5   4  10    8.80    1.30
   4  -4 -10   37.40    2.50
  -4  -4  10   29.50    2.50
   4   4 -10   36.30    2.60
  -4   4  10   33.10    2.60
  -3  -4  10  139.09    9.30
   3  -4 -10  163.68    9.40
   3   4 -10  155.78    9.40
  -3   4  10  151.08    9.50
   2  -4 -10   38.40    2.80
  -2  -4  10   41.70    2.90
  -2  -4  10   37.90    2.80
  -2   4  10   36.90    2.90
   1  -4 -10   76.79    4.90
  -1  -4  10   74.09    4.90
  -1   4  10   73.79    5.00
   0  -4 -10    0.50    0.50
   0  -4  10    0.50    0.40
   0  -4  10    0.00    0.50
   0   4  10    0.70    0.50
  -1  -4 -10    3.70    0.80
   1  -4  10    2.00    0.50
  -1   4 -10    2.80    0.70
   1   4  10    1.40    0.60
  -2  -4 -10    2.40    0.80
   2  -4  10    3.40    0.60
   2   4  10    1.00    0.60
  -2   4 -10    1.70    0.60
   3  -4  10   12.80    1.20
  -3  -4 -10   11.90    1.50
  -3   4 -10   11.50    1.40
   3   4  10   11.90    1.40
   4  -4  10   12.00    1.20
  -4  -4 -10   11.90    1.50
   4   4  10    8.60    1.30
  -4   4 -10   10.90    1.40
  -5  -4 -10    9.50    1.30
   5  -4  10    8.20    1.10
  -5   4 -10   10.50    1.30
   5   4  10    7.30    1.10
   6  -4  10    2.40    0.70
  -6  -4 -10    0.90    0.80
   6   4  10    1.50    0.70
  -6   4 -10    1.60    0.80
  -7  -4 -10    2.00    0.90
   7  -4  10    4.70    0.80
   7   4  10    2.80    0.90
  -7   4 -10    4.10    1.00
  -8   4 -10    9.90    1.70
  -6  -5  10   24.00    2.40
   6  -5 -10   26.90    2.50
  -5  -5  10    5.90    1.30
   5  -5 -10    7.40    1.20
  -4  -5  10    4.00    1.10
   4  -5 -10    5.70    1.00
  -4   5  10    3.30    1.00
   3  -5 -10   63.89    4.30
  -3   5  10   60.09    4.40
   2  -5 -10   43.50    3.10
  -2   5  10   36.40    3.10
   1  -5 -10   19.70    1.90
  -1   5  10   19.10    1.90
   0  -5 -10   27.20    2.30
   0   5  10   24.80    2.30
  -1  -5 -10    6.10    1.20
   1   5  10    6.00    1.20
   2  -5  10    6.10    0.90
   2   5  10    3.10    0.90
   3  -5  10    5.00    0.80
  16   0 -11    2.10    0.70
 -15   0  11    7.60    1.20
  15   0 -11    7.40    1.10
  14   0 -11    8.20    1.10
 -14   0  11    8.80    1.20
 -13   0  11   98.19    5.80
  13   0 -11   84.39    5.70
 -12   0  11   20.00    1.70
  12   0 -11   21.70    1.70
  11   0 -11   -0.80    0.20
 -11   0  11    0.30    0.40
 -10   0  11  147.79    8.30
  10   0 -11  123.99    8.10
  -9   0  11  220.88   13.60
   9   0 -11  236.48   13.60
  -8   0  11  251.67   15.50
   8   0 -11  271.97   15.50
  -7   0  11  618.54   34.80
   7   0 -11  570.24   34.70
  -6   0  11    0.50    0.20
  -5   0  11  111.49    6.60
   5   0 -11  109.39    6.50
  -5   0  11  106.49    6.50
  -4   0  11  159.68    9.40
   4   0 -11  153.68    9.40
  -4   0  11  164.68    9.50
  -3   0  11   22.30    1.60
   3   0 -11   23.50    1.50
  -3   0  11   22.60    1.50
  -2   0  11    4.30    0.40
   2   0 -11    4.20    0.40
   2   0 -11    3.60    0.50
   1   0 -11   56.49    3.70
  -1   0  11   62.39    3.60
   1   0 -11   59.39    3.60
   0   0  11    6.20    0.50
   0   0 -11    6.20    0.70
  -1   0 -11  189.48   11.40
   1   0  11  211.48   11.50
  -1   0 -11  182.58   11.50
   2   0  11   30.20    1.90
  -2   0 -11   32.60    2.10
  -2   0 -11   29.00    1.80
   3   0  11  129.29    7.60
  -3   0 -11  124.69    7.70
  -4   0 -11    0.00    0.30
   4   0  11    0.60    0.30
   5   0  11   48.80    3.10
  -5   0 -11   48.60    3.20
  -6   0 -11    1.00    0.50
   6   0  11    0.50    0.30
  -7   0 -11    4.30    0.80
   7   0  11    4.40    0.60
   8   0  11  100.29    6.10
  -8   0 -11   99.89    6.30
  -9   0 -11    0.10    0.60
   9   0  11    0.40    0.40
  10   0  11   29.00    2.10
 -10   0 -11   30.80    2.40
  11   0  11   45.30    3.20
 -11   0 -11   53.09    3.60
  12   0  11    6.40    0.90
 -12   0 -11    6.60    1.30
  15  -1 -11   16.90    1.60
 -15  -1  11   20.30    2.10
  15   1 -11   16.60    1.70
 -15   1  11   18.90    1.70
 -14  -1  11   13.70    1.50
  14  -1 -11   12.40    1.20
  14   1 -11    9.30    1.30
 -14   1  11   14.40    1.40
 -13  -1  11   23.70    1.90
  13  -1 -11   20.70    1.70
  13   1 -11   21.40    1.80
 -13   1  11   23.40    1.80
 -12  -1  11    8.10    1.10
  12  -1 -11    7.80    0.80
  12   1 -11    5.90    0.90
 -12   1  11    7.90    1.00
  11  -1 -11   13.90    1.10
 -11  -1  11   11.20    1.20
  11   1 -11   14.50    1.30
 -11   1  11   14.00    1.20
  10  -1 -11   16.50    1.20
 -10  -1  11   14.70    1.40
 -10   1  11   16.50    1.30
  10   1 -11   17.70    1.40
  -9  -1  11   42.40    2.90
   9  -1 -11   41.20    2.70
  -9   1  11   42.60    2.80
   9   1 -11   46.30    2.90
   8  -1 -11  293.47   16.40
  -8  -1  11  267.77   16.50
   8   1 -11  277.47   16.50
  -8   1  11  285.97   16.40
  -8   1  11  265.47   16.40
  -7  -1  11    2.60    0.50
   7  -1 -11    3.70    0.50
  -7   1  11    4.00    0.50
   7   1 -11    4.10    0.60
  -7   1  11    2.80    0.50
  -6  -1  11   91.89    5.60
   6  -1 -11   92.59    5.40
  -6   1  11   93.89    5.40
  -6   1  11   88.99    5.50
   6   1 -11   81.39    5.50
  -5  -1  11   40.70    2.70
   5  -1 -11   41.10    2.60
   5   1 -11   43.50    2.60
  -5   1  11   37.30    2.60
  -4   1  11    0.00    0.10
   3  -1 -11    8.30    0.80
  -3  -1  11   11.90    0.70
  -3  -1  11   11.30    1.00
  -3   1  11   12.00    0.90
   3   1 -11   10.90    0.80
   2  -1 -11   40.80    2.30
  -2  -1  11   34.00    2.20
  -2   1  11   35.60    2.30
   2   1 -11   29.80    2.30
   2   1 -11   36.80    2.20
   1  -1 -11   55.79    3.50
  -1  -1  11   58.39    3.50
   1  -1 -11   62.69    3.50
  -1   1  11   54.99    3.60
   1   1 -11   55.69    3.60
   0  -1 -11   81.79    5.00
   0  -1 -11   84.79    5.00
   0  -1  11   80.19    5.00
   0   1 -11   82.49    5.00
   0   1  11   82.29    5.10
   0   1 -11   89.29    5.20
   1  -1  11  113.69    6.90
  -1  -1 -11  111.49    6.90
  -1  -1 -11  117.09    6.90
  -1   1 -11  117.19    6.80
   1   1  11  116.69    6.90
  -1   1 -11  116.89    7.00
   2  -1  11    2.80    0.40
  -2  -1 -11    4.00    0.50
  -2  -1 -11    2.50    0.40
   2   1  11    3.20    0.50
  -2   1 -11    3.10    0.50
   3  -1  11   89.49    5.20
  -3  -1 -11   91.19    5.30
   3   1  11   85.29    5.30
  -3   1 -11   80.99    5.40
  -4  -1 -11   90.59    5.70
   4  -1  11   96.59    5.60
   4   1  11   88.29    5.70
  -4   1 -11   98.29    5.80
   5  -1  11   23.10    1.60
  -5  -1 -11   21.10    1.60
   5   1  11   20.60    1.50
  -5   1 -11   22.00    1.70
   6  -1  11   14.00    1.10
  -6  -1 -11   13.70    1.20
  -6   1 -11   13.10    1.30
   6   1  11   14.10    1.10
   7  -1  11   27.30    1.90
  -7  -1 -11   28.00    2.00
  -7   1 -11   27.80    2.10
   7   1  11   26.40    1.90
   8  -1  11   27.80    1.90
  -8  -1 -11   30.20    2.20
   8   1  11   26.90    2.00
  -8   1 -11   27.10    2.20
   9  -1  11   26.00    1.90
  -9  -1 -11   27.10    2.10
  -9   1 -11   26.90    2.20
   9   1  11   25.60    1.90
  10  -1  11   14.00    1.40
 -10  -1 -11   16.50    1.60
 -10   1 -11   19.20    1.70
  10   1  11   16.40    1.40
  11  -1  11   39.10    2.70
 -11  -1 -11   38.50    2.90
  11   1  11   37.60    2.70
 -11   1 -11   41.40    3.10
 -12  -1 -11   -0.40    0.70
  12   1  11    0.40    0.50
  14  -2 -11   15.10    1.40
 -14  -2  11   15.90    1.60
  14   2 -11   14.00    1.70
  13  -2 -11    4.20    0.70
 -13  -2  11    4.30    0.90
  13   2 -11    5.40    1.10
  12  -2 -11   33.10    2.20
 -12  -2  11   29.50    2.40
  12   2 -11   33.40    2.50
  11  -2 -11    1.40    0.50
 -11  -2  11    2.20    0.70
  11   2 -11    2.00    0.70
 -10  -2  11   23.60    1.90
  10  -2 -11   23.90    1.70
  10   2 -11   25.90    2.00
   9  -2 -11   21.00    1.50
  -9  -2  11   20.00    1.70
  -9   2  11   21.40    1.60
   9   2 -11   17.80    1.60
   8  -2 -11    6.00    0.70
  -8  -2  11    4.60    0.80
   8   2 -11    6.60    0.90
  -8   2  11    5.10    0.70
  -7  -2  11   44.20    2.90
   7  -2 -11   44.30    2.80
   7   2 -11   38.00    2.80
  -7   2  11   42.30    2.80
  -6  -2  11  178.98    9.90
   6  -2 -11  160.58    9.70
  -6   2  11  165.28    9.80
   6   2 -11  147.19    9.80
   5  -2 -11   61.49    3.90
  -5  -2  11   68.29    4.10
   5   2 -11   64.59    4.00
  -5   2  11   57.99    4.00
  -4  -2  11   64.79    4.50
   4  -2 -11   69.89    4.40
   4   2 -11   78.29    4.50
  -4   2  11   70.49    4.50
  -3  -2  11    6.80    0.50
  -3  -2  11    7.20    0.90
   3  -2 -11    7.30    0.80
  -3   2  11    7.00    0.80
   3   2 -11    6.00    0.70
  -2  -2  11  125.39    7.80
  -2  -2  11  130.69    7.50
   2  -2 -11  130.49    7.70
   2   2 -11  123.79    7.70
  -2   2  11  125.59    7.70
   1  -2 -11  219.28   13.30
  -1  -2  11  246.88   13.20
  -1   2  11  222.38   13.40
   1   2 -11  209.98   13.40
   0  -2  11  108.39    6.40
   0  -2 -11  122.39    6.60
   0   2 -11  114.19    6.80
   0   2 -11   91.19    6.60
   0   2  11  104.69    6.60
  -1  -2 -11   65.99    4.10
   1  -2  11   65.89    3.90
   1   2  11   65.69    4.10
  -1   2 -11   59.29    4.10
   2  -2  11  164.18    9.00
  -2  -2 -11  155.38    9.10
  -2   2 -11  140.39    9.20
   2   2  11  146.19    9.20
  -3  -2 -11   36.70    2.60
   3  -2  11   41.60    2.50
  -3   2 -11   40.60    2.70
   3   2  11   38.10    2.70
   4  -2  11   36.60    2.10
  -4  -2 -11   24.20    2.10
   4   2  11   31.60    2.20
  -4   2 -11   28.50    2.20
   5  -2  11    7.80    0.80
  -5  -2 -11    6.30    0.80
  -5   2 -11    7.70    1.00
   5   2  11    5.40    0.80
   6  -2  11   25.20    1.80
   6   2  11   23.00    1.80
  -6   2 -11   25.40    2.00
   7  -2  11   26.60    1.90
  -7   2 -11   26.30    2.10
   7   2  11   25.00    1.90
   8  -2  11   28.00    1.90
   8   2  11   23.60    2.00
  -8   2 -11   27.60    2.20
   9  -2  11   33.20    2.30
  -9   2 -11   32.00    2.60
   9   2  11   28.40    2.30
  10  -2  11    9.30    1.10
  10   2  11    8.20    1.10
 -10   2 -11   10.40    1.40
  12  -3 -11    9.70    1.00
 -12  -3  11    6.40    1.20
  12   3 -11    9.00    1.40
  11  -3 -11   29.50    2.10
 -11  -3  11   29.00    2.40
  11   3 -11   29.10    2.50
 -10  -3  11    4.50    0.90
  10  -3 -11    5.10    0.70
  10   3 -11    6.00    1.10
 -10   3  11    5.80    1.00
   9  -3 -11   10.20    1.10
  -9  -3  11   11.40    1.30
   9   3 -11   11.30    1.40
  -9   3  11   10.80    1.30
   8  -3 -11   54.99    3.60
  -8  -3  11   60.09    3.90
   8   3 -11   56.19    3.90
  -8   3  11   56.19    3.80
  -7  -3  11   17.50    1.60
   7  -3 -11   20.20    1.50
   7   3 -11   17.70    1.60
  -7   3  11   16.70    1.60
   6  -3 -11   15.50    1.30
  -6  -3  11   12.70    1.30
   6   3 -11   14.10    1.40
  -6   3  11   14.40    1.40
   5  -3 -11   57.49    3.50
  -5  -3  11   50.39    3.60
   5   3 -11   56.59    3.70
  -5   3  11   51.39    3.60
   4  -3 -11  120.39    6.80
  -4  -3  11  114.69    6.90
  -4   3  11  105.99    6.90
   4   3 -11  101.99    6.90
  -3  -3  11    9.70    1.20
   3  -3 -11   13.00    1.10
   3   3 -11   11.10    1.10
  -3   3  11   11.20    1.30
  -2  -3  11   22.90    1.90
   2  -3 -11   22.30    1.80
  -2  -3  11   23.90    1.60
  -2   3  11   22.30    1.80
   2   3 -11   24.60    1.80
  -1  -3  11   54.39    3.30
   1  -3 -11   50.79    3.50
  -1   3  11   50.79    3.50
   1   3 -11   55.29    3.50
   0  -3 -11    7.30    0.90
   0  -3  11    7.60    0.80
   0   3  11    7.10    1.00
   0   3 -11    7.80    1.00
   1  -3  11   18.00    1.30
  -1  -3 -11   16.10    1.40
  -1   3 -11   14.40    1.50
   1   3  11   17.40    1.50
   2  -3  11   12.30    1.00
  -2  -3 -11   10.80    1.20
  -2   3 -11   11.20    1.30
   2   3  11   11.00    1.20
  -3  -3 -11    1.30    0.60
   3  -3  11    2.10    0.50
  -3   3 -11    0.80    0.50
   3   3  11    0.90    0.50
   4  -3  11   20.00    1.40
  -4  -3 -11   16.90    1.60
  -4   3 -11   18.90    1.60
   4   3  11   13.30    1.40
  -5  -3 -11   28.90    2.30
   5  -3  11   31.00    2.10
  -5   3 -11   31.30    2.40
   5   3  11   29.60    2.30
   6  -3  11   35.20    2.40
  -6  -3 -11   35.40    2.60
   6   3  11   31.10    2.50
  -6   3 -11   34.00    2.60
   7  -3  11   55.89    3.60
  -7   3 -11   53.59    3.90
   7   3  11   57.89    3.80
   8  -3  11    1.60    0.60
   8   3  11    0.90    0.60
  -8   3 -11    1.20    0.70
   9  -3  11   14.80    1.50
  -9   3 -11   15.70    1.80
   9   3  11   13.10    1.60
  11  -4 -11   10.10    1.20
 -11   4  11    9.40    1.40
  10  -4 -11   26.30    1.90
 -10  -4  11   22.70    2.00
 -10   4  11   21.80    2.20
   9  -4 -11    3.90    0.80
  -9  -4  11    1.70    0.80
   9   4 -11    3.40    0.90
  -9   4  11    3.70    0.90
   8  -4 -11   81.99    4.90
  -8  -4  11   70.19    5.00
  -8   4  11   75.49    5.10
   8   4 -11   75.29    5.20
  -7  -4  11   23.90    1.90
   7  -4 -11   24.80    1.90
   7   4 -11   22.80    2.10
  -7   4  11   20.10    2.00
   6  -4 -11   27.00    1.90
  -6  -4  11   23.90    2.00
   6   4 -11   21.90    2.10
  -6   4  11   22.80    2.10
   5  -4 -11   20.30    1.80
  -5  -4  11   18.20    1.80
   5   4 -11   22.90    1.90
  -5   4  11   21.40    2.00
  -4  -4  11   60.39    4.50
   4  -4 -11   75.09    4.50
   4   4 -11   68.49    4.60
  -4   4  11   69.99    4.60
  -3  -4  11    7.30    1.10
   3  -4 -11    6.60    1.00
  -3   4  11    4.30    0.90
   3   4 -11    6.10    1.00
   2  -4 -11   77.29    4.90
  -2  -4  11   73.29    4.90
  -2   4  11   72.79    5.00
  -1  -4  11    5.20    0.90
   1  -4 -11    4.40    0.90
  -1   4  11    5.70    1.00
   0  -4 -11    5.80    1.00
   0  -4  11    5.20    0.90
   0  -4  11    6.10    0.80
   0   4  11    6.20    1.00
   1  -4  11    2.80    0.60
  -1  -4 -11    2.10    0.70
  -1   4 -11    2.40    0.70
   1   4  11    1.60    0.60
   2  -4  11    4.30    0.70
  -2  -4 -11    5.50    1.00
  -2   4 -11    4.70    0.90
   2   4  11    3.90    0.90
   3  -4  11   17.10    1.40
  -3  -4 -11   18.80    1.80
  -3   4 -11   15.90    1.60
   3   4  11   15.00    1.70
   4  -4  11    1.50    0.60
  -4  -4 -11    0.70    0.70
  -4   4 -11   -0.20    0.60
   4   4  11    0.70    0.60
   5  -4  11   34.80    2.40
  -5  -4 -11   32.30    2.70
  -5   4 -11   32.00    2.60
   5   4  11   30.80    2.60
   6  -4  11   50.69    3.20
  -6  -4 -11   48.40    3.50
   6   4  11   48.00    3.50
  -6   4 -11   41.90    3.50
  -7  -4 -11    4.60    1.10
  -7   4 -11    3.30    1.00
   7   4  11    4.00    0.90
  -6  -5  11    6.70    1.60
  -5  -5  11   10.10    1.60
   3  -5 -11    5.60    1.20
   2  -5 -11    1.10    0.70
  -2   5  11   -0.30    0.70
   1  -5 -11   48.80    3.50
  -1   5  11   37.20    3.20
   0   5  11   10.90    1.80
   2  -5  11    5.10    1.20
   3  -5  11    7.40    1.20
 -15   0  12   41.30    2.90
  15   0 -12   36.40    2.80
  14   0 -12    9.40    1.20
 -14   0  12   13.10    1.30
 -13   0  12   45.00    3.10
  13   0 -12   41.20    2.90
  12   0 -12   50.29    3.40
 -12   0  12   53.99    3.50
  11   0 -12    8.60    0.90
 -11   0  12    9.30    1.10
  10   0 -12   67.79    4.30
 -10   0  12   70.99    4.50
   9   0 -12    0.10    0.30
  -9   0  12    0.30    0.40
  -8   0  12   49.20    3.20
   8   0 -12   49.99    3.20
  -7   0  12  200.28   12.20
   7   0 -12  207.98   12.10
   6   0 -12  114.49    6.50
  -6   0  12  101.29    6.40
  -6   0  12  106.59    6.50
  -5   0  12  207.38   12.00
  -5   0  12  205.98   12.10
   5   0 -12  197.38   12.00
  -4   0  12  111.09    6.70
  -4   0  12  113.19    6.60
   4   0 -12  109.59    6.60
  -3   0  12    6.30    0.70
  -3   0  12    6.60    0.60
   3   0 -12    7.00    0.60
   2   0 -12   61.19    3.60
   2   0 -12   52.89    3.40
  -2   0  12   57.79    3.50
   1   0 -12  101.89    6.00
   1   0 -12  104.39    6.20
  -1   0  12   99.29    6.10
   0   0  12   66.09    4.00
   0   0 -12   67.19    4.20
  -1   0 -12  466.95   26.40
   1   0  12  457.45   26.50
  -1   0 -12  432.76   26.60
  -2   0 -12   11.40    1.00
   2   0  12   12.20    0.90
   3   0  12   47.40    2.80
  -3   0 -12   39.20    2.80
  -4   0 -12   50.89    3.40
   4   0  12   53.69    3.30
   5   0  12    2.70    0.50
  -5   0 -12    3.00    0.60
  -6   0 -12   75.49    4.80
   6   0  12   72.79    4.60
  -7   0 -12    0.60    0.50
   7   0  12    0.30    0.30
   8   0  12    0.80    0.40
  -8   0 -12   -0.20    0.50
   9   0  12   12.90    1.10
  -9   0 -12   12.40    1.50
 -10   0 -12   -0.10    0.60
  10   0  12    0.20    0.40
 -11   0 -12   -0.40    0.60
  11   0  12   -0.20    0.40
  15  -1 -12   22.80    1.90
  15   1 -12   22.70    2.10
 -15   1  12   26.00    2.10
 -14  -1  12   14.40    1.60
  14  -1 -12   15.00    1.30
 -14   1  12   13.20    1.40
  14   1 -12   12.60    1.40
  13  -1 -12    5.70    0.80
 -13  -1  12    7.30    1.10
  13   1 -12    6.40    1.00
 -13   1  12    8.90    1.10
  12  -1 -12    5.80    0.80
 -12  -1  12    5.40    0.90
  12   1 -12    6.90    1.00
 -12   1  12    6.00    0.90
 -11  -1  12   21.40    1.80
  11  -1 -12   22.50    1.60
 -11   1  12   23.50    1.70
  11   1 -12   21.10    1.80
  10  -1 -12    4.40    0.60
 -10  -1  12    4.10    0.70
 -10   1  12    4.80    0.70
  10   1 -12    4.10    0.70
  -9  -1  12   48.40    3.20
   9  -1 -12   46.90    3.00
  -9   1  12   47.40    3.00
   9   1 -12   44.80    3.10
   8  -1 -12   65.49    3.80
  -8  -1  12   60.79    3.90
   8   1 -12   55.49    3.80
  -8   1  12   58.69    3.80
   7  -1 -12  154.08    9.20
  -7  -1  12  153.68    9.40
  -7   1  12  151.78    9.30
  -7   1  12  157.98    9.30
   7   1 -12  159.38    9.40
  -6  -1  12   82.89    5.40
   6  -1 -12   82.89    5.30
   6   1 -12   94.39    5.40
  -6   1  12   86.49    5.30
  -6   1  12   89.49    5.30
  -5  -1  12   53.19    3.50
   5  -1 -12   59.49    3.40
  -5   1  12   50.79    3.40
   5   1 -12   54.99    3.40
  -4  -1  12   73.19    4.20
  -4  -1  12   68.79    4.50
   4  -1 -12   73.79    4.30
  -4   1  12   64.39    4.40
   4   1 -12   72.49    4.40
  -3  -1  12  201.28   11.60
   3  -1 -12  167.48   11.40
  -3  -1  12  210.98   11.40
   3   1 -12  194.18   11.50
  -3   1  12  196.78   11.50
  -2  -1  12    1.40    0.20
   2  -1 -12    1.40    0.30
   2   1 -12    1.20    0.40
  -2   1  12    1.20    0.30
   2   1 -12    1.80    0.30
   1  -1 -12   45.60    3.10
  -1  -1  12   54.19    3.10
   1  -1 -12   52.99    3.10
  -1   1  12   48.30    3.20
   1   1 -12   50.79    3.30
   0  -1 -12  141.79    8.40
   0  -1  12  137.19    8.40
   0  -1 -12  139.89    8.50
   0   1 -12  137.09    8.60
   0   1 -12  154.28    8.40
   0   1  12  140.59    8.50
  -1  -1 -12    7.30    0.60
  -1  -1 -12    6.20    0.60
   1  -1  12    5.90    0.60
  -1   1 -12    7.80    0.90
   1   1  12    6.00    0.60
  -2  -1 -12   45.40    3.00
  -2  -1 -12   52.29    3.00
   2  -1  12   46.80    3.00
  -2   1 -12   46.90    3.20
   2   1  12   46.10    3.00
   3  -1  12    6.40    0.70
  -3  -1 -12    8.10    0.80
  -3   1 -12    6.70    0.90
   3   1  12    8.30    0.70
   4  -1  12   78.79    4.90
  -4  -1 -12   86.59    5.00
   4   1  12   79.69    5.00
  -4   1 -12   78.89    5.10
   5  -1  12   44.40    2.90
  -5  -1 -12   48.50    3.10
   5   1  12   45.60    3.00
  -5   1 -12   48.20    3.20
   6  -1  12   45.70    3.00
  -6  -1 -12   51.29    3.20
   6   1  12   46.50    3.10
  -6   1 -12   45.60    3.20
   7  -1  12    4.00    0.60
  -7  -1 -12    3.90    0.80
  -7   1 -12    3.70    0.80
   7   1  12    4.60    0.70
  -8  -1 -12   83.89    5.70
   8  -1  12   89.79    5.60
   8   1  12   92.59    5.60
  -8   1 -12   93.79    5.90
  -9  -1 -12   48.30    3.40
   9  -1  12   47.60    3.20
  -9   1 -12   50.49    3.50
   9   1  12   46.10    3.20
 -10  -1 -12   10.90    1.30
  10  -1  12    7.60    1.00
 -10   1 -12    7.80    1.20
  10   1  12    9.20    1.10
 -11  -1 -12    1.90    0.90
  11  -1  12    3.90    0.70
 -11   1 -12    4.90    1.10
  11   1  12    2.60    0.70
  14  -2 -12    9.90    1.10
  14   2 -12    8.30    1.30
  13  -2 -12    5.00    0.70
 -13  -2  12    5.50    1.00
  13   2 -12    6.90    1.20
  12  -2 -12    2.70    0.60
 -12  -2  12    2.80    0.70
  12   2 -12    3.20    0.80
 -11  -2  12   21.60    1.90
  11  -2 -12   20.90    1.60
  11   2 -12   22.20    1.90
  10  -2 -12   27.30    1.90
 -10  -2  12   25.70    2.10
  10   2 -12   29.90    2.20
  -9  -2  12    8.60    1.10
   9  -2 -12    8.50    0.80
   9   2 -12    7.10    1.00
  -9   2  12    8.70    1.00
   8  -2 -12   61.59    3.90
  -8  -2  12   67.09    4.10
   8   2 -12   60.49    4.10
  -8   2  12   60.69    4.00
  -7  -2  12   11.00    1.20
   7  -2 -12   12.70    1.10
   7   2 -12   13.70    1.20
  -7   2  12   14.40    1.20
  -6  -2  12  347.17   21.10
   6  -2 -12  364.36   21.00
   6   2 -12  357.46   21.10
  -6   2  12  355.86   21.10
   5  -2 -12   28.00    2.00
  -5  -2  12   30.60    2.20
   5   2 -12   30.80    2.10
  -5   2  12   28.00    2.10
   4  -2 -12   30.70    2.00
  -4  -2  12   26.90    2.10
  -4   2  12   29.70    2.10
   4   2 -12   28.80    2.00
  -3  -2  12   10.70    1.10
  -3  -2  12    9.80    0.70
   3  -2 -12    8.70    0.90
  -3   2  12    9.70    1.00
   3   2 -12    9.90    0.90
  -2  -2  12  149.59    8.60
  -2  -2  12  138.89    8.90
   2  -2 -12  148.89    8.80
   2   2 -12  149.49    8.80
  -2   2  12  143.79    8.90
   1  -2 -12   91.29    5.60
  -1  -2  12  104.59    5.50
  -1   2  12   87.49    5.70
   1   2 -12   82.99    5.70
   0  -2 -12   51.39    3.20
   0  -2  12   50.09    3.10
   0   2 -12   46.60    3.30
   0   2  12   49.70    3.30
  -1  -2 -12   75.39    4.70
   1  -2  12   81.79    4.60
  -1   2 -12   71.79    4.80
   1   2  12   74.49    4.80
   2  -2  12  122.79    6.40
  -2  -2 -12  100.99    6.50
   2   2  12   98.59    6.50
  -2   2 -12  101.59    6.60
  -3  -2 -12    3.70    0.60
   3  -2  12    3.50    0.50
  -3   2 -12    3.60    0.70
   3   2  12    3.70    0.60
  -4  -2 -12   34.40    2.30
   4  -2  12   37.30    2.20
   4   2  12   31.00    2.30
  -4   2 -12   28.70    2.40
   5  -2  12   14.60    1.10
  -5   2 -12   14.50    1.40
   5   2  12   12.80    1.20
   6  -2  12    0.60    0.40
   6   2  12    1.40    0.50
  -6   2 -12    0.70    0.60
   7  -2  12   51.99    3.30
  -7   2 -12   51.09    3.50
   7   2  12   46.10    3.30
   8  -2  12   19.10    1.50
  -8   2 -12   17.60    1.80
   8   2  12   17.90    1.60
   9  -2  12   18.80    1.60
   9   2  12   19.60    1.70
  -9   2 -12   19.80    2.00
  10  -2  12   39.20    2.80
 -10   2 -12   42.80    3.20
  10   2  12   37.00    2.80
  13  -3 -12   12.80    1.30
  12  -3 -12    1.40    0.50
 -12  -3  12    0.40    0.60
  12   3 -12    1.80    0.80
  11  -3 -12    7.80    0.90
 -11  -3  12    8.00    1.20
  11   3 -12    5.40    1.10
  10  -3 -12    2.10    0.60
 -10  -3  12    1.00    0.60
 -10   3  12    0.20    0.60
  10   3 -12    2.10    0.70
   9  -3 -12   43.20    2.80
  -9  -3  12   44.60    3.10
  -9   3  12   39.40    3.00
   9   3 -12   41.10    3.10
  -8  -3  12   18.00    1.70
   8  -3 -12   21.50    1.60
  -8   3  12   19.10    1.70
   8   3 -12   20.40    1.80
   7  -3 -12  172.38    9.30
  -7  -3  12  136.29    9.40
   7   3 -12  150.68    9.50
  -7   3  12  152.58    9.50
  -6  -3  12   83.89    5.50
   6  -3 -12   91.69    5.40
  -6   3  12   80.69    5.50
   6   3 -12   88.89    5.60
   5  -3 -12   30.50    2.20
  -5  -3  12   32.10    2.30
   5   3 -12   29.60    2.30
  -5   3  12   30.30    2.30
   4  -3 -12   10.20    1.00
  -4  -3  12   10.20    1.20
  -4   3  12    8.10    1.10
   4   3 -12    9.30    1.10
   3  -3 -12   91.79    5.60
  -3  -3  12   91.59    5.80
  -3   3  12   88.79    5.80
   3   3 -12   89.39    5.70
  -2  -3  12   34.60    2.50
   2  -3 -12   37.20    2.40
  -2   3  12   31.60    2.50
   2   3 -12   33.90    2.40
  -1  -3  12   27.10    1.60
   1  -3 -12   23.30    1.80
   1   3 -12   22.80    1.90
  -1   3  12   20.40    1.90
   0  -3  12  196.68   11.40
   0  -3 -12  189.38   11.60
   0   3 -12  200.08   11.70
   0   3  12  183.38   11.60
  -1  -3 -12    3.30    0.70
   1  -3  12    2.90    0.50
   1   3  12    3.10    0.70
  -1   3 -12    2.20    0.70
   2  -3  12   14.70    1.20
  -2  -3 -12   16.80    1.50
  -2   3 -12   17.70    1.50
   2   3  12   15.30    1.40
  -3  -3 -12   22.70    1.70
   3  -3  12   20.20    1.50
   3   3  12   19.90    1.70
  -3   3 -12   19.30    1.80
   4  -3  12   36.80    2.30
  -4  -3 -12   33.30    2.50
  -4   3 -12   32.60    2.50
   4   3  12   31.00    2.50
   5  -3  12    1.70    0.50
  -5  -3 -12    1.40    0.70
   5   3  12    2.00    0.70
  -5   3 -12    1.60    0.60
   6  -3  12   30.90    2.10
   6   3  12   24.00    2.20
  -6   3 -12   27.30    2.30
   7  -3  12   13.60    1.30
  -7   3 -12   16.50    1.70
   7   3  12   10.90    1.40
   8  -3  12   57.09    3.70
   8   3  12   53.69    3.90
  -8   3 -12   54.79    4.00
   9   3  12    6.60    1.10
  10  -4 -12    9.90    1.20
 -10  -4  12    9.50    1.40
 -10   4  12   11.00    1.50
  -9  -4  12    7.20    1.10
   9  -4 -12    6.50    1.00
   9   4 -12    8.90    1.40
  -9   4  12    7.10    1.20
  -8  -4  12   21.10    1.90
   8  -4 -12   18.70    1.60
  -8   4  12   19.10    1.90
   8   4 -12   20.20    2.00
  -7  -4  12   31.90    2.50
   7  -4 -12   33.40    2.40
   7   4 -12   30.90    2.50
  -7   4  12   27.40    2.50
   6  -4 -12   47.00    3.10
  -6  -4  12   44.90    3.30
   6   4 -12   43.50    3.30
  -6   4  12   44.50    3.40
   5  -4 -12   29.30    2.20
  -5  -4  12   32.10    2.40
  -5   4  12   27.70    2.40
   5   4 -12   28.80    2.40
   4  -4 -12   29.20    2.20
  -4  -4  12   27.10    2.30
  -4   4  12   27.30    2.40
   4   4 -12   31.30    2.30
  -3  -4  12   38.70    2.80
   3  -4 -12   38.80    2.80
  -3   4  12   35.00    2.90
  -2  -4  12    7.20    1.10
   2  -4 -12    7.30    1.10
  -2   4  12    7.80    1.10
   1  -4 -12   22.50    1.90
  -1  -4  12   21.80    1.90
  -1   4  12   23.40    2.00
   0  -4 -12   18.30    1.70
   0  -4  12   21.80    1.80
   0   4  12   17.30    1.70
  -1  -4 -12   43.90    3.10
   1  -4  12   45.50    2.90
  -1   4 -12   41.10    3.10
   1   4  12   40.00    3.10
  -2  -4 -12    0.50    0.60
   2  -4  12    0.50    0.50
  -2   4 -12    1.00    0.50
   2   4  12    0.40    0.50
   3  -4  12    5.10    0.80
  -3  -4 -12    4.80    1.00
  -3   4 -12    3.40    0.80
   3   4  12    4.00    0.90
   4  -4  12    3.00    0.70
  -4  -4 -12    1.90    0.80
   4   4  12    1.70    0.70
  -4   4 -12    2.40    0.80
   5  -4  12    8.40    1.00
  -5  -4 -12    6.50    1.20
   5   4  12    8.80    1.30
  -5   4 -12    7.40    1.20
  -6  -4 -12    4.90    1.10
   6  -4  12    2.90    0.70
  -6   4 -12    2.80    0.80
   6   4  12    2.60    0.90
  15   0 -13    5.50    0.90
 -15   0  13    5.70    1.10
  14   0 -13   32.60    2.50
 -14   0  13   36.70    2.70
  13   0 -13    3.20    0.70
 -13   0  13    3.20    0.80
  12   0 -13    2.20    0.60
 -12   0  13    2.90    0.70
 -11   0  13   29.40    2.10
  11   0 -13   27.20    2.00
 -10   0  13    4.80    0.80
  10   0 -13    3.90    0.60
   8   0 -13    3.30    0.50
   7   0 -13    7.70    0.70
  -7   0  13    6.40    0.80
   6   0 -13   78.69    4.70
  -6   0  13   73.89    4.80
  -5   0  13   91.09    5.60
   5   0 -13   89.49    5.40
  -5   0  13   90.59    5.40
  -4   0  13  118.29    7.30
  -4   0  13  116.09    7.20
   4   0 -13  126.39    7.20
  -3   0  13    2.60    0.50
   3   0 -13    2.10    0.30
  -3   0  13    2.30    0.30
  -2   0  13  164.48    9.90
   2   0 -13  166.98   10.10
   2   0 -13  172.48    9.90
   1   0 -13  254.97   15.50
   1   0 -13  279.27   15.30
  -1   0  13  249.18   15.40
   0   0  13  303.87   17.70
   0   0 -13  299.77   17.80
  -1   0 -13  160.18    9.90
  -1   0 -13  177.28    9.70
   1   0  13  154.78    9.70
  -2   0 -13   73.89    4.60
   2   0  13   72.59    4.50
  -3   0 -13   60.39    3.80
   3   0  13   59.09    3.70
   4   0  13  111.09    6.30
  -4   0 -13   97.39    6.50
  -5   0 -13   63.89    4.20
   5   0  13   65.49    4.00
   6   0  13  185.58   10.90
  -6   0 -13  179.98   11.10
  -7   0 -13   13.50    1.40
   7   0  13   14.80    1.20
  -8   0 -13    1.70    0.70
   8   0  13    2.10    0.50
  -9   0 -13   41.40    3.00
   9   0  13   39.20    2.70
 -10   0 -13   79.09    4.90
  10   0  13   65.29    4.50
  11   0  13   47.80    3.40
 -11   0 -13   54.09    3.80
  15  -1 -13    7.00    1.00
 -14  -1  13   18.10    1.70
  14  -1 -13   17.10    1.50
  14   1 -13   17.10    1.70
 -14   1  13   20.70    2.40
  13  -1 -13    8.30    1.00
 -13  -1  13    9.60    1.30
  13   1 -13    9.40    1.20
 -13   1  13   10.20    1.20
 -12  -1  13   54.19    3.50
  12  -1 -13   50.19    3.30
 -12   1  13   51.39    3.40
  12   1 -13   45.30    3.40
  11  -1 -13   34.70    2.30
 -11  -1  13   32.90    2.50
  11   1 -13   32.90    2.40
 -11   1  13   32.40    2.40
 -10  -1  13   35.00    2.40
  10  -1 -13   32.00    2.20
  10   1 -13   29.40    2.30
 -10   1  13   35.10    2.30
   9  -1 -13   87.39    5.40
  -9  -1  13   89.79    5.60
   9   1 -13   83.09    5.50
  -9   1  13   91.79    5.50
  -8  -1  13   30.30    2.10
   8  -1 -13   26.50    1.90
   8   1 -13   30.40    2.00
  -8   1  13   27.80    2.00
  -7  -1  13  159.58   10.00
   7  -1 -13  167.28    9.80
  -7   1  13  166.68    9.80
  -7   1  13  177.18    9.80
   7   1 -13  151.58    9.90
  -6  -1  13   15.40    1.30
   6  -1 -13   16.40    1.20
  -6   1  13   15.30    1.20
  -6   1  13   17.10    1.20
   6   1 -13   16.10    1.30
   5  -1 -13  215.78   14.00
  -5  -1  13  250.87   14.20
   5   1 -13  238.58   14.00
  -5   1  13  245.18   14.10
   4  -1 -13  192.48   12.00
  -4  -1  13  214.88   11.90
  -4  -1  13  213.88   12.20
  -4   1  13  209.18   12.10
   4   1 -13  185.08   12.00
  -3  -1  13  432.46   23.80
  -3  -1  13  413.46   24.10
   3   1 -13  368.36   23.90
  -3   1  13  419.56   24.00
   2  -1 -13   25.60    1.70
  -2  -1  13   27.00    1.60
   2   1 -13   25.10    1.70
  -2   1  13   26.50    1.80
   2   1 -13   23.40    1.80
  -1  -1  13    9.50    0.80
   1  -1 -13    9.00    0.80
   1  -1 -13   10.40    0.80
   1   1 -13    9.30    1.00
  -1   1  13   11.30    0.90
   0  -1 -13  259.67   15.50
   0  -1 -13  278.47   15.50
   0  -1  13  269.77   15.50
   0   1  13  248.28   15.50
   0   1 -13  259.07   15.70
  -1  -1 -13   78.29    4.60
   1   1  13   71.79    4.60
   2  -1  13  188.68   10.90
  -2  -1 -13  167.98   10.80
  -2  -1 -13  186.88   10.90
   2   1  13  189.68   11.00
  -2   1 -13  185.98   11.10
   3  -1  13   80.79    5.00
  -3  -1 -13   80.29    5.10
  -3   1 -13   86.69    5.20
   3   1  13   79.59    5.00
  -4  -1 -13   38.80    2.60
   4  -1  13   36.30    2.40
   4   1  13   39.60    2.50
  -4   1 -13   35.80    2.60
  -5  -1 -13   45.80    3.00
   5  -1  13   40.80    2.80
  -5   1 -13   47.90    3.10
   5   1  13   42.90    2.90
  -6  -1 -13   13.20    1.20
   6  -1  13   10.90    1.00
  -6   1 -13   11.60    1.30
   6   1  13   12.40    1.10
  -7  -1 -13    1.90    0.60
   7  -1  13    0.80    0.40
  -7   1 -13    2.10    0.70
   7   1  13    1.30    0.40
  -8  -1 -13    2.90    0.80
   8  -1  13    2.80    0.60
  -8   1 -13    3.90    0.90
   8   1  13    4.40    0.70
   9  -1  13   10.90    1.10
  -9  -1 -13    9.20    1.30
  -9   1 -13   10.40    1.40
   9   1  13   10.20    1.10
 -10  -1 -13   34.70    2.70
  10  -1  13   32.70    2.40
  10   1  13   32.50    2.50
 -10   1 -13   37.40    2.80
 -11  -1 -13   27.30    2.30
  11   1  13   22.80    1.90
  14  -2 -13    8.40    1.00
 -13  -2  13   13.40    1.50
  13  -2 -13   14.50    1.30
  13   2 -13   13.40    1.60
  12  -2 -13   11.90    1.20
 -12  -2  13   13.50    1.50
  12   2 -13   12.60    1.50
 -11  -2  13   13.80    1.40
  11  -2 -13   13.40    1.20
  11   2 -13   14.20    1.40
  10  -2 -13    3.10    0.60
 -10  -2  13    2.30    0.70
  10   2 -13    3.70    0.70
  -9  -2  13   21.50    1.80
   9  -2 -13   22.90    1.60
   9   2 -13   20.10    1.80
  -9   2  13   24.10    1.90
  -8  -2  13   55.09    3.60
   8  -2 -13   54.09    3.40
  -8   2  13   53.59    3.50
   8   2 -13   51.69    3.60
  -7  -2  13  234.38   13.50
   7  -2 -13  225.78   13.30
   7   2 -13  214.18   13.40
  -7   2  13  223.48   13.40
  -6  -2  13   24.60    1.90
   6  -2 -13   23.60    1.70
   6   2 -13   25.30    1.80
  -6   2  13   22.80    1.80
   5  -2 -13  343.97   18.10
  -5  -2  13  291.77   18.20
   5   2 -13  296.77   18.10
  -5   2  13  290.67   18.20
   4  -2 -13  201.68   11.50
  -4  -2  13  163.48   11.60
  -4   2  13  190.08   11.60
   4   2 -13  213.38   11.60
  -3  -2  13  251.67   14.50
   3  -2 -13  250.27   14.30
   3   2 -13  232.28   14.30
  -3   2  13  233.98   14.40
   2  -2 -13   62.19    4.30
  -2  -2  13   76.29    4.20
  -2   2  13   72.79    4.50
   2   2 -13   68.49    4.40
   1  -2 -13   97.09    6.30
  -1  -2  13  107.99    6.20
   1   2 -13  107.89    6.50
  -1   2  13  105.89    6.50
   0  -2  13   78.79    4.50
   0  -2 -13   78.09    4.60
   0   2  13   70.19    4.70
   0   2 -13   68.39    4.70
  -1  -2 -13   48.40    3.20
   1  -2  13   49.20    3.10
  -1   2 -13   50.09    3.30
   1   2  13   49.00    3.30
  -2  -2 -13   86.09    4.80
   2  -2  13   83.09    4.70
  -2   2 -13   65.59    4.90
   2   2  13   69.79    4.80
  -3  -2 -13    8.00    0.90
   3  -2  13   10.50    0.90
  -3   2 -13    9.40    1.10
   3   2  13    9.20    1.00
   4  -2  13    4.60    0.60
  -4  -2 -13    4.50    0.70
  -4   2 -13    4.20    0.80
   4   2  13    3.20    0.60
   5  -2  13    9.70    1.00
   5   2  13   11.40    1.10
  -5   2 -13   11.80    1.30
   6  -2  13   11.00    1.10
   6   2  13   10.10    1.10
  -6   2 -13   11.60    1.40
   7  -2  13   14.50    1.30
   7   2  13   14.00    1.40
  -7   2 -13   16.70    1.70
   8  -2  13    3.00    0.60
  -8   2 -13    2.30    0.80
   8   2  13    3.00    0.70
   9  -2  13   75.19    4.70
   9   2  13   71.29    4.90
  -9   2 -13   77.49    5.10
  10   2  13    3.50    0.80
  13  -3 -13    6.20    1.00
 -12  -3  13    8.90    1.30
  12  -3 -13    6.50    0.90
  12   3 -13    7.10    1.40
  11  -3 -13   21.90    1.70
 -11  -3  13   19.80    1.90
  11   3 -13   23.40    2.10
  10  -3 -13    7.70    0.90
 -10  -3  13    8.70    1.20
  10   3 -13    9.70    1.30
 -10   3  13    6.20    1.00
   9  -3 -13   21.80    1.60
  -9  -3  13   18.40    1.70
  -9   3  13   18.00    1.70
   9   3 -13   18.60    1.80
  -8  -3  13    0.20    0.50
   8  -3 -13    1.80    0.60
   8   3 -13    0.90    0.50
  -8   3  13    1.20    0.60
  -7  -3  13   65.99    4.20
   7  -3 -13   63.19    4.00
   7   3 -13   58.29    4.20
  -7   3  13   61.69    4.20
  -6  -3  13   23.70    1.90
   6  -3 -13   22.80    1.70
   6   3 -13   20.50    1.80
  -6   3  13   22.90    1.90
  -5  -3  13  299.57   17.50
   5  -3 -13  299.97   17.30
  -5   3  13  289.17   17.40
   5   3 -13  275.17   17.40
  -4  -3  13   80.09    5.30
   4  -3 -13   82.29    5.10
  -4   3  13   81.19    5.30
   4   3 -13   82.69    5.20
   3  -3 -13   94.79    5.50
  -3  -3  13   90.69    5.60
   3   3 -13   79.69    5.40
  -3   3  13   81.69    5.50
  -2  -3  13    1.50    0.60
   2  -3 -13    1.50    0.60
  -2   3  13    1.40    0.60
  -1  -3  13   40.90    2.40
   1  -3 -13   39.20    2.70
   1   3 -13   34.60    2.70
  -1   3  13   35.80    2.70
   0  -3 -13    0.80    0.50
   0  -3  13    1.50    0.40
   0   3  13    0.90    0.50
   0   3 -13    1.00    0.50
   1  -3  13   70.99    4.20
  -1  -3 -13   66.89    4.40
   1   3  13   64.79    4.50
  -1   3 -13   70.59    4.60
  -2  -3 -13    0.40    0.50
   2  -3  13    1.20    0.40
  -2   3 -13   -0.40    0.50
   2   3  13    0.10    0.40
   3  -3  13   14.20    1.20
  -3  -3 -13   13.60    1.30
  -3   3 -13   14.70    1.50
   3   3  13   15.00    1.40
   4  -3  13   25.10    1.80
  -4  -3 -13   23.90    2.00
   4   3  13   23.90    2.00
  -4   3 -13   26.90    2.10
   5  -3  13    0.60    0.50
  -5  -3 -13    1.10    0.70
   5   3  13    1.60    0.60
  -5   3 -13    1.40    0.70
   6  -3  13   25.90    1.90
   6   3  13   23.30    2.00
  -6   3 -13   26.90    2.30
   7  -3  13   19.70    1.60
  -7   3 -13   17.60    1.90
   7   3  13   17.80    1.70
   8  -3  13    3.00    0.90
  -8   3 -13    3.90    1.10
   8   3  13    3.80    0.90
  10  -4 -13    4.70    1.20
 -10   4  13    2.70    0.90
   9  -4 -13    6.70    0.90
  -9  -4  13    6.90    1.10
   9   4 -13    4.70    1.10
  -9   4  13    6.70    1.20
  -8  -4  13   28.30    2.30
   8  -4 -13   32.40    2.30
  -8   4  13   28.80    2.50
   8   4 -13   25.10    2.40
   7  -4 -13   35.00    2.50
  -7  -4  13   35.00    2.70
  -7   4  13   30.60    2.80
   7   4 -13   38.80    2.80
   6  -4 -13  104.09    6.10
  -6  -4  13   90.89    6.30
   6   4 -13   96.09    6.30
  -6   4  13   96.39    6.40
   5  -4 -13   37.30    2.50
  -5  -4  13   32.50    2.60
  -5   4  13   31.70    2.70
   5   4 -13   33.20    2.60
   4  -4 -13    4.00    0.90
  -4  -4  13    3.50    0.90
  -4   4  13    3.80    0.90
   3  -4 -13   15.90    1.60
  -3  -4  13   16.50    1.60
  -3   4  13   15.80    1.80
  -2  -4  13   16.70    1.70
   2  -4 -13   19.00    1.70
  -2   4  13   19.00    1.80
   1  -4 -13    3.30    0.70
  -1  -4  13    1.70    0.70
  -1   4  13    1.50    0.70
   0  -4 -13    2.10    0.80
   0  -4  13    2.40    0.80
   0   4  13    2.00    0.80
   1  -4  13    9.50    0.90
  -1  -4 -13    7.20    1.20
  -1   4 -13   10.30    1.30
   1   4  13    9.70    1.40
   2  -4  13   20.80    1.50
  -2  -4 -13   14.80    1.70
   2   4  13   15.40    1.80
  -2   4 -13   17.10    1.70
  -3  -4 -13    9.30    1.30
   3  -4  13   13.60    1.20
   3   4  13    8.60    1.30
  -3   4 -13    9.80    1.40
  -4  -4 -13   17.80    1.80
   4  -4  13   19.80    1.60
  -4   4 -13   16.40    1.70
   4   4  13   16.00    1.70
   5  -4  13   29.90    2.10
  -5  -4 -13   26.00    2.40
   5   4  13   25.10    2.30
  -5   4 -13   29.10    2.50
  15   0 -14    0.00    0.60
 -15   0  14    0.60    0.60
  14   0 -14   11.80    1.30
 -14   0  14   13.10    1.50
  13   0 -14    0.00    0.50
 -13   0  14    1.20    0.60
  12   0 -14   -0.20    0.40
 -12   0  14   -0.20    0.40
  11   0 -14    0.20    0.30
 -11   0  14    0.00    0.40
  10   0 -14   20.60    1.60
 -10   0  14   22.20    1.70
   9   0 -14   28.40    2.00
  -9   0  14   27.40    2.00
  -8   0  14  144.09    8.70
   8   0 -14  141.69    8.60
  -7   0  14    0.10    0.30
   7   0 -14    0.20    0.30
  -6   0  14  107.99    6.50
   6   0 -14  105.29    6.40
   5   0 -14   90.09    5.70
  -5   0  14  100.39    5.80
  -5   0  14   96.09    5.90
   4   0 -14   16.90    1.20
  -4   0  14   16.90    1.20
  -4   0  14   17.20    1.30
   3   0 -14  310.07   16.60
  -3   0  14  271.87   16.80
  -3   0  14  267.47   16.70
   2   0 -14 1382.46   87.79
  -2   0  14 1544.75   87.69
   2   0 -14 1593.54   87.59
   1   0 -14   41.90    2.80
   1   0 -14   44.50    2.60
  -1   0  14   39.10    2.60
   0   0  14   85.19    5.20
   0   0 -14   87.19    5.30
  -1   0 -14   23.80    1.80
   1   0  14   25.40    1.70
   2   0  14  150.38    8.90
  -2   0 -14  146.89    9.00
   3   0  14  125.99    7.10
  -3   0 -14  107.79    7.20
   4   0  14  133.79    8.20
  -4   0 -14  141.59    8.40
  -5   0 -14   19.50    1.80
   5   0  14   23.50    1.60
  -6   0 -14   -0.10    0.50
   6   0  14    0.20    0.30
  -7   0 -14   11.80    1.30
   7   0  14    9.90    1.00
  -8   0 -14   -0.10    0.60
   8   0  14    0.20    0.40
  -9   0 -14   19.70    1.90
   9   0  14   17.50    1.50
 -10   0 -14    4.30    1.00
  10   0  14    3.40    0.70
 -14  -1  14    9.90    1.30
  14  -1 -14    7.90    1.00
  14   1 -14    6.50    1.10
 -13  -1  14    4.10    0.90
  13  -1 -14    2.60    0.70
  13   1 -14    2.40    0.70
  12  -1 -14   24.30    1.80
 -12  -1  14   24.60    2.00
  12   1 -14   23.20    2.00
  11  -1 -14   18.40    1.40
 -11  -1  14   17.40    1.60
  11   1 -14   15.20    1.50
 -11   1  14   16.40    1.40
  10  -1 -14    5.90    0.70
 -10  -1  14    7.80    1.00
 -10   1  14    7.50    0.90
  10   1 -14    7.50    0.90
   9  -1 -14    7.10    0.80
  -9  -1  14    6.60    0.90
   9   1 -14    7.90    0.90
  -9   1  14    6.20    0.80
   8  -1 -14   56.99    3.60
  -8  -1  14   57.19    3.80
  -8   1  14   59.29    3.70
   8   1 -14   56.99    3.70
  -7  -1  14  107.69    6.50
   7  -1 -14  101.09    6.30
   7   1 -14  103.69    6.40
  -7   1  14   98.19    6.30
  -7   1  14  112.49    6.40
  -6  -1  14  104.39    6.20
   6  -1 -14   95.79    6.00
   6   1 -14   99.79    6.10
  -6   1  14   95.99    6.00
  -6   1  14   99.69    6.00
   5  -1 -14   30.10    2.20
  -5  -1  14   39.00    2.50
   5   1 -14   36.60    2.30
  -5   1  14   34.30    2.30
  -4  -1  14  157.18    8.80
   4  -1 -14  135.89    8.50
  -4   1  14  146.09    8.60
   4   1 -14  133.99    8.50
  -3  -1  14  299.97   17.20
   3  -1 -14  255.17   17.00
  -3  -1  14  320.27   17.00
   3   1 -14  269.67   17.00
  -3   1  14  304.57   17.10
   2  -1 -14  362.56   20.00
  -2  -1  14  361.56   20.00
  -2   1  14  351.26   20.10
   2   1 -14  321.67   20.20
   2   1 -14  308.37   20.00
   1  -1 -14  992.00   56.29
  -1  -1  14  944.51   56.19
   1  -1 -14 1002.70   56.19
   1   1 -14  907.31   56.39
  -1   1  14  978.60   56.29
   0  -1 -14    7.40    0.80
   0  -1 -14    8.50    0.80
   0  -1  14    7.30    0.70
   0   1 -14    9.30    1.10
   0   1  14    8.80    0.90
  -1  -1 -14  636.54   38.10
  -1  -1 -14  672.43   38.00
   1  -1  14  641.24   38.00
   1   1  14  670.73   38.10
  -1   1 -14  637.84   38.30
  -2  -1 -14   51.49    3.10
   2  -1  14   44.60    3.00
   2   1  14   47.00    3.10
  -2   1 -14   51.19    3.30
   3  -1  14   93.69    6.10
  -3  -1 -14  108.09    6.20
   3   1  14  103.89    6.20
  -3   1 -14  100.89    6.40
   4  -1  14    4.80    0.70
  -4  -1 -14    5.00    0.70
  -4   1 -14    4.80    0.80
   4   1  14    5.30    0.70
  -5  -1 -14   55.49    3.40
   5  -1  14   47.20    3.20
  -5   1 -14   49.99    3.50
   5   1  14   51.39    3.30
   6  -1  14   48.40    3.20
  -6  -1 -14   54.09    3.40
  -6   1 -14   49.50    3.40
   6   1  14   45.90    3.20
   7  -1  14   72.39    4.50
  -7  -1 -14   74.59    4.70
   7   1  14   68.49    4.60
  -7   1 -14   71.29    4.80
   8  -1  14   14.40    1.30
  -8  -1 -14   16.60    1.50
  -8   1 -14   13.40    1.60
   8   1  14   13.20    1.30
  -9  -1 -14    1.80    0.80
   9  -1  14    2.60    0.60
   9   1  14    2.20    0.60
  -9   1 -14    2.10    0.80
 -10  -1 -14    5.70    1.10
  10  -1  14    4.50    0.80
 -10   1 -14    6.20    1.20
  10   1  14    5.00    0.90
  14  -2 -14    1.30    0.60
 -13  -2  14   26.80    2.20
  13  -2 -14   23.80    1.90
  13   2 -14   27.00    2.30
 -12  -2  14    9.80    1.30
  12  -2 -14   10.10    1.10
  12   2 -14   10.20    1.30
 -11  -2  14   15.00    1.50
  11  -2 -14   15.50    1.30
  11   2 -14   14.70    1.50
  10  -2 -14   66.79    4.10
 -10  -2  14   66.49    4.40
  10   2 -14   61.59    4.30
  -9  -2  14   68.39    4.50
   9  -2 -14   68.79    4.30
   9   2 -14   64.89    4.40
   8  -2 -14   22.50    1.60
  -8  -2  14   20.60    1.80
   8   2 -14   20.90    1.80
  -8   2  14   24.30    1.80
  -7  -2  14   59.49    4.00
   7  -2 -14   64.99    3.80
  -7   2  14   60.19    3.90
   7   2 -14   53.89    3.90
   6  -2 -14    7.70    0.80
  -6  -2  14    6.20    0.90
  -6   2  14    7.20    0.90
   6   2 -14    6.40    0.90
   5  -2 -14  120.99    6.90
  -5  -2  14  115.29    7.10
   5   2 -14  105.99    7.00
  -5   2  14  111.59    7.00
  -4  -2  14  191.88   12.60
   4  -2 -14  204.48   12.40
  -4   2  14  212.38   12.50
   4   2 -14  222.68   12.50
  -3  -2  14  279.37   15.50
   3  -2 -14  250.27   15.20
  -3   2  14  250.87   15.30
   3   2 -14  250.57   15.20
  -2  -2  14  119.89    7.90
   2  -2 -14  148.29    7.70
  -2  -2  14  118.39    7.50
  -2   2  14  114.49    7.80
   2   2 -14  133.09    7.70
  -1  -2  14   27.20    1.70
   1  -2 -14   27.80    1.90
   1   2 -14   24.30    2.00
  -1   2  14   25.80    2.00
   0  -2 -14   13.40    1.20
   0  -2  14   13.50    1.00
   0   2 -14   15.30    1.30
   0   2  14   12.70    1.20
  -1  -2 -14   55.29    3.50
   1  -2  14   56.59    3.40
   1   2  14   56.09    3.60
  -1   2 -14   50.69    3.70
   2  -2  14  121.89    6.70
  -2  -2 -14  105.59    6.70
  -2   2 -14   98.29    6.90
   2   2  14  114.19    6.90
  -3  -2 -14   75.09    4.50
   3  -2  14   70.79    4.40
   3   2  14   69.89    4.60
  -3   2 -14   68.39    4.70
   4  -2  14    1.70    0.50
   4   2  14    1.70    0.50
  -4   2 -14    1.00    0.60
   5  -2  14    9.10    0.90
   5   2  14    8.40    1.10
  -5   2 -14    9.50    1.30
   6  -2  14    1.90    0.50
   6   2  14    2.40    0.70
  -6   2 -14    1.70    0.70
   7  -2  14    8.20    1.00
   7   2  14    8.40    1.10
  -7   2 -14    7.20    1.20
   8  -2  14   44.40    3.20
  -8   2 -14   52.49    3.70
   8   2  14   51.09    3.40
   9  -2  14    5.60    1.00
   9   2  14    5.50    1.00
  -9   2 -14    6.00    1.30
  12  -3 -14    8.60    1.00
 -11  -3  14   29.20    2.40
  11  -3 -14   32.00    2.30
  11   3 -14   30.20    2.50
 -10  -3  14   28.80    2.30
  10  -3 -14   28.60    2.00
  10   3 -14   25.60    2.30
  -9  -3  14    3.60    0.90
   9  -3 -14    3.70    0.70
   9   3 -14    3.70    0.90
  -9   3  14    3.60    0.80
  -8  -3  14    2.50    0.70
   8  -3 -14    2.40    0.60
  -8   3  14    3.40    0.80
   8   3 -14    2.80    0.70
   7  -3 -14    2.30    0.60
  -7  -3  14    3.10    0.80
  -7   3  14    1.50    0.60
   7   3 -14    3.00    0.80
  -6  -3  14  203.68   11.80
   6  -3 -14  196.28   11.60
   6   3 -14  181.98   11.70
  -6   3  14  188.68   11.70
   5  -3 -14    7.30    0.90
  -5  -3  14    5.10    1.00
  -5   3  14    5.50    1.00
   5   3 -14    7.90    1.00
  -4  -3  14  166.88    9.90
   4  -3 -14  161.18    9.70
  -4   3  14  158.58    9.90
   4   3 -14  156.88    9.80
   3  -3 -14    9.60    1.00
  -3  -3  14    6.60    1.00
  -3   3  14    6.90    1.10
   2  -3 -14   25.40    1.90
  -2  -3  14   25.30    2.10
  -2   3  14   28.20    2.10
  -1  -3  14   14.20    1.40
   1  -3 -14   14.10    1.40
  -1   3  14   13.90    1.40
   1   3 -14   15.40    1.40
   0  -3  14    9.90    0.90
   0  -3 -14   10.10    1.10
   0   3  14    9.90    1.20
   0   3 -14   11.00    1.30
  -1  -3 -14    9.60    1.10
   1  -3  14    6.90    0.80
   1   3  14    9.20    1.10
  -1   3 -14    7.60    1.10
  -2  -3 -14   71.49    4.50
   2  -3  14   73.29    4.30
  -2   3 -14   65.39    4.60
   2   3  14   63.89    4.50
   3  -3  14    4.60    0.70
  -3  -3 -14    3.90    0.80
   3   3  14    3.60    0.80
  -3   3 -14    4.40    0.90
  -4  -3 -14   14.30    1.40
   4  -3  14   14.90    1.30
  -4   3 -14   13.30    1.60
   4   3  14   13.00    1.40
   5  -3  14   24.00    1.80
  -5   3 -14   20.70    2.00
   5   3  14   20.40    1.90
   6  -3  14   16.90    1.50
  -6   3 -14   17.00    1.80
   6   3  14   14.50    1.60
   7  -3  14   30.00    2.20
  -7   3 -14   30.50    2.60
   7   3  14   27.50    2.40
 -10   4  14   10.70    1.80
  -9  -4  14    0.90    0.70
   9  -4 -14    1.00    0.60
  -9   4  14   -0.10    0.70
   9   4 -14   -0.10    1.00
  -8  -4  14    0.30    0.60
   8  -4 -14    1.20    0.60
  -8   4  14   -0.10    0.70
   8   4 -14    0.60    0.70
  -7  -4  14   20.70    1.90
   7  -4 -14   18.50    1.70
   7   4 -14   20.10    1.90
  -7   4  14   18.50    2.00
   6  -4 -14   61.79    3.90
  -6  -4  14   59.19    4.10
  -6   4  14   54.79    4.10
   6   4 -14   57.49    4.10
   5  -4 -14   24.10    1.90
  -5  -4  14   19.80    2.00
  -5   4  14   18.00    1.90
   5   4 -14   23.10    2.20
  -4  -4  14   20.20    1.90
   4  -4 -14   20.80    1.80
  -4   4  14   21.00    1.90
   3  -4 -14    0.70    0.60
  -3  -4  14    0.20    0.60
  -3   4  14    0.50    0.70
  -2  -4  14    0.60    0.70
   2  -4 -14    3.60    0.80
  -2   4  14    2.60    0.80
  -1  -4  14    1.30    0.80
   1  -4 -14    1.80    0.70
  -1   4  14    1.30    0.70
   0  -4  14   42.40    2.90
   0  -4 -14   35.40    2.70
   0   4  14   31.30    2.70
  -1  -4 -14    2.20    0.80
  -1   4 -14    3.10    0.80
   1   4  14    1.70    0.70
   2  -4  14   27.40    1.90
  -2  -4 -14   22.10    2.10
  -2   4 -14   25.50    2.20
   2   4  14   23.00    2.20
  -3  -4 -14   -0.80    0.60
   3  -4  14    0.20    0.50
   3   4  14    0.40    0.70
  -3   4 -14    0.10    0.70
   4  -4  14   15.40    1.40
  -4  -4 -14   12.70    1.60
  -4   4 -14   15.40    1.80
   4   4  14   12.70    1.60
  -5  -4 -14   33.70    2.80
  14   0 -15   48.90    3.60
 -14   0  15   59.19    3.80
  13   0 -15    7.90    1.10
 -13   0  15    9.50    1.20
  12   0 -15   14.10    1.30
 -12   0  15   15.50    1.50
  11   0 -15   31.70    2.30
 -11   0  15   35.00    2.50
  10   0 -15   13.40    1.20
  -9   0  15   52.79    3.40
   9   0 -15   47.00    3.20
  -8   0  15   53.99    3.60
   8   0 -15   55.69    3.50
  -7   0  15   34.20    2.40
   7   0 -15   35.20    2.30
  -6   0  15  446.86   27.40
   6   0 -15  484.25   27.30
  -5   0  15   81.59    5.20
  -5   0  15   81.29    5.00
   5   0 -15   83.99    5.00
   4   0 -15  249.68   14.10
  -4   0  15  239.48   14.30
  -4   0  15  228.28   14.10
  -3   0  15    1.20    0.30
   3   0 -15    1.60    0.30
  -3   0  15    1.50    0.50
   2   0 -15  144.49    9.30
  -2   0  15  145.19    9.20
   2   0 -15  172.38    9.20
   1   0 -15  101.29    6.90
  -1   0  15  108.89    6.80
   1   0 -15  126.99    6.80
   0   0 -15 1989.20  116.59
   0   0  15 2015.30  116.39
  -1   0 -15    1.40    0.50
   1   0  15    0.70    0.30
  -2   0 -15  498.05   29.80
   2   0  15  513.65   29.60
  -3   0 -15   36.90    2.50
   3   0  15   34.70    2.40
   4   0  15   13.60    1.10
  -4   0 -15   15.30    1.30
  -5   0 -15    1.60    0.60
   5   0  15    1.20    0.40
   6   0  15   49.30    3.30
  -6   0 -15   50.99    3.50
   7   0  15    0.80    0.50
  -7   0 -15    1.00    0.60
  -8   0 -15    0.50    0.60
   8   0  15    1.00    0.50
   9   0  15    0.70    0.50
  -9   0 -15    0.70    0.80
 -10   0 -15   11.80    1.60
 -14  -1  15   18.90    1.70
  14  -1 -15   15.90    1.40
  14   1 -15   12.30    1.50
 -13  -1  15    1.90    0.70
  13  -1 -15    3.50    0.70
  13   1 -15    4.10    0.80
  12  -1 -15    8.60    1.00
 -12  -1  15    7.20    1.10
  12   1 -15    9.90    1.20
  11  -1 -15    0.20    0.30
 -11  -1  15    0.00    0.40
  11   1 -15    0.30    0.50
 -10  -1  15    3.60    0.70
  10  -1 -15    5.10    0.70
  10   1 -15    4.20    0.70
  -9  -1  15    9.20    1.10
   9  -1 -15    8.10    0.80
   9   1 -15    7.80    1.00
  -8  -1  15   78.09    5.10
   8  -1 -15   86.99    4.90
   8   1 -15   73.29    5.00
  -7  -1  15  103.69    6.40
   7  -1 -15  105.99    6.20
   7   1 -15   94.99    6.30
  -7   1  15  102.99    6.70
  -6  -1  15  108.29    6.80
   6  -1 -15  109.69    6.60
  -6   1  15  112.69    6.70
   6   1 -15  108.69    6.70
  -5  -1  15   74.09    4.70
   5  -1 -15   76.79    4.60
  -5   1  15   71.99    4.60
   5   1 -15   72.79    4.60
   4  -1 -15  114.89    7.10
  -4  -1  15  122.99    7.30
  -4   1  15  123.79    7.20
   4   1 -15  112.69    7.10
  -3  -1  15   33.50    2.10
  -3  -1  15   32.10    2.40
   3  -1 -15   34.60    2.20
   3   1 -15   33.20    2.20
  -3   1  15   35.30    2.30
   2  -1 -15  141.09    8.30
  -2  -1  15  134.79    8.30
   2   1 -15  146.09    8.30
   2   1 -15  134.69    8.50
  -2   1  15  141.19    8.40
   1  -1 -15  260.77   16.20
   1  -1 -15  289.17   16.30
  -1  -1  15  286.87   16.20
  -1   1  15  273.57   16.30
   1   1 -15  264.07   16.40
   0  -1 -15  107.19    6.70
   0  -1  15  114.99    6.70
   0  -1 -15  118.49    6.90
   0   1 -15  112.19    7.00
   0   1  15  110.49    6.90
  -1  -1 -15  103.49    6.50
  -1  -1 -15  107.89    6.40
   1  -1  15  103.99    6.40
  -1   1 -15  111.39    6.70
   1   1  15  108.79    6.60
   2  -1  15   17.20    1.30
  -2  -1 -15   16.70    1.40
   2   1  15   16.90    1.30
  -2   1 -15   16.90    1.50
   3  -1  15   26.50    1.90
  -3  -1 -15   29.00    2.00
  -3   1 -15   29.80    2.10
   3   1  15   25.10    1.90
  -4  -1 -15   53.59    3.20
   4  -1  15   47.10    3.10
   4   1  15   44.40    3.10
  -4   1 -15   46.70    3.30
  -5  -1 -15   36.40    2.50
   5  -1  15   31.30    2.30
  -5   1 -15   37.00    2.60
   5   1  15   33.20    2.40
   6  -1  15    0.00    0.40
  -6  -1 -15    0.40    0.50
  -6   1 -15    0.20    0.50
   6   1  15    0.50    0.40
  -7  -1 -15    9.10    1.20
   7  -1  15    8.80    1.00
  -7   1 -15    7.10    1.10
   7   1  15    7.40    1.00
   8  -1  15    1.70    0.60
  -8  -1 -15    2.80    0.80
   8   1  15    1.40    0.60
  -8   1 -15    3.40    1.00
  -9  -1 -15   10.20    1.50
   9  -1  15    6.10    0.90
  -9   1 -15    7.80    1.30
   9   1  15    6.70    0.90
  13  -2 -15    4.90    0.80
 -13  -2  15    2.40    0.80
  13   2 -15    3.40    0.90
 -12  -2  15   27.40    2.30
  12  -2 -15   27.10    2.00
  12   2 -15   28.60    2.30
 -11  -2  15    3.50    0.90
  11  -2 -15    4.20    0.70
  11   2 -15    3.00    0.70
  10  -2 -15  102.69    6.10
 -10  -2  15   97.19    6.30
  10   2 -15   92.79    6.30
   9  -2 -15   11.70    1.10
  -9  -2  15   10.60    1.30
   9   2 -15   11.30    1.30
  -8  -2  15    0.90    0.50
   8  -2 -15    0.70    0.40
   8   2 -15    0.60    0.50
  -8   2  15    0.90    0.50
  -7  -2  15   39.40    2.90
   7  -2 -15   42.30    2.70
   7   2 -15   42.80    2.90
  -7   2  15   38.70    2.80
   6  -2 -15    9.60    1.00
  -6  -2  15    8.90    1.10
  -6   2  15    9.50    1.10
   6   2 -15    8.90    1.00
   5  -2 -15   73.19    4.50
  -5  -2  15   70.59    4.70
  -5   2  15   74.89    4.60
   5   2 -15   67.59    4.50
   4  -2 -15   60.49    3.60
  -4  -2  15   53.89    3.80
  -4   2  15   53.69    3.70
   4   2 -15   54.39    3.60
  -3  -2  15  128.89    7.70
   3  -2 -15  127.89    7.40
   3   2 -15  116.89    7.40
  -3   2  15  117.79    7.60
   2  -2 -15   30.50    2.10
  -2  -2  15   29.80    1.90
  -2  -2  15   30.40    2.30
  -2   2  15   29.80    2.20
  -1  -2  15   27.80    1.80
   1  -2 -15   25.70    1.90
  -1   2  15   27.40    2.10
   1   2 -15   28.20    2.10
   0  -2  15  135.19    7.80
   0  -2 -15  134.39    7.90
   0   2 -15  128.99    8.10
   0   2  15  122.69    8.00
   1  -2  15  113.89    6.50
  -1  -2 -15   94.19    6.60
  -1   2 -15  113.89    6.80
   1   2  15  111.79    6.70
  -2  -2 -15   64.09    4.40
   2  -2  15   78.49    4.40
   2   2  15   70.29    4.50
  -2   2 -15   66.39    4.60
   3  -2  15  224.28   12.80
  -3   2 -15  215.08   13.10
   3   2  15  204.68   12.90
   4  -2  15   20.30    1.50
   4   2  15   19.40    1.70
  -4   2 -15   17.70    1.70
   5  -2  15    4.60    0.70
   5   2  15    4.80    0.80
  -5   2 -15    3.80    0.90
   6  -2  15    1.70    0.60
  -6   2 -15    3.40    0.90
   6   2  15    2.50    0.70
   7  -2  15   99.99    5.90
   7   2  15   91.79    6.10
  -7   2 -15   93.69    6.30
   8  -2  15    3.80    0.80
   8   2  15    3.80    0.90
  -8   2 -15    4.50    1.10
 -11  -3  15   20.40    1.90
  11  -3 -15   21.50    1.70
  11   3 -15   19.80    2.00
  10  -3 -15    5.30    0.80
 -10  -3  15    6.80    1.10
  10   3 -15    5.60    1.00
   9  -3 -15   29.70    2.20
  -9  -3  15   29.00    2.40
   9   3 -15   30.10    2.50
  -9   3  15   30.30    2.40
   8  -3 -15    2.40    0.70
  -8  -3  15    1.70    0.70
   8   3 -15    2.80    0.70
  -8   3  15    2.10    0.70
   7  -3 -15   16.30    1.40
  -7  -3  15   16.00    1.60
   7   3 -15   16.80    1.60
  -7   3  15   15.70    1.60
   6  -3 -15   49.99    3.30
  -6  -3  15   43.40    3.40
  -6   3  15   49.30    3.50
   6   3 -15   51.49    3.40
   5  -3 -15   34.00    2.30
  -5  -3  15   31.10    2.50
   5   3 -15   30.60    2.30
  -5   3  15   26.50    2.40
  -4  -3  15   41.50    3.20
   4  -3 -15   48.70    3.10
   4   3 -15   45.10    3.30
  -4   3  15   42.00    3.20
  -3  -3  15    9.80    1.30
   3  -3 -15   12.60    1.20
  -3   3  15   11.90    1.40
  -2  -3  15   22.70    2.00
   2  -3 -15   24.90    1.90
  -2   3  15   23.20    2.00
   1  -3 -15    6.00    0.80
  -1   3  15    5.20    0.90
   0  -3  15   25.20    1.70
   0  -3 -15   23.10    1.80
   0   3  15   22.00    1.90
   0   3 -15   23.90    2.00
  -1  -3 -15    5.10    0.80
   1  -3  15    3.50    0.60
   1   3  15    3.30    0.80
  -1   3 -15    2.00    0.80
   2  -3  15   73.29    4.50
  -2  -3 -15   81.79    4.70
   2   3  15   64.89    4.70
  -2   3 -15   63.59    4.80
  -3  -3 -15   98.59    5.80
   3  -3  15   90.99    5.50
   3   3  15   79.19    5.80
  -3   3 -15   89.29    5.90
   4  -3  15   80.89    4.60
   4   3  15   62.89    4.80
  -4   3 -15   74.09    5.00
   5  -3  15   55.59    3.30
  -5   3 -15   44.90    3.60
   5   3  15   46.30    3.50
   6  -3  15   33.60    2.40
   6   3  15   32.70    2.60
  -6   3 -15   31.30    2.70
  -9   4  15    6.90    1.30
   8  -4 -15    1.70    0.80
  -8  -4  15    0.50    0.70
   8   4 -15    1.00    0.80
  -8   4  15    0.90    0.70
   7  -4 -15    1.20    0.60
  -7  -4  15    1.40    0.70
  -7   4  15    0.40    0.70
   7   4 -15    0.60    0.70
   6  -4 -15    1.20    0.60
  -6  -4  15    0.50    0.70
  -6   4  15    0.80    0.80
   6   4 -15    1.00    0.70
   5  -4 -15   61.29    3.70
  -5  -4  15   46.80    3.80
  -5   4  15   51.19    3.90
  -4  -4  15    8.90    1.30
   4  -4 -15   11.60    1.20
  -4   4  15    9.60    1.40
   3  -4 -15   12.50    1.40
  -3  -4  15   14.70    1.70
  -3   4  15   13.10    1.60
  -2  -4  15   26.30    2.30
   2  -4 -15   26.50    2.10
  -2   4  15   25.80    2.30
  -1  -4  15    0.70    0.70
   1  -4 -15    0.30    0.60
  -1   4  15    0.30    0.60
   0  -4  15    0.40    0.70
   0  -4 -15    0.90    0.70
   0   4  15    0.20    0.60
  -1  -4 -15    1.60    0.70
   1   4  15    0.70    0.70
  -1   4 -15    0.10    0.60
   2  -4  15   14.20    1.30
  -2  -4 -15   13.20    1.50
   2   4  15   12.70    1.70
  -2   4 -15   14.20    1.70
  -3  -4 -15   15.60    1.70
   3  -4  15   14.60    1.30
  -3   4 -15   13.70    1.70
   3   4  15   14.80    2.00
   4  -4  15   29.60    2.10
  -4  -4 -15   24.00    2.30
  14   0 -16   14.80    1.50
 -14   0  16   20.80    1.80
 -13   0  16   16.70    1.60
  13   0 -16   14.00    1.40
  12   0 -16    2.80    0.70
 -12   0  16    3.30    0.80
  11   0 -16   23.90    1.90
 -11   0  16   27.70    2.10
  10   0 -16    2.10    0.50
 -10   0  16    1.80    0.60
   9   0 -16    0.70    0.40
  -9   0  16    0.40    0.40
  -8   0  16    3.10    0.60
   8   0 -16    3.20    0.60
   7   0 -16    0.30    0.30
  -7   0  16   -0.30    0.30
  -6   0  16    4.80    0.80
   6   0 -16    5.00    0.60
  -5   0  16   -0.10    0.40
   5   0 -16    0.00    0.30
  -4   0  16   12.10    1.20
  -4   0  16   11.90    1.00
   4   0 -16   14.80    1.00
   3   0 -16   12.40    1.00
  -3   0  16   14.10    1.10
  -3   0  16   13.70    1.20
  -2   0  16  105.49    6.60
   2   0 -16  112.89    6.50
  -1   0  16   27.00    1.90
   1   0 -16   31.80    1.90
   1   0 -16   25.40    2.00
   0   0 -16    1.80    0.50
  -1   0 -16    4.50    0.70
   1   0  16    4.70    0.60
  -2   0 -16    9.10    1.00
   2   0  16    7.90    0.80
  -3   0 -16   34.90    2.50
   3   0  16   35.10    2.30
  -4   0 -16    1.70    0.60
   4   0  16    1.30    0.40
  -5   0 -16    1.00    0.60
   5   0  16    0.70    0.40
  -6   0 -16   13.00    1.50
   6   0  16   12.90    1.20
   7   0  16    2.20    0.60
  -7   0 -16    2.20    0.80
  -8   0 -16    2.40    0.90
   8   0  16    2.70    0.60
  -9   0 -16   19.00    2.00
   9   0  16   16.50    1.50
  14  -1 -16    1.30    0.60
 -13  -1  16   70.29    4.80
  13  -1 -16   75.19    4.70
  13   1 -16   70.59    4.80
 -12  -1  16   20.70    1.80
  12  -1 -16   20.90    1.60
  12   1 -16   17.90    1.70
 -11  -1  16   14.70    1.40
  11  -1 -16   14.90    1.30
  11   1 -16   14.10    1.40
  10  -1 -16    2.30    0.50
 -10  -1  16    1.70    0.60
  10   1 -16    1.90    0.60
   9  -1 -16   22.00    1.60
  -9  -1  16   22.50    1.80
   9   1 -16   20.30    1.70
   8  -1 -16   44.70    2.80
  -8  -1  16   39.90    3.00
   8   1 -16   45.60    3.00
   7  -1 -16   10.10    0.90
  -7  -1  16    8.20    1.10
   7   1 -16   10.00    1.00
   6  -1 -16    7.70    0.80
  -6  -1  16    7.50    1.00
   6   1 -16    8.60    0.90
  -6   1  16    7.00    0.90
  -5  -1  16  215.08   13.20
   5  -1 -16  228.68   13.00
   5   1 -16  215.98   13.00
  -5   1  16  213.68   13.00
   4  -1 -16   16.90    1.20
  -4  -1  16   16.60    1.50
  -4   1  16   15.40    1.30
   4   1 -16   16.20    1.30
  -3  -1  16   36.20    2.30
   3  -1 -16   37.30    2.40
  -3  -1  16   34.50    2.60
  -3   1  16   35.20    2.50
   3   1 -16   41.70    2.50
  -2  -1  16  167.68    9.50
   2  -1 -16  134.89    9.50
  -2   1  16  171.88    9.70
   2   1 -16  168.18    9.80
   2   1 -16  164.68    9.60
   1  -1 -16   34.80    2.20
  -1  -1  16   31.10    2.10
   1  -1 -16   32.70    2.20
  -1   1  16   32.00    2.30
   1   1 -16   32.30    2.40
   0  -1  16   15.00    1.10
   0  -1 -16   14.30    1.20
   0  -1 -16   14.20    1.10
   0   1 -16   14.50    1.40
   0   1  16   14.30    1.20
   1  -1  16  244.18   14.80
  -1  -1 -16  261.87   14.90
   1   1  16  247.18   14.90
  -1   1 -16  251.77   15.10
  -2  -1 -16  292.17   17.10
   2  -1  16  278.77   16.90
  -2   1 -16  291.87   17.20
   2   1  16  286.67   17.00
   3  -1  16   52.29    3.30
  -3  -1 -16   57.59    3.50
  -3   1 -16   51.09    3.60
   3   1  16   49.10    3.40
   4  -1  16   90.19    5.70
  -4  -1 -16   96.69    5.90
   4   1  16   93.99    5.80
  -4   1 -16   91.39    6.00
  -5  -1 -16    3.50    0.80
   5  -1  16    3.20    0.60
  -5   1 -16    3.90    0.90
   5   1  16    2.60    0.60
   6  -1  16    2.80    0.60
   6   1  16    1.90    0.50
  -6   1 -16    2.40    0.80
   7  -1  16    3.70    0.70
   7   1  16    4.60    0.80
  -7   1 -16    5.70    1.10
   8  -1  16   49.70    3.20
  -8   1 -16   50.49    3.60
   8   1  16   42.50    3.20
  13  -2 -16    0.10    0.40
 -12  -2  16   20.90    1.80
  12  -2 -16   16.70    1.50
  12   2 -16   16.60    1.70
  11  -2 -16   14.20    1.30
 -11  -2  16   16.70    1.70
  11   2 -16   14.10    1.50
  10  -2 -16    1.50    0.50
 -10  -2  16    0.90    0.50
  10   2 -16    1.60    0.60
   9  -2 -16   17.50    1.40
  -9  -2  16   18.50    1.60
   9   2 -16   16.80    1.60
   8  -2 -16    4.50    0.70
  -8  -2  16    5.50    1.00
   8   2 -16    5.00    0.80
   7  -2 -16    2.80    0.60
  -7  -2  16    3.70    0.80
  -7   2  16    4.40    0.80
   7   2 -16    4.00    0.80
   6  -2 -16   14.90    1.30
  -6  -2  16   15.90    1.50
  -6   2  16   14.40    1.40
   6   2 -16   13.90    1.30
   5  -2 -16   34.30    2.30
  -5  -2  16   33.10    2.50
  -5   2  16   31.50    2.40
   5   2 -16   31.20    2.30
   4  -2 -16   58.99    3.60
  -4  -2  16   53.99    3.90
  -4   2  16   56.79    3.80
   4   2 -16   55.69    3.70
   3  -2 -16  164.78    9.60
  -3  -2  16  159.78    9.90
  -3   2  16  153.88    9.70
  -2  -2  16   46.30    3.30
   2  -2 -16   49.00    3.10
  -2   2  16   43.90    3.20
  -1  -2  16   81.99    4.80
   1  -2 -16   77.89    4.90
  -1   2  16   79.09    5.10
   1   2 -16   79.39    5.20
   0  -2  16   20.90    1.40
   0  -2 -16   17.80    1.50
   0   2  16   18.70    1.60
   0   2 -16   16.90    1.60
   1  -2  16   72.19    4.50
  -1  -2 -16   84.79    4.60
  -1   2 -16   66.59    4.80
   1   2  16   67.09    4.70
  -2  -2 -16   36.20    2.70
   2  -2  16   36.40    2.40
   2   2  16   34.60    2.60
  -2   2 -16   34.70    2.70
   3  -2  16  119.19    6.70
   3   2  16  101.19    6.80
  -3   2 -16  106.09    7.00
   4  -2  16   56.19    3.60
   4   2  16   50.79    3.70
  -4   2 -16   60.09    3.90
   5  -2  16   40.80    2.70
  -5   2 -16   41.60    3.10
   5   2  16   38.90    2.90
   6  -2  16   21.30    1.70
  -6   2 -16   19.90    2.00
   6   2  16   20.80    1.80
   7  -2  16   25.10    2.00
  -7   2 -16   28.10    2.40
   7   2  16   24.70    2.10
  11  -3 -16   28.30    2.10
 -10  -3  16    4.20    1.00
  10  -3 -16    3.70    0.70
  10   3 -16    2.40    0.80
  -9  -3  16   32.70    2.70
   9  -3 -16   36.40    2.50
   9   3 -16   36.60    2.80
  -8  -3  16    7.80    1.20
   8  -3 -16    7.00    0.90
   8   3 -16    6.00    1.00
  -8   3  16    6.80    1.10
  -7  -3  16    2.30    0.80
   7  -3 -16    2.10    0.60
   7   3 -16    2.00    0.70
  -7   3  16    1.70    0.70
  -6  -3  16   10.00    1.40
   6  -3 -16   11.10    1.10
  -6   3  16    9.50    1.30
   6   3 -16   11.40    1.30
  -5  -3  16   15.20    1.60
   5  -3 -16   13.20    1.30
  -5   3  16   12.70    1.50
   5   3 -16   11.40    1.30
  -4  -3  16   75.59    5.10
   4  -3 -16   77.59    4.90
  -4   3  16   74.29    5.00
   3  -3 -16   45.00    2.90
  -3  -3  16   44.80    3.20
  -3   3  16   38.30    3.10
   2  -3 -16   36.50    2.50
  -2  -3  16   35.90    2.80
  -2   3  16   33.10    2.60
  -1  -3  16   55.29    4.10
   1  -3 -16   61.49    3.90
  -1   3  16   57.89    4.00
   0  -3  16    7.50    0.90
   0  -3 -16    7.00    1.00
   0   3 -16    6.60    1.10
   0   3  16    7.50    1.10
   1  -3  16    3.10    0.60
  -1  -3 -16    4.50    0.80
  -1   3 -16    2.40    0.80
   1   3  16    4.30    0.80
   2  -3  16    7.70    0.90
  -2  -3 -16    8.00    1.10
   2   3  16    5.60    1.00
  -2   3 -16    6.30    1.10
  -3  -3 -16   42.70    3.80
   3  -3  16   51.89    3.10
   3   3  16   43.60    3.40
  -3   3 -16   47.50    3.50
   4  -3  16   14.00    1.30
   4   3  16   15.00    1.60
  -4   3 -16   13.40    1.70
   5  -3  16   14.70    1.40
  -5   3 -16   14.70    1.80
   5   3  16   15.40    1.60
   6  -3  16   31.90    2.50
   8   4 -16   12.70    1.90
  -8   4  16   11.30    1.60
  -7  -4  16    4.50    1.00
   7   4 -16    4.00    1.10
  -7   4  16    3.50    1.00
  -6  -4  16   -0.20    0.70
   6  -4 -16    1.20    0.70
  -6   4  16   -0.20    0.60
   5  -4 -16   35.80    2.50
  -5  -4  16   29.30    2.60
  -5   4  16   31.00    2.70
   4  -4 -16   18.30    1.70
  -4  -4  16   16.60    1.80
  -4   4  16   16.70    1.80
  -3  -4  16    5.10    1.10
   3  -4 -16    4.30    0.90
  -3   4  16    3.40    1.00
   2  -4 -16    8.30    1.20
  -2  -4  16    9.00    1.40
  -2   4  16    9.10    1.40
   1  -4 -16    7.50    1.10
  -1  -4  16    4.10    1.00
  -1   4  16    5.70    1.10
   0  -4 -16   24.90    2.00
   0  -4  16   21.50    2.10
   0   4  16   21.20    2.10
  -1  -4 -16    6.40    1.10
   1   4  16    4.40    1.00
  -1   4 -16    3.50    0.90
  -2  -4 -16    0.40    0.70
  -2   4 -16    0.00    0.70
  -3  -4 -16    3.10    0.90
   3  -4  16    2.50    0.70
 -14   0  17   33.50    2.70
  13   0 -17   -0.30    0.40
 -13   0  17   -0.90    0.50
 -12   0  17   40.10    2.80
  12   0 -17   35.40    2.70
  11   0 -17   14.80    1.40
 -11   0  17   17.50    1.50
  10   0 -17   26.80    2.00
 -10   0  17   30.10    2.20
  -9   0  17   12.90    1.30
   9   0 -17   12.10    1.10
   8   0 -17    9.30    0.90
  -8   0  17    9.60    1.00
   7   0 -17   92.39    6.00
  -7   0  17  107.29    6.20
  -6   0  17    2.20    0.50
   6   0 -17    2.90    0.50
   5   0 -17   60.39    3.70
  -5   0  17   56.49    3.80
  -4   0  17  110.89    6.80
  -4   0  17  113.09    6.90
   4   0 -17  112.39    6.80
   3   0 -17   33.30    2.10
  -3   0  17   32.30    2.30
  -3   0  17   33.00    2.20
  -2   0  17    8.50    1.00
   2   0 -17    9.10    0.80
  -2   0  17    7.10    0.80
   1   0 -17  105.99    6.50
  -1   0  17  104.59    6.40
   0   0 -17   15.10    1.30
   0   0  17   15.00    1.20
  -1   0 -17    1.40    0.50
   1   0  17    1.40    0.40
  -2   0 -17   13.40    1.30
   2   0  17   15.30    1.20
   3   0  17   18.20    1.40
  -3   0 -17   16.10    1.50
  -4   0 -17   50.09    3.60
   4   0  17   54.39    3.40
  -5   0 -17    0.60    0.60
   5   0  17    0.00    0.30
   6   0  17    0.30    0.40
  -6   0 -17   -0.60    0.40
  -7   0 -17    4.20    0.90
   7   0  17    2.90    0.60
   8   0  17    1.80    0.60
  -8   0 -17    1.60    0.90
  -9   0 -17    4.80    1.60
 -13  -1  17    3.60    0.90
  13  -1 -17    4.00    0.80
  13   1 -17    4.00    0.80
 -12  -1  17    0.40    0.50
  12  -1 -17    0.90    0.50
  12   1 -17    1.70    0.60
 -11  -1  17   50.89    3.50
  11  -1 -17   47.40    3.20
  11   1 -17   48.00    3.40
  10  -1 -17   28.70    2.00
 -10  -1  17   29.60    2.20
  10   1 -17   24.40    2.10
  -9  -1  17   14.10    1.40
   9  -1 -17   15.90    1.30
   9   1 -17   13.40    1.30
   8  -1 -17    5.70    0.70
  -8  -1  17    4.40    0.80
   8   1 -17    5.00    0.80
  -7  -1  17   15.10    1.40
   7  -1 -17   17.60    1.30
   7   1 -17   16.00    1.40
  -6  -1  17   22.00    1.80
   6  -1 -17   22.10    1.60
   6   1 -17   23.40    1.70
  -6   1  17   21.80    1.80
  -5  -1  17   57.29    3.90
   5  -1 -17   60.19    3.70
   5   1 -17   57.99    3.70
  -5   1  17   56.49    3.80
  -4  -1  17   11.80    1.30
   4  -1 -17   12.70    1.00
   4   1 -17   11.80    1.00
  -4   1  17   10.50    1.10
   3  -1 -17   32.00    2.10
  -3  -1  17   32.40    2.20
  -3  -1  17   30.10    2.30
   3   1 -17   30.90    2.10
  -3   1  17   30.70    2.20
  -2  -1  17    1.50    0.30
   2  -1 -17    1.90    0.40
   2   1 -17    0.30    0.40
  -2   1  17    0.70    0.40
  -1  -1  17   42.00    2.50
   1  -1 -17   38.60    2.50
   1   1 -17   39.60    2.80
  -1   1  17   36.70    2.70
   0  -1  17   12.50    1.00
   0  -1 -17   14.30    1.10
   0   1 -17   13.30    1.40
   0   1  17   11.80    1.10
   1  -1  17  136.79    8.10
  -1   1 -17  134.49    8.30
   1   1  17  131.39    8.20
   2  -1  17    1.50    0.40
   2   1  17    1.80    0.50
  -2   1 -17    2.00    0.60
   3  -1  17   25.30    1.70
   3   1  17   21.20    1.70
  -3   1 -17   21.60    1.90
   4  -1  17   38.50    2.60
   4   1  17   37.40    2.70
  -4   1 -17   42.20    2.90
   5  -1  17   19.70    1.50
   5   1  17   18.10    1.60
  -5   1 -17   22.60    1.90
   6  -1  17    7.70    0.90
  -6   1 -17    7.30    1.20
   6   1  17    6.90    0.90
   7  -1  17    7.20    1.00
   7   1  17    5.40    0.90
  -7   1 -17    6.50    1.20
  -8   1 -17   32.90    2.60
   8   1  17   24.30    2.10
 -12  -2  17   14.30    1.70
  12  -2 -17   13.90    1.30
  12   2 -17   14.60    1.60
  11  -2 -17    6.90    0.90
 -11  -2  17    8.00    1.20
  11   2 -17    8.60    1.20
 -10  -2  17    2.00    0.70
  10  -2 -17    1.60    0.50
  10   2 -17    0.80    0.60
   9  -2 -17   24.90    1.80
  -9  -2  17   24.00    2.10
   9   2 -17   23.40    2.00
   8  -2 -17   33.70    2.30
  -8  -2  17   31.00    2.60
   8   2 -17   35.80    2.60
   7  -2 -17    6.00    0.70
  -7  -2  17    4.60    0.90
   7   2 -17    3.00    0.70
  -7   2  17    6.00    0.90
  -6  -2  17   17.80    1.60
   6  -2 -17   16.90    1.40
  -6   2  17   16.00    1.50
   6   2 -17   16.00    1.40
  -5  -2  17    4.90    0.90
   5  -2 -17    4.60    0.70
  -5   2  17    6.30    0.90
   5   2 -17    3.40    0.70
   4  -2 -17    2.40    0.50
  -4  -2  17    2.30    0.70
   4   2 -17    3.80    0.60
  -4   2  17    2.70    0.60
   3  -2 -17    4.90    0.70
  -3   2  17    5.50    0.90
  -2  -2  17    1.70    0.70
   2  -2 -17    3.00    0.60
  -2   2  17    3.00    0.70
  -1  -2  17   29.40    2.00
   1  -2 -17   28.90    2.10
   1   2 -17   29.40    2.30
  -1   2  17   30.70    2.20
   0  -2  17   38.30    2.60
   0  -2 -17   44.20    2.70
   0   2  17   38.40    2.80
   0   2 -17   38.30    2.90
  -1  -2 -17   36.30    2.30
   1  -2  17   31.20    2.20
  -1   2 -17   30.60    2.50
   1   2  17   31.00    2.40
   2  -2  17   22.00    1.60
   2   2  17   20.30    1.80
  -2   2 -17   22.80    2.00
   3  -2  17   47.10    3.10
   3   2  17   49.30    3.30
  -3   2 -17   45.00    3.40
   4  -2  17   72.19    4.50
   4   2  17   69.69    4.70
  -4   2 -17   70.99    4.80
   5  -2  17   19.60    1.60
  -5   2 -17   20.80    1.90
   5   2  17   18.90    1.80
   6  -2  17   20.50    1.80
   6   2  17   22.60    2.00
  -6   2 -17   27.10    2.30
   7  -2  17   13.30    1.50
   7   2  17   14.30    1.80
  10  -3 -17    8.50    1.10
 -10  -3  17    6.70    1.20
  10   3 -17    8.90    1.40
   9  -3 -17   17.40    1.50
  -9  -3  17   15.50    1.80
   9   3 -17   15.60    1.70
   8  -3 -17    6.30    0.90
  -8  -3  17    6.20    1.10
  -8   3  17    6.50    1.10
   8   3 -17    6.80    1.10
   7  -3 -17   14.10    1.40
  -7  -3  17   13.60    1.60
   7   3 -17   14.80    1.50
  -7   3  17   13.00    1.60
   6  -3 -17   15.60    1.40
  -6  -3  17   11.00    1.50
  -6   3  17   12.00    1.50
   6   3 -17   14.70    1.40
  -5  -3  17   -0.10    0.50
   5  -3 -17   -0.40    0.50
  -5   3  17    0.10    0.50
  -4  -3  17   17.60    1.90
   4  -3 -17   16.00    1.50
  -4   3  17   15.60    1.70
  -3  -3  17   12.10    1.60
   3  -3 -17   14.30    1.30
  -3   3  17   13.50    1.40
  -2  -3  17   16.70    1.70
   2  -3 -17   15.20    1.40
  -2   3  17   15.90    1.60
  -1  -3  17   27.30    2.40
   1  -3 -17   27.90    2.10
  -1   3  17   28.60    2.30
   0  -3 -17   30.80    2.40
   0   3 -17   33.30    2.60
   0   3  17   32.10    2.50
   1  -3  17   26.20    1.90
  -1  -3 -17   22.90    2.00
   1   3  17   25.40    2.20
  -1   3 -17   27.10    2.30
   2  -3  17   10.80    1.10
  -2  -3 -17   12.20    1.30
   2   3  17    9.70    1.30
  -2   3 -17    9.10    1.40
   3  -3  17   17.10    1.50
  -3   3 -17   18.80    1.80
   3   3  17   14.70    1.70
   4  -3  17   25.40    2.00
   4   3  17   24.80    2.20
  -4   3 -17   23.70    2.30
   5  -3  17   57.59    3.80
  -6  -4  17    7.60    1.70
  -6   4  17    5.40    1.20
  -5  -4  17   14.80    1.80
  -5   4  17    9.70    1.50
   4  -4 -17    5.60    1.00
  -4  -4  17    4.70    1.10
  -4   4  17    5.50    1.20
  -3  -4  17   30.70    2.60
   3  -4 -17   33.70    2.50
  -3   4  17   28.80    2.60
   2  -4 -17    8.60    1.20
  -2  -4  17    8.40    1.40
  -2   4  17    7.80    1.30
   1  -4 -17   41.10    2.90
  -1  -4  17   36.30    3.10
  -1   4  17   36.00    3.00
   0  -4  17    0.30    0.80
   0  -4 -17    1.50    0.70
  -1  -4 -17   55.59    4.00
 -14   0  18    6.90    1.30
 -13   0  18   33.60    2.60
  13   0 -18   33.90    2.50
 -12   0  18   55.49    3.70
  12   0 -18   51.09    3.60
  11   0 -18    3.70    0.70
 -11   0  18    3.70    0.80
 -10   0  18   13.00    1.30
  10   0 -18   11.20    1.20
  -9   0  18    0.70    0.50
   9   0 -18   -0.10    0.30
   8   0 -18   18.10    1.50
  -8   0  18   19.10    1.60
   7   0 -18    0.50    0.30
  -7   0  18    0.00    0.40
  -6   0  18    1.90    0.50
   5   0 -18   10.80    0.90
  -5   0  18    9.90    1.10
   4   0 -18   34.70    2.20
  -4   0  18   33.00    2.40
  -4   0  18   32.00    2.30
   3   0 -18   50.69    3.00
  -3   0  18   46.10    3.10
  -3   0  18   46.60    3.20
   2   0 -18   36.40    2.20
  -2   0  18   31.60    2.20
  -2   0  18   30.70    2.40
  -1   0  18    9.00    0.80
   1   0 -18    6.90    0.90
   0   0 -18   26.90    2.00
   0   0  18   25.00    1.80
   1   0  18    0.60    0.30
  -1   0 -18    0.90    0.50
  -2   0 -18   30.60    2.30
   2   0  18   28.70    2.10
  -3   0 -18    2.70    0.70
   3   0  18    2.70    0.50
  -4   0 -18    7.60    1.10
   4   0  18    7.00    0.90
  -5   0 -18    0.10    0.50
   5   0  18    0.60    0.50
   6   0  18   69.79    4.50
  -6   0 -18   69.19    4.70
  -7   0 -18    8.20    1.30
   7   0  18    7.80    1.00
  -8   0 -18    0.40    0.80
 -13  -1  18   22.00    2.10
 -12  -1  18    4.30    0.90
  12  -1 -18    5.50    0.80
  12   1 -18    4.40    0.90
 -11  -1  18   10.70    1.40
  11  -1 -18   11.30    1.10
  11   1 -18    8.90    1.20
 -10  -1  18    1.60    0.60
  10  -1 -18    1.30    0.50
  10   1 -18    2.00    0.60
   9  -1 -18   17.40    1.40
  -9  -1  18   17.40    1.60
   9   1 -18   15.30    1.40
  -8  -1  18   10.60    1.30
   8  -1 -18   11.60    1.00
   8   1 -18    9.70    1.10
   7  -1 -18    3.60    0.60
  -7  -1  18    3.60    0.70
   7   1 -18    3.50    0.60
   6  -1 -18    1.70    0.50
  -6  -1  18    2.10    0.60
   6   1 -18    1.90    0.50
   5  -1 -18   32.30    2.10
  -5  -1  18   30.00    2.40
   5   1 -18   33.30    2.20
  -5   1  18   29.80    2.20
  -4  -1  18   29.10    2.30
   4  -1 -18   28.60    2.00
   4   1 -18   27.20    2.00
  -4   1  18   30.00    2.10
  -3  -1  18   15.80    1.50
   3  -1 -18   16.50    1.30
  -3   1  18   17.40    1.40
  -2  -1  18    8.00    1.10
   2  -1 -18    9.30    0.90
  -2  -1  18    8.80    0.80
  -2   1  18   10.50    1.00
  -1  -1  18   24.80    1.80
   1  -1 -18   26.20    1.80
  -1   1  18   25.10    1.90
   1   1 -18   26.80    2.10
   0  -1  18   19.20    1.40
   0   1 -18   19.50    1.70
   0   1  18   18.70    1.50
   1  -1  18    9.60    0.90
  -1   1 -18   10.10    1.20
   1   1  18    6.80    0.90
   2  -1  18   10.90    1.00
  -2   1 -18   11.80    1.30
   2   1  18   10.40    1.20
   3  -1  18    4.80    0.70
   3   1  18    5.90    0.80
  -3   1 -18    6.30    1.10
   4  -1  18    5.10    0.80
   4   1  18    4.30    0.80
  -4   1 -18    4.20    0.90
   5  -1  18    3.50    0.70
  -5   1 -18    3.20    0.90
   5   1  18    2.60    0.70
   6  -1  18   14.20    1.30
   6   1  18   13.00    1.30
  -6   1 -18   13.50    1.70
   7  -1  18   23.30    1.80
   7   1  18   20.20    1.80
  -7   1 -18   21.70    2.20
  11  -2 -18   10.00    1.10
 -11  -2  18   10.90    1.50
  11   2 -18    9.30    1.40
  10  -2 -18   36.90    2.50
 -10  -2  18   32.70    2.70
  10   2 -18   35.00    2.70
   9  -2 -18    1.90    0.50
  -9  -2  18    2.70    0.70
   9   2 -18    2.10    0.70
   8  -2 -18   20.50    1.50
  -8  -2  18   19.10    1.80
   8   2 -18   17.10    1.70
  -7  -2  18   10.00    1.30
   7  -2 -18    9.20    1.00
   7   2 -18    7.60    1.10
  -6  -2  18   18.80    1.70
   6  -2 -18   17.40    1.40
   6   2 -18   14.00    1.40
  -6   2  18   16.50    1.50
  -5  -2  18    1.70    0.70
   5  -2 -18    2.00    0.60
  -5   2  18    1.60    0.60
   5   2 -18    1.90    0.50
  -4  -2  18   72.69    4.70
   4  -2 -18   65.79    4.30
  -4   2  18   69.29    4.50
  -3  -2  18   40.20    3.00
   3  -2 -18   40.30    2.60
  -3   2  18   35.70    2.80
  -2  -2  18   10.70    1.40
   2  -2 -18   12.00    1.10
  -2   2  18   10.00    1.30
   1  -2 -18    9.90    1.00
   1   2 -18   11.30    1.30
  -1   2  18    9.30    1.20
   0  -2 -18   14.90    1.40
   0  -2  18   17.70    1.30
   0   2 -18   16.40    1.80
   0   2  18   17.50    1.50
   1  -2  18   23.50    1.70
  -1   2 -18   25.70    2.10
   1   2  18   19.10    1.80
   2  -2  18   27.10    2.00
  -2   2 -18   29.10    2.40
   2   2  18   26.50    2.10
   3  -2  18   83.99    5.40
  -3   2 -18   91.49    5.80
   3   2  18   87.89    5.70
   4  -2  18   32.60    2.20
   4   2  18   27.00    2.30
  -4   2 -18   34.20    2.70
   5  -2  18   18.30    1.60
  -5   2 -18   22.40    2.00
   5   2  18   18.30    1.80
   6  -2  18    7.00    1.00
  -6   2 -18    7.00    1.50
   6   2  18    7.30    1.20
   9  -3 -18   11.50    1.20
  -9  -3  18   14.30    1.60
   9   3 -18   11.10    1.50
  -8  -3  18    1.20    0.80
   8  -3 -18    1.00    0.50
   8   3 -18    0.00    0.50
  -8   3  18   -0.50    0.70
   7  -3 -18    0.00    0.50
  -7  -3  18    0.60    0.60
  -7   3  18   -0.20    0.60
   7   3 -18    0.50    0.60
   6  -3 -18   22.10    1.80
  -6  -3  18   28.00    2.20
  -6   3  18   18.80    1.90
  -5  -3  18   11.40    1.50
   5  -3 -18   10.70    1.20
  -5   3  18    9.80    1.30
  -4  -3  18   22.30    2.10
   4  -3 -18   22.40    1.80
  -4   3  18   17.60    1.90
  -3  -3  18    8.30    1.30
   3  -3 -18    8.70    1.10
  -3   3  18    7.10    1.20
  -2  -3  18   19.50    2.00
   2  -3 -18   22.80    1.80
  -2   3  18   19.00    1.90
  -1  -3  18   18.60    1.80
   1  -3 -18   14.80    1.40
  -1   3  18   13.00    1.60
   0  -3 -18    0.30    0.50
   0   3  18   -0.20    0.60
   0   3 -18    0.00    0.60
  -1  -3 -18    7.70    1.00
   1   3  18    4.20    1.00
  -1   3 -18    4.20    1.00
   2  -3  18   23.50    1.80
   2   3  18   22.10    2.00
  -2   3 -18   25.10    2.20
   3  -3  18   97.49    5.80
  -3   3 -18   92.39    6.20
   3   3  18   85.39    6.10
   4  -3  18    2.10    0.70
 -13   0  19   21.60    2.00
 -12   0  19    0.90    0.60
  12   0 -19    0.10    0.50
  11   0 -19   40.10    2.90
 -11   0  19   42.40    3.00
  10   0 -19    5.80    0.80
 -10   0  19    5.60    1.00
  -9   0  19    4.80    0.80
   9   0 -19    4.00    0.70
  -8   0  19   54.29    3.70
   8   0 -19   55.39    3.60
  -7   0  19   59.39    3.90
   7   0 -19   58.09    3.80
   6   0 -19    5.80    0.70
  -6   0  19    5.60    0.90
   5   0 -19    0.10    0.30
  -5   0  19    0.20    0.40
  -4   0  19    0.80    0.50
   4   0 -19    1.00    0.40
   3   0 -19   20.30    1.40
  -3   0  19   17.20    1.40
  -3   0  19   16.80    1.60
  -2   0  19    3.60    0.60
  -2   0  19    3.50    0.70
   1   0 -19    4.50    0.80
  -1   0  19    5.00    0.70
   0   0  19   11.20    1.00
   0   0 -19   12.40    1.30
   1   0  19    2.10    0.50
  -1   0 -19    3.00    0.70
  -2   0 -19    9.90    1.20
   2   0  19   10.20    1.00
   3   0  19   36.10    2.50
  -3   0 -19   33.40    2.60
  -5   0 -19    0.70    0.70
   5   0  19    0.90    0.50
   6   0  19   22.40    1.80
  -6   0 -19   25.00    2.20
  -7   0 -19   81.69    5.60
 -12  -1  19   42.40    3.00
  12  -1 -19   36.00    2.80
  12   1 -19   42.10    3.00
  11  -1 -19   36.10    2.60
 -11  -1  19   39.60    2.90
  11   1 -19   36.00    2.80
 -10  -1  19   16.60    1.70
  10  -1 -19   16.00    1.40
  10   1 -19   17.50    1.60
   9  -1 -19   28.70    2.10
  -9  -1  19   29.70    2.30
   9   1 -19   27.80    2.20
   8  -1 -19    5.20    0.70
  -8  -1  19    3.70    0.80
   8   1 -19    5.10    0.80
  -7  -1  19    5.80    1.00
   7  -1 -19    6.90    0.80
   7   1 -19    6.90    0.90
  -6  -1  19   10.30    1.30
   6  -1 -19   11.30    1.00
   6   1 -19   10.80    1.10
   5  -1 -19    7.20    0.80
  -5  -1  19    7.50    1.00
   5   1 -19    8.10    0.90
  -5   1  19    7.00    0.90
   4  -1 -19   12.70    1.00
  -4  -1  19   10.20    1.30
  -4   1  19   12.90    1.20
   4   1 -19   10.70    1.00
  -3  -1  19   29.90    2.30
   3  -1 -19   32.40    2.10
  -3   1  19   26.20    2.20
  -2  -1  19   29.10    2.40
  -2  -1  19   29.60    2.00
   2  -1 -19   29.70    2.00
  -2   1  19   31.70    2.20
  -1  -1  19    8.90    0.80
  -1   1  19    7.50    1.00
   1   1 -19    9.40    1.20
   0  -1  19   16.80    1.30
   0   1 -19   14.00    1.50
   0   1  19   15.80    1.40
   1  -1  19    4.60    0.70
  -1   1 -19    4.10    0.90
   1   1  19    3.70    0.70
   2  -1  19    5.20    0.70
  -2   1 -19    4.80    0.90
   2   1  19    5.00    0.80
   3  -1  19    5.20    0.80
   3   1  19    6.40    0.90
  -3   1 -19    4.50    1.00
   4  -1  19   23.20    1.80
   4   1  19   21.10    1.80
  -4   1 -19   25.50    2.10
   5  -1  19   83.39    5.20
  -5   1 -19   81.99    5.50
   5   1  19   79.99    5.30
   6  -1  19   33.20    2.50
   6   1  19   33.80    2.60
  -6   1 -19   36.80    2.90
 -11  -2  19   14.50    1.80
  11  -2 -19   14.20    1.40
  11   2 -19   11.40    1.60
  10  -2 -19   10.40    1.10
 -10  -2  19    8.90    1.30
  10   2 -19    8.80    1.30
  -9  -2  19    9.30    1.30
   9  -2 -19   10.70    1.10
   9   2 -19   10.10    1.30
  -8  -2  19    3.70    0.90
   8  -2 -19    4.70    0.70
   8   2 -19    4.60    0.90
   7  -2 -19    1.80    0.50
  -7  -2  19    1.70    0.70
   7   2 -19    1.70    0.60
  -6  -2  19   26.90    2.20
   6  -2 -19   24.50    1.80
  -6   2  19   21.50    1.90
   6   2 -19   21.70    1.90
   5  -2 -19    3.90    0.70
  -5  -2  19    3.10    0.90
  -5   2  19    2.70    0.80
  -4  -2  19   17.30    1.70
   4  -2 -19   16.10    1.40
  -4   2  19   15.30    1.50
  -3  -2  19   18.00    1.70
   3  -2 -19   17.00    1.40
  -3   2  19   14.60    1.50
   2  -2 -19   38.10    2.70
  -2  -2  19   45.40    3.10
  -2   2  19   39.50    2.90
   1  -2 -19    9.20    1.00
  -1   2  19    8.50    1.10
   1   2 -19    8.80    1.20
   0  -2  19   16.00    1.30
   0   2 -19   16.40    1.70
   0   2  19   15.30    1.50
   1  -2  19   45.50    2.90
  -1   2 -19   44.30    3.30
   1   2  19   40.40    3.10
   2  -2  19    1.00    0.50
   2   2  19    1.10    0.60
  -2   2 -19    1.20    0.70
   3  -2  19   10.60    1.10
  -3   2 -19   11.10    1.50
   3   2  19    8.60    1.20
   4  -2  19   64.79    4.10
   4   2  19   62.19    4.40
  -4   2 -19   64.89    4.50
   5  -2  19   62.39    3.90
  -5   2 -19   63.39    4.30
   5   2  19   49.80    4.10
   9   3 -19   14.10    1.70
  -8  -3  19   19.80    2.00
   8  -3 -19   13.50    1.40
   8   3 -19   14.00    1.60
  -7  -3  19    3.60    1.00
   7  -3 -19    4.90    0.80
  -7   3  19    3.90    1.00
  -6  -3  19    8.90    1.40
   6  -3 -19   10.80    1.20
  -6   3  19   10.40    1.40
   5  -3 -19    2.80    0.70
  -5  -3  19    2.80    0.90
  -5   3  19    1.90    0.70
   4  -3 -19    4.60    0.80
  -4  -3  19    4.10    1.00
  -4   3  19    5.00    1.00
   3  -3 -19    2.40    0.70
  -3  -3  19    1.20    0.80
  -3   3  19    1.80    0.80
  -2  -3  19   11.80    1.60
   2  -3 -19   12.80    1.40
  -2   3  19   12.30    1.50
   1  -3 -19   15.70    1.50
  -1  -3  19   16.70    1.90
  -1   3  19   14.20    1.70
   0  -3 -19   21.30    1.80
   0   3  19   23.70    2.00
   0   3 -19   20.70    2.10
   1   3  19   13.30    1.60
  -1   3 -19   11.50    1.60
   2  -3  19  129.09    7.20
   2   3  19  106.39    7.50
  -2   3 -19  112.89    7.60
   3  -3  19   16.50    1.50
  12   0 -20   28.40    2.20
 -11   0  20    6.10    1.00
  11   0 -20    5.90    0.90
  10   0 -20   17.10    1.60
 -10   0  20   22.10    1.80
   9   0 -20    2.00    0.60
  -9   0  20    1.40    0.60
   8   0 -20   22.80    1.80
  -8   0  20   23.30    1.90
  -7   0  20    7.80    1.10
   7   0 -20    8.50    0.90
   6   0 -20   65.99    4.20
  -6   0  20   68.99    4.40
   5   0 -20   13.30    1.10
  -5   0  20   12.10    1.30
   4   0 -20    1.00    0.40
  -4   0  20    1.90    0.60
  -3   0  20    6.10    0.80
  -3   0  20    4.00    0.80
  -2   0  20   11.70    1.10
  -2   0  20   10.20    1.20
   1   0 -20   23.70    1.90
  -1   0  20   23.10    1.70
   0   0 -20    4.00    0.80
   0   0  20    3.30    0.60
  -1   0 -20   79.09    5.30
   1   0  20   82.39    5.10
  -2   0 -20    0.80    0.60
   2   0  20    1.30    0.50
   3   0  20    6.10    0.90
  -3   0 -20    7.10    1.10
  -4   0 -20    0.30    0.70
   4   0  20   -0.10    0.40
  -5   0 -20   44.50    3.20
   5   0  20   38.90    2.90
  -6   0 -20   13.30    1.70
 -12  -1  20    8.50    1.30
  11  -1 -20   18.90    1.70
 -11  -1  20   20.20    2.00
  11   1 -20   21.30    1.90
 -10  -1  20   54.59    3.70
  10  -1 -20   53.49    3.40
  10   1 -20   44.90    3.50
   9  -1 -20    5.60    0.80
  -9  -1  20    7.20    1.10
   9   1 -20    8.00    1.00
  -8  -1  20   32.20    2.50
   8  -1 -20   29.80    2.20
   8   1 -20   30.70    2.30
  -7  -1  20    8.90    1.20
   7  -1 -20    8.50    0.90
   7   1 -20    9.60    1.00
  -6  -1  20    2.60    0.80
   6  -1 -20    3.40    0.60
   6   1 -20    2.70    0.60
  -5  -1  20   20.60    1.80
   5  -1 -20   20.70    1.50
   5   1 -20   17.70    1.50
  -4  -1  20   27.20    2.20
   4  -1 -20   28.00    1.90
  -4   1  20   27.70    2.10
  -3  -1  20   -0.50    0.50
   3  -1 -20    0.40    0.40
  -3   1  20   -0.20    0.40
   2  -1 -20   30.90    2.60
  -2  -1  20   34.50    2.60
  -2   1  20   32.80    2.40
  -1  -1  20   29.60    2.20
   1   1 -20   34.10    2.50
  -1   1  20   33.60    2.40
   0  -1  20   19.40    1.50
   0   1 -20   20.20    1.80
   0   1  20   20.20    1.70
   1  -1  20   13.10    1.10
  -1   1 -20   13.20    1.50
   1   1  20   13.20    1.30
   2  -1  20   43.10    2.80
   2   1  20   39.50    2.90
  -2   1 -20   44.40    3.20
   3  -1  20    4.30    0.70
  -3   1 -20    4.40    1.00
   3   1  20    3.00    0.70
   4  -1  20   10.60    1.20
  -4   1 -20   10.70    1.50
   4   1  20   10.10    1.20
   5  -1  20   35.80    2.60
   5   1  20   34.40    2.60
  -5   1 -20   35.10    2.90
  10  -2 -20    4.70    0.80
 -10  -2  20    4.60    1.00
  10   2 -20    5.00    1.00
  -9  -2  20   61.69    4.30
   9  -2 -20   64.59    4.00
   9   2 -20   56.29    4.20
  -8  -2  20   27.90    2.40
   8  -2 -20   28.80    2.10
   8   2 -20   24.90    2.20
   7  -2 -20   32.50    2.30
  -7  -2  20   31.50    2.60
   7   2 -20   32.90    2.50
   6  -2 -20    2.60    0.60
  -6  -2  20    3.40    0.90
  -6   2  20    2.70    0.90
  -5  -2  20   14.20    1.60
   5  -2 -20   13.30    1.30
  -5   2  20   11.50    1.40
  -4  -2  20    1.40    0.70
   4  -2 -20    1.70    0.60
  -4   2  20    0.30    0.50
   3  -2 -20    2.80    0.60
  -3  -2  20    2.90    0.80
  -3   2  20    2.70    0.80
   2  -2 -20   54.49    3.40
  -2  -2  20   50.19    3.70
  -2   2  20   46.90    3.50
   1  -2 -20    6.70    0.90
   1   2 -20    5.70    1.10
  -1   2  20    5.30    1.00
   0   2  20    1.60    0.60
   0   2 -20    1.60    0.70
   1  -2  20   16.80    1.40
  -1   2 -20   19.20    1.90
   1   2  20   16.40    1.70
   2  -2  20   16.60    1.40
   2   2  20   14.20    1.50
  -2   2 -20   16.00    1.80
   3  -2  20   35.70    2.40
  -3   2 -20   31.90    2.80
   3   2  20   32.10    2.60
   4  -2  20   36.80    2.70
  -4   2 -20   40.80    3.40
   7  -3 -20    0.70    0.70
  -7   3  20    0.70    0.80
  -6  -3  20    3.80    1.00
   6  -3 -20    3.90    0.80
  -6   3  20    4.30    1.00
  -5  -3  20    4.20    1.00
   5  -3 -20    4.70    0.90
  -5   3  20    3.50    0.90
   4  -3 -20   61.79    4.00
  -4  -3  20   67.29    4.50
  -4   3  20   54.69    4.20
  -3  -3  20   91.59    6.20
   3  -3 -20   96.09    5.80
  -3   3  20   81.79    5.90
   2  -3 -20   45.50    3.00
  -2  -3  20   39.70    3.30
  -2   3  20   38.40    3.10
   1  -3 -20   36.70    2.50
  -1  -3  20   29.00    2.80
  -1   3  20   33.00    2.70
   0  -3 -20   30.60    2.90
   0   3 -20   32.00    2.70
   0   3  20   31.20    2.60
  11   0 -21   19.20    1.70
  10   0 -21  111.99    7.00
   9   0 -21   31.00    2.30
  -8   0  21    0.40    0.60
   8   0 -21    0.30    0.40
   7   0 -21   68.69    4.50
  -7   0  21   74.59    4.80
   6   0 -21   12.20    1.10
  -6   0  21   10.60    1.30
  -5   0  21    7.00    1.10
   5   0 -21    8.60    0.90
  -4   0  21    2.90    0.70
  -3   0  21   19.00    1.70
  -2   0  21    2.00    0.70
  -2   0  21    2.20    0.60
   1   0 -21   33.10    2.50
  -1   0  21   31.40    2.30
   0   0 -21   45.10    3.10
   0   0  21   42.70    3.00
   1   0  21   35.90    2.60
  -1   0 -21   37.10    2.70
   2   0  21   25.20    1.90
  -2   0 -21   21.90    2.10
  -3   0 -21   16.60    1.80
   3   0  21   18.10    1.50
  -4   0 -21    1.20    0.80
   4   0  21    1.00    0.50
  -5   0 -21    7.70    1.30
  -6   0 -21    6.90    1.50
 -11  -1  21   53.19    3.80
  11  -1 -21   57.99    4.10
  11   1 -21   45.70    3.60
  10  -1 -21    1.90    0.60
 -10  -1  21    2.20    0.80
  10   1 -21    2.40    0.80
  -9  -1  21   18.50    1.80
   9  -1 -21   18.30    1.60
   9   1 -21   19.80    1.70
  -8  -1  21   37.00    2.80
   8  -1 -21   35.90    2.50
   8   1 -21   36.40    2.60
   7  -1 -21   11.50    1.10
  -7  -1  21    9.50    1.30
   7   1 -21   10.40    1.20
  -6  -1  21   42.30    3.10
   6  -1 -21   40.10    2.80
   6   1 -21   42.30    2.90
   5  -1 -21   75.69    4.60
  -5  -1  21   67.59    4.80
  -4  -1  21    1.90    0.80
   4  -1 -21    2.30    0.50
  -4   1  21    1.40    0.60
   3  -1 -21   14.20    1.20
  -3  -1  21   13.10    1.50
  -3   1  21   13.60    1.40
  -2  -1  21   10.70    1.40
  -2   1  21    8.70    1.10
  -1  -1  21   50.49    3.30
   1   1 -21   54.59    3.70
  -1   1  21   49.80    3.50
   0  -1  21   15.10    1.30
   0   1 -21   14.60    1.60
   0   1  21   12.30    1.40
   1  -1  21   45.00    3.00
   1   1  21   43.00    3.10
  -1   1 -21   45.60    3.30
   2  -1  21   20.40    1.60
   2   1  21   16.80    1.60
  -2   1 -21   17.00    1.80
   3  -1  21   62.39    4.00
  -3   1 -21   66.19    4.40
   3   1  21   55.19    4.10
   4  -1  21    5.40    0.80
   4   1  21    3.70    0.80
  -4   1 -21    4.40    1.10
  10   2 -21   34.80    2.90
   9  -2 -21   12.80    1.20
  -9  -2  21   13.10    1.60
   9   2 -21   10.50    1.40
  -8  -2  21   16.60    1.90
   8  -2 -21   14.50    1.40
   8   2 -21   13.60    1.50
   7  -2 -21   19.90    1.60
  -7  -2  21   17.60    1.90
  -6  -2  21   13.80    1.80
   6  -2 -21   14.80    1.40
  -5  -2  21   10.60    1.50
   5  -2 -21   12.10    1.10
  -5   2  21   11.10    1.40
  -4  -2  21    7.30    1.30
   4  -2 -21    8.50    1.00
  -4   2  21    7.30    1.10
  -3  -2  21   29.30    2.40
   3  -2 -21   27.50    2.00
  -3   2  21   24.70    2.20
   2  -2 -21   26.20    1.90
  -2  -2  21   28.00    2.40
  -2   2  21   23.50    2.10
  -1  -2  21   86.29    5.80
  -1   2  21   85.29    5.60
   0   2 -21   51.79    3.90
   0   2  21   55.39    3.80
   1  -2  21   50.39    3.20
  -1   2 -21   45.00    3.60
   1   2  21   45.00    3.40
   2  -2  21   44.10    3.00
  -2   2 -21   44.50    3.40
   2   2  21   41.20    3.20
   3  -2  21    5.90    0.90
  -6   3  21    3.70    1.00
   5  -3 -21    4.20    0.90
  -5   3  21    3.20    1.00
   4  -3 -21    7.40    1.00
  -4   3  21    7.20    1.20
   3  -3 -21    1.00    0.70
  -3   3  21    0.80    0.70
   2  -3 -21   27.20    2.10
  -2   3  21   25.30    2.30
   1  -3 -21   41.10    2.90
  10   0 -22  109.79    6.90
   9   0 -22   25.60    2.00
   8   0 -22   96.49    6.10
   7   0 -22    2.00    0.60
   6   0 -22    4.70    0.70
   5   0 -22    1.40    0.50
  -2   0  22    4.80    0.80
  -1   0  22    1.90    0.60
   0   0 -22   22.70    2.00
   0   0  22   21.40    1.80
   1   0  22    0.40    0.50
  -1   0 -22    0.60    0.70
  -2   0 -22  175.88   10.90
   2   0  22  145.99    9.50
   3   0  22    1.00    0.50
 -10  -1  22   35.40    2.80
  10  -1 -22   32.30    2.60
  10   1 -22   35.70    2.70
  -9  -1  22  118.49    7.30
   9  -1 -22  113.09    7.00
   9   1 -22  109.59    7.20
   8  -1 -22   69.29    4.40
  -8  -1  22   63.29    4.60
   8   1 -22   69.99    4.50
  -7  -1  22   47.60    3.50
   7  -1 -22   50.79    3.20
   7   1 -22   43.80    3.20
  -6  -1  22   28.90    2.40
   6  -1 -22   27.20    2.00
  -5  -1  22   15.10    1.70
   5  -1 -22   14.60    1.30
  -4  -1  22   10.10    1.40
   4  -1 -22   10.00    1.00
  -3  -1  22   23.80    2.10
  -3   1  22   24.00    2.00
  -2  -1  22   10.10    1.40
  -2   1  22   12.70    1.30
  -1   1  22    1.00    0.60
   0  -1  22   37.60    2.70
   0   1  22   39.00    2.90
   0   1 -22   44.70    3.10
   1  -1  22   43.70    3.00
  -1   1 -22   46.00    3.40
   1   1  22   44.10    3.20
   2  -1  22   22.20    1.80
  -2   1 -22   25.60    2.20
   2   1  22   21.30    1.90
   3  -1  22   64.19    4.10
   3   1  22   59.39    4.20
  -3   1 -22   65.39    4.50
   9   2 -22   53.99    3.90
  -8  -2  22    7.90    1.50
   8  -2 -22    7.60    1.00
   8   2 -22    7.40    1.50
   7  -2 -22   44.40    3.00
  -7  -2  22   43.30    3.40
  -6  -2  22    1.70    0.80
   6  -2 -22    2.10    0.70
  -5  -2  22   18.30    1.90
   5  -2 -22   20.10    1.60
  -5   2  22   17.00    2.60
   4  -2 -22   21.60    1.80
  -4  -2  22   22.30    2.10
  -4   2  22   22.20    2.00
  -3  -2  22   39.40    3.30
   3  -2 -22   45.40    2.90
  -3   2  22   38.30    3.00
  -2  -2  22    6.60    1.20
  -2   2  22    5.00    1.00
  -1  -2  22   11.10    1.60
  -1   2  22   10.50    1.40
   0   2 -22   20.50    2.00
   0   2  22   18.90    1.80
   1   2  22    7.70    1.20
  -1   2 -22    7.80    1.30
   2  -2  22    6.60    1.00
  -5   3  22    3.80    1.60
   2  -3 -22   -0.20    0.90
   9   0 -23    1.20    0.60
   8   0 -23   16.10    1.50
   7   0 -23   42.00    2.90
   6   0 -23   24.30    1.90
  -1   0  23    1.60    0.60
   0   0  23   58.39    3.90
   1   0  23   11.20    1.20
   2   0  23    0.70    0.60
  -9  -1  23   36.70    2.80
   9  -1 -23   32.00    2.60
   9   1 -23   36.70    2.70
  -8  -1  23   64.09    4.80
   8  -1 -23   75.89    4.60
   8   1 -23   70.29    4.70
   7  -1 -23   55.79    3.60
  -7  -1  23   50.39    3.80
   6  -1 -23   34.60    2.50
  -6  -1  23   36.60    2.80
  -5  -1  23    3.00    1.00
   5  -1 -23    6.50    0.80
  -4  -1  23    1.70    0.80
  -3  -1  23    9.60    1.40
  -3   1  23   10.50    1.30
  -2  -1  23   70.99    4.80
  -2   1  23   68.59    4.60
  -1  -1  23    3.70    1.00
  -1   1  23    3.80    0.80
   0   1  23   14.00    1.50
   0   1 -23   18.40    1.80
   1  -1  23    3.90    0.80
  -1   1 -23    5.30    1.10
   1   1  23    3.60    0.80
   2  -1  23    8.40    1.10
  -2   1 -23    9.00    1.40
   7  -2 -23   56.19    4.20
   6  -2 -23   62.79    4.00
  -6  -2  23   59.09    4.60
  -5  -2  23   31.20    2.60
   5  -2 -23   29.10    2.20
   4  -2 -23    1.60    0.60
  -4  -2  23    2.80    0.90
  -4   2  23    1.50    0.80
  -3  -2  23   -0.10    0.80
  -3   2  23   -0.30    0.60
  -2  -2  23    4.00    1.10
  -2   2  23    4.90    1.00
  -1  -2  23   20.60    3.10
  -1   2  23   18.20    1.80
   8   0 -24   26.80    2.10
   7   0 -24  108.99    6.80
  -1   0  24   21.30    2.00
   0   0  24    0.80    0.60
   1   0  24   19.50    1.70
   8  -1 -24    3.10    1.10
  -8  -1  24    3.70    1.00
   7  -1 -24   28.20    2.00
  -7  -1  24   22.20    2.20
  -6  -1  24   11.20    1.50
   6  -1 -24   12.20    1.20
  -5  -1  24   15.40    1.80
  -4  -1  24    8.00    1.30
  -3  -1  24    2.30    0.90
  -2  -1  24   18.40    1.90
  -2   1  24   20.30    1.80
  -1  -1  24    2.80    0.90
  -1   1  24    3.20    0.80
   0   1  24    0.80    0.60
   0   1 -24    1.20    0.70
   1  -1  24   22.80    1.80
  -1   1 -24   22.30    2.50
   5  -2 -24   31.60    2.50
  -3   2  24    6.90    1.20
   0   0  25   17.10    1.70
  -6  -1  25   41.30    3.40
  -5  -1  25    4.90    1.10
  -4  -1  25    2.20    0.90
  -3  -1  25    0.20    0.80
  -2  -1  25    3.20    1.30
  -1   1  25   14.60    1.80
   0   0   0    0.00    0.00
;
_shelx_hkl_checksum              32378
_shelx_res_file
;
TITL georgii_45_0m_a.res in P2(1)
    Georgii_45_0m.res
    created by SHELXL-2017/1 at 18:26:11 on 17-Oct-2018
REM Old TITL Georgii_45_0m in P2 #3
REM SHELXT solution in P2(1)
REM R1 0.098, Rweak 0.029, Alpha 0.002, Orientation as input
REM Flack x = -0.482 ( 0.485 ) from Parsons' quotients
REM Formula found by SHELXT: C20 N O2
CELL 0.71073 11.0722 3.9664 17.5569 90 104.5 90
ZERR 2 0.0023 0.0008 0.0036 0 0.002 0
LATT -1
SYMM -X,0.5+Y,-Z
SFAC C H N O
UNIT 40 34 2 4
L.S. 4 0 0
PLAN  20
TEMP -123
CONF
EQIV $1 -x+1, y+1/2, -z+1
HTAB C17 O3_$1
EQIV $2 -x, y-1/2, -z+1
rem HTAB C16 O1_$2
MPLA C1 C2 C3 C4 C5 C6 C7 C8 C9 O1 O3
MPLA C2 C18 C19 C20 C13
MPLA C10 C11 C12 C13 C14 C15 N10
BOND $H
list 4
fmap 2 53
acta
REM <olex2.extras>
REM <HklSrc "%.\\Georgii_45_0m.hkl">
REM </olex2.extras>
WGHT    0.048800    0.205500
FVAR       1.02509
O3    4    0.509463    0.251021    0.178501    11.00000    0.02195    0.04627 =
         0.03113    0.00392    0.00676    0.00885
O1    4    0.110927    0.598552    0.203670    11.00000    0.02353    0.04853 =
         0.02968    0.00514    0.01279    0.00698
N10   3    0.156028    0.390598    0.699902    11.00000    0.02644    0.03044 =
         0.02012    0.00276    0.00783    0.00163
C13   1    0.290252    0.255317    0.497836    11.00000    0.01971    0.02214 =
         0.01819    0.00260    0.00286   -0.00113
C10   1    0.200537    0.346989    0.635005    11.00000    0.01964    0.02111 =
         0.01902    0.00127    0.00347   -0.00229
C12   1    0.357398    0.138753    0.572366    11.00000    0.01873    0.02784 =
         0.02193    0.00383    0.00278    0.00348
AFIX  43
H12   2    0.434333    0.025205    0.576557    11.00000   -1.20000
AFIX   0
C9    1    0.370833    0.598352    0.023188    11.00000    0.02405    0.02922 =
         0.02398   -0.00145    0.01032   -0.00166
AFIX  43
H9    2    0.450310    0.528451    0.017745    11.00000   -1.20000
AFIX   0
C11   1    0.315637    0.183360    0.639200    11.00000    0.02135    0.02863 =
         0.01887    0.00409    0.00114    0.00196
AFIX  43
H11   2    0.364293    0.103946    0.688397    11.00000   -1.20000
AFIX   0
C7    1    0.169657    0.864343   -0.030347    11.00000    0.02902    0.03046 =
         0.02083    0.00380    0.00166   -0.00194
AFIX  43
H7    2    0.113386    0.972479   -0.073153    11.00000   -1.20000
AFIX   0
C14   1    0.177445    0.424410    0.494649    11.00000    0.02029    0.02449 =
         0.01985    0.00412    0.00035   -0.00016
AFIX  43
H14   2    0.130688    0.510783    0.445647    11.00000   -1.20000
AFIX   0
C19   1    0.291041    0.309728    0.355365    11.00000    0.02120    0.02669 =
         0.02062    0.00100    0.00458   -0.00092
AFIX  43
H19   2    0.211433    0.414940    0.342126    11.00000   -1.20000
AFIX   0
C18   1    0.357552    0.267507    0.296533    11.00000    0.02167    0.02368 =
         0.02057   -0.00007    0.00379   -0.00074
AFIX  43
H18   2    0.433577    0.144955    0.311130    11.00000   -1.20000
AFIX   0
C20   1    0.339639    0.201651    0.430536    11.00000    0.02082    0.02420 =
         0.02130    0.00082    0.00455   -0.00093
AFIX  43
H20   2    0.414971    0.076184    0.439446    11.00000   -1.20000
AFIX   0
C17   1    0.224583    0.255662    0.775779    11.00000    0.03509    0.03481 =
         0.01763    0.00119    0.00508   -0.00321
AFIX 137
H17A  2    0.236951    0.012715    0.770933    11.00000   -1.50000
H17B  2    0.176965    0.296073    0.815026    11.00000   -1.50000
H17C  2    0.305856    0.367609    0.792316    11.00000   -1.50000
AFIX   0
C8    1    0.287057    0.760128   -0.038032    11.00000    0.03152    0.03132 =
         0.01982    0.00051    0.00757   -0.00326
AFIX  43
H8    2    0.309669    0.800923   -0.085963    11.00000   -1.20000
AFIX   0
C6    1    0.135023    0.810158    0.039783    11.00000    0.01984    0.02885 =
         0.02430    0.00263    0.00353   -0.00016
AFIX  43
H6    2    0.056140    0.882629    0.045770    11.00000   -1.20000
AFIX   0
C16   1    0.037199    0.556591    0.694628    11.00000    0.02568    0.02993 =
         0.03197   -0.00218    0.01205   -0.00049
AFIX 137
H16A  2    0.040550    0.787428    0.675361    11.00000   -1.50000
H16B  2    0.020234    0.562374    0.746783    11.00000   -1.50000
H16C  2   -0.029316    0.431904    0.658184    11.00000   -1.50000
AFIX   0
C4    1    0.335494    0.541565    0.092395    11.00000    0.01860    0.02223 =
         0.01906   -0.00261    0.00466   -0.00144
C15   1    0.132950    0.468298    0.560175    11.00000    0.01848    0.02607 =
         0.02058    0.00323    0.00115    0.00213
AFIX  43
H15   2    0.055820    0.581423    0.555547    11.00000   -1.20000
AFIX   0
C3    1    0.404806    0.371187    0.166271    11.00000    0.01865    0.02549 =
         0.02056   -0.00108    0.00450    0.00031
C5    1    0.219125    0.647368    0.100524    11.00000    0.01735    0.02215 =
         0.01862   -0.00099    0.00372   -0.00127
C2    1    0.323191    0.385352    0.221132    11.00000    0.01887    0.02542 =
         0.01903   -0.00066    0.00423    0.00012
C1    1    0.205006    0.550810    0.180221    11.00000    0.01954    0.02656 =
         0.02009    0.00017    0.00593   -0.00006
HKLF 4
REM  georgii_45_0m_a.res in P2(1)
REM R1 =  0.0438 for    4358 Fo > 4sig(Fo)  and  0.0453 for all    4531 data
REM    210 parameters refined using      1 restraints
END
WGHT      0.0488      0.2055
REM Highest difference peak  0.222,  deepest hole -0.331,  1-sigma level  0.063
Q1    1   0.2106  0.6004  0.1411  11.00000  0.05    0.22
Q2    1   0.3654  0.3818  0.1972  11.00000  0.05    0.19
Q3    1   0.3071  0.2731  0.3959  11.00000  0.05    0.19
Q4    1   0.3240  0.2008  0.5360  11.00000  0.05    0.18
Q5    1   0.0980  0.1343  0.8012  11.00000  0.05    0.18
Q6    1  -0.0020  0.3107  0.1624  11.00000  0.05    0.18
Q7    1   0.1474  0.8310 -0.0001  11.00000  0.05    0.18
Q8    1   0.4988 -0.2063  0.3019  11.00000  0.05    0.17
Q9    1   0.3290  0.7306  0.0015  11.00000  0.05    0.17
Q10   1   0.3563  0.5585  0.0583  11.00000  0.05    0.17
Q11   1   0.2600  0.4587  0.2049  11.00000  0.05    0.17
Q12   1   0.4780  0.2578  0.7614  11.00000  0.05    0.17
Q13   1   0.3172  0.2858  0.4652  11.00000  0.05    0.17
Q14   1   0.5335  0.1840  0.6408  11.00000  0.05    0.17
Q15   1  -0.0059  0.7779  0.6870  11.00000  0.05    0.16
Q16   1  -0.0791  0.8410  0.6446  11.00000  0.05    0.16
Q17   1   0.4800  0.7889  0.1039  11.00000  0.05    0.16
Q18   1   0.0221  0.8099  0.6374  11.00000  0.05    0.16
Q19   1   0.3889  0.2377  0.8371  11.00000  0.05    0.16
Q20   1   0.2465  0.2010  0.6361  11.00000  0.05    0.16
;
_shelx_res_checksum              3582
loop_
_space_group_symop_operation_xyz
'x, y, z'
'-x, y+1/2, -z'
loop_
_atom_site_type_symbol
_atom_site_label
_atom_site_fract_x
_atom_site_fract_y
_atom_site_fract_z
_atom_site_U_iso_or_equiv
_atom_site_adp_type
_atom_site_calc_flag
_atom_site_occupancy
O O3 0.50946(14) 0.2510(5) 0.17850(9) 0.0331(4) Uani d 1
O O1 0.11093(14) 0.5986(5) 0.20367(9) 0.0328(4) Uani d 1
N N10 0.15603(16) 0.3906(5) 0.69990(9) 0.0253(4) Uani d 1
C C13 0.29025(17) 0.2553(5) 0.49784(10) 0.0203(3) Uani d 1
C C10 0.20054(16) 0.3470(5) 0.63500(10) 0.0202(3) Uani d 1
C C12 0.35740(17) 0.1388(5) 0.57237(11) 0.0232(4) Uani d 1
H H12 0.434333 0.025205 0.576557 0.028 Uiso calc 1
C C9 0.37083(18) 0.5984(6) 0.02319(11) 0.0250(4) Uani d 1
H H9 0.450310 0.528451 0.017745 0.030 Uiso calc 1
C C11 0.31564(18) 0.1834(5) 0.63920(11) 0.0236(4) Uani d 1
H H11 0.364293 0.103946 0.688397 0.028 Uiso calc 1
C C7 0.16966(19) 0.8643(6) -0.03035(11) 0.0276(4) Uani d 1
H H7 0.113386 0.972479 -0.073153 0.033 Uiso calc 1
C C14 0.17745(18) 0.4244(5) 0.49465(11) 0.0224(4) Uani d 1
H H14 0.130688 0.510783 0.445647 0.027 Uiso calc 1
C C19 0.29104(17) 0.3097(5) 0.35537(11) 0.0230(4) Uani d 1
H H19 0.211433 0.414940 0.342126 0.028 Uiso calc 1
C C18 0.35755(17) 0.2675(5) 0.29653(10) 0.0222(3) Uani d 1
H H18 0.433577 0.144955 0.311130 0.027 Uiso calc 1
C C20 0.33964(17) 0.2017(5) 0.43054(11) 0.0222(4) Uani d 1
H H20 0.414971 0.076184 0.439446 0.027 Uiso calc 1
C C17 0.2246(2) 0.2557(6) 0.77578(11) 0.0294(4) Uani d 1
H H17A 0.236951 0.012715 0.770933 0.044 Uiso calc 1
H H17B 0.176965 0.296073 0.815026 0.044 Uiso calc 1
H H17C 0.305856 0.367609 0.792316 0.044 Uiso calc 1
C C8 0.2871(2) 0.7601(6) -0.03803(11) 0.0273(4) Uani d 1
H H8 0.309669 0.800923 -0.085963 0.033 Uiso calc 1
C C6 0.13502(17) 0.8102(5) 0.03978(11) 0.0247(4) Uani d 1
H H6 0.056140 0.882629 0.045770 0.030 Uiso calc 1
C C16 0.03720(19) 0.5566(6) 0.69463(13) 0.0283(4) Uani d 1
H H16A 0.040550 0.787428 0.675361 0.043 Uiso calc 1
H H16B 0.020234 0.562374 0.746783 0.043 Uiso calc 1
H H16C -0.029316 0.431904 0.658184 0.043 Uiso calc 1
C C4 0.33549(16) 0.5416(5) 0.09239(10) 0.0200(3) Uani d 1
C C15 0.13295(17) 0.4683(5) 0.56017(11) 0.0224(4) Uani d 1
H H15 0.055820 0.581423 0.555547 0.027 Uiso calc 1
C C3 0.40481(17) 0.3712(5) 0.16627(10) 0.0216(3) Uani d 1
C C5 0.21913(16) 0.6474(5) 0.10052(10) 0.0195(3) Uani d 1
C C2 0.32319(17) 0.3854(5) 0.22113(10) 0.0212(3) Uani d 1
C C1 0.20501(17) 0.5508(5) 0.18022(11) 0.0219(3) Uani d 1
loop_
_atom_site_aniso_label
_atom_site_aniso_U_11
_atom_site_aniso_U_22
_atom_site_aniso_U_33
_atom_site_aniso_U_12
_atom_site_aniso_U_13
_atom_site_aniso_U_23
O3 0.0219(6) 0.0463(10) 0.0311(7) 0.0089(7) 0.0068(5) 0.0039(7)
O1 0.0235(6) 0.0485(10) 0.0297(7) 0.0070(7) 0.0128(5) 0.0051(7)
N10 0.0264(8) 0.0304(9) 0.0201(7) 0.0016(7) 0.0078(6) 0.0028(7)
C13 0.0197(7) 0.0221(8) 0.0182(7) -0.0011(7) 0.0029(6) 0.0026(6)
C10 0.0196(7) 0.0211(8) 0.0190(7) -0.0023(7) 0.0035(6) 0.0013(6)
C12 0.0187(7) 0.0278(9) 0.0219(8) 0.0035(7) 0.0028(6) 0.0038(7)
C9 0.0241(8) 0.0292(10) 0.0240(8) -0.0017(8) 0.0103(7) -0.0015(7)
C11 0.0214(8) 0.0286(10) 0.0189(7) 0.0020(7) 0.0011(6) 0.0041(7)
C7 0.0290(9) 0.0305(10) 0.0208(8) -0.0019(8) 0.0017(7) 0.0038(8)
C14 0.0203(8) 0.0245(9) 0.0198(7) -0.0002(7) 0.0003(6) 0.0041(7)
C19 0.0212(8) 0.0267(9) 0.0206(7) -0.0009(7) 0.0046(6) 0.0010(7)
C18 0.0217(8) 0.0237(9) 0.0206(7) -0.0007(7) 0.0038(6) -0.0001(7)
C20 0.0208(8) 0.0242(9) 0.0213(8) -0.0009(7) 0.0046(6) 0.0008(7)
C17 0.0351(10) 0.0348(11) 0.0176(8) -0.0032(9) 0.0051(7) 0.0012(8)
C8 0.0315(9) 0.0313(10) 0.0198(8) -0.0033(8) 0.0076(7) 0.0005(7)
C6 0.0198(8) 0.0288(10) 0.0243(8) -0.0002(7) 0.0035(6) 0.0026(7)
C16 0.0257(9) 0.0299(10) 0.0320(10) -0.0005(8) 0.0121(7) -0.0022(8)
C4 0.0186(7) 0.0222(8) 0.0191(7) -0.0014(7) 0.0047(6) -0.0026(7)
C15 0.0185(8) 0.0261(9) 0.0206(8) 0.0021(7) 0.0012(6) 0.0032(7)
C3 0.0187(7) 0.0255(9) 0.0206(7) 0.0003(7) 0.0045(6) -0.0011(7)
C5 0.0173(7) 0.0221(8) 0.0186(7) -0.0013(6) 0.0037(6) -0.0010(6)
C2 0.0189(7) 0.0254(9) 0.0190(7) 0.0001(7) 0.0042(6) -0.0007(7)
C1 0.0195(7) 0.0266(9) 0.0201(7) -0.0001(7) 0.0059(6) 0.0002(7)
loop_
_atom_type_symbol
_atom_type_description
_atom_type_scat_dispersion_real
_atom_type_scat_dispersion_imag
_atom_type_scat_source
C C 0.0033 0.0016 'International Tables Vol C Tables 4.2.6.8 and 6.1.1.4'
H H 0.0000 0.0000 'International Tables Vol C Tables 4.2.6.8 and 6.1.1.4'
N N 0.0061 0.0033 'International Tables Vol C Tables 4.2.6.8 and 6.1.1.4'
O O 0.0106 0.0060 'International Tables Vol C Tables 4.2.6.8 and 6.1.1.4'
loop_
_geom_angle_atom_site_label_1
_geom_angle_atom_site_label_2
_geom_angle_atom_site_label_3
_geom_angle
C10 N10 C16 121.07(16)
C10 N10 C17 120.19(17)
C16 N10 C17 118.67(16)
C14 C13 C12 116.72(16)
C14 C13 C20 123.71(16)
C12 C13 C20 119.57(17)
N10 C10 C11 121.65(16)
N10 C10 C15 120.86(17)
C11 C10 C15 117.49(16)
C11 C12 C13 122.48(17)
C11 C12 H12 118.8
C13 C12 H12 118.8
C4 C9 C8 118.26(18)
C4 C9 H9 120.9
C8 C9 H9 120.9
C12 C11 C10 120.33(16)
C12 C11 H11 119.8
C10 C11 H11 119.8
C6 C7 C8 120.39(18)
C6 C7 H7 119.8
C8 C7 H7 119.8
C15 C14 C13 121.95(17)
C15 C14 H14 119.0
C13 C14 H14 119.0
C20 C19 C18 121.06(18)
C20 C19 H19 119.5
C18 C19 H19 119.5
C2 C18 C19 126.54(18)
C2 C18 H18 116.7
C19 C18 H18 116.7
C19 C20 C13 127.60(18)
C19 C20 H20 116.2
C13 C20 H20 116.2
N10 C17 H17A 109.5
N10 C17 H17B 109.5
H17A C17 H17B 109.5
N10 C17 H17C 109.5
H17A C17 H17C 109.5
H17B C17 H17C 109.5
C9 C8 C7 121.16(18)
C9 C8 H8 119.4
C7 C8 H8 119.4
C5 C6 C7 118.06(18)
C5 C6 H6 121.0
C7 C6 H6 121.0
N10 C16 H16A 109.5
N10 C16 H16B 109.5
H16A C16 H16B 109.5
N10 C16 H16C 109.5
H16A C16 H16C 109.5
H16B C16 H16C 109.5
C9 C4 C5 120.77(17)
C9 C4 C3 129.72(17)
C5 C4 C3 109.52(15)
C14 C15 C10 121.01(17)
C14 C15 H15 119.5
C10 C15 H15 119.5
O3 C3 C2 127.48(18)
O3 C3 C4 126.02(17)
C2 C3 C4 106.49(15)
C6 C5 C4 121.36(16)
C6 C5 C1 129.12(16)
C4 C5 C1 109.51(15)
C18 C2 C3 123.48(17)
C18 C2 C1 128.36(17)
C3 C2 C1 108.14(15)
O1 C1 C2 128.88(18)
O1 C1 C5 124.79(17)
C2 C1 C5 106.31(15)
loop_
_geom_bond_atom_site_label_1
_geom_bond_atom_site_label_2
_geom_bond_distance
O3 C3 1.221(2)
O1 C1 1.227(2)
N10 C10 1.361(2)
N10 C16 1.453(3)
N10 C17 1.460(3)
C13 C14 1.406(3)
C13 C12 1.411(2)
C13 C20 1.437(2)
C10 C11 1.416(3)
C10 C15 1.423(2)
C12 C11 1.376(3)
C12 H12 0.9500
C9 C4 1.385(2)
C9 C8 1.389(3)
C9 H9 0.9500
C11 H11 0.9500
C7 C6 1.395(3)
C7 C8 1.402(3)
C7 H7 0.9500
C14 C15 1.371(3)
C14 H14 0.9500
C19 C20 1.364(3)
C19 C18 1.421(2)
C19 H19 0.9500
C18 C2 1.365(3)
C18 H18 0.9500
C20 H20 0.9500
C17 H17A 0.9800
C17 H17B 0.9800
C17 H17C 0.9800
C8 H8 0.9500
C6 C5 1.387(3)
C6 H6 0.9500
C16 H16A 0.9800
C16 H16B 0.9800
C16 H16C 0.9800
C4 C5 1.396(2)
C4 C3 1.493(3)
C15 H15 0.9500
C3 C2 1.478(2)
C5 C1 1.496(2)
C2 C1 1.479(3)
loop_
_geom_hbond_atom_site_label_D
_geom_hbond_atom_site_label_H
_geom_hbond_atom_site_label_A
_geom_hbond_site_symmetry_A
_geom_hbond_distance_DH
_geom_hbond_distance_HA
_geom_hbond_distance_DA
_geom_hbond_angle_DHA
_geom_hbond_publ_flag
C19 H19 O1 . 0.95 2.51 3.118(3) 122 yes
C17 H17C O3 2_656 0.98 2.50 3.463(3) 169 yes
loop_
_geom_torsion_atom_site_label_1
_geom_torsion_atom_site_label_2
_geom_torsion_atom_site_label_3
_geom_torsion_atom_site_label_4
_geom_torsion
C16 N10 C10 C11 -179.48(19)
C17 N10 C10 C11 -2.5(3)
C16 N10 C10 C15 1.1(3)
C17 N10 C10 C15 178.13(19)
C14 C13 C12 C11 0.5(3)
C20 C13 C12 C11 179.7(2)
C13 C12 C11 C10 0.9(3)
N10 C10 C11 C12 179.1(2)
C15 C10 C11 C12 -1.5(3)
C12 C13 C14 C15 -1.4(3)
C20 C13 C14 C15 179.5(2)
C20 C19 C18 C2 -175.0(2)
C18 C19 C20 C13 173.3(2)
C14 C13 C20 C19 2.4(3)
C12 C13 C20 C19 -176.7(2)
C4 C9 C8 C7 0.1(3)
C6 C7 C8 C9 0.7(3)
C8 C7 C6 C5 -0.9(3)
C8 C9 C4 C5 -0.6(3)
C8 C9 C4 C3 179.0(2)
C13 C14 C15 C10 0.8(3)
N10 C10 C15 C14 -179.92(19)
C11 C10 C15 C14 0.7(3)
C9 C4 C3 O3 0.7(4)
C5 C4 C3 O3 -179.7(2)
C9 C4 C3 C2 179.4(2)
C5 C4 C3 C2 -1.0(2)
C7 C6 C5 C4 0.3(3)
C7 C6 C5 C1 -178.4(2)
C9 C4 C5 C6 0.4(3)
C3 C4 C5 C6 -179.24(18)
C9 C4 C5 C1 179.36(18)
C3 C4 C5 C1 -0.3(2)
C19 C18 C2 C3 171.6(2)
C19 C18 C2 C1 -6.9(4)
O3 C3 C2 C18 1.7(3)
C4 C3 C2 C18 -176.93(19)
O3 C3 C2 C1 -179.5(2)
C4 C3 C2 C1 1.9(2)
C18 C2 C1 O1 -4.8(4)
C3 C2 C1 O1 176.5(2)
C18 C2 C1 C5 176.7(2)
C3 C2 C1 C5 -2.0(2)
C6 C5 C1 O1 1.7(3)
C4 C5 C1 O1 -177.2(2)
C6 C5 C1 C2 -179.7(2)
C4 C5 C1 C2 1.4(2)

_cod_database_fobs_code 2243135
