#------------------------------------------------------------------------------
#$Date: 2020-06-24 08:11:34 +0300 (Wed, 24 Jun 2020) $
#$Revision: 253395 $
#$URL: file:///home/coder/svn-repositories/cod/cif/2/24/34/2243448.cif $
#------------------------------------------------------------------------------
#
# This file is available in the Crystallography Open Database (COD),
# http://www.crystallography.net/. The original data for this entry
# were provided by IUCr Journals, http://journals.iucr.org/.
#
# The file may be used within the scientific community so long as
# proper attribution is given to the journal article from which the
# data were obtained.
#
data_2243448
loop_
_publ_author_name
'Kafuta, Kevin'
'Golz, Christopher'
'Alcarazo, Manuel'
_publ_section_title
;
 Polymorphism of bis(1,3-benzothiazol-2-yl) trithiocarbonate
;
_journal_coeditor_code           HB7924
_journal_issue                   7
_journal_name_full               'Acta Crystallographica Section E'
_journal_page_first              1126
_journal_page_last               1130
_journal_paper_doi               10.1107/S2056989020008105
_journal_volume                  76
_journal_year                    2020
_chemical_formula_moiety         'C15 H8 N2 S5'
_chemical_formula_sum            'C15 H8 N2 S5'
_chemical_formula_weight         376.53
_space_group_crystal_system      triclinic
_space_group_IT_number           2
_space_group_name_Hall           '-P 1'
_space_group_name_H-M_alt        'P -1'
_atom_sites_solution_hydrogens   geom
_atom_sites_solution_primary     dual
_audit_creation_method
;
Olex2 1.3-alpha
(compiled 2019.07.31 svn.r3643 for OlexSys, GUI svn.r5859)
;
_cell_angle_alpha                80.576(5)
_cell_angle_beta                 82.312(3)
_cell_angle_gamma                86.288(5)
_cell_formula_units_Z            2
_cell_length_a                   6.4976(5)
_cell_length_b                   9.5593(12)
_cell_length_c                   13.1962(11)
_cell_measurement_reflns_used    1193
_cell_measurement_temperature    298.65
_cell_measurement_theta_max      27.47
_cell_measurement_theta_min      3.15
_cell_volume                     800.55(14)
_computing_cell_refinement
;
SAINT (Bruker, 2016)
;
_computing_data_collection
;
APEX3 (Bruker, 2016)
;
_computing_data_reduction
;
SAINT (Bruker, 2016)
;
_computing_molecular_graphics
;
<i>OLEX2</i> (Dolomanov <i>et al.</i>,  2009)
;
_computing_publication_material
;
<i>OLEX2</i> (Dolomanov <i>et al.</i>,  2009)
;
_computing_structure_refinement
;
SHELXL (Sheldrick, 2015b)
;
_computing_structure_solution
;
ShelXT (Sheldrick, 2015a)
;
_diffrn_ambient_temperature      298.65
_diffrn_detector_area_resol_mean 8.33
_diffrn_measured_fraction_theta_full 0.987
_diffrn_measured_fraction_theta_max 0.991
_diffrn_measurement_device_type  'Bruker D8 Venture Dual Source'
_diffrn_measurement_method       '\f and \w scans'
_diffrn_radiation_type           MoK\a
_diffrn_radiation_wavelength     0.71073
_diffrn_reflns_av_unetI/netI     0.0229
_diffrn_reflns_limit_h_max       9
_diffrn_reflns_limit_h_min       -9
_diffrn_reflns_limit_k_max       13
_diffrn_reflns_limit_k_min       -13
_diffrn_reflns_limit_l_max       18
_diffrn_reflns_limit_l_min       0
_diffrn_reflns_number            4846
_diffrn_reflns_theta_full        25.242
_diffrn_reflns_theta_max         30.512
_diffrn_reflns_theta_min         2.869
_diffrn_standards_number         0
_exptl_absorpt_coefficient_mu    0.719
_exptl_absorpt_correction_T_max  0.371795
_exptl_absorpt_correction_T_min  0.256010
_exptl_absorpt_correction_type   multi-scan
_exptl_absorpt_process_details
;
(<i>TWINABS</i>; Bruker, 2012)
;
_exptl_crystal_colour            yellow
_exptl_crystal_density_diffrn    1.562
_exptl_crystal_description       block
_exptl_crystal_F_000             384
_exptl_crystal_size_max          0.442
_exptl_crystal_size_mid          0.35
_exptl_crystal_size_min          0.28
_refine_diff_density_max         0.447
_refine_diff_density_min         -0.426
_refine_ls_extinction_method     none
_refine_ls_goodness_of_fit_ref   1.034
_refine_ls_hydrogen_treatment    constr
_refine_ls_matrix_type           full
_refine_ls_number_parameters     200
_refine_ls_number_reflns         4846
_refine_ls_number_restraints     0
_refine_ls_restrained_S_all      1.034
_refine_ls_R_factor_all          0.0412
_refine_ls_R_factor_gt           0.0358
_refine_ls_shift/su_max          0.000
_refine_ls_shift/su_mean         0.000
_refine_ls_structure_factor_coef Fsqd
_refine_ls_weighting_details
'w=1/[\s^2^(Fo^2^)+(0.0452P)^2^+0.2258P] where P=(Fo^2^+2Fc^2^)/3'
_refine_ls_weighting_scheme      calc
_refine_ls_wR_factor_gt          0.0950
_refine_ls_wR_factor_ref         0.0994
_reflns_number_gt                4296
_reflns_number_total             4846
_reflns_threshold_expression     'I > 2\s(I)'
_cod_data_source_file            hb7924sup1.cif
_cod_data_source_block           sa
_cod_database_code               2243448
_shelx_space_group_comment
;
The symmetry employed for this shelxl refinement is uniquely defined
by the following loop, which should always be used as a source of
symmetry information in preference to the above space-group names.
They are only intended as comments.
;
_shelx_estimated_absorpt_t_min   0.742
_shelx_estimated_absorpt_t_max   0.824
_shelx_hkl_file
;
   1   0   0 2.89189 0.10675   1
   3   0   0 522.276 6.88218   1
   4   0   0 60.3645 1.06926   1
   5   0   0 285.345 4.87593   1
   6   0   0 20.5885 1.17766   1
   7   0   0 51.7908 1.88891   1
   8   0   0 41.7926 1.99271   1
   9   3   2 5.17144 2.18313  -2
   9   0   0 5.17144 2.18313   1
   9   2   2 55.2498 4.12579  -2
  -9   1   0 55.2498 4.12579   1
  -8   1   0 15.5196 1.09489   1
  -7   1   0 13.3639 1.03491   1
   6   1   1 201.769 4.88420  -2
  -6   1   0 201.769 4.88420   1
  -5   1   0 5.21243 0.35753   1
  -4   1   0 771.337 9.15142   1
  -3   1   0 2.94815 0.18135   1
   1   1   0 1430.62 27.2567   1
   2   1   0 1.39225 0.13737   1
   3   2   1 1884.89 53.8638  -2
   3   1   0 1884.89 53.8638   1
   4   1   0 506.125 6.97129   1
   5   1   0 465.552 8.04080   1
   6   1   0 1293.78 23.5017   1
   7   1   0 393.254 7.77418   1
   8   1   0 63.1412 2.97407   1
   9   1   0 21.3431 1.85831   1
  -9   2   0 3.58891 1.16143   1
  -8   2   0 1.21456 0.78195   1
  -7   2   0 57.3789 1.72621   1
  -6   2   0 183.817 3.26023   1
  -5   2   0 120.114 2.07785   1
  -4   2   0 33.1379 0.67590   1
  -3   2   0 5623.77 121.453   1
  -2   2   0 2921.06 43.2832   1
   0   2   0 249.173 3.64333   1
   1   2   0 656.401 8.19178   1
   2   2   0 473.502 5.81701   1
   3   2   0 62.5569 1.07851   1
   5   2   0 58.0490 1.76401   1
   6   2   0 257.879 5.27187   1
   7   2   0 224.010 4.88506   1
   8   2   0 17.7350 1.09148   1
   9   2   0 38.6570 2.30111   1
  -8   3   0 0.89159 0.78995   1
  -7   3   0 5.37372 0.59719   1
  -6   3   0 17.6729 0.92206   1
  -5   3   0 49.9008 1.02614   1
  -4   3   0 350.242 5.79885   1
  -3   3   0 2651.59 31.2392   1
  -2   3   0 471.771 6.01246   1
  -1   3   0 1022.83 12.9675   1
   0   3   0 276.034 4.07530   1
   1   3   0 175.010 2.21838   1
   2   3   0 84.3557 1.18162   1
   3   3   0 2681.46 32.3246   1
   4   3   0 944.385 15.9592   1
   5   3   0 126.739 3.29030   1
   6   3   0 760.871 18.4473   1
   7   3   0 2.36568 0.92758   1
   8   3   0 0.05816 0.58654   1
   9   3   0 0.43063 0.58937   1
  -8   4   0 1.48844 0.78203   1
  -7   4   0 62.6089 2.53063   1
  -6   4   0 31.7059 1.26500   1
  -5   4   0 4.00106 0.39867   1
  -4   4   0 251.430 3.69175   1
  -3   4   0 1.04752 0.19280   1
  -2   4   0 50.8114 0.95410   1
  -1   4   0 2207.84 29.3800   1
   0   4   0 982.829 14.1940   1
   1   4   0 2503.48 31.6033   1
   2   4   0 940.783 12.0136   1
   3   4   0 197.345 2.77071   1
   4   4   0 1758.07 27.3142   1
   5   4   0 345.695 8.83928   1
   6   4   0 8.13805 1.03670   1
   7   4   0 19.5631 1.43762   1
   8   4   0 -0.5185 0.59624   1
  -8   5   0 7.05372 1.06565   1
  -7   5   0 34.7014 1.96130   1
  -6   5   0 6.92633 0.64223   1
  -5   5   0 280.252 5.96789   1
  -4   5   0 47.0101 1.17825   1
  -3   5   0 743.391 11.1933   1
  -2   5   0 2.55822 0.27615   1
  -1   5   0 5622.79 84.7943   1
   0   5   0 367.030 5.72061   1
   1   5   0 2663.90 37.7302   1
   2   5   0 10.5952 0.38480   1
   3   5   0 527.209 8.68426   1
   4   5   0 37.5974 1.19538   1
   5   5   0 160.896 3.92876   1
   6   5   0 28.7870 1.53882   1
   7   5   0 85.1343 3.17171   1
   8   5   0 38.9998 2.17966   1
  -8   6   0 22.2910 1.97507   1
  -7   6   0 77.4564 3.01940   1
  -6   6   0 1.42184 0.54818   1
  -5   6   0 224.423 4.01271   1
  -4   6   0 695.031 11.3524   1
  -4   5   0 13.6402 1.66773  -2
  -3   6   0 13.6402 1.66773   1
  -2   6   0 28.1666 1.09900   1
  -1   6   0 112.783 2.33372   1
   0   6   0 309.888 5.09738   1
   1   6   0 127.692 1.98690   1
   2   6   0 249.465 3.62852   1
   3   6   0 104.411 1.75003   1
   4   6   0 114.009 2.91403   1
   5   6   0 345.137 9.01766   1
   5   8   2 208.317 6.87938  -2
   6   6   0 208.317 6.87938   1
   7   6   0 23.0066 1.42077   1
   8   6   0 47.1562 2.53064   1
  -7   7   0 0.35524 0.80701   1
  -6   7   0 56.6467 2.40787   1
  -6   5   0 15.7940 2.55094  -2
  -5   7   0 15.7940 2.55094   1
  -4   7   0 476.209 9.90879   1
  -4   6   0 1215.42 24.1618  -2
  -3   7   0 1215.42 24.1618   1
  -2   7   0 1295.98 30.6102   1
  -1   7   0 98.7411 2.43531   1
  -1   7   1 601.646 22.9962  -2
   0   7   0 601.646 22.9962   1
   0   7   1 131.530 3.18758  -2
   1   7   0 131.530 3.18758   1
   2   7   0 60.6032 1.42142   1
   2   8   2 238.524 10.1693  -2
   3   7   0 238.524 10.1693   1
   3   8   2 91.8971 3.22835  -2
   4   7   0 91.8971 3.22835   1
   5   7   0 184.262 5.33260   1
   5   9   2 40.8353 4.89814  -2
   6   7   0 40.8353 4.89814   1
   7   7   0 7.12179 0.95384   1
   8   7   0 15.3170 1.55683   1
  -7   8   0 0.29435 0.88698   1
  -7   6   0 13.3031 1.80225  -2
  -6   8   0 13.3031 1.80225   1
  -6   6   0 43.2608 2.32763  -2
  -5   8   0 43.2608 2.32763   1
  -4   8   0 93.6478 2.59147   1
  -3   8   0 7.53218 1.01292   1
  -2   8   0 95.3358 3.11361   1
  -1   8   0 -0.4706 0.38111   1
  -1   8   1 12.9162 4.11805  -2
   0   8   0 12.9162 4.11805   1
   1   8   0 16.7041 0.97895   1
   2   8   0 397.365 8.79747   1
   2   9   2 1178.01 32.5450  -2
   3   8   0 1178.01 32.5450   1
   3   9   2 67.5424 2.92195  -2
   4   8   0 67.5424 2.92195   1
   5   8   0 561.587 18.2833   1
   6   8   0 0.24329 0.63779   1
   6  10   3 14.8209 2.69577  -2
   7   8   0 14.8209 2.69577   1
  -6   9   0 15.3958 1.39822   1
  -6   7   0 7.46815 1.76298  -2
  -5   9   0 7.46815 1.76298   1
  -4   9   0 3.94862 1.07718   1
  -3   9   0 5.77699 0.96597   1
  -2   9   0 157.614 4.67294   1
  -1   9   0 200.359 4.65486   1
   0   9   0 217.382 5.66335   1
   1   9   0 2.11549 0.49514   1
   2   9   0 110.049 3.06292   1
   3   9   0 50.1589 1.88113   1
   4   9   0 27.5595 1.72306   1
   5   9   0 43.8022 2.25575   1
   6   9   0 3.14977 0.83752   1
   7   9   0 1.05670 0.89771   1
  -5  10   0 0.32236 0.91876   1
  -4  10   0 14.5830 1.48682   1
  -3  10   0 1.53959 0.95843   1
  -2  10   0 65.4295 2.93110   1
  -1  10   0 19.6945 1.23674   1
   0  10   0 88.9203 2.18346   1
   1  10   0 12.1938 1.00309   1
   2  10   0 4.81362 0.77824   1
   3  10   0 8.10219 1.10011   1
   4  10   0 15.6792 1.39336   1
   5  10   0 4.11756 0.98446   1
   6  10   0 6.70953 1.11078   1
  -4  11   0 5.46737 1.15006   1
  -3  11   0 56.4868 2.76292   1
  -2  11   0 4.92311 0.99625   1
  -1  11   0 0.02731 0.56945   1
   0  11   0 4.53570 0.64371   1
   1  11   0 53.1085 2.33184   1
   2  11   0 58.0816 2.29992   1
   3  11   0 0.18832 0.65443   1
   4  11   0 -0.3551 1.10855   1
   5  11   0 25.9895 2.00705   1
  -3  12   0 64.1260 3.10760   1
  -2  12   0 15.6430 1.54428   1
  -1  12   0 53.4259 2.28036   1
   0  12   0 4.50874 0.85614   1
   1  12   0 64.3308 2.38862   1
   2  12   0 5.51951 0.97540   1
   3  12   0 1.85734 0.76381   1
   4  12   0 83.3308 3.64324   1
  -2  13   0 5.11180 3.00932   1
  -1  13   0 0.00398 0.77064   1
   0  13   0 11.6761 1.16814   1
  -1  13   2 13.4185 3.13200  -2
   1  13   0 13.4185 3.13200   1
   2  13   0 57.7037 3.48524   1
  -2 -13   1 18.4584 1.62579   1
  -1  13   1 15.3345 2.57695  -2
  -1 -13   1 15.3345 2.57695   1
   0 -13   1 0.83439 0.76757   1
   1 -13   1 2.11749 0.84092   1
  -4 -12   1 1.33352 1.02993   1
  -3 -12   1 6.15385 1.22563   1
  -2 -12   1 27.4380 1.71318   1
  -1 -12   1 0.90631 0.87242   1
   0 -12   1 31.6661 1.73686   1
   1 -12   1 1.48294 0.75532   1
   2 -12   1 0.38700 0.81269   1
   3 -12   1 3.15114 1.12181   1
  -5 -11   1 14.9324 1.54629   1
  -4 -11   1 13.5562 1.44513   1
  -3 -11   1 0.41920 0.74895   1
  -2 -11   1 69.6253 2.52148   1
  -1 -11   1 8.04722 0.96597   1
   0 -11   1 79.6557 2.53676   1
   1 -11   1 20.4632 1.29408   1
   2 -11   1 0.28785 0.90338   1
   3 -11   1 16.5207 1.58586   1
   4 -11   1 2.14172 0.90553   1
  -6 -10   1 0.59819 1.17707   1
  -5 -10   1 2.95611 0.85957   1
  -4 -10   1 2.63645 0.89311   1
  -3 -10   1 0.95997 0.75193   1
  -2 -10   1 402.103 9.05030   1
  -1 -10   1 4.46939 0.63150   1
   0 -10   1 17.6587 1.31026   1
   1 -10   1 112.747 3.16346   1
   2 -10   1 48.1745 1.91416   1
   3 -10   1 161.391 5.53279   1
   4 -10   1 3.45172 0.90952   1
   5 -10   1 7.23615 1.10645   1
  -6  -9   1 10.0756 1.19493   1
  -5  -9   1 9.55023 1.15552   1
  -4  -9   1 5.38377 1.02570   1
  -3  -9   1 607.110 13.0798   1
  -2  -9   1 30.0188 1.50825   1
  -1  -9   1 42.9311 1.39274   1
   0  -9   1 118.295 2.67845   1
   1  -9   1 264.696 5.90209   1
   2  -9   1 18.3816 1.11071   1
   3  -9   1 18.9412 1.46641   1
   4  -9   1 4.94148 1.09217   1
   5  -9   1 8.49418 1.14878   1
   6  -9   1 5.51239 0.98467   1
  -7  -8   1 55.2931 2.56455   1
   5  10   2 4.22834 2.97878  -2
  -6  -8   1 4.22834 2.97878   1
  -5  -8   1 137.033 4.44195   1
   3   9   1 23.2655 4.63979  -2
  -4  -8   1 23.2655 4.63979   1
   2   9   1 41.6932 1.92335  -2
  -3  -8   1 41.6932 1.92335   1
  -2  -8   1 2.40228 0.60245   1
  -1  -8   1 31.6101 1.38762   1
  -1   8   0 30.8602 1.23644  -2
   0  -8   1 30.8602 1.23644   1
   1  -8   1 52.2792 1.68434   1
   2  -8   1 0.60781 0.49154   1
   3  -8   1 124.187 3.89051   1
   4  -8   1 1.48630 0.71604   1
   6  -6   1 33.2217 4.06152  -2
   5  -8   1 33.2217 4.06152   1
   7  -6   1 79.1792 4.41650  -2
   6  -8   1 79.1792 4.41650   1
   7  -8   1 -1.6287 0.79945   1
  -7  -7   1 42.0461 2.24273   1
   5   9   1 48.3265 4.80751  -2
  -6  -7   1 48.3265 4.80751   1
  -5  -7   1 17.5424 1.37732   1
  -4  -7   1 33.2821 2.39707   1
   2   8   1 542.461 15.3395  -2
  -3  -7   1 542.461 15.3395   1
  -2  -7   1 7.48341 0.48990   1
  -1  -7   1 1688.36 33.7298   1
  -1   7   0 140.681 2.93164  -2
   0  -7   1 140.681 2.93164   1
   1  -7   1 2.97532 0.51741   1
   2  -7   1 47.0470 1.52510   1
   4  -6   1 55.8974 1.92555  -2
   3  -7   1 55.8974 1.92555   1
   4  -7   1 10.2364 0.79989   1
   5  -7   1 16.4993 1.03565   1
   6  -7   1 16.6382 1.38726   1
   7  -7   1 3.26026 0.93621   1
  -8  -6   1 11.1352 1.31623   1
  -7  -6   1 19.0855 1.38842   1
   5   8   1 49.9716 3.72672  -2
  -6  -6   1 49.9716 3.72672   1
  -5  -6   1 9.78925 1.02301   1
  -4  -6   1 81.5752 2.70426   1
  -3  -6   1 548.760 9.33887   1
  -2  -6   1 11.4488 0.50760   1
  -1  -6   1 1933.13 27.5188   1
   0  -6   1 2110.65 35.8897   1
   1  -6   1 207.429 4.08041   1
   2  -6   1 260.582 4.97057   1
   3  -6   1 272.699 5.13799   1
   4  -6   1 322.754 5.56740   1
   5  -6   1 76.1484 1.90992   1
   6  -6   1 91.1074 3.11564   1
   7  -6   1 109.527 3.69615   1
   8  -6   1 2.98571 1.53338   1
  -8  -5   1 70.0144 3.47781   1
  -7  -5   1 11.6737 1.73393   1
  -6  -5   1 28.3745 1.09599   1
  -5  -5   1 43.5366 1.31371   1
  -4  -5   1 573.380 10.5693   1
  -3  -5   1 2402.48 38.2476   1
  -2  -5   1 1410.63 17.9706   1
  -1  -5   1 775.381 10.5106   1
   0  -5   1 252.099 3.80675   1
   1  -5   1 329.102 5.38638   1
   2  -5   1 914.648 12.8199   1
   3  -5   1 13.0569 0.52191   1
   4  -5   1 471.427 6.73906   1
   5  -5   1 109.954 2.39663   1
   6  -5   1 172.150 3.51851   1
   7  -5   1 1.48830 0.79683   1
   8  -5   1 49.1053 2.55593   1
  -8  -4   1 0.74540 0.69799   1
  -7  -4   1 -0.0474 0.55473   1
  -6  -4   1 128.741 4.10135   1
  -5  -4   1 49.9789 1.39161   1
  -4  -4   1 4324.48 76.2850   1
  -3  -4   1 78.5762 1.34346   1
  -2  -4   1 2483.36 29.6100   1
  -1  -4   1 1156.77 14.7053   1
   0  -4   1 57.5531 1.03958   1
   1  -4   1 1263.70 17.1505   1
   2  -4   1 42.7593 0.78891   1
   3  -4   1 974.051 11.7620   1
   4  -4   1 1.27322 0.31401   1
   5  -4   1 46.3101 1.18807   1
   6  -4   1 14.6440 0.78713   1
   7  -4   1 68.8912 2.09799   1
   8  -4   1 0.96335 0.78409   1
  -8  -3   1 12.0870 1.07178   1
  -7  -3   1 10.1789 0.95301   1
  -6  -3   1 143.752 3.68003   1
  -5  -3   1 27.3148 1.55542   1
  -4  -3   1 1512.62 27.4889   1
  -3  -3   1 852.441 11.5933   1
  -2  -3   1 50.7193 0.76029   1
  -1  -3   1 3197.65 45.8726   1
   0  -3   1 720.318 9.67154   1
   1  -3   1 2291.45 30.9013   1
   2  -3   1 778.378 9.37484   1
   3  -3   1 2515.61 28.2474   1
   4  -3   1 12.1837 0.61977   1
   5  -3   1 318.397 4.61629   1
   6  -3   1 63.3078 1.50948   1
   7  -3   1 17.8571 1.03303   1
   8  -3   1 22.0612 1.18193   1
  -9  -2   1 8.32910 1.41511   1
  -8  -2   1 5.80315 0.79573   1
  -7  -2   1 55.0068 1.81843   1
  -6  -2   1 95.7587 2.42599   1
  -5  -2   1 1741.35 35.9246   1
  -4  -2   1 229.011 4.19643   1
  -3  -2   1 97.5316 1.91355   1
  -2  -2   1 1498.48 18.9689   1
  -1  -2   1 1028.32 12.2838   1
   0  -2   1 102.650 1.58929   1
   1  -2   1 1189.55 16.0886   1
   2  -2   1 11.1976 0.28092   1
   3  -2   1 2268.77 29.1244   1
   4  -2   1 222.799 3.09298   1
   5  -2   1 138.457 2.35371   1
   6  -2   1 253.050 4.08421   1
   7  -2   1 0.54537 0.43187   1
   8  -2   1 44.6546 1.64950   1
   9  -2   1 0.14627 0.86425   1
  -9  -1   1 13.0015 1.51455   1
  -8  -1   1 102.881 2.93888   1
  -7  -1   1 45.4930 1.63751   1
  -6  -1   1 29.2893 1.27572   1
  -5  -1   1 67.8903 1.77684   1
  -4  -1   1 1.32271 0.30301   1
   3   2   0 10.7766 0.92875  -2
  -3  -1   1 10.7766 0.92875   1
  -2  -1   1 938.690 13.2281   1
   0  -1   1 33.4441 0.55062   1
   3  -1   1 276.099 3.36828   1
   4  -1   1 612.769 7.70639   1
   5  -1   1 89.0877 1.79141   1
   6   1   2 381.228 9.16398  -2
   6  -1   1 381.228 9.16398   1
   7  -1   1 4.61070 0.76724   1
   8  -1   1 103.043 3.35854   1
   9   2   3 1.01276 2.03497  -2
   9  -1   1 1.01276 2.03497   1
   9   3   1 2.23644 2.78289  -2
  -9   0   1 2.23644 2.78289   1
   8   3   1 2.46271 0.93962  -2
  -8   0   1 2.46271 0.93962   1
  -7   0   1 4.54165 0.60436   1
  -6   0   1 3.84050 0.55305   1
  -5   0   1 1757.29 29.8921   1
  -4   0   1 423.478 6.38555   1
   3   1   0 4425.64 158.473  -2
  -3   0   1 4425.64 158.473   1
  -2   0   1 3.70849 0.20790   1
   2   0   1 2055.40 24.8874   1
   3   0   1 1326.18 17.1261   1
   4   1   2 260.982 10.2195  -2
   4   0   1 260.982 10.2195   1
   5   0   1 115.166 2.52051   1
   6   0   1 6.01611 0.65782   1
   7   0   1 2.74687 0.59076   1
   8   0   1 27.7418 2.12607   1
   9   3   3 4.38825 1.95129  -2
   9   0   1 4.38825 1.95129   1
   9   2   1 4.88581 2.28455  -2
  -9   1   1 4.88581 2.28455   1
  -8   1   1 4.26504 1.10803   1
  -7   1   1 103.187 2.60094   1
  -6   1   1 4.91569 0.42869   1
  -5   1   1 914.413 14.5399   1
  -4   1   1 1021.54 16.1801   1
  -3   1   1 421.270 5.58976   1
  -1   1   1 1118.33 18.3284   1
   1   1   1 145.233 1.84926   1
   2   1   1 553.781 7.81850   1
   3   1   1 628.479 8.25005   1
   4   1   1 1537.09 19.9043   1
   5   1   1 155.652 3.05269   1
   6   1   1 4.03808 0.53460   1
   7   1   1 7.79976 0.70698   1
   8   1   1 44.8650 1.89199   1
   9   1   1 6.81677 0.93197   1
  -8   2   1 81.1779 4.06064   1
  -7   2   1 23.6625 1.66027   1
  -6   2   1 0.79240 0.36419   1
  -5   2   1 410.433 6.70587   1
  -4   2   1 169.832 2.90039   1
  -3   2   1 578.472 8.12632   1
  -2   2   1 1152.67 15.1679   1
   0   2   1 126.228 1.97873   1
   1   2   1 22.1866 0.39221   1
   3   2   1 74.4559 1.23170   1
   4   2   1 2298.44 30.6117   1
   5   2   1 391.063 7.00550   1
   6   2   1 149.833 3.07719   1
   7   2   1 114.508 2.93648   1
   8   2   1 2.58366 0.73836   1
   9   2   1 4.46845 0.90369   1
  -8   3   1 106.865 3.65921   1
  -7   3   1 247.258 6.61091   1
  -6   3   1 266.238 6.84770   1
  -5   3   1 603.910 10.7618   1
  -4   3   1 433.211 7.17161   1
  -3   3   1 1.76570 0.18345   1
  -2   3   1 92.1047 1.46890   1
  -1   3   1 33.1492 0.61904   1
   0   3   1 494.459 7.19164   1
   1   3   1 1476.73 19.9555   1
   2   3   1 2128.64 28.1371   1
   3   3   1 538.599 7.07687   1
   4   3   1 261.980 4.43055   1
   5   3   1 526.452 9.05653   1
   6   3   1 444.148 7.85466   1
   7   3   1 313.457 7.38095   1
   8   3   1 15.3895 1.28851   1
   9   3   1 8.19499 1.27478   1
  -8   4   1 1.37768 0.84398   1
  -7   4   1 223.914 6.18409   1
  -6   4   1 14.6835 1.25147   1
  -5   4   1 26.4926 1.00552   1
  -4   4   1 53.3511 1.18014   1
  -3   4   1 37.4042 0.75034   1
  -2   4   1 18.9314 0.48955   1
  -1   4   1 5087.24 91.7305   1
   0   4   1 84.1318 1.38752   1
   2   4   1 120.835 1.62720   1
   3   4   1 597.280 7.84970   1
   4   4   1 102.558 2.07670   1
   5   4   1 1536.92 37.5380   1
   6   4   1 51.8946 1.90662   1
   7   4   1 14.5467 2.53120   1
   8   4   1 3.83844 0.83691   1
  -8   5   1 15.1522 1.40648   1
  -7   5   1 1.30134 0.76557   1
  -6   5   1 208.382 5.69858   1
  -5   5   1 124.435 2.97828   1
  -4   5   1 1118.60 17.9217   1
  -3   5   1 81.0468 1.83839   1
  -2   5   1 0.43213 0.16604   1
  -1   5   1 512.230 7.00170   1
   0   5   1 1424.80 22.0776   1
   1   5   1 1267.96 19.0946   1
   2   5   1 517.006 7.65324   1
   3   5   1 197.827 3.20706   1
   4   5   1 770.973 11.6928   1
   5   5   1 0.72457 0.31211   1
   6   5   1 77.0489 3.77068   1
   7   5   1 75.6095 2.91926   1
   8   5   1 34.6728 2.02810   1
  -8   6   1 -0.2115 1.13137   1
  -7   6   1 7.73895 1.13983   1
  -6   6   1 12.8434 1.26692   1
  -5   6   1 5.05824 0.45156   1
  -4   6   1 174.718 3.20670   1
  -3   6   1 657.559 13.4028   1
  -3   5   1 310.860 9.66603  -2
  -2   6   1 310.860 9.66603   1
  -1   6   1 649.347 11.5728   1
   0   6   1 2.60762 0.26861   1
   0   6   2 773.240 14.2466  -2
   1   6   1 773.240 14.2466   1
   2   6   1 319.882 4.86068   1
   3   6   1 1023.03 14.2666   1
   4   6   1 199.953 3.63623   1
   5   6   1 17.8567 0.93327   1
   6   6   1 9.45120 0.95880   1
   6   8   3 10.5570 3.37405  -2
   7   6   1 10.5570 3.37405   1
   8   6   1 6.52562 1.11841   1
  -7   7   1 89.3410 3.35716   1
  -6   7   1 46.0911 2.29271   1
  -6   5   1 89.0420 3.13868  -2
  -5   7   1 89.0420 3.13868   1
  -4   7   1 92.1422 2.19044   1
  -4   6   1 517.736 21.6406  -2
  -3   7   1 517.736 21.6406   1
  -2   7   1 84.5830 2.04496   1
  -1   7   1 378.034 7.88425   1
  -1   7   2 34.1689 2.62002  -2
   0   7   1 34.1689 2.62002   1
   0   7   2 538.301 12.1906  -2
   1   7   1 538.301 12.1906   1
   2   7   1 0.51369 0.32506   1
   3   7   1 295.344 5.31871   1
   3   8   3 148.395 5.09048  -2
   4   7   1 148.395 5.09048   1
   5   7   1 41.1668 1.90749   1
   6   7   1 22.7411 1.60161   1
   6   9   4 10.4810 3.29655  -2
   7   7   1 10.4810 3.29655   1
   8   7   1 2.83388 0.97987   1
  -7   8   1 35.6742 2.18397   1
  -6   8   1 62.2478 2.67905   1
  -6   6   1 16.1891 2.30226  -2
  -5   8   1 16.1891 2.30226   1
  -4   8   1 0.41449 0.56044   1
  -3   8   1 495.314 12.4064   1
  -2   8   1 179.542 5.04368   1
  -1   8   1 12.0670 0.83896   1
   0   8   1 1383.27 31.0929   1
   1   8   1 182.186 3.77087   1
   2   8   1 980.474 23.9539   1
   3   8   1 23.4952 1.05431   1
   3   9   3 122.094 4.03248  -2
   4   8   1 122.094 4.03248   1
   5   8   1 163.159 4.99116   1
   6   8   1 24.2046 1.59788   1
   6  10   4 7.50729 2.51648  -2
   7   8   1 7.50729 2.51648   1
  -6   9   1 -0.2426 0.62828   1
  -5   9   1 1.43973 0.70372   1
  -4   9   1 35.7258 1.75423   1
  -3   9   1 12.6041 1.24019   1
  -2   9   1 321.452 8.43783   1
  -1   9   1 19.3152 1.14832   1
   0   9   1 1509.86 30.3598   1
   1   9   1 57.6724 1.99139   1
   2   9   1 2.08384 0.64024   1
   3   9   1 97.9391 2.74712   1
   4   9   1 2.70470 0.77515   1
   5   9   1 8.42783 1.09092   1
   6   9   1 1.31651 0.69415   1
   7   9   1 28.1339 1.89568   1
  -5  10   1 8.39437 1.67818   1
  -4  10   1 47.9663 3.23164   1
  -3  10   1 22.1058 1.70269   1
  -2  10   1 69.6166 2.85319   1
  -1  10   1 83.2498 2.50568   1
   0  10   1 106.999 2.96291   1
   1  10   1 184.529 5.04259   1
   2  10   1 4.12458 0.72682   1
   3  10   1 24.6523 1.41833   1
   4  10   1 2.33410 0.87098   1
   5  10   1 94.2247 3.54152   1
   6  10   1 31.6030 2.00248   1
  -4  11   1 1.03583 0.84984   1
  -3  11   1 144.661 4.80166   1
  -2  11   1 16.5270 1.49499   1
  -1  11   1 65.3953 2.23828   1
   0  11   1 6.85083 0.93281   1
   1  11   1 20.2444 1.47434   1
   2  11   1 150.252 4.93555   1
   3  11   1 2.97691 0.78609   1
   4  11   1 22.9552 1.81815   1
   5  11   1 1.15087 1.00954   1
  -3  12   1 0.62048 0.95983   1
  -2  12   1 41.6731 2.42283   1
  -1  12   1 1.49411 0.71356   1
   0  12   1 0.78026 0.69711   1
   1  12   1 1.95758 0.81385   1
   2  12   1 1.75588 1.25934   1
   3  12   1 14.0805 1.21317   1
   4  12   1 89.4474 3.77590   1
  -2  13   1 -0.2714 0.99549   1
  -3  12   2 72.4176 6.39673  -2
  -1  13   1 72.4176 6.39673   1
   0  13   1 22.2827 1.51740   1
  -1  13   3 42.0912 3.08047  -2
   1  13   1 42.0912 3.08047   1
   0  13   3 5.68111 3.82670  -2
   2  13   1 5.68111 3.82670   1
   3  13   1 14.1601 1.44587   1
  -1 -13   2 0.08224 1.23737   1
   0 -13   2 2.27108 0.84897   1
   1 -13   2 1.22514 1.13980   1
  -3 -12   2 12.0197 1.41900   1
  -2 -12   2 6.45463 0.97530   1
  -1 -12   2 32.6574 1.94482   1
   0 -12   2 3.53066 0.82756   1
   1 -12   2 0.98637 0.70498   1
   2 -12   2 0.18662 0.72321   1
   3 -12   2 5.59550 1.22159   1
  -5 -11   2 51.6524 2.82189   1
  -4 -11   2 1.57810 0.90076   1
  -3 -11   2 18.2763 1.27616   1
  -2 -11   2 13.6033 1.19768   1
  -1 -11   2 -0.0930 0.82180   1
   0 -11   2 68.7893 2.69620   1
   1 -11   2 0.95794 0.66533   1
   2 -11   2 4.40583 0.81257   1
   3 -11   2 11.1600 1.33544   1
   4 -11   2 6.80406 1.16903   1
  -6 -10   2 5.53775 1.27769   1
  -5 -10   2 25.1326 2.54595   1
  -4 -10   2 114.672 4.03937   1
  -3 -10   2 1.25286 0.60141   1
  -2 -10   2 1.09130 0.83952   1
  -1 -10   2 131.939 3.05354   1
   0 -10   2 25.0448 1.47714   1
   1 -10   2 39.4553 1.69253   1
   2 -10   2 130.586 3.96220   1
   3 -10   2 52.0796 2.53915   1
   4 -10   2 16.1305 1.47915   1
   5 -10   2 -0.1221 0.76421   1
   5  11   1 18.6246 4.67833  -2
  -6  -9   2 18.6246 4.67833   1
  -5  -9   2 7.09449 1.03202   1
  -4  -9   2 96.0142 3.46328   1
  -3  -9   2 356.764 8.07117   1
  -2  -9   2 170.162 4.29677   1
  -1  -9   2 61.3840 1.72778   1
   0  -9   2 228.633 5.42012   1
   1  -9   2 3.86726 0.84926   1
   2  -9   2 119.824 3.12976   1
   3  -9   2 31.6224 1.92549   1
   4  -9   2 13.6606 1.27165   1
   5  -9   2 52.2616 2.49953   1
   7  -7   2 3.46768 2.07890  -2
   6  -9   2 3.46768 2.07890   1
  -7  -8   2 16.9661 1.58105   1
   5  10   1 13.9137 2.47174  -2
  -6  -8   2 13.9137 2.47174   1
  -5  -8   2 72.4052 2.88973   1
  -4  -8   2 65.3183 2.60060   1
   2   9   0 68.7105 1.94189  -2
  -3  -8   2 68.7105 1.94189   1
  -2  -8   2 26.7479 1.27651   1
  -1  -8   2 210.581 4.23896   1
   1  -8   1 109.398 2.87646  -2
   0  -8   2 109.398 2.87646   1
   2  -8   1 13.5147 2.35444  -2
   1  -8   2 13.5147 2.35444   1
   2  -8   2 5.01634 0.66145   1
   4  -7   2 680.054 28.1260  -2
   3  -8   2 680.054 28.1260   1
   4  -8   2 8.38818 0.98587   1
   5  -8   2 228.628 6.47243   1
   7  -6   2 13.7513 1.96823  -2
   6  -8   2 13.7513 1.96823   1
   7  -8   2 16.2164 2.30803   1
  -7  -7   2 18.4478 1.49151   1
   5   9   0 4.18666 2.09439  -2
  -6  -7   2 4.18666 2.09439   1
  -5  -7   2 35.3132 1.85132   1
  -4  -7   2 181.059 5.25019   1
   2   8   0 129.283 5.26300  -2
  -3  -7   2 129.283 5.26300   1
  -2  -7   2 89.5376 1.73775   1
  -1  -7   2 1503.84 26.9316   1
   1  -7   1 16.8650 0.89004  -2
   0  -7   2 16.8650 0.89004   1
   1  -7   2 109.250 2.78555   1
   2  -7   2 353.820 7.47761   1
   4  -6   2 72.5963 2.31856  -2
   3  -7   2 72.5963 2.31856   1
   4  -7   2 226.752 6.17770   1
   5  -7   2 19.6746 1.40451   1
   6  -7   2 2.56934 0.77789   1
   7  -7   2 -0.2280 1.18453   1
  -8  -6   2 1.11051 0.74555   1
  -7  -6   2 11.3164 1.10909   1
   5   8   0 72.2826 4.79035  -2
  -6  -6   2 72.2826 4.79035   1
  -5  -6   2 194.993 5.56170   1
  -4  -6   2 68.0775 2.41563   1
  -3  -6   2 213.833 3.92112   1
  -2  -6   2 2.27426 0.35031   1
  -1  -6   2 507.624 8.47814   1
   0  -6   2 927.923 19.1683   1
   1  -6   2 23.5392 0.95872   1
   2  -6   2 988.224 17.9837   1
   3  -6   2 1724.81 40.8323   1
   4  -6   2 367.430 7.08437   1
   5  -6   2 8.88873 0.62252   1
   6  -6   2 72.0167 3.65826   1
   7  -6   2 7.22214 1.09621   1
   8  -6   2 1.51450 1.15647   1
  -8  -5   2 0.93377 0.83892   1
  -7  -5   2 36.7579 1.64061   1
  -6  -5   2 194.256 4.69808   1
  -5  -5   2 10.8520 0.70123   1
  -4  -5   2 225.830 4.50250   1
  -3  -5   2 8.16312 0.43839   1
  -2  -5   2 1510.92 20.4677   1
  -1  -5   2 4.76787 0.26298   1
   0  -5   2 1.97095 0.28224   1
   1  -5   2 2297.62 31.0871   1
   2  -5   2 641.909 9.73384   1
   3  -5   2 149.913 2.57512   1
   4  -5   2 73.9916 1.34392   1
   5  -5   2 1.88776 0.34178   1
   6  -5   2 4.87873 0.65326   1
   7  -5   2 67.6829 2.34731   1
   8  -5   2 21.4544 2.20661   1
  -8  -4   2 47.3231 2.09517   1
  -7  -4   2 54.3238 2.17451   1
  -6  -4   2 12.7729 0.76412   1
  -5  -4   2 33.1106 1.10169   1
  -4  -4   2 398.557 7.48726   1
  -3  -4   2 95.2562 1.60509   1
  -2  -4   2 550.465 6.74328   1
  -1  -4   2 10.9867 0.35785   1
   0  -4   2 954.445 13.8399   1
   1  -4   2 828.663 11.3467   1
   2  -4   2 172.240 2.52831   1
   3  -4   2 289.060 3.83472   1
   4  -4   2 1080.59 14.6781   1
   5  -4   2 14.7280 0.63212   1
   6  -4   2 125.185 3.19022   1
   7  -4   2 49.3429 1.78304   1
   8  -4   2 -0.6248 0.68159   1
  -8  -3   2 69.5644 2.45546   1
  -7  -3   2 2.04568 0.59111   1
  -6  -3   2 392.269 10.1072   1
  -5  -3   2 14.7101 0.78544   1
  -4  -3   2 299.304 6.49837   1
  -3  -3   2 264.564 3.60323   1
  -2  -3   2 880.359 10.6101   1
  -1  -3   2 503.645 6.41145   1
   0  -3   2 2339.09 36.5432   1
   1  -3   2 5.50490 0.24302   1
   2  -3   2 1310.52 18.1720   1
   3  -3   2 24.2600 0.50978   1
   4  -3   2 640.513 9.38392   1
   5  -3   2 82.6995 1.47081   1
   6  -3   2 87.3138 1.72386   1
   7  -3   2 1.97999 0.53132   1
   8  -3   2 18.8455 1.83609   1
  -8  -2   2 37.7131 2.07400   1
  -7  -2   2 25.6184 1.50579   1
  -6  -2   2 0.69288 0.52059   1
  -5  -2   2 258.414 6.82163   1
  -4  -2   2 661.446 10.8407   1
  -3  -2   2 2535.43 35.4467   1
  -2  -2   2 1710.94 19.6733   1
  -1  -2   2 3441.73 122.968   1
   1  -2   2 2459.88 41.8877   1
   2  -2   2 819.252 10.3073   1
   3  -2   2 185.748 2.43514   1
   4  -2   2 154.366 2.11489   1
   5  -2   2 3.39618 0.35004   1
   6  -2   2 20.2130 0.79973   1
   7  -2   2 50.2650 1.52219   1
   8  -2   2 1.90999 0.69076   1
   9  -2   2 5.52633 2.17162   1
   8   4   0 -1.3238 1.49961  -2
  -8  -1   2 -1.3238 1.49961   1
  -7  -1   2 2.46806 0.53621   1
  -6  -1   2 23.7530 1.10757   1
  -5  -1   2 3.02497 0.46461   1
  -4  -1   2 237.176 4.66924   1
  -3  -2   1 811.194 30.4280  -2
  -3  -1   2 811.194 30.4280   1
  -1  -1   2 396.199 5.74584   1
   3  -1   2 6997.74 151.081   1
   4  -1   2 555.400 7.42823   1
   5  -1   2 701.009 10.4978   1
   6   1   3 108.942 3.50538  -2
   6  -1   2 108.942 3.50538   1
   7  -1   2 132.887 2.80459   1
   8  -1   2 72.2208 2.76247   1
   9   2   4 4.78842 2.05561  -2
   9  -1   2 4.78842 2.05561   1
   9   3   0 -0.7371 3.09937  -2
  -9   0   2 -0.7371 3.09937   1
   8   3   0 31.3283 1.61089  -2
  -8   0   2 31.3283 1.61089   1
  -7   0   2 0.97837 0.67097   1
  -6   0   2 243.001 4.88585   1
  -5  -2   1 268.675 7.53923  -2
  -5   0   2 268.675 7.53923   1
  -4   0   2 1708.33 26.5800   1
  -3   0   2 4750.07 107.599   1
  -2   0   2 1166.88 16.1437   1
  -1   0   2 91.7143 1.23525   1
   0   0   2 107.229 1.61608   1
   1   0   2 1567.16 24.4424   1
   2   0   2 849.404 10.5087   1
   3   0   2 1375.44 17.7500   1
   4   1   3 144.808 2.94514  -2
   4   0   2 144.808 2.94514   1
   5   0   2 108.546 2.46531   1
   6   0   2 130.310 3.22338   1
   7   0   2 50.4428 2.34809   1
   8   0   2 499.932 13.3846   1
   9   3   4 6.22106 3.67838  -2
   9   0   2 6.22106 3.67838   1
   8   2   0 20.2429 3.37140  -2
  -8   1   2 20.2429 3.37140   1
  -7   1   2 17.2326 0.88985   1
  -6   1   2 142.411 3.48684   1
  -5   1   2 70.0753 1.67409   1
  -4   1   2 765.212 12.1852   1
  -3   1   2 35.5861 0.79405   1
  -2   1   2 1079.41 15.2131   1
   0   1   2 1399.85 22.3557   1
   2   1   2 3092.56 49.0897   1
   3   1   2 52.5670 0.91383   1
   4   1   2 1269.46 16.5064   1
   5   1   2 18.1733 0.84947   1
   6   1   2 73.5479 2.00622   1
   7   1   2 71.8166 2.14902   1
   8   1   2 16.8374 1.38985   1
   9   1   2 2.19962 0.69360   1
  -8   2   2 24.0277 1.49291   1
  -7   2   2 94.0789 4.17661   1
  -6   2   2 2.24637 0.36082   1
  -5   2   2 89.7824 1.79865   1
  -4   2   2 0.68087 0.22738   1
  -3   2   2 998.577 15.1413   1
  -2   2   2 446.311 6.93137   1
  -1   2   2 2825.43 81.2307   1
   1   2   2 3065.95 82.0335   1
   2   2   2 920.674 12.3275   1
   3   2   2 213.989 3.19573   1
   4   2   2 323.891 4.62010   1
   5   2   2 1581.61 28.9483   1
   6   2   2 38.2877 1.72737   1
   7   2   2 294.431 6.21162   1
   8   2   2 7.32556 1.01844   1
   9   2   2 8.43996 1.05794   1
  -8   3   2 9.86725 1.66912   1
  -7   3   2 64.0156 2.69629   1
  -6   3   2 11.4101 1.04113   1
  -5   3   2 156.563 3.68142   1
  -4   3   2 0.96391 0.34891   1
  -3   3   2 1623.63 24.3395   1
  -2   3   2 5.44032 0.25136   1
  -1   3   2 1499.55 24.6437   1
   0   3   2 103.954 1.61152   1
   1   3   2 2249.23 35.1328   1
   2   3   2 161.093 2.09478   1
   3   3   2 1077.68 14.5503   1
   4   3   2 468.771 8.38260   1
   5   3   2 152.867 3.39136   1
   6   3   2 3.53470 0.60949   1
   7   3   2 138.985 3.44191   1
   8   3   2 4.20930 0.92086   1
   9   3   2 2.53449 0.82921   1
  -8   4   2 59.0586 3.49838   1
  -7   4   2 9.72361 1.16362   1
  -6   4   2 14.8338 1.25350   1
  -5   4   2 10.9953 0.98269   1
  -4   4   2 1078.73 19.1099   1
  -3   4   2 299.164 4.75932   1
  -2   4   2 1154.00 17.5162   1
  -1   4   2 765.827 13.7989   1
   0   4   2 1121.31 16.8562   1
   1   4   2 2269.42 34.0443   1
   2   4   2 1255.35 15.7638   1
   3   4   2 412.995 5.50673   1
   4   4   2 258.627 4.70132   1
   5   4   2 9.97284 0.96208   1
   6   4   2 3.10031 0.62823   1
   7   4   2 45.0955 1.89403   1
   8   4   2 21.2507 1.54599   1
   9   4   2 13.9810 1.52247   1
  -8   5   2 3.81618 1.05238   1
  -7   5   2 34.8236 2.09969   1
  -6   5   2 86.8215 3.04227   1
  -5   5   2 195.122 5.28802   1
  -4   5   2 1172.44 18.7668   1
  -3   5   2 1349.24 23.9353   1
  -2   5   2 54.9899 1.10335   1
  -1   5   2 1404.44 21.8642   1
   0   5   2 17.2966 0.48966   1
   1   5   2 200.915 2.92682   1
   2   5   2 22.2873 0.49587   1
   3   5   2 383.328 6.36228   1
   4   5   2 36.3096 1.10743   1
   5   5   2 0.36084 0.30552   1
   6   5   2 4.72947 0.53067   1
   7   5   2 28.7847 1.98732   1
   8   5   2 2.33990 1.14043   1
  -7   6   2 13.5031 1.34272   1
  -6   6   2 -1.3430 0.69480   1
  -5   6   2 13.5438 0.64181   1
  -4   6   2 25.4562 0.89132   1
  -3   6   2 177.149 4.04030   1
  -3   5   2 590.646 17.8678  -2
  -2   6   2 590.646 17.8678   1
  -1   6   2 101.609 2.51709   1
   0   6   2 1950.99 27.6652   1
   0   6   3 1549.34 30.3491  -2
   1   6   2 1549.34 30.3491   1
   2   6   2 43.4228 0.81907   1
   3   6   2 1436.85 19.9288   1
   3   7   4 328.816 9.84947  -2
   4   6   2 328.816 9.84947   1
   5   6   2 129.446 2.87385   1
   6   6   2 66.0888 1.87491   1
   6   8   4 34.7156 2.55165  -2
   7   6   2 34.7156 2.55165   1
   8   6   2 1.40607 0.80876   1
  -7   7   2 3.82108 2.03472   1
  -6   7   2 141.137 4.42896   1
  -6   5   2 73.2518 2.22772  -2
  -5   7   2 73.2518 2.22772   1
  -4   7   2 60.5727 1.96109   1
  -3   7   2 3.44814 0.50608   1
  -3   6   2 317.038 12.6122  -2
  -2   7   2 317.038 12.6122   1
  -1   7   2 4.40790 0.47386   1
   0   7   2 11.9694 0.69983   1
   0   7   3 262.959 6.26372  -2
   1   7   2 262.959 6.26372   1
   2   7   2 17.0121 0.77579   1
   3   7   2 412.873 6.39793   1
   3   8   4 194.558 4.78601  -2
   4   7   2 194.558 4.78601   1
   4   8   4 24.1855 2.21201  -2
   5   7   2 24.1855 2.21201   1
   6   7   2 349.855 9.32225   1
   7   7   2 8.83402 0.80666   1
   8   7   2 71.1266 3.13672   1
  -7   8   2 0.93705 1.18386   1
  -6   8   2 9.47742 1.21544   1
  -6   6   2 9.41790 1.62134  -2
  -5   8   2 9.41790 1.62134   1
  -4   8   2 11.2535 1.04209   1
  -3   8   2 137.283 3.48406   1
  -2   8   2 110.987 3.48617   1
  -1   8   2 0.74566 0.45798   1
   0   8   2 1695.07 29.7086   1
   1   8   2 30.3234 1.57005   1
   2   8   2 1006.80 24.7455   1
   3   8   2 10.2708 0.61970   1
   4   8   2 31.2335 1.67425   1
   5   8   2 5.37286 0.94538   1
   6   8   2 25.1034 1.58334   1
   7   8   2 5.22775 0.86875   1
  -6   9   2 2.25412 0.71662   1
  -5   9   2 95.5770 2.85783   1
  -4   9   2 35.3539 1.93178   1
  -3   9   2 285.489 7.73191   1
  -2   9   2 10.5355 1.12939   1
  -1   9   2 11.2806 0.86618   1
   0   9   2 163.031 3.95962   1
   1   9   2 3.09786 0.74117   1
   2   9   2 12.2445 1.12078   1
   3   9   2 155.069 3.19717   1
   4   9   2 31.9118 1.83245   1
   5   9   2 0.07234 0.69844   1
   6   9   2 12.5750 1.16880   1
   7   9   2 22.3967 1.68175   1
  -5  10   2 12.2750 1.26647   1
  -4  10   2 150.829 4.60151   1
  -3  10   2 1.42918 0.83549   1
  -2  10   2 50.9941 2.40566   1
  -1  10   2 55.5015 1.93628   1
   0  10   2 10.8963 0.94428   1
   1  10   2 0.51549 0.57860   1
   3  10   2 12.0084 1.01907   1
   4  10   2 125.537 4.24532   1
   5  10   2 1.01967 0.80542   1
   6  10   2 23.7596 2.34076   1
  -4  11   2 9.18832 1.27714   1
  -3  11   2 20.0133 1.80257   1
  -2  11   2 0.58835 0.78794   1
  -1  11   2 64.8520 2.75358   1
   0  11   2 17.1706 1.32490   1
   1  11   2 14.8684 1.18198   1
   2  11   2 208.577 6.10557   1
   3  11   2 34.3694 2.19044   1
   4  11   2 10.9997 1.31382   1
   5  11   2 64.9295 3.00682   1
  -3  12   2 7.65230 1.23474   1
  -2  12   2 1.19781 1.06266   1
  -1  12   2 13.6247 1.40075   1
   0  12   2 0.94778 0.70564   1
   1  12   2 91.1362 3.33504   1
   2  12   2 72.8766 3.00498   1
   3  12   2 1.27797 0.81454   1
   4  12   2 1.78103 0.95923   1
  -2  13   2 9.33878 1.57220   1
  -3  12   3 92.6704 7.07668  -2
  -1  13   2 92.6704 7.07668   1
   0  13   2 15.6135 1.24947   1
  -1  13   4 104.686 5.19671  -2
   1  13   2 104.686 5.19671   1
   0  13   4 37.8215 2.68669  -2
   2  13   2 37.8215 2.68669   1
   3  13   2 2.96134 0.89387   1
  -3 -12   3 6.67695 1.25679   1
  -2 -12   3 1.78226 0.74088   1
  -1 -12   3 54.8936 2.36519   1
   0 -12   3 4.09626 1.00434   1
   1 -12   3 29.1868 1.68313   1
   2 -12   3 42.7146 2.02069   1
   3 -12   3 -0.1835 1.06972   1
  -4 -11   3 2.23764 1.10059   1
  -3 -11   3 -0.3684 0.66652   1
  -2 -11   3 50.0296 2.11993   1
  -1 -11   3 52.2037 2.24665   1
   0 -11   3 59.7280 2.30547   1
   1 -11   3 50.8026 2.04746   1
   2 -11   3 11.4493 1.04931   1
   3 -11   3 5.30766 1.15384   1
   4 -11   3 5.33150 1.19505   1
  -5 -10   3 81.2066 3.42150   1
  -4 -10   3 13.9053 1.54464   1
  -3 -10   3 4.37525 0.88994   1
  -2 -10   3 76.4799 2.67875   1
  -1 -10   3 258.353 6.23886   1
   0 -10   3 78.5281 2.75509   1
   1 -10   3 0.38242 0.85278   1
   2 -10   3 8.21349 0.89737   1
   3 -10   3 5.04531 1.08546   1
   4 -10   3 -0.3673 0.77261   1
   5 -10   3 -0.4133 0.77615   1
   5  11   0 112.959 7.09114  -2
  -6  -9   3 112.959 7.09114   1
  -5  -9   3 0.29044 0.79182   1
  -4  -9   3 5.71782 1.04739   1
  -2 -10   1 162.710 7.03156  -2
  -3  -9   3 162.710 7.03156   1
  -2  -9   3 42.4511 1.79505   1
  -1  -9   3 228.768 5.45773   1
   0  -9   3 15.1842 1.09627   1
   1  -9   3 63.3690 2.14095   1
   2  -9   3 1.30738 0.64080   1
   3  -9   3 4.22444 0.73797   1
   4  -9   3 -0.1604 0.68407   1
   5  -9   3 51.9548 2.50700   1
   7  -7   3 16.7413 2.92629  -2
   6  -9   3 16.7413 2.92629   1
  -7  -8   3 4.34677 0.92280   1
  -6  -8   3 30.9845 1.91584   1
  -5  -8   3 1.06191 0.71043   1
  -4  -8   3 12.8572 1.23975   1
  -2  -9   1 5.60098 1.71743  -2
  -3  -8   3 5.60098 1.71743   1
  -1  -9   1 18.5563 1.75320  -2
  -2  -8   3 18.5563 1.75320   1
  -1  -8   3 30.3217 1.08854   1
   1  -8   2 983.165 20.5715  -2
   0  -8   3 983.165 20.5715   1
   2  -8   2 469.145 13.9836  -2
   1  -8   3 469.145 13.9836   1
   2  -8   3 288.972 6.34689   1
   4  -7   3 69.3458 3.70783  -2
   3  -8   3 69.3458 3.70783   1
   5  -7   3 7.80952 2.48109  -2
   4  -8   3 7.80952 2.48109   1
   5  -8   3 4.46689 1.13323   1
   7  -6   3 65.3958 2.97646  -2
   6  -8   3 65.3958 2.97646   1
  -7  -7   3 15.6587 1.44203   1
  -5  -9   1 -1.3956 1.90010  -2
  -6  -7   3 -1.3956 1.90010   1
  -4  -9   1 130.568 6.66634  -2
  -5  -7   3 130.568 6.66634   1
  -4  -7   3 74.9326 2.77778   1
  -3  -7   3 37.5479 1.07021   1
  -2  -7   3 212.378 3.86181   1
  -1  -7   3 588.047 10.7976   1
   1  -7   2 1188.89 24.6049  -2
   0  -7   3 1188.89 24.6049   1
   2  -7   2 899.493 36.1877  -2
   1  -7   3 899.493 36.1877   1
   2  -7   3 59.0380 1.52923   1
   4  -6   3 526.511 15.4920  -2
   3  -7   3 526.511 15.4920   1
   5  -6   3 12.4687 2.08950  -2
   4  -7   3 12.4687 2.08950   1
   5  -7   3 2.65493 0.69085   1
   6  -7   3 21.1062 2.08881   1
   7  -7   3 73.6593 4.10406   1
  -7  -6   3 79.0273 3.07614   1
  -6  -6   3 21.3259 1.39671   1
  -5  -6   3 401.969 8.78757   1
  -4  -6   3 100.500 2.70547   1
  -3  -6   3 347.545 6.10090   1
  -2  -6   3 3252.98 48.6210   1
  -1  -6   3 265.765 4.32630   1
   0  -6   3 1251.63 25.7528   1
   1  -6   3 9.42878 0.73956   1
   2  -6   3 27.6854 1.10964   1
   3  -6   3 32.8788 1.25218   1
   4  -6   3 52.5726 1.61116   1
   5  -6   3 61.4759 1.54972   1
   6  -6   3 15.4715 1.11622   1
   7  -6   3 114.911 3.83077   1
  -8  -5   3 6.99618 0.91617   1
  -7  -5   3 36.9921 1.82848   1
  -6  -5   3 301.713 6.87617   1
  -5  -5   3 34.8424 1.52524   1
  -4  -5   3 537.809 11.2502   1
  -3  -5   3 1804.96 26.3518   1
  -2  -5   3 2348.24 30.6074   1
  -1  -5   3 1449.24 19.4784   1
   0  -5   3 1233.52 17.8968   1
   1  -5   3 27.8675 0.79546   1
   2  -5   3 74.7738 1.45603   1
   3  -5   3 306.701 5.33274   1
   4  -5   3 997.756 16.4145   1
   5  -5   3 25.7965 0.76262   1
   6  -5   3 152.271 2.97237   1
   7  -5   3 16.1862 1.25044   1
   8  -5   3 7.54017 1.01591   1
  -8  -4   3 74.6071 2.64856   1
  -7  -4   3 37.6991 2.29908   1
  -6  -4   3 24.7290 1.08141   1
  -5  -4   3 200.079 4.11927   1
  -4  -4   3 235.227 4.64569   1
  -3  -4   3 337.426 5.74807   1
  -2  -4   3 472.407 5.85782   1
  -1  -4   3 51.4297 0.87522   1
   0  -4   3 598.224 8.83237   1
   1  -4   3 1.74231 0.25646   1
   2  -4   3 79.9118 1.32945   1
   3  -4   3 101.275 1.66948   1
   4  -4   3 2503.55 32.1323   1
   5  -4   3 269.834 5.19563   1
   6  -4   3 428.522 7.32448   1
   7  -4   3 81.7960 2.64763   1
   8  -4   3 4.14623 0.87183   1
  -8  -3   3 106.103 3.20659   1
  -7  -3   3 1.08607 0.54371   1
  -6  -3   3 156.709 3.40065   1
  -5  -3   3 486.073 9.09367   1
  -4  -3   3 6.77648 0.53021   1
  -3  -3   3 681.614 8.85563   1
  -2  -3   3 755.867 9.60418   1
  -1  -3   3 281.225 3.67951   1
   0  -3   3 896.468 13.0009   1
   1  -3   3 805.440 11.7082   1
   2  -3   3 64.1670 1.08138   1
   3  -3   3 25.8454 0.59954   1
   4  -3   3 1346.13 16.0726   1
   5  -3   3 139.036 2.42283   1
   6  -3   3 80.7369 2.04531   1
   7  -3   3 174.282 4.31738   1
   8  -3   3 0.58056 0.59666   1
  -8  -2   3 17.0783 1.16757   1
  -7  -2   3 25.5970 1.29166   1
  -6  -2   3 182.041 3.78501   1
  -5  -2   3 683.170 12.5136   1
  -4  -2   3 354.903 7.61753   1
  -3  -2   3 36.1486 0.73882   1
  -2  -2   3 2712.47 34.4487   1
  -1  -2   3 1388.41 18.5395   1
   1  -2   3 786.121 12.3512   1
   2  -2   3 590.897 7.49788   1
   3  -2   3 3461.83 40.7202   1
   4  -2   3 277.196 3.87717   1
   5  -2   3 23.4068 0.68712   1
   6  -2   3 3.25685 0.44044   1
   7  -2   3 -0.3545 0.47733   1
   8  -2   3 84.6056 2.59675   1
   9  -2   3 1.14369 1.06554   1
  -8  -4   1 13.5897 1.86557  -2
  -8  -1   3 13.5897 1.86557   1
  -7  -1   3 83.5944 2.03794   1
  -6  -1   3 57.8820 1.50275   1
  -5  -1   3 12.3712 0.54702   1
  -4  -1   3 564.486 8.73614   1
  -3  -1   3 2304.20 32.3117   1
  -2  -1   3 1.74654 0.18884   1
   1  -1   3 2512.26 39.3412  -2
   1  -1   3 2512.26 39.3412   1
   2  -1   3 1820.79 22.7273   1
   3  -1   3 30.4367 0.60290   1
   4   0   4 146.602 4.76969  -2
   4  -1   3 146.602 4.76969   1
   5  -1   3 8.12822 0.41332   1
   6  -1   3 93.2303 1.93632   1
   7   1   4 22.8303 4.13839  -2
   7  -1   3 22.8303 4.13839   1
   8  -1   3 0.63113 0.78025   1
   9   2   5 -0.8877 4.01589  -2
   9  -1   3 -0.8877 4.01589   1
  -8  -3   1 45.1529 2.05259  -2
  -8   0   3 45.1529 2.05259   1
  -7   0   3 151.415 3.55698   1
  -6   0   3 39.7068 1.28788   1
  -5  -2   2 251.647 5.18475  -2
  -5   0   3 251.647 5.18475   1
  -4   0   3 2.16561 0.24644   1
  -3   0   3 3639.86 45.4765   1
  -2   0   3 519.764 7.01306   1
  -1   0   3 353.755 5.47615   1
   1   0   3 3.88276 0.56439  -2
   1   0   3 3.88276 0.56439   1
   2   0   3 723.565 9.10077   1
   3   0   3 4032.01 51.9275   1
   4   1   4 71.1570 1.34899  -2
   4   0   3 71.1570 1.34899   1
   5   0   3 1168.63 23.0694   1
   6   0   3 34.5350 1.65210   1
   7   0   3 107.908 3.49310   1
   8   0   3 38.3770 1.97389   1
   9   0   3 0.73049 0.67617   1
  -8   1   3 1.41796 0.64144   1
  -7   1   3 232.247 5.11906   1
  -6   1   3 103.489 2.34938   1
  -5   1   3 19.1063 0.70306   1
  -4   1   3 888.706 15.4311   1
  -3   1   3 4.16174 0.28605   1
  -2   1   3 207.723 3.28751   1
  -1   1   3 1535.18 22.8004   1
   0   1   3 1576.99 29.9022   1
   2   1   3 1.15423 0.13967   1
   3   1   3 2107.15 31.0941   1
   4   1   3 1081.89 17.5728   1
   5   1   3 698.945 16.6689   1
   6   1   3 705.531 15.5793   1
   7   1   3 2.49416 0.68076   1
   8   1   3 9.46609 1.04461   1
   9   1   3 8.53015 0.94369   1
  -8   2   3 4.83769 0.86909   1
  -7   2   3 15.3712 1.37153   1
  -6   2   3 278.763 7.03304   1
  -5   2   3 44.9728 1.28353   1
  -4   2   3 1425.70 24.9524   1
  -3   2   3 326.060 4.78988   1
  -2   2   3 280.593 4.81663   1
   1   2   3 278.015 5.80886   1
   2   2   3 2326.53 32.1795   1
   3   2   3 946.026 12.3721   1
   4   2   3 3.04020 0.34372   1
   5   2   3 925.783 17.3522   1
   6   2   3 72.9281 2.29311   1
   7   2   3 49.2817 2.03311   1
   8   2   3 1.04216 0.62444   1
   9   2   3 -0.1561 0.66660   1
  -8   3   3 0.54123 0.79622   1
  -7   3   3 19.7055 2.17658   1
  -6   3   3 60.6113 2.33784   1
  -5   3   3 74.2720 2.53978   1
  -4   3   3 143.990 2.91645   1
  -3   3   3 182.023 3.32564   1
  -2   3   3 54.1649 1.16858   1
  -1   3   3 2278.10 37.3541   1
   0   3   3 3556.66 57.5499   1
   1   3   3 1135.42 17.8598   1
   2   3   3 474.554 6.23955   1
   3   3   3 5364.27 73.7108   1
   4   3   3 1338.93 22.7225   1
   5   3   3 135.678 2.86923   1
   6   3   3 140.140 3.30277   1
   7   3   3 2.47658 0.65310   1
   8   3   3 0.18966 0.51313   1
   9   3   3 9.72520 2.00981   1
  -8   4   3 0.63512 0.86989   1
  -7   4   3 12.4640 2.10305   1
  -6   4   3 13.8738 1.22165   1
  -5   4   3 45.6586 1.96877   1
  -4   4   3 920.914 16.4118   1
  -3   4   3 2.10912 0.34635   1
  -2   4   3 385.576 5.63462   1
  -1   4   3 65.8628 1.34495   1
   0   4   3 0.66634 0.13420   1
   1   4   3 4145.41 70.5754   1
   2   4   3 1530.51 19.7804   1
   3   4   3 92.3552 1.50140   1
   4   4   3 47.1674 1.34074   1
   5   4   3 100.185 2.43863   1
   6   4   3 44.6333 1.76917   1
   7   4   3 138.650 3.77685   1
   8   4   3 0.99612 0.67885   1
   9   4   3 47.2542 2.71577   1
  -8   5   3 44.2621 3.27142   1
  -7   5   3 45.4814 2.95696   1
  -6   5   3 9.50894 1.13007   1
  -5   5   3 0.94055 0.46846   1
  -4   5   3 12.5154 0.92273   1
  -3   5   3 809.718 13.3131   1
  -2   5   3 60.7032 1.21805   1
  -1   5   3 271.387 4.86765   1
   0   5   3 886.914 13.6021   1
   1   5   3 8.19930 0.38461   1
   2   5   3 230.725 3.18862   1
   3   5   3 1206.95 19.3249   1
   4   5   3 524.508 8.64414   1
   5   5   3 181.500 3.47119   1
   6   5   3 2.95111 0.47162   1
   6   7   5 37.8440 3.54375  -2
   7   5   3 37.8440 3.54375   1
   8   5   3 1.93379 0.76204   1
  -8   3   2 9.44594 2.45756  -2
  -7   6   3 9.44594 2.45756   1
  -6   6   3 152.313 4.65744   1
  -5   6   3 126.680 2.85428   1
  -4   6   3 2.58038 0.36361   1
  -3   6   3 791.222 14.3964   1
  -3   5   3 823.054 19.2484  -2
  -2   6   3 823.054 19.2484   1
  -1   6   3 812.258 16.6444   1
   0   6   3 667.640 10.3458   1
   0   6   4 336.002 8.02565  -2
   1   6   3 336.002 8.02565   1
   1   6   4 812.388 15.0513  -2
   2   6   3 812.388 15.0513   1
   3   6   3 581.656 8.23566   1
   4   6   3 36.9792 1.02244   1
   4   7   5 191.832 5.20890  -2
   5   6   3 191.832 5.20890   1
   6   6   3 12.1053 0.72556   1
   6   8   5 22.0860 2.92235  -2
   7   6   3 22.0860 2.92235   1
   8   6   3 0.37644 0.73761   1
  -8   4   2 9.59602 2.12565  -2
  -7   7   3 9.59602 2.12565   1
  -6   7   3 -0.6681 0.80725   1
  -6   5   3 86.4780 3.82348  -2
  -5   7   3 86.4780 3.82348   1
  -5   5   3 82.3497 3.16561  -2
  -4   7   3 82.3497 3.16561   1
  -3   7   3 193.865 4.55857   1
  -2   7   3 537.048 9.91784   1
  -1   7   3 971.816 23.1021   1
   0   7   3 120.968 2.52250   1
   0   7   4 1928.58 45.1580  -2
   1   7   3 1928.58 45.1580   1
   2   7   3 1279.92 20.2642   1
   3   7   3 356.583 5.56852   1
   3   8   5 234.551 4.95608  -2
   4   7   3 234.551 4.95608   1
   4   8   5 268.753 6.29707  -2
   5   7   3 268.753 6.29707   1
   6   7   3 26.9918 1.38069   1
   7   7   3 46.5947 1.76023   1
   8   7   3 0.96351 0.92421   1
  -6   8   3 4.53237 1.04679   1
  -6   6   3 46.3072 3.49367  -2
  -5   8   3 46.3072 3.49367   1
  -4   8   3 138.007 3.08447   1
  -3   8   3 0.68937 0.61890   1
  -2   8   3 112.220 2.88954   1
  -1   8   3 0.26864 0.57436   1
   0   8   3 103.927 2.39454   1
   1   8   3 774.612 15.7453   1
   2   8   3 674.196 16.7468   1
   3   8   3 65.2344 1.45017   1
   4   8   3 4.51271 0.51943   1
   5   8   3 117.552 3.33239   1
   6   8   3 2.97398 0.73389   1
   7   8   3 5.72324 0.77771   1
  -6   9   3 24.4280 1.48743   1
  -5   9   3 53.1237 2.08794   1
  -4   9   3 238.958 5.78065   1
  -3   9   3 51.1998 1.83989   1
  -2   9   3 298.708 7.94529   1
  -1   9   3 102.585 3.54688   1
   0   9   3 127.910 2.80241   1
   1   9   3 146.151 3.60919   1
   2   9   3 19.1467 1.32539   1
   3   9   3 142.093 3.62188   1
   4   9   3 81.9306 2.55388   1
   5   9   3 14.6744 1.35598   1
   6   9   3 5.44753 2.02290   1
   7   9   3 2.32880 0.84321   1
  -5  10   3 4.59171 0.89723   1
  -4  10   3 66.5772 2.51230   1
  -3  10   3 1.72161 0.90389   1
  -2  10   3 163.991 5.19227   1
  -1  10   3 61.6337 2.49390   1
   0  10   3 18.2360 1.22532   1
   1  10   3 102.011 3.23309   1
   2  10   3 543.487 13.0273   1
   3  10   3 21.3226 1.27309   1
   4  10   3 267.082 7.76215   1
   5  10   3 17.8594 1.50423   1
   6  10   3 1.52549 0.79263   1
  -4  11   3 20.8113 1.46682   1
  -3  11   3 5.22438 1.09175   1
  -2  11   3 41.9311 2.31286   1
  -1  11   3 81.7379 3.14424   1
   0  11   3 0.04068 0.70538   1
   1  11   3 1.59739 0.77497   1
   2  11   3 88.1776 3.14399   1
   3  11   3 50.9075 2.70624   1
   4  11   3 28.7206 2.02666   1
   5  11   3 42.7722 2.41862   1
  -3  12   3 0.47811 0.91820   1
  -2  12   3 4.04437 1.05952   1
  -1  12   3 8.12583 1.15954   1
   0  12   3 0.35861 0.69317   1
   1  12   3 176.322 5.23588   1
   0  12   5 22.0533 4.17424  -2
   2  12   3 22.0533 4.17424   1
   3  12   3 58.3211 2.62150   1
   4  12   3 0.49753 1.03752   1
  -2  13   3 1.15155 1.10113   1
  -3  12   4 7.83117 2.95415  -2
  -1  13   3 7.83117 2.95415   1
   0  13   3 2.59120 0.87727   1
  -1  13   5 39.0687 3.64523  -2
   1  13   3 39.0687 3.64523   1
   0  13   5 -0.8257 1.22287  -2
   2  13   3 -0.8257 1.22287   1
   3  13   3 1.87702 0.96771   1
  -2 -12   4 4.07397 0.87991   1
  -1 -12   4 6.54926 1.01970   1
   0 -12   4 -0.1673 0.71884   1
   1 -12   4 0.17153 0.74470   1
   2 -12   4 4.25751 0.91770   1
  -4 -11   4 17.0183 1.68102   1
  -3 -11   4 173.400 4.69664   1
  -2 -11   4 7.53203 1.02733   1
  -1 -11   4 34.7327 1.91743   1
   0 -11   4 2.69335 0.82852   1
   1 -11   4 -0.9634 0.61367   1
   2 -11   4 6.07109 0.89319   1
   3 -11   4 75.1588 2.57117   1
   4 -11   4 7.74154 1.24812   1
  -5 -10   4 1.40786 1.02084   1
  -4 -10   4 142.651 4.87012   1
  -3 -10   4 -0.5089 0.61641   1
  -2 -10   4 2.96118 0.91858   1
  -1 -10   4 1.56872 0.75619   1
   0 -10   4 48.5259 2.37173   1
   1 -10   4 59.1928 2.21287   1
   2 -10   4 0.95421 0.66064   1
   3 -10   4 121.566 3.38908   1
   4 -10   4 29.3923 2.03580   1
   5 -10   4 11.4286 1.34955   1
  -6  -9   4 141.404 5.01872   1
  -4 -11   1 27.2245 4.45028  -2
  -5  -9   4 27.2245 4.45028   1
  -4  -9   4 93.0215 3.50584   1
  -2 -10   2 -1.5320 4.05372  -2
  -3  -9   4 -1.5320 4.05372   1
  -1 -10   2 47.7511 2.46537  -2
  -2  -9   4 47.7511 2.46537   1
  -1  -9   4 1.42157 0.68093   1
   0  -9   4 39.4117 1.68153   1
   2  -9   3 81.9911 3.71842  -2
   1  -9   4 81.9911 3.71842   1
   2  -9   4 74.5237 2.36382   1
   3  -9   4 63.0939 3.14930   1
   4  -9   4 3.00564 0.90440   1
   5  -9   4 4.82605 0.99875   1
   7  -7   4 24.6725 2.78243  -2
   6  -9   4 24.6725 2.78243   1
  -6  -8   4 12.7472 1.28639   1
  -4 -10   2 9.90479 3.22625  -2
  -5  -8   4 9.90479 3.22625   1
  -4  -8   4 2.87055 0.97358   1
  -2  -9   2 19.8473 1.53908  -2
  -3  -8   4 19.8473 1.53908   1
  -1  -9   2 68.4523 2.44333  -2
  -2  -8   4 68.4523 2.44333   1
  -1  -8   4 189.446 4.56968   1
   1  -8   3 683.747 14.5925  -2
   0  -8   4 683.747 14.5925   1
   2  -8   3 279.726 7.00427  -2
   1  -8   4 279.726 7.00427   1
   2  -8   4 300.807 6.67492   1
   3  -8   4 274.609 5.43350   1
   5  -7   4 2.93897 1.71721  -2
   4  -8   4 2.93897 1.71721   1
   5  -8   4 7.88441 1.05458   1
   7  -6   4 5.87364 2.82911  -2
   6  -8   4 5.87364 2.82911   1
  -7  -7   4 0.35521 0.68500   1
  -6  -7   4 7.24103 0.96217   1
  -4  -9   2 43.0697 2.87603  -2
  -5  -7   4 43.0697 2.87603   1
  -4  -7   4 140.009 4.40122   1
  -3  -7   4 115.914 2.38836   1
  -2  -7   4 97.9443 2.02783   1
  -1  -7   4 48.9875 1.42095   1
   0  -7   4 97.7877 2.67225   1
   2  -7   3 466.317 11.0193  -2
   1  -7   4 466.317 11.0193   1
   2  -7   4 11.1914 0.75955   1
   3  -7   4 148.067 3.67301   1
   5  -6   4 93.4149 3.50572  -2
   4  -7   4 93.4149 3.50572   1
   5  -7   4 13.1372 0.92508   1
   6  -7   4 76.2239 3.47836   1
   7  -7   4 34.0969 2.91777   1
  -7  -6   4 6.74018 0.88015   1
  -6  -6   4 35.7179 1.65878   1
  -5  -6   4 3.30747 0.83961   1
  -4  -6   4 305.137 6.79568   1
  -3  -6   4 58.7735 1.43436   1
  -2  -6   4 2.68781 0.37900   1
  -1  -6   4 314.008 6.93944   1
   0  -6   4 908.032 18.8459   1
   1  -6   4 228.627 4.55166   1
   2  -6   4 75.4939 1.87526   1
   3  -6   4 196.475 4.02419   1
   4  -6   4 328.956 6.40049   1
   5  -6   4 5.19653 0.54033   1
   6  -6   4 24.9117 1.49741   1
   7  -6   4 0.72958 0.76715   1
  -8  -5   4 6.73010 0.93930   1
  -7  -5   4 101.063 3.93081   1
  -6  -5   4 45.5561 2.28639   1
  -5  -5   4 295.648 6.68815   1
  -4  -5   4 4.29643 0.57420   1
  -3  -5   4 16.0304 0.63846   1
  -2  -5   4 483.984 7.26494   1
  -1  -5   4 25.8140 0.77806   1
   0  -5   4 11.4452 0.70093   1
   1  -5   4 13.3752 0.78385   1
   2  -5   4 356.672 6.87241   1
   3  -5   4 89.5178 1.95119   1
   4  -5   4 84.2799 1.89114   1
   5  -5   4 48.8377 1.20068   1
   6  -5   4 147.943 4.06842   1
   7  -5   4 2.51578 0.78410   1
   8  -5   4 0.51404 0.82535   1
  -8  -4   4 12.5413 1.16825   1
  -7  -4   4 291.291 6.81651   1
  -6  -4   4 37.6001 1.59432   1
  -5  -4   4 685.600 14.2922   1
  -4  -4   4 50.4056 1.45200   1
  -3  -4   4 81.4734 1.38468   1
  -2  -4   4 3.19519 0.28232   1
  -1  -4   4 627.395 8.57743   1
   0  -4   4 2508.19 36.0380   1
   1  -4   4 750.956 11.0162   1
   2  -4   4 652.897 9.06521   1
   3  -4   4 450.633 8.22809   1
   4  -4   4 9.83195 0.61259   1
   5  -4   4 15.4158 1.00895   1
   6  -4   4 22.4993 1.35402   1
   7  -4   4 12.0150 1.17239   1
   8  -4   4 20.5610 1.30370   1
  -8  -3   4 13.7734 1.13137   1
  -7  -3   4 60.2872 1.89686   1
  -6  -3   4 46.0788 1.75066   1
  -5  -3   4 64.0005 1.52685   1
  -4  -3   4 48.7199 1.21652   1
  -3  -3   4 20.8214 0.64724   1
  -2  -3   4 25.2588 0.57452   1
  -1  -3   4 3966.77 54.6067   1
   0  -3   4 3931.93 57.8435   1
   1  -3   4 3236.71 48.3294   1
   2  -3   4 4363.94 71.5388   1
   3  -3   4 48.5639 0.85643   1
   4  -3   4 161.249 2.29737   1
   5  -3   4 48.8838 1.44058   1
   6  -3   4 67.5072 2.13133   1
   7  -3   4 1.14681 0.63043   1
   8  -3   4 6.50345 0.84454   1
  -8  -2   4 59.4751 2.23988   1
  -7  -2   4 4.66137 0.52674   1
  -6  -2   4 73.7537 1.71187   1
  -5  -2   4 120.218 2.39597   1
  -4  -2   4 764.809 12.5271   1
  -3  -2   4 60.1574 1.15894   1
  -2  -2   4 709.186 9.95451   1
  -1  -2   4 1880.32 23.5949   1
   0  -2   4 1274.21 18.3754   1
   1  -2   4 1963.18 30.5788   1
   2  -2   4 45.3652 0.88240   1
   3  -2   4 1647.09 21.9266   1
   4  -2   4 220.099 3.39590   1
   5  -2   4 232.103 3.80985   1
   6  -2   4 309.783 6.81285   1
   7   0   5 33.2259 1.74578  -2
   7  -2   4 33.2259 1.74578   1
   8  -2   4 78.1649 2.49758   1
   9  -2   4 1.95018 1.89563   1
  -8  -4   2 8.15852 1.36962  -2
  -8  -1   4 8.15852 1.36962   1
  -7  -4   2 8.84339 1.94483  -2
  -7  -1   4 8.84339 1.94483   1
  -6  -1   4 25.8011 0.80836   1
  -5  -1   4 12.7455 0.74614   1
  -4  -1   4 354.007 6.02408   1
  -3  -1   4 2745.65 38.4665   1
  -2  -2   3 637.884 10.9746  -2
  -2  -1   4 637.884 10.9746   1
   0  -1   4 926.635 13.3932   1
   1  -1   4 11.4336 0.35240  -2
   1  -1   4 11.4336 0.35240   1
   2  -1   4 7.33661 0.28052   1
   3  -1   4 18.6912 0.46565   1
   4   0   5 0.38532 1.16320  -2
   4  -1   4 0.38532 1.16320   1
   5  -1   4 7.96307 0.59998   1
   6  -1   4 37.9332 1.18735   1
   7   1   5 13.2917 1.53426  -2
   7  -1   4 13.2917 1.53426   1
   8  -1   4 0.60361 0.83209   1
   9  -1   4 37.3428 1.94807   1
  -8  -3   2 27.7596 1.40600  -2
  -8   0   4 27.7596 1.40600   1
  -7  -3   2 5.79152 2.68820  -2
  -7   0   4 5.79152 2.68820   1
  -6   0   4 91.7593 2.12113   1
  -5  -2   3 455.852 17.6373  -2
  -5   0   4 455.852 17.6373   1
  -4   0   4 61.9625 1.29777   1
  -3   0   4 1594.75 22.9126   1
  -2   0   4 323.908 5.14903   1
  -1   0   4 1011.86 14.3623   1
   0   0   4 964.832 14.5100   1
   1   0   4 474.460 6.93123   1
   2   0   4 553.876 7.93969   1
   3   0   4 144.553 2.11697   1
   4   1   5 512.213 12.1235  -2
   4   0   4 512.213 12.1235   1
   5   0   4 1445.96 25.7976   1
   6   0   4 64.3232 2.40869   1
   7   0   4 51.0919 2.23454   1
   8   0   4 19.1528 1.42524   1
   9   0   4 6.12043 0.94378   1
  -8   1   4 0.24862 0.69066   1
  -7   1   4 41.8048 1.68995   1
  -6   1   4 153.093 3.51168   1
  -5   1   4 4.29358 0.45559   1
  -4   1   4 1.64451 0.36210   1
  -3   1   4 961.905 12.7477   1
  -2   1   4 2.24121 0.19388   1
  -1   1   4 1723.61 25.3208   1
   2   1   4 440.636 6.51622   1
   3   1   4 57.2811 0.93123   1
   4   1   4 463.882 6.66533   1
   5   1   4 1.37632 0.55125   1
   6   1   4 370.199 8.49405   1
   7   1   4 19.2944 1.30076   1
   8   1   4 66.7800 2.61231   1
   9   1   4 31.6799 1.74535   1
  -8   2   4 -0.1677 0.70893   1
  -7   2   4 80.1290 2.38245   1
  -6   2   4 100.157 2.69770   1
  -5   2   4 1294.21 25.3355   1
  -4   2   4 427.511 7.81624   1
  -3   2   4 504.273 7.30354   1
  -2   2   4 507.135 7.79345   1
  -1   2   4 1127.03 16.9899   1
   1   2   4 5387.38 198.432   1
   2   2   4 944.844 16.5451   1
   3   2   4 1110.39 16.7408   1
   4   2   4 32.2106 0.89731   1
   5   2   4 26.7262 1.08335   1
   6   2   4 56.1885 1.95547   1
   7   2   4 240.315 5.94625   1
   8   2   4 29.7568 1.59993   1
   9   2   4 25.5785 2.02812   1
  -8   3   4 11.2890 1.20636   1
  -7   3   4 165.682 4.98820   1
  -6   3   4 78.6302 2.88390   1
  -5   3   4 711.374 20.6764   1
  -4   3   4 12.4499 0.62451   1
  -3   3   4 601.675 10.2118   1
  -2   3   4 6479.02 186.148   1
  -1   3   4 1291.88 21.3223   1
   0   3   4 2022.72 30.3277   1
   1   3   4 1984.46 32.4631   1
   2   3   4 385.832 5.76670   1
   3   3   4 700.573 9.26069   1
   4   3   4 38.3191 0.85407   1
   5   3   4 499.623 8.86541   1
   6   3   4 269.791 6.38225   1
   7   3   4 91.6484 2.85810   1
   8   3   4 27.7550 1.53989   1
   9   3   4 0.37379 0.66613   1
  -8   4   4 46.3854 2.52688   1
  -7   4   4 -0.7378 0.81166   1
  -6   4   4 48.4651 2.76264   1
  -5   4   4 8.56572 1.28565   1
  -4   4   4 1312.63 23.2258   1
  -3   4   4 1770.94 31.8718   1
  -2   4   4 5087.04 83.2401   1
  -1   4   4 59.8772 1.57337   1
   0   4   4 1229.68 19.8204   1
   1   4   4 636.154 9.71480   1
   2   4   4 93.1437 1.78180   1
   3   4   4 30.8386 0.70039   1
   4   4   4 2060.19 31.5161   1
   5   4   4 10.2755 0.48908   1
   6   4   4 448.556 8.95873   1
   7   4   4 46.2475 2.11367   1
   8   4   4 1.00839 0.63030   1
   9   4   4 1.21155 1.05036   1
  -8   5   4 81.5882 4.42659   1
  -7   5   4 0.77196 1.13739   1
  -6   5   4 150.281 4.94863   1
  -5   5   4 138.621 3.43971   1
  -4   5   4 262.495 5.78262   1
  -3   5   4 28.2193 0.85471   1
  -2   5   4 53.3551 1.22756   1
  -1   5   4 238.559 4.23070   1
   0   5   4 758.023 11.7854   1
   1   5   4 2.51960 0.26048   1
   2   5   4 259.330 3.90337   1
   3   5   4 4.85620 0.27998   1
   4   5   4 2503.85 49.7981   1
   5   5   4 599.096 10.3717   1
   6   5   4 52.2194 1.56621   1
   7   5   4 72.9853 3.27237   1
   8   5   4 0.55873 0.64298   1
  -8   3   3 33.2681 2.85226  -2
  -7   6   4 33.2681 2.85226   1
  -6   6   4 2.92059 0.91559   1
  -5   6   4 108.210 2.93935   1
  -4   6   4 122.469 4.78991   1
  -3   6   4 405.793 7.62385   1
  -3   5   4 335.809 14.1953  -2
  -2   6   4 335.809 14.1953   1
  -1   6   4 199.388 5.22867   1
   0   6   4 2105.32 42.1777   1
   0   6   5 790.241 21.6829  -2
   1   6   4 790.241 21.6829   1
   1   6   5 27.9466 0.91899  -2
   2   6   4 27.9466 0.91899   1
   3   6   4 386.051 5.92483   1
   4   6   4 734.546 12.0275   1
   4   7   6 205.936 5.01047  -2
   5   6   4 205.936 5.01047   1
   6   6   4 1.20777 0.44724   1
   7   6   4 4.27380 0.72045   1
   8   6   4 4.46352 1.03802   1
  -8   4   3 3.78333 2.18714  -2
  -7   7   4 3.78333 2.18714   1
  -6   7   4 87.4656 3.35442   1
  -5   7   4 22.0682 1.30010   1
  -5   5   4 148.445 4.55640  -2
  -4   7   4 148.445 4.55640   1
  -3   7   4 1.81450 0.44193   1
  -2   7   4 194.726 3.93869   1
  -1   7   4 19.9829 1.32386   1
   0   7   4 6.02978 0.47118   1
   1   7   4 255.424 4.25414   1
   1   7   5 1565.75 63.3736  -2
   2   7   4 1565.75 63.3736   1
   3   7   4 892.056 14.2597   1
   4   7   4 377.903 7.04104   1
   4   8   6 39.7706 1.56104  -2
   5   7   4 39.7706 1.56104   1
   6   7   4 26.2722 1.22148   1
   7   7   4 44.6575 1.63710   1
   7   9   7 13.4012 3.47587  -2
   8   7   4 13.4012 3.47587   1
  -6   8   4 17.8397 1.60956   1
  -5   8   4 0.60721 0.67611   1
  -4   8   4 11.4809 0.93077   1
  -3   8   4 752.347 13.8259   1
  -2   8   4 43.2952 1.54913   1
  -1   8   4 382.590 9.67612   1
   0   8   4 269.407 5.90773   1
   1   8   4 172.687 4.02474   1
   2   8   4 2.18265 0.49726   1
   3   8   4 19.1061 0.83371   1
   4   8   4 7.30960 0.57053   1
   5   8   4 15.5358 0.86709   1
   6   8   4 62.4426 2.19219   1
   7   8   4 0.02797 0.73358   1
  -6   9   4 2.37208 0.82824   1
  -5   9   4 1.04114 0.71316   1
  -4   9   4 -0.1961 0.83791   1
  -3   9   4 216.210 5.18226   1
  -2   9   4 1.23430 0.71295   1
  -1   9   4 1.06878 0.61122   1
   0   9   4 11.4033 0.71357   1
   1   9   4 56.2059 1.95044   1
   2   9   4 55.9557 1.79162   1
   3   9   4 99.0437 2.30910   1
   4   9   4 238.394 5.13146   1
   5   9   4 119.112 3.39476   1
   6   9   4 50.6162 2.35393   1
   7   9   4 2.50337 0.75270   1
  -5  10   4 1.30684 0.77852   1
  -4  10   4 44.0201 2.48887   1
  -3  10   4 66.9314 3.69189   1
  -2  10   4 45.9523 2.77675   1
  -1  10   4 78.4750 2.92686   1
   0  10   4 54.9050 2.15622   1
   1  10   4 16.9169 1.13089   1
   2  10   4 11.1786 0.96324   1
   3  10   4 234.109 5.42849   1
   4  10   4 181.218 7.19114   1
   5  10   4 7.16387 1.09218   1
   6  10   4 23.8403 1.72504   1
  -4  11   4 23.9553 1.57114   1
  -3  11   4 1.27088 0.89227   1
  -2  11   4 78.1244 3.18167   1
  -1  11   4 54.4347 2.53238   1
   0  11   4 245.753 6.59887   1
   1  11   4 23.2497 1.38665   1
   2  11   4 28.4041 1.57408   1
   3  11   4 221.624 5.41395   1
   4  11   4 0.48799 0.78914   1
   5  11   4 13.1167 1.68848   1
  -3  12   4 2.11490 0.90168   1
  -2  12   4 0.11685 0.87612   1
  -1  12   4 0.06837 0.87787   1
   0  12   4 39.9555 2.69046   1
   1  12   4 283.437 6.65430   1
   0  12   6 42.5415 2.82286  -2
   2  12   4 42.5415 2.82286   1
   3  12   4 72.4558 2.95206   1
   4  12   4 15.6742 1.85685   1
  -2  13   4 0.21495 1.01630   1
  -3  12   5 25.9487 3.12990  -2
  -1  13   4 25.9487 3.12990   1
   0  13   4 3.54091 0.96838   1
   1  13   4 10.2847 1.02485   1
   0  13   6 3.67006 1.31023  -2
   2  13   4 3.67006 1.31023   1
   1  13   6 3.95978 2.76375  -2
   3  13   4 3.95978 2.76375   1
  -2 -12   5 0.92843 0.75612   1
  -1 -12   5 54.0908 2.36022   1
   0 -12   5 0.94057 0.81108   1
   1 -12   5 7.31094 1.24163   1
   2 -12   5 -0.5101 0.81696   1
  -4 -11   5 -1.1667 0.96651   1
  -3 -11   5 40.9700 2.12249   1
  -2 -11   5 12.8579 1.19070   1
  -1 -11   5 2.69796 0.85456   1
   0 -11   5 27.4879 2.10521   1
   1 -11   5 0.66284 0.83559   1
   2 -11   5 26.0416 1.56183   1
   3 -11   5 6.16636 0.92504   1
  -5 -10   5 2.34472 1.18105   1
  -4 -10   5 13.2876 1.50903   1
  -3 -10   5 58.3044 2.31426   1
  -2 -10   5 23.4863 1.50859   1
  -1 -10   5 75.2355 2.76586   1
   0 -10   5 57.6793 2.24488   1
   1 -10   5 4.71792 0.84314   1
   2 -10   5 1.90885 0.75767   1
   3 -10   5 2.76095 0.80058   1
   4 -10   5 1.27307 0.74360   1
   5 -10   5 0.36228 0.82650   1
  -4 -11   2 -6.0809 3.52950  -2
  -5  -9   5 -6.0809 3.52950   1
  -4  -9   5 0.16059 0.86776   1
  -3  -9   5 29.6901 1.56072   1
  -1 -10   3 61.5143 2.05073  -2
  -2  -9   5 61.5143 2.05073   1
  -1  -9   5 44.4870 1.87142   1
   0  -9   5 -0.0239 0.55788   1
   2  -9   4 13.7837 1.90608  -2
   1  -9   5 13.7837 1.90608   1
   2  -9   5 161.886 4.34397   1
   3  -9   5 43.7814 2.02830   1
   5  -8   5 4.62127 2.12452  -2
   4  -9   5 4.62127 2.12452   1
   5  -9   5 17.5150 2.05090   1
   6  -9   5 1.68625 2.32167   1
  -6  -8   5 7.46189 1.16280   1
  -4 -10   3 1.81445 2.26250  -2
  -5  -8   5 1.81445 2.26250   1
  -4  -8   5 203.554 6.83938   1
  -3  -8   5 6.62888 0.74649   1
  -1  -9   3 601.933 11.5231  -2
  -2  -8   5 601.933 11.5231   1
  -1  -8   5 0.79562 0.55939   1
   0  -8   5 98.1003 2.80020   1
   2  -8   4 41.5483 1.77807  -2
   1  -8   5 41.5483 1.77807   1
   3  -8   4 51.4343 3.46243  -2
   2  -8   5 51.4343 3.46243   1
   3  -8   5 90.3364 2.29483   1
   5  -7   5 46.9470 3.60878  -2
   4  -8   5 46.9470 3.60878   1
   6  -7   5 4.36097 3.52668  -2
   5  -8   5 4.36097 3.52668   1
   6  -8   5 2.20783 0.83003   1
  -7  -7   5 0.97632 0.78438   1
  -6  -7   5 0.00838 0.63121   1
  -4  -9   3 0.67817 2.00713  -2
  -5  -7   5 0.67817 2.00713   1
  -4  -7   5 769.610 16.0425   1
  -3  -7   5 5.93043 0.60235   1
  -2  -7   5 308.512 6.14943   1
  -1  -7   5 114.051 3.02611   1
   0  -7   5 150.388 3.73819   1
   1  -7   5 226.156 5.30223   1
   2  -7   5 0.34040 0.47406   1
   3  -7   5 340.518 6.65642   1
   5  -6   5 186.663 9.20253  -2
   4  -7   5 186.663 9.20253   1
   5  -7   5 42.5793 1.57205   1
   6  -7   5 0.23881 0.70667   1
   7  -7   5 4.02326 1.11435   1
  -7  -6   5 20.9342 1.43170   1
  -6  -6   5 77.4445 2.52798   1
  -5  -6   5 378.024 8.53876   1
  -4  -6   5 298.667 6.72292   1
  -3  -6   5 1.08866 0.36450   1
  -2  -6   5 66.6119 1.70156   1
  -1  -6   5 297.063 6.60394   1
   0  -6   5 0.57904 0.49043   1
   1  -6   5 1098.60 22.7282   1
   2  -6   5 200.486 4.16473   1
   3  -6   5 332.448 6.43781   1
   4  -6   5 104.952 2.84072   1
   5  -6   5 222.371 4.63483   1
   6  -6   5 21.2776 1.41131   1
   7  -6   5 57.4227 2.65247   1
  -7  -5   5 74.8343 2.62561   1
  -6  -5   5 17.2968 1.26150   1
  -5  -5   5 379.768 8.57458   1
  -4  -5   5 0.80812 0.45246   1
  -3  -5   5 1.24717 0.32217   1
  -2  -5   5 7.99199 0.53376   1
  -1  -5   5 170.402 3.16335   1
   0  -5   5 165.244 3.86684   1
   1  -5   5 12.9245 1.06631   1
   2  -5   5 564.353 13.1465   1
   3  -5   5 127.556 3.20172   1
   4  -5   5 194.862 3.99807   1
   5  -5   5 94.6571 2.08925   1
   6  -5   5 161.439 4.15083   1
   7  -5   5 66.8307 2.38844   1
   8  -5   5 47.0081 2.47245   1
  -8  -4   5 5.66867 0.89697   1
  -7  -4   5 9.78716 1.22609   1
  -6  -4   5 60.9650 2.28898   1
  -5  -4   5 64.2178 2.15270   1
  -4  -4   5 79.2652 2.25178   1
  -3  -4   5 77.5414 1.66766   1
  -2  -4   5 354.574 5.58624   1
  -1  -4   5 1.47609 0.25150   1
   0  -4   5 554.898 8.26279   1
   1  -4   5 745.021 11.0039   1
   2  -4   5 764.024 12.2442   1
   3  -4   5 231.498 4.14543   1
   4  -4   5 0.67369 0.39920   1
   5  -4   5 115.742 2.61617   1
   6  -4   5 1.10067 0.62328   1
   7  -4   5 2.53206 0.74175   1
   8  -4   5 42.3043 1.86159   1
  -8  -3   5 2.08380 1.06412   1
  -7  -3   5 7.94553 0.96853   1
  -6  -3   5 4.14656 0.72639   1
  -5  -3   5 211.022 4.38257   1
  -4  -3   5 119.237 2.37708   1
  -3  -3   5 1234.18 17.3189   1
  -2  -3   5 14.2334 0.47041   1
  -1  -3   5 119.789 1.86574   1
   0  -3   5 2023.31 28.8140   1
   1  -3   5 0.24777 0.19571   1
   2  -3   5 940.532 14.3045   1
   3  -3   5 115.744 1.98151   1
   4  -3   5 189.666 3.12515   1
   5  -3   5 129.901 2.80695   1
   6  -3   5 6.31179 0.84934   1
   7  -3   5 37.1798 1.85558   1
   8  -3   5 20.0448 1.36998   1
  -8  -2   5 8.11063 1.00936   1
  -7  -2   5 32.5897 1.23569   1
  -6  -2   5 7.50622 0.69859   1
  -5  -2   5 116.226 2.39230   1
  -4  -2   5 55.6180 1.34205   1
  -3  -2   5 1573.90 21.8682   1
  -2  -3   4 8.10574 0.82714  -2
  -2  -2   5 8.10574 0.82714   1
  -1  -2   5 541.238 7.41068   1
   0  -2   5 1589.40 22.9065   1
   1  -2   5 515.912 7.61861   1
   2  -2   5 1441.46 19.3179   1
   3  -2   5 1363.18 17.9280   1
   4  -2   5 253.519 3.88207   1
   5  -2   5 358.311 6.39524   1
   6  -2   5 0.24249 0.50036   1
   7   0   6 72.1680 2.73429  -2
   7  -2   5 72.1680 2.73429   1
   8  -2   5 23.4987 1.41170   1
  -8  -4   3 15.2689 2.49076  -2
  -8  -1   5 15.2689 2.49076   1
  -7  -4   3 5.30157 0.53619  -2
  -7  -1   5 5.30157 0.53619   1
  -6  -1   5 450.180 7.58445   1
  -5  -1   5 35.7579 1.01682   1
  -4  -1   5 1809.17 29.0474   1
  -3  -1   5 271.063 4.27575   1
  -2  -2   4 498.855 18.5491  -2
  -2  -1   5 498.855 18.5491   1
  -1  -1   5 643.434 9.41443   1
   0  -1   5 46.6460 0.89851   1
   1  -1   5 161.252 4.25549  -2
   1  -1   5 161.252 4.25549   1
   2  -1   5 0.18339 0.34331  -2
   2  -1   5 0.18339 0.34331   1
   3  -1   5 458.687 5.91657   1
   4  -1   5 502.586 7.28924   1
   5   0   6 8.58344 0.92945  -2
   5  -1   5 8.58344 0.92945   1
   6  -1   5 10.1251 0.65660   1
   7  -1   5 34.4276 1.70069   1
   8  -1   5 100.124 2.90891   1
   9  -1   5 -0.1113 0.78365   1
  -8  -3   3 46.9779 3.38384  -2
  -8   0   5 46.9779 3.38384   1
  -7  -3   3 1.87541 1.16971  -2
  -7   0   5 1.87541 1.16971   1
  -6   0   5 410.486 8.95081   1
  -5   0   5 1.83535 0.38825   1
  -4  -2   4 853.103 32.3349  -2
  -4   0   5 853.103 32.3349   1
  -3   0   5 777.301 10.9094   1
  -2   0   5 127.214 2.02809   1
  -1   0   5 542.023 8.66022   1
   0   0   5 930.818 13.4816   1
   1   0   5 2897.95 45.2627   1
   2   0   5 282.330 4.23805   1
   3   0   5 301.411 4.18258   1
   4   0   5 2.91411 0.31198   1
   5   1   6 606.459 25.8909  -2
   5   0   5 606.459 25.8909   1
   6   0   5 0.99849 0.41729   1
   7   0   5 31.2442 1.13576   1
   8   0   5 0.43462 0.71364   1
   9   0   5 6.48987 0.99927   1
  -8   1   5 8.14667 0.83523   1
  -7   1   5 2.50717 0.65971   1
  -6   1   5 22.4019 1.24182   1
  -5   1   5 2.54158 0.52653   1
  -4   1   5 85.4577 1.96627   1
  -3   1   5 162.447 2.54340   1
  -2   1   5 1.08926 0.13742   1
  -1   1   5 1163.25 17.1924   1
   0   1   5 2694.55 42.0903   1
   1   1   5 6372.70 170.234   1
   2   1   5 89.3732 1.52068   1
   3   1   5 4366.23 59.0274   1
   4   1   5 696.322 10.7921   1
   5   1   5 59.9895 1.53206   1
   6   1   5 89.5294 2.11168   1
   7   1   5 42.1081 1.79495   1
   8   1   5 37.5413 2.07329   1
   9   1   5 1.22318 0.74359   1
  -8   2   5 3.97257 0.85650   1
  -7   2   5 58.4327 1.95251   1
  -6   2   5 0.34227 0.54951   1
  -5   2   5 0.09996 0.50281   1
  -4   2   5 571.864 10.2826   1
  -3   2   5 12.4377 0.47991   1
  -2   2   5 9.46041 0.45364   1
  -1   2   5 264.011 4.51993   1
   0   2   5 364.714 5.54346   1
   1   2   5 396.999 6.12373   1
   2   2   5 463.590 6.99731   1
   3   2   5 13.9906 0.56781   1
   4   2   5 1114.26 18.4099   1
   5   2   5 1.74908 0.27348   1
   6   2   5 86.3758 2.57734   1
   7   2   5 239.694 5.91877   1
   8   2   5 36.5771 1.79227   1
   9   2   5 7.97879 1.15641   1
  -8   3   5 49.0160 2.30947   1
  -7   3   5 7.00132 1.11441   1
  -6   3   5 2.51777 0.80191   1
  -5   3   5 48.5361 2.19873   1
  -4   3   5 10.6844 0.64399   1
  -3   3   5 113.113 2.39966   1
  -2   3   5 1204.04 19.9764   1
  -1   3   5 2159.93 32.4281   1
   0   3   5 2089.25 36.7133   1
   1   3   5 15.3691 0.52712   1
   2   3   5 976.792 15.4598   1
   3   3   5 28.1172 0.86324   1
   4   3   5 347.266 5.97641   1
   5   3   5 6.43753 0.46684   1
   6   3   5 3.21706 0.61818   1
   7   3   5 4.92893 0.73952   1
   8   3   5 3.82006 0.75464   1
   9   3   5 0.11441 0.75250   1
  -8   4   5 1.46943 0.92087   1
  -7   4   5 277.631 7.61593   1
  -6   4   5 3.75072 0.86033   1
  -5   4   5 337.485 8.59507   1
  -4   4   5 44.0710 1.49823   1
  -3   4   5 344.154 8.62829   1
  -2   4   5 28.9247 0.78991   1
  -1   4   5 334.840 5.27835   1
   0   4   5 1795.40 27.0368   1
   1   4   5 451.305 7.65367   1
   2   4   5 258.853 4.49592   1
   3   4   5 36.4004 0.96776   1
   4   4   5 306.969 4.93956   1
   5   4   5 33.3651 0.99865   1
   6   4   5 246.349 5.10764   1
   7   4   5 46.9347 1.82989   1
   8   4   5 8.44281 0.96177   1
  -8   2   4 31.2275 3.95278  -2
  -7   5   5 31.2275 3.95278   1
  -6   5   5 76.3341 2.98230   1
  -5   5   5 11.5189 0.97205   1
  -4   5   5 41.4443 1.64602   1
  -3   5   5 29.1224 1.36924   1
  -2   5   5 55.7772 1.63727   1
  -2   4   5 36.6329 1.84218  -2
  -1   5   5 36.6329 1.84218   1
   0   5   5 2573.20 44.5034   1
   1   5   5 448.206 8.41761   1
   1   5   6 2267.88 50.3804  -2
   2   5   5 2267.88 50.3804   1
   3   5   5 30.5077 0.77076   1
   4   5   5 4.27113 0.49544   1
   5   5   5 1.84537 0.48357   1
   6   5   5 309.679 5.95944   1
   7   5   5 16.6334 2.18270   1
   7   7   7 25.6302 2.73534  -2
   8   5   5 25.6302 2.73534   1
  -8   3   4 19.0807 2.36477  -2
  -7   6   5 19.0807 2.36477   1
  -6   6   5 33.4619 2.66576   1
  -5   6   5 44.7801 1.58544   1
  -4   6   5 139.364 4.16736   1
  -3   6   5 1.16104 0.42384   1
  -2   6   5 20.4120 1.13931   1
  -1   6   5 249.998 11.5705   1
   0   6   5 2854.44 52.3821   1
   1   6   5 32.5358 1.01879   1
   1   6   6 1767.51 56.0102  -2
   2   6   5 1767.51 56.0102   1
   3   6   5 148.790 2.82702   1
   4   6   5 5.23479 0.43281   1
   4   7   7 708.765 14.6304  -2
   5   6   5 708.765 14.6304   1
   5   7   7 15.9596 2.51062  -2
   6   6   5 15.9596 2.51062   1
   7   6   5 20.1975 1.94133   1
   8   6   5 124.740 7.01273   1
  -8   4   4 12.2147 2.23804  -2
  -7   7   5 12.2147 2.23804   1
  -6   7   5 8.92597 2.32105   1
  -5   7   5 0.14524 0.63051   1
  -5   5   5 225.803 6.36251  -2
  -4   7   5 225.803 6.36251   1
  -3   7   5 181.649 4.23350   1
  -2   7   5 1.09667 0.46128   1
  -1   7   5 1853.84 53.9615   1
   0   7   5 46.3501 1.42373   1
   1   7   5 288.385 6.30186   1
   2   7   5 139.991 3.07747   1
   3   7   5 499.374 8.61256   1
   4   7   5 1.70654 0.42732   1
   4   8   7 86.1689 2.55960  -2
   5   7   5 86.1689 2.55960   1
   6   7   5 105.017 2.81196   1
   7   7   5 5.50680 0.83085   1
   8   7   5 11.0790 1.65531   1
  -6   8   5 0.79234 1.02464   1
  -5   8   5 25.7457 1.47966   1
  -4   8   5 22.0530 1.11865   1
  -3   8   5 664.455 13.7596   1
  -2   8   5 1.30649 0.63474   1
  -1   8   5 1278.78 37.6060   1
   0   8   5 148.693 4.22472   1
   1   8   5 2.88035 0.39732   1
   2   8   5 154.814 3.36682   1
   3   8   5 9.03616 0.56489   1
   4   8   5 52.9247 1.85105   1
   5   8   5 54.9380 1.96110   1
   6   8   5 127.448 3.11282   1
   7   8   5 11.3174 1.12014   1
  -6   9   5 -0.1789 0.75582   1
  -5   9   5 19.3073 1.51690   1
  -4   9   5 4.25130 1.01896   1
  -3   9   5 172.765 5.23498   1
  -2   9   5 52.6139 1.78525   1
  -1   9   5 57.9528 2.77674   1
   0   9   5 50.3864 1.60122   1
   1   9   5 6.47659 0.76647   1
   2   9   5 2.78720 0.77957   1
   3   9   5 111.987 2.91404   1
   4   9   5 234.510 6.23390   1
   5   9   5 326.486 8.39711   1
   6   9   5 141.926 3.46672   1
   7   9   5 -0.4752 0.91473   1
  -5  10   5 4.59326 0.94733   1
  -4  10   5 150.186 4.94403   1
  -3  10   5 31.0550 2.04148   1
  -2  10   5 1.63575 0.86691   1
  -1  10   5 171.978 6.26278   1
   0  10   5 7.22473 0.95805   1
   1  10   5 224.998 5.25203   1
   2  10   5 3.78574 0.83334   1
   3  10   5 41.9992 2.12674   1
   4  10   5 2.27921 0.89359   1
   5  10   5 111.845 3.64935   1
   6  10   5 13.7342 1.65082   1
  -4  11   5 8.05462 1.46752   1
  -3  11   5 69.1294 3.64999   1
  -2  11   5 4.08098 1.18507   1
  -1  11   5 23.3407 2.13674   1
   0  11   5 2.88147 0.89126   1
   1  11   5 0.05711 0.64230   1
   2  11   5 85.2356 3.14588   1
   3  11   5 227.874 6.33475   1
   4  11   5 24.5630 2.23291   1
   5  11   5 2.45363 1.12481   1
  -3  12   5 2.95951 1.15036   1
  -2  12   5 111.042 4.92497   1
  -1  12   5 0.88425 0.91366   1
   0  12   5 19.9188 1.94538   1
   1  12   5 14.0191 1.29732   1
   0  12   7 54.3182 5.75666  -2
   2  12   5 54.3182 5.75666   1
   1  12   7 90.9808 4.56084  -2
   3  12   5 90.9808 4.56084   1
   4  12   5 2.10867 1.11103   1
  -3  12   6 49.1303 4.84201  -2
  -1  13   5 49.1303 4.84201   1
   0  13   5 1.01000 1.35742   1
   1  13   5 0.39691 1.07911   1
   0  13   7 11.2049 2.12851  -2
   2  13   5 11.2049 2.12851   1
   1  13   7 11.5613 4.42143  -2
   3  13   5 11.5613 4.42143   1
   0 -12   6 33.3588 2.48707   1
  -3 -11   6 2.69251 0.95354   1
  -2 -11   6 15.0047 1.28380   1
  -1 -11   6 27.7789 1.71893   1
   0 -11   6 6.92977 1.05698   1
   1 -11   6 29.1151 1.82508   1
   2 -11   6 3.80542 0.86698   1
   3 -11   6 -0.2976 0.69886   1
  -4 -10   6 18.5818 1.74466   1
  -3 -10   6 59.4094 2.35106   1
  -2 -10   6 0.57364 0.75943   1
  -1 -10   6 116.725 3.50634   1
   0 -10   6 3.06485 0.84788   1
   1 -10   6 72.9506 2.58716   1
   2 -10   6 25.2755 1.53353   1
   3 -10   6 0.22607 0.68046   1
   4 -10   6 60.3956 2.32229   1
  -4 -11   3 -3.9141 3.77987  -2
  -5  -9   6 -3.9141 3.77987   1
  -4  -9   6 -0.0305 0.76485   1
  -3  -9   6 4.67253 0.81302   1
  -1 -10   4 113.380 5.20310  -2
  -2  -9   6 113.380 5.20310   1
   0 -10   4 70.8266 3.80806  -2
  -1  -9   6 70.8266 3.80806   1
   0  -9   6 12.8203 1.41587   1
   2  -9   5 77.1718 4.67025  -2
   1  -9   6 77.1718 4.67025   1
   3  -9   5 584.794 16.8644  -2
   2  -9   6 584.794 16.8644   1
   3  -9   6 64.9549 2.31056   1
   5  -8   6 170.626 5.07790  -2
   4  -9   6 170.626 5.07790   1
   6  -8   6 9.26336 2.12782  -2
   5  -9   6 9.26336 2.12782   1
  -6  -8   6 0.97141 0.90695   1
  -4 -10   4 23.3792 3.90222  -2
  -5  -8   6 23.3792 3.90222   1
  -4  -8   6 50.2574 3.22847   1
  -3  -8   6 19.7114 1.46504   1
  -1  -9   4 442.682 9.91388  -2
  -2  -8   6 442.682 9.91388   1
  -1  -8   6 0.30497 0.44678   1
   0  -8   6 4.40962 0.72415   1
   2  -8   5 60.0074 2.29481  -2
   1  -8   6 60.0074 2.29481   1
   3  -8   5 22.4458 2.03346  -2
   2  -8   6 22.4458 2.03346   1
   3  -8   6 40.1980 1.52589   1
   5  -7   6 85.6296 3.61179  -2
   4  -8   6 85.6296 3.61179   1
   6  -7   6 6.49140 1.79081  -2
   5  -8   6 6.49140 1.79081   1
   6  -8   6 0.15011 0.65167   1
  -6  -7   6 18.8661 1.36118   1
  -4  -9   4 15.9117 3.04865  -2
  -5  -7   6 15.9117 3.04865   1
  -4  -7   6 56.7020 2.20161   1
  -3  -7   6 167.847 3.63746   1
  -2  -7   6 48.9585 1.57385   1
  -1  -7   6 215.576 5.10475   1
   0  -7   6 97.2873 2.70782   1
   1  -7   6 52.1819 1.84033   1
   2  -7   6 49.7630 1.75066   1
   3  -7   6 80.0052 2.16652   1
   4  -7   6 98.9819 2.54124   1
   5  -7   6 -0.4733 0.50058   1
   6  -7   6 14.6269 1.43360   1
   7  -7   6 0.01939 0.77435   1
  -7  -6   6 13.5481 1.15938   1
  -6  -6   6 0.86156 0.61567   1
  -5  -6   6 84.8092 2.88656   1
  -4  -6   6 147.000 3.84549   1
  -3  -6   6 30.1533 1.00634   1
  -2  -6   6 11.5767 0.70475   1
  -1  -6   6 315.934 6.04904   1
   0  -6   6 748.845 15.7418   1
   1  -6   6 0.34278 0.50694   1
   2  -6   6 15.4633 0.88132   1
   3  -6   6 0.39786 0.52687   1
   4  -6   6 22.0818 1.14126   1
   5  -6   6 2.93885 0.65737   1
   6  -6   6 5.26478 0.89571   1
   7  -6   6 4.26411 1.05230   1
  -7  -5   6 1.61062 0.75710   1
  -6  -5   6 55.6937 2.11038   1
  -5  -5   6 34.3319 1.64856   1
  -4  -5   6 48.5688 1.74858   1
  -3  -5   6 7.63606 0.52732   1
  -2  -5   6 517.306 8.73625   1
  -1  -5   6 0.85176 0.34653   1
   0  -5   6 939.251 19.5349   1
   1  -5   6 384.598 8.37807   1
   2  -5   6 0.19249 0.36536   1
   3  -5   6 888.880 16.1713   1
   4  -5   6 18.6636 0.98779   1
   5  -5   6 30.4070 1.09183   1
   6  -5   6 132.682 3.63388   1
   7  -5   6 4.06713 0.85836   1
   8  -5   6 0.12815 1.11081   1
  -7  -4   6 18.9376 1.39334   1
  -6  -4   6 0.87334 0.64994   1
  -5  -4   6 27.5307 1.50353   1
  -4  -4   6 0.59225 0.46624   1
  -3  -4   6 972.592 17.8797   1
  -2  -4   6 599.856 10.0137   1
  -1  -4   6 200.075 3.59524   1
   0  -4   6 685.502 15.6573   1
   1  -4   6 965.955 20.0112   1
   2  -4   6 8.81014 0.85654   1
   3  -4   6 1647.00 26.8095   1
   4  -4   6 4.57791 0.51030   1
   5  -4   6 23.2565 0.89570   1
   6  -4   6 15.2366 1.12448   1
   7  -4   6 81.6690 2.65615   1
   8  -4   6 0.13642 0.68871   1
  -8  -3   6 5.78287 1.58402   1
  -7  -3   6 1.65446 0.69073   1
  -6  -3   6 57.2473 2.98475   1
  -5  -3   6 232.524 5.46727   1
  -4  -3   6 33.2459 1.13125   1
  -3  -3   6 1814.22 26.9662   1
  -2  -3   6 207.190 3.39821   1
  -1  -3   6 3199.02 42.6272   1
   0  -3   6 8.08740 0.42629   1
   1  -3   6 1670.04 24.1360   1
   2  -3   6 298.418 5.44755   1
   3  -3   6 322.450 5.35465   1
   4  -3   6 355.608 5.57795   1
   5  -3   6 7.78004 0.72388   1
   6  -3   6 5.03047 0.75311   1
   7  -1   7 22.5251 3.00812  -2
   7  -3   6 22.5251 3.00812   1
   8  -1   7 36.2924 3.85096  -2
   8  -3   6 36.2924 3.85096   1
  -8  -2   6 3.89707 0.88784   1
  -7  -5   4 16.9787 1.32869  -2
  -7  -2   6 16.9787 1.32869   1
  -6  -2   6 2.39507 0.63820   1
  -5  -2   6 100.253 2.83787   1
  -4  -2   6 7.15710 0.56847   1
  -3  -2   6 427.968 6.21116   1
  -2  -2   6 27.0809 0.67359   1
  -1  -3   5 2766.08 52.9210  -2
  -1  -2   6 2766.08 52.9210   1
   0  -2   6 9999.99 267.182   1
   1  -2   6 472.859 7.57881   1
   2  -2   6 932.385 14.6237  -2
   2  -2   6 932.385 14.6237   1
   3  -2   6 888.842 11.9987   1
   4  -2   6 614.108 9.65551   1
   5  -1   7 36.8965 3.12963  -2
   5  -2   6 36.8965 3.12963   1
   6  -2   6 73.1146 2.27497   1
   7  -2   6 45.2968 2.20671   1
   8   0   7 3.01014 1.47176  -2
   8  -2   6 3.01014 1.47176   1
  -8  -4   4 4.55697 1.76812  -2
  -8  -1   6 4.55697 1.76812   1
  -7  -4   4 46.3031 2.12317  -2
  -7  -1   6 46.3031 2.12317   1
  -6  -1   6 59.6484 2.09464   1
  -5  -1   6 30.3706 1.08221   1
  -4  -3   5 465.288 13.0853  -2
  -4  -1   6 465.288 13.0853   1
  -3  -1   6 180.779 2.81626   1
  -2  -1   6 30.0984 0.66186   1
  -1  -1   6 0.86695 0.18399   1
   0  -1   6 16.2649 0.50669   1
   1  -1   6 99.0513 1.68899   1
   2  -1   6 67.4743 1.33959  -2
   2  -1   6 67.4743 1.33959   1
   3  -1   6 85.2202 1.31314   1
   4  -1   6 233.921 4.35922   1
   5   0   7 386.799 8.30449  -2
   5  -1   6 386.799 8.30449   1
   6  -1   6 208.981 4.52890   1
   7  -1   6 450.296 10.0763   1
   8  -1   6 1.45879 0.72701   1
  -8  -3   4 14.6247 3.74137  -2
  -8   0   6 14.6247 3.74137   1
  -7  -3   4 24.1580 2.20306  -2
  -7   0   6 24.1580 2.20306   1
  -6   0   6 8.52071 0.91305   1
  -5   0   6 71.6199 2.26340   1
  -4   0   6 70.0886 1.58708   1
  -3   0   6 348.693 5.08045   1
  -2   0   6 74.5760 1.23371   1
  -1   0   6 78.3983 1.43729   1
   0   0   6 728.694 10.6490   1
   1   0   6 94.6258 1.60506   1
   2   0   6 2844.06 42.5399   1
   3   0   6 636.850 8.14310   1
   4   0   6 150.967 2.72227   1
   5   0   6 22.7895 0.90004   1
   6   0   6 36.7639 1.23617   1
   7   0   6 59.7471 2.26872   1
   8   0   6 64.3174 2.01859   1
   9   0   6 0.04828 0.73248   1
  -8   1   6 15.8817 1.24665   1
  -7   1   6 15.5236 1.15898   1
  -6   1   6 81.3810 2.41232   1
  -5   1   6 5.43418 0.63605   1
  -4   1   6 1259.89 23.1057   1
  -3   1   6 231.026 4.11326   1
  -2   1   6 2355.99 33.2888   1
  -1   1   6 466.998 6.80729   1
   0   1   6 110.008 1.90298   1
   1   1   6 11.2044 0.40848   1
   2   1   6 117.871 2.06519   1
   3   1   6 0.67257 0.18095   1
   4   1   6 16.9962 0.74762   1
   5   1   6 508.880 8.87880   1
   6   1   6 28.0036 0.98011   1
   7   1   6 5.50097 0.56849   1
   8   1   6 43.7391 2.05795   1
   9   1   6 20.3248 1.95202   1
  -8   2   6 6.90506 0.96586   1
  -7   2   6 0.33221 0.59885   1
  -6   2   6 86.0606 2.39209   1
  -5   2   6 171.730 4.03663   1
  -4   2   6 1736.07 27.6053   1
  -3   2   6 36.0166 0.92075   1
  -2   2   6 1874.26 28.2181   1
  -1   2   6 680.743 11.0030   1
   0   2   6 277.594 4.31523   1
   1   2   6 1501.45 22.5631   1
   2   2   6 74.8845 1.34635   1
   3   2   6 4524.91 67.1065   1
   4   2   6 1100.92 21.9364   1
   5   2   6 128.023 2.73178   1
   6   2   6 36.6968 1.29151   1
   7   2   6 0.60170 0.46238   1
   8   2   6 23.8243 1.47746   1
   9   2   6 -0.0640 0.86581   1
  -8   3   6 5.46997 1.01402   1
  -7   3   6 28.2325 1.74215   1
  -6   3   6 136.601 4.34234   1
  -5   3   6 395.856 9.89369   1
  -4   3   6 160.695 3.33529   1
  -3   3   6 74.0550 1.98325   1
  -2   3   6 67.9673 1.43089   1
  -1   3   6 1192.81 18.0923   1
   0   3   6 43.5478 1.08225   1
   1   3   6 8359.70 229.771   1
   2   3   6 1506.09 23.7303   1
   3   3   6 989.342 14.8985   1
   4   3   6 122.743 2.67388   1
   5   3   6 862.677 14.4292   1
   6   3   6 458.285 9.75770   1
   7   3   6 90.6425 3.82637   1
   8   3   6 47.8732 2.46115   1
   9   3   6 9.16906 1.36969   1
  -7   4   6 111.098 3.94212   1
  -6   4   6 46.6629 2.29342   1
  -5   4   6 548.162 13.3565   1
  -4   4   6 915.711 18.7807   1
  -3   4   6 464.489 9.79283   1
  -2   4   6 15.4274 0.59195   1
  -1   4   6 165.376 2.78209   1
   0   4   6 4475.15 65.5940   1
   1   4   6 94.1243 1.82583   1
   2   4   6 1574.01 24.8130   1
   3   4   6 4.28792 0.34558   1
   4   4   6 8.82872 0.55807   1
   5   4   6 594.044 10.0813   1
   6   4   6 255.450 5.07155   1
   7   4   6 36.2474 2.04817   1
   7   6   8 10.0228 4.79726  -2
   8   4   6 10.0228 4.79726   1
  -7   5   6 1.81495 1.29088   1
  -6   5   6 62.9899 3.52842   1
  -5   5   6 24.4448 1.03426   1
  -4   5   6 5.15398 0.62305   1
  -3   5   6 432.958 10.9577   1
  -2   5   6 207.883 4.20622   1
  -2   4   6 14.1318 1.07315  -2
  -1   5   6 14.1318 1.07315   1
   0   5   6 3053.09 53.6585   1
   1   5   6 1295.73 26.9727   1
   1   5   7 2471.69 60.1576  -2
   2   5   6 2471.69 60.1576   1
   2   5   7 103.202 5.41902  -2
   3   5   6 103.202 5.41902   1
   4   5   6 345.654 7.24286   1
   5   5   6 27.4849 1.04458   1
   6   5   6 23.9256 1.23412   1
   7   5   6 18.9230 1.35779   1
   7   7   8 19.7906 2.78011  -2
   8   5   6 19.7906 2.78011   1
  -8   3   5 25.1590 2.00065  -2
  -7   6   6 25.1590 2.00065   1
  -7   3   5 22.2613 4.35018  -2
  -6   6   6 22.2613 4.35018   1
  -5   6   6 33.0423 1.46708   1
  -4   6   6 4.98962 0.99180   1
  -4   4   6 394.996 12.4342  -2
  -3   6   6 394.996 12.4342   1
  -2   6   6 5.52974 0.59806   1
  -1   6   6 26.6791 1.07928   1
   0   6   6 218.466 5.09066   1
   1   6   6 58.9595 1.74084   1
   1   6   7 199.566 4.64569  -2
   2   6   6 199.566 4.64569   1
   2   6   7 650.230 18.9279  -2
   3   6   6 650.230 18.9279   1
   4   6   6 14.2735 1.03867   1
   4   7   8 191.675 5.26511  -2
   5   6   6 191.675 5.26511   1
   5   7   8 104.546 2.93661  -2
   6   6   6 104.546 2.93661   1
   7   6   6 65.0177 2.47542   1
   8   6   6 77.2235 5.32487   1
  -6   7   6 0.68007 0.87564   1
  -5   7   6 29.1833 1.51914   1
  -4   7   6 3.48941 0.94350   1
  -4   5   6 4.96901 2.72240  -2
  -3   7   6 4.96901 2.72240   1
  -2   7   6 151.283 4.40822   1
  -1   7   6 1268.58 30.0469   1
   0   7   6 357.701 7.52750   1
   1   7   6 135.860 3.35037   1
   2   7   6 100.589 2.64607   1
   3   7   6 -0.2145 0.26277   1
   4   7   6 29.4306 1.39082   1
   4   8   8 42.3454 4.42385  -2
   5   7   6 42.3454 4.42385   1
   6   7   6 11.0044 0.94854   1
   7   7   6 13.9506 1.84688   1
   8   7   6 2.08343 1.24119   1
  -6   8   6 70.0610 3.13608   1
  -5   8   6 22.8691 1.38512   1
  -4   8   6 50.3904 2.81363   1
  -3   8   6 2.05303 0.95106   1
  -2   8   6 37.2047 1.28775   1
  -1   8   6 24.1917 1.50132   1
   0   8   6 1.47067 0.42198   1
   1   8   6 14.2843 1.34830   1
   2   8   6 369.112 8.23392   1
   3   8   6 6.48653 0.57119   1
   4   8   6 52.9839 1.86088   1
   5   8   6 203.283 5.05812   1
   6   8   6 2.37241 0.70253   1
   7   8   6 110.336 3.69107   1
  -5   9   6 90.9471 3.02409   1
  -4   9   6 30.0575 2.39138   1
  -3   9   6 53.6844 3.01254   1
  -2   9   6 0.74091 0.52531   1
  -1   9   6 35.7543 1.36243   1
   0   9   6 37.5017 1.34347   1
   1   9   6 953.084 22.3415   1
   2   9   6 -0.1360 0.51574   1
   3   9   6 70.6037 2.17900   1
   4   9   6 4.93971 1.00723   1
   5   9   6 84.0319 3.05187   1
   6   9   6 7.07023 0.96989   1
   7   9   6 0.20314 0.72831   1
  -5  10   6 2.22972 0.78002   1
  -4  10   6 45.1135 2.49619   1
  -3  10   6 13.5601 1.40741   1
  -2  10   6 76.7136 2.44899   1
  -1  10   6 141.286 4.48123   1
   0  10   6 36.9769 1.84541   1
   1  10   6 818.728 23.8828   1
   2  10   6 38.7594 2.01024   1
   3  10   6 10.8294 0.87469   1
   4  10   6 127.336 4.05636   1
   5  10   6 4.95514 0.94828   1
   6  10   6 18.3303 1.31184   1
  -4  11   6 0.71137 0.88973   1
  -3  11   6 4.62137 1.03964   1
  -2  11   6 23.1916 1.76365   1
  -1  11   6 1.94051 0.86728   1
   0  11   6 117.015 3.87366   1
   1  11   6 1.78633 1.15101   1
   2  11   6 71.7825 3.50607   1
   3  11   6 -0.9801 0.83475   1
   4  11   6 143.869 4.49329   1
   5  11   6 4.80489 1.33651   1
  -3  12   6 -0.4557 0.85008   1
  -2  12   6 120.640 4.33963   1
  -1  12   6 0.62866 0.97954   1
  -2  11   7 63.5746 4.02292  -2
   0  12   6 63.5746 4.02292   1
   1  12   6 8.11634 1.42570   1
   2  12   6 0.09457 0.93882   1
   1  12   8 0.23949 1.88302  -2
   3  12   6 0.23949 1.88302   1
   4  12   6 6.51246 0.98388   1
  -1  13   6 9.45183 2.05961   1
  -2  12   7 -2.1320 3.39806  -2
   0  13   6 -2.1320 3.39806   1
   1  13   6 1.51515 1.11318   1
   0  13   8 29.8945 3.85316  -2
   2  13   6 29.8945 3.85316   1
   1  13   8 4.08282 3.85690  -2
   3  13   6 4.08282 3.85690   1
  -2 -11   7 0.51066 0.68096   1
  -1 -11   7 8.58773 1.08383   1
   0 -11   7 22.4897 1.57238   1
   1 -11   7 2.12330 0.84323   1
   2 -11   7 16.5265 1.31990   1
  -4 -10   7 14.1113 1.64668   1
  -3 -10   7 1.38875 0.70596   1
  -1 -11   5 4.76557 4.45889  -2
  -2 -10   7 4.76557 4.45889   1
   0 -11   5 -2.0530 2.44856  -2
  -1 -10   7 -2.0530 2.44856   1
   0 -10   7 59.2820 2.39344   1
   1 -10   7 1.60943 0.89719   1
   2 -10   7 -0.8553 1.01941   1
   3 -10   7 4.03951 0.86754   1
   4 -10   7 1.37177 0.78285   1
  -4 -11   4 -2.9104 4.03054  -2
  -5  -9   7 -2.9104 4.03054   1
  -4  -9   7 39.1012 1.80405   1
  -3  -9   7 83.7675 2.71771   1
  -1 -10   5 23.6422 1.98484  -2
  -2  -9   7 23.6422 1.98484   1
   0 -10   5 492.146 21.5354  -2
  -1  -9   7 492.146 21.5354   1
   0  -9   7 34.7655 1.83213   1
   2  -9   6 83.2582 3.08588  -2
   1  -9   7 83.2582 3.08588   1
   3  -9   6 10.2334 1.37054  -2
   2  -9   7 10.2334 1.37054   1
   3  -9   7 9.55342 0.82317   1
   5  -8   7 1.54781 2.20952  -2
   4  -9   7 1.54781 2.20952   1
   6  -8   7 4.00791 1.42769  -2
   5  -9   7 4.00791 1.42769   1
  -5  -8   7 28.6034 1.95217   1
  -3 -10   5 62.4145 4.20173  -2
  -4  -8   7 62.4145 4.20173   1
  -3  -8   7 72.6218 2.44515   1
  -2  -8   7 46.9641 2.15941   1
  -1  -8   7 275.124 6.46765   1
   0  -8   7 134.860 3.63658   1
   2  -8   6 73.5939 2.25504  -2
   1  -8   7 73.5939 2.25504   1
   3  -8   6 13.9135 1.44288  -2
   2  -8   7 13.9135 1.44288   1
   3  -8   7 52.2667 1.75329   1
   5  -7   7 42.0206 3.20302  -2
   4  -8   7 42.0206 3.20302   1
   6  -7   7 13.3542 1.96041  -2
   5  -8   7 13.3542 1.96041   1
   6  -8   7 42.6026 2.01853   1
  -6  -7   7 18.3965 1.71245   1
  -4  -9   5 16.7693 3.44530  -2
  -5  -7   7 16.7693 3.44530   1
  -4  -7   7 1.59788 0.51430   1
  -3  -7   7 404.309 7.81531   1
  -2  -7   7 38.1183 1.36756   1
  -1  -7   7 157.796 3.98330   1
   0  -7   7 36.7301 1.53794   1
   1  -7   7 99.0566 2.83116   1
   2  -7   7 19.3759 1.05551   1
   3  -7   7 0.43048 0.54196   1
   4  -7   7 160.811 3.66203   1
   5  -7   7 8.34482 0.93535   1
   6  -7   7 63.0681 2.01759   1
  -6  -6   7 1.74456 0.67915   1
  -5  -6   7 60.2273 2.20037   1
  -4  -6   7 184.937 3.97398   1
  -3  -6   7 142.366 3.16441   1
  -2  -6   7 353.505 6.80132   1
  -1  -6   7 2.05898 0.43581   1
   0  -6   7 58.9395 1.96905   1
   1  -6   7 40.4195 1.62154   1
   2  -6   7 12.7900 0.83653   1
   3  -6   7 290.568 5.80589   1
   4  -6   7 40.8427 1.50132   1
   5  -6   7 11.9184 0.88299   1
   6  -6   7 0.84043 0.87179   1
   7  -6   7 10.2148 1.08178   1
  -7  -5   7 6.83955 0.95552   1
  -6  -5   7 14.9314 1.16027   1
  -5  -5   7 163.261 4.57079   1
  -4  -5   7 10.8972 0.93608   1
  -3  -5   7 24.1306 0.88215   1
  -2  -5   7 128.080 2.81180   1
  -1  -5   7 501.290 9.29863   1
   0  -5   7 5.02557 0.68267   1
   1  -5   7 138.825 3.49965   1
   2  -5   7 36.4090 1.45681   1
   3  -5   7 641.665 11.2382   1
   4  -5   7 7.49328 0.67845   1
   5  -5   7 48.1043 1.45619   1
   6  -5   7 65.4327 2.37083   1
   7  -5   7 3.95293 0.87089   1
  -7  -4   7 54.2824 2.26065   1
  -6  -4   7 25.2959 1.52915   1
  -5  -4   7 7.27674 0.85410   1
  -4  -4   7 30.9150 1.38824   1
  -3  -4   7 7.68074 0.59394   1
  -2  -4   7 1539.75 25.0776   1
  -1  -4   7 214.655 4.28759   1
   0  -4   7 150.696 3.41560   1
   1  -4   7 83.9547 2.31826   1
   2  -4   7 343.625 7.55176   1
   3  -4   7 276.017 5.45214   1
   4  -4   7 292.761 5.24902   1
   5  -4   7 1.25038 0.40304   1
   6  -4   7 63.5432 2.46157   1
   7  -4   7 0.76897 0.73113   1
   8  -4   7 0.38024 0.74671   1
  -7  -3   7 93.9820 3.08446   1
  -6  -3   7 78.8774 2.57876   1
  -5  -3   7 90.7729 2.72252   1
  -4  -3   7 69.1700 2.54416   1
  -3  -3   7 70.7949 1.63818   1
  -2  -3   7 232.465 3.85510   1
  -1  -3   7 191.852 3.49105   1
   0  -3   7 107.411 2.71995   1
   1  -3   7 188.667 4.03891   1
   2  -3   7 155.149 3.48944   1
   3  -3   7 2.68914 0.38155   1
   4  -3   7 774.852 12.6531   1
   5  -3   7 473.096 7.96541   1
   6  -3   7 13.4399 1.02275   1
   7  -3   7 57.9848 2.26192   1
   8  -1   8 52.7854 3.16403  -2
   8  -3   7 52.7854 3.16403   1
  -7  -5   5 75.9460 3.08786  -2
  -7  -2   7 75.9460 3.08786   1
  -6  -2   7 2.03010 0.66092   1
  -5  -2   7 426.321 9.07079   1
  -4  -2   7 453.131 8.46114   1
  -3  -2   7 782.887 11.8774   1
  -2  -2   7 292.918 5.05851   1
  -1  -3   6 4445.75 85.5102  -2
  -1  -2   7 4445.75 85.5102   1
   0  -2   7 130.407 2.22141   1
   1  -2   7 614.807 9.13905   1
   2  -2   7 277.141 5.07194  -2
   2  -2   7 277.141 5.07194   1
   3  -2   7 127.610 2.38025   1
   4  -2   7 317.999 4.83426   1
   5  -1   8 492.073 21.5674  -2
   5  -2   7 492.073 21.5674   1
   6  -2   7 1.32353 0.57070   1
   7  -2   7 2.64190 0.81887   1
   8   0   8 3.48667 2.10562  -2
   8  -2   7 3.48667 2.10562   1
  -8  -1   7 29.3527 2.38293   1
  -7  -4   5 33.5500 1.60948  -2
  -7  -1   7 33.5500 1.60948   1
  -6  -1   7 2.42214 0.84333   1
  -5  -1   7 81.7329 2.03710   1
  -4  -3   6 153.506 4.15214  -2
  -4  -1   7 153.506 4.15214   1
  -3  -1   7 571.790 8.76559   1
  -2  -1   7 58.9006 1.13719   1
  -1  -1   7 1943.63 28.0274   1
   0  -1   7 92.1929 1.65868   1
   1  -1   7 2886.24 41.4345   1
   2  -1   7 3370.57 52.0038  -2
   2  -1   7 3370.57 52.0038   1
   3  -1   7 56.0507 1.08327   1
   4  -1   7 1503.20 21.3987   1
   5   0   8 25.1623 1.42489  -2
   5  -1   7 25.1623 1.42489   1
   6   0   8 49.9052 3.18719  -2
   6  -1   7 49.9052 3.18719   1
   7  -1   7 34.1507 1.80212   1
   8  -1   7 -0.2510 0.67683   1
  -8   0   7 21.6745 1.77755   1
  -7  -3   5 21.3477 2.03137  -2
  -7   0   7 21.3477 2.03137   1
  -6   0   7 16.7715 1.28557   1
  -5   0   7 0.40875 0.50669   1
  -4   0   7 48.3318 1.33718   1
  -3   0   7 69.8508 1.52852   1
  -2   0   7 2659.14 37.5998   1
  -1   0   7 532.087 8.91320   1
   0   0   7 7.89796 0.36166   1
   1   0   7 500.123 8.06448   1
   2   0   7 3029.56 43.4530   1
   3   0   7 107.869 1.94858   1
   4   0   7 911.912 14.1039   1
   5   0   7 198.709 4.24181   1
   6   0   7 129.293 3.07478   1
   7   0   7 9.25148 0.77214   1
   8   0   7 13.5296 1.52503   1
  -8   1   7 1.43302 0.84349   1
  -7   1   7 59.5012 2.23674   1
  -6   1   7 2.02074 0.76104   1
  -5   1   7 25.0795 1.56051   1
  -4   1   7 1085.27 17.8054   1
  -3   1   7 10.3021 0.51567   1
  -2   1   7 2006.61 28.4418   1
  -1   1   7 68.3128 1.34087   1
   0   1   7 2.94015 0.25078   1
   1   1   7 265.537 4.26420   1
   2   1   7 393.091 5.89176   1
   3   1   7 28.1222 0.75893   1
   4   1   7 0.99674 0.39965   1
   5   1   7 200.651 4.08430   1
   6   1   7 168.646 3.75965   1
   7   1   7 0.49587 0.39358   1
   8   1   7 31.8255 1.60096   1
  -8   2   7 22.8229 2.80021   1
  -7   2   7 88.1454 2.77489   1
  -6   2   7 51.5475 1.83750   1
  -5   2   7 90.6350 2.41493   1
  -4   2   7 519.646 8.25697   1
  -3   2   7 74.2063 1.89693   1
  -2   2   7 36.8400 1.24152   1
  -1   2   7 1713.57 24.3237   1
   0   2   7 173.698 2.72869   1
   1   2   7 874.825 13.3107   1
   2   2   7 19.3869 0.60879   1
   3   2   7 125.536 2.31846   1
   4   2   7 1086.95 19.5515   1
   5   2   7 0.36873 0.35518   1
   6   2   7 30.2017 1.16256   1
   7   2   7 31.9844 1.44269   1
   8   2   7 9.51445 1.23032   1
  -7   3   7 0.72241 0.69210   1
  -6   3   7 74.3396 2.69497   1
  -5   3   7 590.471 14.3055   1
  -4   3   7 802.601 14.4790   1
  -3   3   7 6.33752 0.53520   1
  -2   3   7 484.382 8.20809   1
  -1   3   7 50.2546 1.25826   1
   0   3   7 2981.02 47.7537   1
   1   3   7 889.254 16.3131   1
   2   3   7 166.085 2.95436   1
   3   3   7 27.7724 0.87755   1
   4   3   7 24.0448 0.92488   1
   5   3   7 43.4094 1.31563   1
   6   3   7 33.0402 1.20489   1
   7   3   7 21.2095 1.18968   1
   8   3   7 94.0143 3.54324   1
  -7   4   7 -0.2727 0.81979   1
  -6   4   7 0.09710 0.73484   1
  -5   4   7 24.7977 1.69100   1
  -4   4   7 70.2005 2.08209   1
  -3   4   7 6.42089 0.66095   1
  -2   4   7 345.753 6.60559   1
  -1   4   7 38.9385 1.09137   1
   0   4   7 1625.00 28.7265   1
   1   4   7 3807.09 59.5385   1
   2   4   7 427.920 7.08183   1
   3   4   7 1256.11 21.9330   1
   4   4   7 59.9821 1.51732   1
   5   4   7 155.264 3.29149   1
   6   4   7 17.6392 1.10920   1
   7   4   7 4.89992 0.67626   1
   7   6   9 23.7730 5.55152  -2
   8   4   7 23.7730 5.55152   1
  -7   5   7 29.4306 2.64734   1
  -7   2   6 22.2307 2.21183  -2
  -6   5   7 22.2307 2.21183   1
  -5   5   7 81.1610 2.47397   1
  -4   5   7 110.094 3.51997   1
  -3   5   7 1007.83 24.1094   1
  -2   5   7 712.763 13.1379   1
  -1   5   7 245.263 5.21019   1
   0   5   7 54.3232 1.37489   1
   1   5   7 614.700 10.3033   1
   1   5   8 664.709 26.7418  -2
   2   5   7 664.709 26.7418   1
   2   5   8 571.203 10.3170  -2
   3   5   7 571.203 10.3170   1
   4   5   7 43.5430 1.70138   1
   5   5   7 17.5196 1.26331   1
   5   6   9 138.803 4.18187  -2
   6   5   7 138.803 4.18187   1
   7   5   7 52.2040 2.16090   1
   7   7   9 39.0754 6.02427  -2
   8   5   7 39.0754 6.02427   1
  -8   3   6 4.56045 2.10373  -2
  -7   6   7 4.56045 2.10373   1
  -7   3   6 29.6059 2.80232  -2
  -6   6   7 29.6059 2.80232   1
  -5   6   7 86.6721 2.66971   1
  -4   6   7 91.2568 3.16726   1
  -4   4   7 1333.84 31.7426  -2
  -3   6   7 1333.84 31.7426   1
  -2   6   7 766.950 14.1656   1
  -1   6   7 2.03584 0.37209   1
   0   6   7 666.401 13.1358   1
   1   6   7 820.184 16.8343   1
   1   6   8 1358.64 37.9287  -2
   2   6   7 1358.64 37.9287   1
   2   6   8 105.040 2.36344  -2
   3   6   7 105.040 2.36344   1
   4   6   7 481.697 11.4978   1
   5   6   7 82.0749 2.77302   1
   5   7   9 63.1178 3.10215  -2
   6   6   7 63.1178 3.10215   1
   7   6   7 6.55066 0.96648   1
   7   8   9 87.7772 7.50973  -2
   8   6   7 87.7772 7.50973   1
  -7   4   6 14.0567 3.42874  -2
  -6   7   7 14.0567 3.42874   1
  -5   7   7 8.35961 1.13629   1
  -4   7   7 19.4798 1.48054   1
  -3   7   7 27.0135 0.94700   1
  -2   7   7 111.502 2.86662   1
  -1   7   7 426.302 10.6862   1
   0   7   7 847.828 20.2780   1
   1   7   7 10.1355 0.89014   1
   2   7   7 28.1478 1.37285   1
   3   7   7 100.996 2.10408   1
   4   7   7 622.886 14.6975   1
   5   7   7 16.4655 1.29738   1
   5   8   9 -0.3184 2.87036  -2
   6   7   7 -0.3184 2.87036   1
   7   7   7 167.246 4.92843   1
   8   7   7 0.48044 1.11971   1
  -6   8   7 5.10513 1.16110   1
  -5   8   7 8.67430 0.95987   1
  -4   8   7 69.0637 3.02401   1
  -3   8   7 3.21920 0.45091   1
  -2   8   7 25.1709 1.95028   1
  -1   8   7 26.3338 1.49205   1
   0   8   7 32.8246 1.21851   1
   1   8   7 14.3809 1.42549   1
   2   8   7 8.25880 0.77078   1
   3   8   7 361.565 8.10667   1
   4   8   7 64.7444 2.46271   1
   5   8   7 208.514 5.68430   1
   6   8   7 2.76052 0.78880   1
   7   8   7 104.514 3.62787   1
  -5   9   7 12.8858 1.11856   1
  -4   9   7 58.7428 2.71214   1
  -3   9   7 13.9730 1.00939   1
  -2   9   7 40.1179 2.04845   1
  -1   9   7 1.28848 0.62578   1
   0   9   7 10.7700 0.75713   1
   1   9   7 312.828 9.93237   1
   2   9   7 188.334 5.12875   1
   3   9   7 327.927 7.47635   1
   4   9   7 10.2118 0.78011   1
   5   9   7 30.6681 1.78022   1
   6   9   7 8.05323 1.08157   1
   7   9   7 5.40251 0.95488   1
  -5  10   7 2.35446 0.81005   1
  -4  10   7 109.499 4.02502   1
  -3  10   7 58.0960 2.72015   1
  -2  10   7 113.736 3.90370   1
  -1  10   7 8.71953 0.82079   1
   0  10   7 9.01752 1.41138   1
   1  10   7 66.8736 2.48951   1
   2  10   7 29.5827 1.58419   1
   3  10   7 -0.0983 0.59032   1
   4  10   7 70.4160 2.47804   1
   5  10   7 39.8940 2.02420   1
   6  10   7 6.28838 1.09386   1
  -4  11   7 14.7731 1.47182   1
  -3  11   7 14.1295 1.48127   1
  -2  11   7 2.04360 0.89095   1
  -1  11   7 69.3874 2.90068   1
   0  11   7 97.2226 3.40847   1
   1  11   7 111.530 4.97075   1
   2  11   7 4.11028 1.13951   1
   1  11   9 127.845 6.19388  -2
   3  11   7 127.845 6.19388   1
   4  11   7 76.9938 5.28642   1
   5  11   7 4.23273 0.92295   1
  -3  12   7 6.50430 1.23269   1
  -2  12   7 0.02214 0.88118   1
  -1  12   7 3.58986 0.94636   1
  -2  11   8 35.8635 3.04451  -2
   0  12   7 35.8635 3.04451   1
   1  12   7 -0.4772 0.94388   1
   2  12   7 32.0286 2.51146   1
   1  12   9 15.4206 2.19108  -2
   3  12   7 15.4206 2.19108   1
   2  12   9 3.91479 4.84759  -2
   4  12   7 3.91479 4.84759   1
  -1  13   7 2.37800 2.84802   1
  -2  12   8 45.2541 5.24892  -2
   0  13   7 45.2541 5.24892   1
  -1  12   9 -5.3051 4.93674  -2
   1  13   7 -5.3051 4.93674   1
   2  13   7 53.1780 3.26977   1
  -1 -11   8 -0.6388 0.85540   1
   0 -11   8 49.2768 2.44557   1
   1 -11   8 12.5325 1.38885   1
  -3 -10   8 1.07459 0.68104   1
  -1 -11   6 -0.2299 4.58890  -2
  -2 -10   8 -0.2299 4.58890   1
   0 -11   6 13.3302 2.21129  -2
  -1 -10   8 13.3302 2.21129   1
   1 -11   6 71.3163 5.47861  -2
   0 -10   8 71.3163 5.47861   1
   1 -10   8 0.74936 0.77669   1
   3 -10   7 2.74415 2.23831  -2
   2 -10   8 2.74415 2.23831   1
   3 -10   8 51.4144 2.21809   1
  -3 -11   6 4.29068 3.93490  -2
  -4  -9   8 4.29068 3.93490   1
  -3  -9   8 5.52846 0.87217   1
  -1 -10   6 42.8194 5.12303  -2
  -2  -9   8 42.8194 5.12303   1
   0 -10   6 99.9967 4.20311  -2
  -1  -9   8 99.9967 4.20311   1
   0  -9   8 4.58751 0.90821   1
   2  -9   7 5.74265 2.54524  -2
   1  -9   8 5.74265 2.54524   1
   3  -9   7 47.6758 1.96531  -2
   2  -9   8 47.6758 1.96531   1
   4  -9   7 0.68125 1.95976  -2
   3  -9   8 0.68125 1.95976   1
   5  -8   8 20.4914 3.10997  -2
   4  -9   8 20.4914 3.10997   1
   5  -9   8 0.04020 0.56059   1
  -5  -8   8 44.1018 2.53982   1
  -3 -10   6 57.5650 2.58525  -2
  -4  -8   8 57.5650 2.58525   1
  -3  -8   8 -0.4681 0.58084   1
  -2  -8   8 12.7571 1.13027   1
  -1  -8   8 2.73730 1.00496   1
   0  -8   8 104.832 4.14096   1
   2  -8   7 2.06286 3.08535  -2
   1  -8   8 2.06286 3.08535   1
   3  -8   7 5.57030 1.47131  -2
   2  -8   8 5.57030 1.47131   1
   3  -8   8 108.280 3.78378   1
   4  -8   8 9.57355 1.02547   1
   6  -7   8 6.16704 2.14212  -2
   5  -8   8 6.16704 2.14212   1
  -6  -7   8 83.0849 3.11635   1
  -5  -7   8 1.66628 0.68584   1
  -4  -7   8 6.87516 0.84933   1
  -3  -7   8 5.16073 0.68732   1
  -2  -7   8 10.8618 0.82001   1
  -1  -7   8 6.93497 0.83071   1
   0  -7   8 5.74881 0.77044   1
   1  -7   8 264.688 6.21887   1
   2  -7   8 1.35806 0.53375   1
   3  -7   8 142.101 3.42721   1
   4  -7   8 22.2339 1.32673   1
   5  -7   8 12.2372 0.97126   1
   6  -7   8 4.70048 0.75231   1
  -6  -6   8 7.36345 1.02940   1
  -5  -6   8 16.7924 1.22313   1
  -4  -6   8 0.11622 0.39792   1
  -3  -6   8 14.3460 0.91773   1
  -2  -6   8 42.1026 1.40785   1
  -1  -6   8 83.3458 2.06287   1
   0  -6   8 8.79429 0.82341   1
   1  -6   8 375.891 8.40628   1
   2  -6   8 0.74774 0.52796   1
   3  -6   8 1.15209 0.56752   1
   4  -6   8 30.8726 1.35454   1
   5  -6   8 16.5451 1.11769   1
   6  -6   8 17.2876 1.26344   1
   7  -6   8 8.26090 1.03930   1
  -6  -5   8 13.4803 1.11600   1
  -5  -5   8 71.0070 2.60194   1
  -4  -5   8 74.4593 2.04363   1
  -3  -5   8 15.1901 0.86921   1
  -2  -5   8 246.314 4.93028   1
  -1  -5   8 22.4024 0.97552   1
   0  -5   8 581.372 12.4605   1
   1  -5   8 290.700 6.61546   1
   2  -5   8 4.74696 0.69684   1
   3  -5   8 3.02777 0.64223   1
   4  -5   8 4.16799 0.62057   1
   5  -5   8 4.08689 0.64457   1
   6  -5   8 2.41534 0.94087   1
   7  -5   8 1.18587 0.75453   1
  -7  -4   8 2.29201 0.76861   1
  -6  -4   8 57.5591 2.28818   1
  -5  -4   8 25.6102 1.50184   1
  -4  -4   8 36.1138 1.11821   1
  -3  -4   8 18.7127 0.80048   1
  -2  -4   8 141.451 3.08589   1
  -1  -4   8 627.580 10.9806   1
   0  -4   8 1646.95 29.3852   1
   1  -4   8 363.464 8.00665   1
   2  -4   8 112.255 2.97603   1
   3  -4   8 0.82831 0.49685   1
   4  -4   8 5.51892 0.61596   1
   5  -4   8 34.1275 1.15524   1
   6  -4   8 3.91513 0.80782   1
   7  -4   8 40.6540 1.99800   1
  -7  -3   8 1.50175 0.80522   1
  -6  -3   8 112.105 3.31143   1
  -5  -3   8 51.2924 1.99142   1
  -4  -3   8 53.0538 1.53008   1
  -3  -3   8 76.3094 1.74354   1
  -2  -3   8 684.881 12.5766   1
  -1  -3   8 6.39010 0.63729   1
   0  -3   8 74.2781 2.16974   1
   1  -3   8 25.5600 1.12975   1
   2  -3   8 540.727 11.5354   1
   3  -3   8 355.756 9.20904   1
   4  -3   8 183.454 3.49305   1
   5  -3   8 238.026 3.96291   1
   6  -3   8 4.55802 0.74739   1
   7  -3   8 146.066 4.21209   1
   8  -1   9 4.73554 1.71306  -2
   8  -3   8 4.73554 1.71306   1
  -7  -5   6 30.4763 2.44098  -2
  -7  -2   8 30.4763 2.44098   1
  -6  -5   6 9.51538 1.18495  -2
  -6  -2   8 9.51538 1.18495   1
  -5  -2   8 3.00184 0.51855   1
  -4  -2   8 339.251 5.90511   1
  -3  -2   8 228.160 4.12608   1
  -2  -2   8 271.422 4.43399   1
  -1  -3   7 178.587 3.87340  -2
  -1  -2   8 178.587 3.87340   1
   0  -2   8 335.166 6.81397   1
   1  -2   8 180.369 3.89415   1
   2  -2   8 98.2640 2.75038  -2
   2  -2   8 98.2640 2.75038   1
   3  -2   8 50.3236 1.64345  -2
   3  -2   8 50.3236 1.64345   1
   4  -2   8 4.89003 0.43483   1
   5  -1   9 77.9722 2.70154  -2
   5  -2   8 77.9722 2.70154   1
   6  -1   9 5.81902 1.21664  -2
   6  -2   8 5.81902 1.21664   1
   7  -2   8 2.81857 0.88640   1
   8   0   9 120.927 4.58110  -2
   8  -2   8 120.927 4.58110   1
  -7  -4   6 17.0738 1.83315  -2
  -7  -1   8 17.0738 1.83315   1
  -6  -4   6 30.7528 1.76590  -2
  -6  -1   8 30.7528 1.76590   1
  -5  -1   8 21.0900 0.94276   1
  -4  -1   8 374.393 5.92290   1
  -3  -3   7 328.146 9.54156  -2
  -3  -1   8 328.146 9.54156   1
  -2  -1   8 48.0527 1.20917   1
  -1  -1   8 204.476 3.73482   1
   0  -1   8 819.834 12.9965   1
   1  -1   8 123.830 2.31159   1
   2  -1   8 20.7435 1.49786  -2
   2  -1   8 20.7435 1.49786   1
   3  -1   8 48.7644 1.26812   1
   4  -1   8 983.203 14.2333   1
   5   0   9 53.3236 4.84529  -2
   5  -1   8 53.3236 4.84529   1
   6   0   9 24.4665 1.68932  -2
   6  -1   8 24.4665 1.68932   1
   7  -1   8 3.86648 0.84160   1
   8  -1   8 0.43897 0.63834   1
  -7   0   8 6.91486 0.94677   1
  -6   0   8 35.7892 1.75238   1
  -5   0   8 9.84947 0.93579   1
  -4   0   8 155.900 2.69774   1
  -3   0   8 766.692 12.6000   1
  -2   0   8 572.733 9.61987   1
  -1   0   8 1727.76 28.1786   1
   0   0   8 1088.14 15.8718   1
   1   0   8 1056.12 15.4049   1
   2   0   8 87.2906 1.73852   1
   3   0   8 185.503 3.49174   1
   4   0   8 2.17940 0.31705   1
   5   0   8 25.0951 1.08855   1
   6   0   8 107.293 2.71744   1
   7   0   8 -0.1546 0.69498   1
   8   0   8 4.74090 0.68008   1
  -7   1   8 18.4775 1.32355   1
  -6   1   8 115.373 3.32896   1
  -5   1   8 33.0827 1.55389   1
  -4   1   8 69.7052 1.63514   1
  -3   1   8 1103.41 19.1237   1
  -2   1   8 1538.07 25.1116   1
  -1   1   8 1595.37 24.3583   1
   0   1   8 485.481 7.58433   1
   1   1   8 65.5031 1.32458   1
   2   1   8 90.3767 1.75606   1
   3   1   8 80.8348 1.82743   1
   4   1   8 572.004 10.5246   1
   5   1   8 3.33647 0.58966   1
   6   1   8 357.518 7.89287   1
   7   1   8 17.7692 1.18292   1
   8   1   8 28.1129 2.08371   1
  -7   2   8 25.3381 1.52683   1
  -6   2   8 104.440 3.12951   1
  -5   2   8 5.28316 0.76603   1
  -4   2   8 444.840 7.64810   1
  -3   2   8 1459.54 26.7925   1
  -2   2   8 67.1932 1.59294   1
  -1   2   8 9.84923 0.46534   1
   0   2   8 450.733 6.66214   1
   1   2   8 190.424 3.19299   1
   2   2   8 183.761 3.58381   1
   3   2   8 41.5285 1.07002   1
   4   2   8 1486.97 29.8695   1
   5   2   8 7.00011 0.69096   1
   6   2   8 243.179 5.61819   1
   7   2   8 71.8261 2.29931   1
   8   2   8 14.7996 1.17514   1
  -7   3   8 1.55144 0.90580   1
  -6   3   8 36.3916 1.97615   1
  -5   3   8 356.990 7.24737   1
  -4   3   8 98.4614 2.26898   1
  -3   3   8 1304.01 25.4670   1
  -2   3   8 96.5346 2.69517   1
  -1   3   8 404.923 8.40722   1
   0   3   8 1085.97 20.2213   1
   1   3   8 56.2870 1.39962   1
   2   3   8 124.925 3.33786   1
   3   3   8 2624.18 46.1286   1
   4   3   8 355.468 7.60943   1
   5   3   8 151.915 3.69175   1
   6   3   8 43.7894 1.66930   1
   7   3   8 1.90181 0.53721   1
   8   3   8 5.61377 0.84212   1
  -7   4   8 7.28306 1.19499   1
  -6   4   8 0.35138 0.77914   1
  -5   4   8 167.314 4.97040   1
  -4   4   8 20.6824 1.31580   1
  -3   4   8 12.9422 1.10626   1
  -2   4   8 0.67047 0.29688   1
  -1   4   8 499.430 11.9347   1
   0   4   8 97.7044 2.41178   1
   1   4   8 660.569 11.6927   1
   2   4   8 11.9176 0.71222   1
   3   4   8 3179.26 61.2480   1
   4   4   8 426.063 10.2411   1
   5   4   8 269.831 6.00831   1
   6   4   8 6.02795 0.72297   1
   7   4   8 6.51027 0.75213   1
   8   4   8 4.41149 1.04220   1
  -7   5   8 13.8934 1.48120   1
  -7   2   7 84.1018 5.62703  -2
  -6   5   8 84.1018 5.62703   1
  -5   5   8 19.1875 1.09787   1
  -4   5   8 16.3323 1.31952   1
  -3   5   8 196.108 5.48654   1
  -2   5   8 131.031 2.92110   1
  -1   5   8 1208.49 21.3022   1
  -1   4   8 59.3840 3.32417  -2
   0   5   8 59.3840 3.32417   1
   1   5   8 424.769 9.86261   1
   2   5   8 81.1064 1.93757   1
   2   5   9 330.825 6.86376  -2
   3   5   8 330.825 6.86376   1
   4   5   8 17.7557 1.19324   1
   5   5   8 92.6925 3.03404   1
   5   6  10 34.8621 2.83000  -2
   6   5   8 34.8621 2.83000   1
   7   5   8 13.7589 1.30043   1
   7   7  10 42.2691 6.37992  -2
   8   5   8 42.2691 6.37992   1
  -7   3   7 21.4383 1.92225  -2
  -6   6   8 21.4383 1.92225   1
  -5   6   8 22.5572 1.37095   1
  -4   6   8 0.04086 0.66022   1
  -4   4   8 26.2942 1.89275  -2
  -3   6   8 26.2942 1.89275   1
  -2   6   8 136.217 3.31388   1
  -1   6   8 5.28730 0.45302   1
   0   6   8 900.727 17.6110   1
   1   6   8 1290.84 31.8725   1
   2   6   8 536.520 11.5168   1
   2   6   9 83.0984 3.15784  -2
   3   6   8 83.0984 3.15784   1
   4   6   8 3.63047 0.73725   1
   5   6   8 149.794 4.37666   1
   5   7  10 29.2292 4.15195  -2
   6   6   8 29.2292 4.15195   1
   7   6   8 0.52903 0.74617   1
   8   6   8 0.90614 1.24342   1
  -7   4   7 2.77868 3.38092  -2
  -6   7   8 2.77868 3.38092   1
  -5   7   8 40.9832 1.84447   1
  -4   7   8 84.4581 3.12131   1
  -3   7   8 115.303 3.76256   1
  -2   7   8 28.8958 1.25076   1
  -1   7   8 330.579 6.24466   1
   0   7   8 79.3307 2.21362   1
   1   7   8 46.6593 1.61886   1
   2   7   8 189.955 4.52236   1
   3   7   8 62.8636 1.63656   1
   4   7   8 20.5596 1.47716   1
   5   7   8 171.456 4.85554   1
   6   7   8 119.036 3.73177   1
   7   7   8 81.9690 3.13278   1
  -6   8   8 5.82417 1.17633   1
  -5   8   8 36.4400 1.84866   1
  -4   8   8 116.460 3.98915   1
  -3   8   8 5.68155 0.51330   1
  -2   8   8 0.27106 0.46604   1
  -1   8   8 138.226 3.52359   1
   0   8   8 54.0802 1.97662   1
   1   8   8 107.167 4.15864   1
   2   8   8 629.703 13.4762   1
   3   8   8 133.367 3.08387   1
   4   8   8 396.755 8.37364   1
   5   8   8 70.3545 2.65572   1
   6   8   8 14.2316 1.26905   1
   7   8   8 3.83139 0.98969   1
  -5   9   8 0.86647 0.90600   1
  -4   9   8 54.0650 2.66076   1
  -3   9   8 0.55984 0.56416   1
  -2   9   8 205.632 5.27635   1
  -1   9   8 2.58678 0.72552   1
   0   9   8 6.21951 1.15282   1
   1   9   8 54.9266 2.92119   1
   2   9   8 422.581 10.4799   1
   3   9   8 198.454 4.36756   1
   4   9   8 32.9932 1.25935   1
   5   9   8 10.2574 1.12391   1
   6   9   8 1.68188 0.84779   1
   7   9   8 8.50449 1.67217   1
  -4  10   8 13.9677 1.90711   1
  -3  10   8 10.7085 0.90633   1
  -2  10   8 114.363 3.95919   1
  -1  10   8 77.8381 2.94137   1
   0  10   8 23.1021 2.32079   1
   1  10   8 32.9824 2.11702   1
   2  10   8 122.333 3.76256   1
   3  10   8 4.56923 0.88722   1
   4  10   8 18.3039 1.49721   1
   5  10   8 1.80378 1.00297   1
   6  10   8 17.4737 1.87486   1
  -3  11   8 0.24904 0.59985   1
  -2  11   8 58.6072 2.75147   1
  -1  11   8 37.7047 2.11377   1
   0  11   8 127.764 5.28458   1
   1  11   8 51.2646 3.04767   1
   2  11   8 13.8334 1.19051   1
   1  11  10 33.3150 3.48644  -2
   3  11   8 33.3150 3.48644   1
   2  11  10 48.5685 3.96573  -2
   4  11   8 48.5685 3.96573   1
   5  11   8 33.7747 2.03377   1
  -4  10   9 12.6384 4.16140  -2
  -2  12   8 12.6384 4.16140   1
  -1  12   8 23.8968 1.82377   1
  -2  11   9 60.0870 3.95113  -2
   0  12   8 60.0870 3.95113   1
  -1  11   9 9.52406 4.44178  -2
   1  12   8 9.52406 4.44178   1
   2  12   8 23.2096 2.18403   1
   1  12  10 27.2905 5.02780  -2
   3  12   8 27.2905 5.02780   1
   2  12  10 23.5275 4.98762  -2
   4  12   8 23.5275 4.98762   1
   0  13   8 -2.1699 1.58596   1
   1  13   8 60.7155 5.13468   1
   2  13   8 29.8762 2.79264   1
  -2 -10   9 6.81655 0.95990   1
   0 -11   7 2.67084 2.44049  -2
  -1 -10   9 2.67084 2.44049   1
   1 -11   7 15.4593 2.89717  -2
   0 -10   9 15.4593 2.89717   1
   1 -10   9 60.0560 2.54042   1
   3 -10   8 53.5136 2.97612  -2
   2 -10   9 53.5136 2.97612   1
   3 -10   9 5.39783 1.09853   1
  -2 -11   7 43.3057 5.15960  -2
  -3  -9   9 43.3057 5.15960   1
  -1 -10   7 -5.2730 4.06238  -2
  -2  -9   9 -5.2730 4.06238   1
   0 -10   7 35.5148 2.27381  -2
  -1  -9   9 35.5148 2.27381   1
   1 -10   7 0.55535 2.10369  -2
   0  -9   9 0.55535 2.10369   1
   1  -9   9 0.68231 0.57446   1
   3  -9   8 -0.0020 1.25836  -2
   2  -9   9 -0.0020 1.25836   1
   4  -9   8 25.1617 2.78534  -2
   3  -9   9 25.1617 2.78534   1
   4  -9   9 25.2938 1.32397   1
  -3 -10   7 22.8716 2.06159  -2
  -4  -8   9 22.8716 2.06159   1
  -2 -10   7 4.24050 4.24477  -2
  -3  -8   9 4.24050 4.24477   1
  -2  -8   9 15.2279 1.18859   1
  -1  -8   9 0.17807 0.82820   1
   0  -8   9 29.0591 1.95516   1
   1  -8   9 15.3593 1.20105   1
   3  -8   8 75.2430 3.22106  -2
   2  -8   9 75.2430 3.22106   1
   4  -8   8 54.6341 3.74180  -2
   3  -8   9 54.6341 3.74180   1
   4  -8   9 2.70658 0.76823   1
   6  -7   9 6.01722 2.71601  -2
   5  -8   9 6.01722 2.71601   1
  -5  -7   9 1.03344 0.83489   1
  -4  -7   9 1.75706 0.62155   1
  -3  -7   9 1.92447 0.59767   1
  -2  -7   9 21.1023 1.42350   1
  -1  -7   9 24.0158 1.47223   1
   0  -7   9 55.4954 2.06906   1
   1  -7   9 162.783 4.24564   1
   2  -7   9 65.2554 2.39104   1
   3  -7   9 51.1077 1.72081   1
   4  -7   9 87.4238 2.52381   1
   5  -7   9 16.7516 1.14969   1
   6  -7   9 1.65755 0.65453   1
  -6  -6   9 1.85538 0.75878   1
  -5  -6   9 30.8437 1.79653   1
  -4  -6   9 13.2214 1.14719   1
  -3  -6   9 131.228 3.08312   1
  -2  -6   9 17.8350 1.37045   1
  -1  -6   9 1.70185 0.48227   1
   0  -6   9 5.20054 0.73188   1
   1  -6   9 75.8377 2.43655   1
   2  -6   9 0.39527 0.64018   1
   3  -6   9 10.7574 0.87624   1
   4  -6   9 52.7480 2.06639   1
   5  -6   9 68.2346 2.13994   1
   6  -6   9 12.2310 0.99632   1
  -6  -5   9 -0.1159 0.84157   1
  -5  -5   9 1.84028 0.70308   1
  -4  -5   9 161.804 3.63472   1
  -3  -5   9 13.3679 0.87925   1
  -2  -5   9 14.6857 1.05004   1
  -1  -5   9 15.4856 0.86676   1
   0  -5   9 11.7699 0.94003   1
   1  -5   9 32.0951 1.48806   1
   2  -5   9 51.0119 1.87816   1
   3  -5   9 224.498 4.80070   1
   4  -5   9 6.93808 0.72744   1
   5  -5   9 52.5084 1.82168   1
   6  -5   9 16.5667 1.29804   1
   7  -5   9 5.63935 0.96662   1
  -6  -4   9 140.277 3.99200   1
  -5  -4   9 40.9084 1.84598   1
  -4  -4   9 390.675 6.88439   1
  -3  -4   9 5.36947 0.58211   1
  -2  -4   9 0.50246 0.48417   1
  -1  -4   9 508.802 8.60221   1
   0  -4   9 84.5183 2.09415   1
   1  -4   9 286.848 6.53797   1
   2  -4   9 172.172 4.25284   1
   3  -4   9 27.0241 1.39219   1
   4  -4   9 0.11752 0.44897   1
   5  -4   9 15.5252 0.99299   1
   6  -4   9 15.8685 1.40656   1
   7  -4   9 1.04833 0.91150   1
  -7  -3   9 28.7817 1.76536   1
  -6  -6   7 132.303 7.22914  -2
  -6  -3   9 132.303 7.22914   1
  -5  -3   9 43.4211 2.24383   1
  -4  -3   9 206.506 3.89395   1
  -3  -3   9 6.08732 0.72206   1
  -2  -3   9 9.70047 0.86145   1
  -1  -3   9 1567.98 28.0608   1
   0  -4   8 2558.50 100.545  -2
   0  -3   9 2558.50 100.545   1
   1  -3   9 413.577 9.08839   1
   2  -3   9 1101.22 22.8838   1
   3  -3   9 411.860 7.75477  -2
   3  -3   9 411.860 7.75477   1
   4  -3   9 0.37702 0.45812   1
   5  -3   9 0.49036 0.40523   1
   6  -3   9 2.40054 0.71103   1
   7  -3   9 1.65243 0.82521   1
   8  -1  10 -1.9224 2.04301  -2
   8  -3   9 -1.9224 2.04301   1
  -7  -5   7 69.2539 3.66353  -2
  -7  -2   9 69.2539 3.66353   1
  -6  -5   7 12.1100 1.46158  -2
  -6  -2   9 12.1100 1.46158   1
  -5  -2   9 83.2392 2.20706   1
  -4  -2   9 60.7789 1.73981   1
  -3  -4   8 2.66618 1.42468  -2
  -3  -2   9 2.66618 1.42468   1
  -2  -2   9 335.264 5.88839   1
  -1  -3   8 16.1576 2.37850  -2
  -1  -2   9 16.1576 2.37850   1
   0  -2   9 1578.44 49.4868   1
   1  -2   9 187.838 4.15660   1
   2  -2   9 773.055 31.2304  -2
   2  -2   9 773.055 31.2304   1
   3  -2   9 1365.40 29.7889  -2
   3  -2   9 1365.40 29.7889   1
   4  -2   9 4.38150 0.49548   1
   5  -2   9 390.979 7.55033   1
   6  -1  10 3.82430 1.32036  -2
   6  -2   9 3.82430 1.32036   1
   7  -2   9 153.290 4.19319   1
   8   0  10 3.77187 4.83444  -2
   8  -2   9 3.77187 4.83444   1
  -7  -4   7 106.071 4.51359  -2
  -7  -1   9 106.071 4.51359   1
  -6  -4   7 3.98050 1.06158  -2
  -6  -1   9 3.98050 1.06158   1
  -5  -1   9 51.3888 1.63093   1
  -4  -1   9 5.29982 0.42699   1
  -3  -3   8 47.2728 1.57548  -2
  -3  -1   9 47.2728 1.57548   1
  -2  -1   9 166.641 3.48217   1
  -1  -1   9 1061.06 21.6335   1
   0  -1   9 1214.98 31.8442   1
   1  -1   9 2.13644 0.46280   1
   2  -1   9 35.1445 1.30856   1
   3  -1   9 -0.1027 0.30959   1
   4  -1   9 16.5068 0.70279   1
   5  -1   9 32.9531 1.46753   1
   6   0  10 40.2652 2.17035  -2
   6  -1   9 40.2652 2.17035   1
   7  -1   9 58.5533 2.32235   1
   8  -1   9 0.79055 0.67850   1
  -7   0   9 17.2894 1.36068   1
  -6   0   9 1.31017 0.78258   1
  -5   0   9 7.54939 0.97101   1
  -4   0   9 32.1478 0.91294   1
  -3   0   9 92.3343 1.83286   1
  -2   0   9 349.169 6.67631   1
  -1   0   9 1243.46 25.2119   1
   0   0   9 2095.20 35.3998   1
   1   0   9 37.3349 1.20971   1
   2   0   9 387.737 7.83975   1
   3   0   9 164.029 2.97424   1
   4   0   9 6.31448 0.47173   1
   5   0   9 121.113 3.31571   1
   6   0   9 173.573 3.96940   1
   7   0   9 20.9989 1.67643   1
   8   0   9 7.33656 0.93848   1
  -7   1   9 17.5741 1.37135   1
  -6   1   9 3.01784 0.77637   1
  -5   1   9 226.744 5.46090   1
  -4   1   9 84.2966 1.95583   1
  -3   1   9 65.8038 1.52279   1
  -2   1   9 10.5430 0.63114   1
  -1   1   9 613.977 10.5409   1
   0   1   9 139.240 2.95735   1
   1   1   9 8.06713 0.63122   1
   2   1   9 209.967 4.23328   1
   3   1   9 277.564 5.97274   1
   4   1   9 501.711 8.47602   1
   5   1   9 31.0422 1.44050   1
   6   1   9 386.853 8.70490   1
   7   1   9 12.8757 1.33353   1
   8   1   9 7.18446 0.91468   1
  -7   2   9 19.9554 1.34466   1
  -6   2   9 30.2444 1.63825   1
  -5   2   9 26.8933 1.89687   1
  -4   2   9 148.935 2.97478   1
  -3   2   9 0.18572 0.48609   1
  -2   2   9 786.335 16.1057   1
  -1   2   9 27.6618 0.90168   1
   0   2   9 874.682 14.7071   1
   1   2   9 1598.81 28.7738   1
   2   2   9 336.394 6.98078   1
   3   2   9 -0.0949 0.33792   1
   4   2   9 0.72432 0.41230   1
   5   2   9 48.6737 1.71832   1
   6   2   9 9.52794 0.92680   1
   7   2   9 6.08530 0.98944   1
   8   2   9 9.68166 0.98437   1
  -7   3   9 8.49055 1.28501   1
  -6   3   9 39.0687 2.32956   1
  -5   3   9 6.63210 0.98053   1
  -4   3   9 85.1472 2.41019   1
  -3   3   9 183.709 4.42642   1
  -2   3   9 66.6798 1.94557   1
  -1   3   9 340.698 6.74876   1
   0   3   9 3.03951 0.49189   1
   1   3   9 526.365 10.0597   1
   2   3   9 329.099 7.97774   1
   3   3   9 222.810 4.32904   1
   4   3   9 417.232 7.82645   1
   5   3   9 108.621 2.89843   1
   6   3   9 37.6306 1.58714   1
   7   3   9 1.80162 0.60866   1
   8   3   9 23.6337 1.53177   1
  -7   4   9 0.56464 0.95666   1
  -6   4   9 42.3960 3.29236   1
  -5   4   9 10.4285 0.92815   1
  -4   4   9 -1.1496 0.62759   1
  -3   4   9 157.785 4.19219   1
  -2   4   9 584.955 13.5241   1
  -1   4   9 1291.87 25.8871   1
  -1   3   9 572.589 25.1081  -2
   0   4   9 572.589 25.1081   1
   1   4   9 399.160 10.1125   1
   2   4   9 0.83240 0.42569   1
   3   4   9 0.41819 0.50923   1
   4   4   9 13.1128 0.75667   1
   5   4   9 28.8435 1.29119   1
   6   4   9 35.9138 1.74796   1
   7   4   9 -0.1424 0.62246   1
   8   4   9 46.9407 2.00474   1
  -7   2   8 16.2137 2.11419  -2
  -6   5   9 16.2137 2.11419   1
  -6   2   8 14.9929 3.44891  -2
  -5   5   9 14.9929 3.44891   1
  -4   5   9 45.4955 2.15119   1
  -3   5   9 228.024 6.25863   1
  -2   5   9 324.521 7.85628   1
  -1   5   9 1182.02 23.6877   1
  -1   4   9 470.433 9.70181  -2
   0   5   9 470.433 9.70181   1
   1   5   9 1491.45 33.5309   1
   2   5   9 341.499 7.58982   1
   2   5  10 155.038 3.56672  -2
   3   5   9 155.038 3.56672   1
   3   5  10 57.7376 3.95147  -2
   4   5   9 57.7376 3.95147   1
   5   5   9 481.962 11.6959   1
   6   6  11 168.718 5.13212  -2
   7   5   9 168.718 5.13212   1
   8   5   9 0.14215 0.81193   1
  -7   3   8 10.5700 2.15925  -2
  -6   6   9 10.5700 2.15925   1
  -5   6   9 29.1733 1.62196   1
  -4   6   9 79.3111 2.97946   1
  -4   4   9 -0.2961 2.08496  -2
  -3   6   9 -0.2961 2.08496   1
  -3   4   9 263.480 7.87511  -2
  -2   6   9 263.480 7.87511   1
  -1   6   9 97.6152 2.23524   1
   0   6   9 24.9148 1.16602   1
   1   6   9 19.2095 1.07682   1
   2   6   9 43.2191 1.51179   1
   2   6  10 25.1039 1.37135  -2
   3   6   9 25.1039 1.37135   1
   4   6   9 0.96605 0.39048   1
   5   6   9 622.275 14.8615   1
   5   7  11 28.3227 2.46964  -2
   6   6   9 28.3227 2.46964   1
   6   7  11 74.4163 3.67698  -2
   7   6   9 74.4163 3.67698   1
   8   6   9 20.5241 3.21158   1
  -6   7   9 13.4976 1.45044   1
  -5   7   9 12.5756 1.12696   1
  -4   7   9 201.128 6.02238   1
  -3   7   9 3.27784 0.80667   1
  -2   7   9 67.0650 2.03399   1
  -1   7   9 0.97322 0.35973   1
   0   7   9 0.74604 0.41215   1
   1   7   9 278.000 6.36178   1
   2   7   9 5.10096 0.59619   1
   3   7   9 9.11067 0.78780   1
   4   7   9 146.769 3.12603   1
   5   7   9 53.5272 2.38448   1
   6   7   9 50.2037 2.70587   1
   7   7   9 -0.0692 0.80033   1
  -5   8   9 32.1881 1.74248   1
  -4   8   9 81.3049 3.21522   1
  -3   8   9 83.9653 3.17105   1
  -2   8   9 2.37794 0.55712   1
  -1   8   9 10.1623 0.85231   1
   0   8   9 90.5777 2.97701   1
   1   8   9 0.56025 0.61192   1
   2   8   9 206.962 5.02618   1
   3   8   9 73.2540 2.25607   1
   4   8   9 391.714 7.44323   1
   5   8   9 3.23044 0.80179   1
   6   8   9 2.96522 0.85336   1
   7   8   9 3.13742 0.93593   1
  -5   9   9 2.21686 0.76788   1
  -4   9   9 5.77260 1.13563   1
  -3   9   9 47.2994 1.77756   1
  -2   9   9 321.677 7.46756   1
  -1   9   9 59.2035 2.08725   1
   0   9   9 329.388 8.36006   1
   1   9   9 32.8462 1.81673   1
   2   9   9 28.2806 1.72838   1
   3   9   9 5.23215 0.64254   1
   4   9   9 17.6927 1.20429   1
   5   9   9 1.68193 0.75634   1
   6   9   9 16.1297 1.39542   1
  -4  10   9 2.90460 0.96315   1
  -3  10   9 22.5315 1.31214   1
  -2  10   9 68.4583 2.34286   1
  -1  10   9 5.45202 0.73860   1
   0  10   9 1.74612 0.80223   1
   1  10   9 65.1589 2.65713   1
   2  10   9 5.63999 0.92509   1
   3  10   9 45.3785 1.81568   1
   4  10   9 162.999 4.11039   1
   5  10   9 -0.2059 0.89806   1
   6  10   9 82.1320 3.89443   1
  -3  11   9 71.5604 3.21316   1
  -2  11   9 6.61375 0.88914   1
  -1  11   9 1.93988 0.62799   1
   0  11   9 77.9105 3.94963   1
  -1  10  10 18.0754 2.09670  -2
   1  11   9 18.0754 2.09670   1
   2  11   9 2.56106 0.70588   1
   3  11   9 17.3541 1.21356   1
   2  11  11 43.2641 2.57464  -2
   4  11   9 43.2641 2.57464   1
   5  11   9 2.25525 0.93595   1
  -4  10  10 0.69156 2.61630  -2
  -2  12   9 0.69156 2.61630   1
  -1  12   9 2.57360 1.24444   1
  -2  11  10 54.6183 4.00947  -2
   0  12   9 54.6183 4.00947   1
  -1  11  10 33.0821 3.28215  -2
   1  12   9 33.0821 3.28215   1
   2  12   9 4.27946 1.26917   1
   1  12  11 121.653 5.64845  -2
   3  12   9 121.653 5.64845   1
   0 -11   8 20.7366 2.68783  -2
  -1 -10  10 20.7366 2.68783   1
   1 -11   8 3.71466 2.50304  -2
   0 -10  10 3.71466 2.50304   1
   1 -10  10 13.4712 1.37773   1
  -3  -9  10 4.50738 1.04909   1
  -2  -9  10 8.03997 0.99078   1
   0 -10   8 6.33542 2.55536  -2
  -1  -9  10 6.33542 2.55536   1
   1 -10   8 8.57767 2.33761  -2
   0  -9  10 8.57767 2.33761   1
   1  -9  10 60.3007 2.47631   1
   3  -9   9 50.7826 2.86100  -2
   2  -9  10 50.7826 2.86100   1
   4  -9   9 1.50680 2.18723  -2
   3  -9  10 1.50680 2.18723   1
  -4  -8  10 17.0443 1.16589   1
  -2 -10   8 49.1311 4.06654  -2
  -3  -8  10 49.1311 4.06654   1
  -2  -8  10 1.03396 0.86549   1
  -1  -8  10 89.9955 2.95679   1
   0  -8  10 0.04589 0.63810   1
   1  -8  10 6.13580 0.92072   1
   2  -8  10 8.46453 0.88967   1
   4  -8   9 39.6200 5.08111  -2
   3  -8  10 39.6200 5.08111   1
   4  -8  10 29.0330 1.49769   1
   5  -8  10 4.25122 1.43692   1
  -5  -7  10 15.3292 1.58165   1
  -4  -7  10 61.8209 2.04923   1
  -3  -7  10 144.632 3.44116   1
  -2  -7  10 91.2442 2.44302   1
  -1  -7  10 281.605 6.71855   1
   0  -7  10 8.47208 1.45508   1
   1  -7  10 4.19164 0.87019   1
   2  -7  10 81.6523 3.01047   1
   3  -7  10 0.21217 0.62297   1
   4  -7  10 28.0970 1.45498   1
   5  -7  10 1.71535 0.84288   1
  -5  -6  10 3.59659 0.81047   1
  -4  -6  10 142.342 3.38272   1
  -3  -6  10 108.873 3.12103   1
  -2  -6  10 100.843 2.56308   1
  -1  -6  10 219.169 4.56348   1
   0  -6  10 64.0645 2.23930   1
   1  -6  10 100.030 2.98999   1
   2  -6  10 61.1916 2.25427   1
   3  -6  10 81.5915 2.48032   1
   4  -6  10 10.6245 0.93057   1
   5  -6  10 37.2208 1.75811   1
   6  -6  10 4.14119 0.73046   1
  -6  -5  10 29.5371 1.80641   1
  -5  -5  10 29.1468 1.70306   1
  -4  -5  10 130.735 3.14140   1
  -3  -5  10 13.6432 0.97390   1
  -2  -5  10 15.6037 0.95335   1
  -1  -5  10 184.984 3.93390   1
   0  -5  10 194.192 4.80678   1
   1  -5  10 3.26100 0.64901   1
   2  -5  10 113.596 3.20723   1
   3  -5  10 148.955 3.51513   1
   4  -5  10 11.5306 0.94510   1
   5  -5  10 62.0362 2.01380   1
   6  -5  10 17.0520 1.37462   1
   7  -5  10 2.37122 1.22704   1
  -6  -4  10 30.1831 1.78239   1
  -5  -4  10 28.2510 1.63356   1
  -4  -4  10 211.390 4.62768   1
  -3  -4  10 13.4136 0.89396   1
  -2  -4  10 157.583 3.47448   1
  -1  -4  10 34.6581 1.19543   1
   0  -4  10 108.188 2.52245   1
   1  -4  10 10.4157 0.91612   1
   2  -4  10 278.128 6.44876   1
   3  -4  10 31.4763 1.55291   1
   4  -4  10 3.30015 0.65053   1
   5  -4  10 0.21222 0.62169   1
   6  -4  10 21.0671 1.71811   1
   7  -4  10 29.7894 1.83678   1
  -6  -6   8 12.5535 3.81478  -2
  -6  -3  10 12.5535 3.81478   1
  -5  -3  10 4.38525 0.77612   1
  -4  -3  10 1.70571 0.51674   1
  -3  -3  10 29.0638 1.22524   1
  -2  -3  10 534.202 10.0536   1
  -1  -3  10 40.1604 1.38993   1
   0  -4   9 71.7225 2.34066  -2
   0  -3  10 71.7225 2.34066   1
   1  -3  10 1.14938 0.58946   1
   2  -3  10 500.422 10.8625   1
   3  -3  10 52.2265 2.47464  -2
   3  -3  10 52.2265 2.47464   1
   4  -3  10 183.974 3.99002   1
   5  -3  10 0.30736 0.41657   1
   6  -2  11 50.5468 3.46928  -2
   6  -3  10 50.5468 3.46928   1
   7  -3  10 5.29394 0.98476   1
  -6  -5   8 8.40024 1.19966  -2
  -6  -2  10 8.40024 1.19966   1
  -5  -5   8 13.3696 2.90631  -2
  -5  -2  10 13.3696 2.90631   1
  -4  -2  10 147.884 3.36899   1
  -3  -4   9 124.468 6.60901  -2
  -3  -2  10 124.468 6.60901   1
  -2  -2  10 1197.40 21.6633   1
  -1  -2  10 23.8404 1.26791   1
   0  -3   9 317.434 9.04015  -2
   0  -2  10 317.434 9.04015   1
   1  -2  10 114.720 3.06406   1
   2  -2  10 58.8827 1.93459   1
   3  -2  10 3.20992 0.98322  -2
   3  -2  10 3.20992 0.98322   1
   4  -2  10 264.880 4.75258   1
   5  -2  10 23.5201 1.00331   1
   6  -1  11 65.7048 3.60826  -2
   6  -2  10 65.7048 3.60826   1
   7  -1  11 4.99508 1.92845  -2
   7  -2  10 4.99508 1.92845   1
   8  -2  10 2.58723 0.83830   1
  -7  -1  10 3.40533 1.57030   1
  -6  -4   8 19.6026 1.67081  -2
  -6  -1  10 19.6026 1.67081   1
  -5  -1  10 40.2788 1.44281   1
  -4  -1  10 303.532 4.99640   1
  -3  -3   9 284.938 6.13296  -2
  -3  -1  10 284.938 6.13296   1
  -2  -1  10 235.123 5.45597   1
  -1  -1  10 121.237 3.15409   1
   0  -1  10 61.0460 2.30647   1
   1  -1  10 1301.48 24.9658   1
   2  -1  10 28.9746 1.12810   1
   3  -1  10 39.0714 1.39595   1
   4  -1  10 740.715 11.8434   1
   5  -1  10 326.975 6.89506   1
   6   0  11 32.1004 3.58227  -2
   6  -1  10 32.1004 3.58227   1
   7  -1  10 10.6733 1.15757   1
   8  -1  10 -0.4929 0.83506   1
  -7   0  10 48.0451 2.48677   1
  -6   0  10 -0.3861 0.60051   1
  -5   0  10 516.732 11.2765   1
  -4   0  10 19.3687 0.74899   1
  -3   0  10 397.718 7.68397   1
  -2   0  10 10.1160 0.66359   1
  -1   0  10 165.382 3.49181   1
   0   0  10 155.917 3.80465   1
   1   0  10 220.663 4.83670   1
   2   0  10 384.037 7.76408   1
   3   0  10 49.8159 1.49963   1
   4   0  10 731.161 12.7911   1
   5   0  10 33.9162 1.35535   1
   6   0  10 56.0127 2.39531   1
   7   0  10 132.654 3.75564   1
   8   0  10 3.88720 0.82427   1
  -7   1  10 54.6778 2.54726   1
  -6   1  10 2.68777 0.72326   1
  -5   1  10 471.239 10.3690   1
  -4   1  10 40.4120 1.27712   1
  -3   1  10 122.514 2.75046   1
  -2   1  10 209.285 4.24884   1
  -1   1  10 320.307 6.21591   1
   0   1  10 477.247 10.2621   1
   1   1  10 1103.13 22.8631   1
   2   1  10 1164.44 24.1607   1
   3   1  10 533.023 9.25635   1
   4   1  10 50.3232 1.43002   1
   5   1  10 257.517 5.94120   1
   6   1  10 1.30170 0.76630   1
   7   1  10 35.5137 1.77192   1
   8   1  10 14.4661 1.19792   1
  -7   2  10 0.75184 1.08083   1
  -6   2  10 9.08068 1.00394   1
  -5   2  10 23.1423 1.46234   1
  -4   2  10 167.583 3.71291   1
  -3   2  10 11.6583 0.91560   1
  -2   2  10 32.1937 1.06002   1
  -1   2  10 0.43541 0.29825   1
   0   2  10 514.709 8.89128   1
   1   2  10 1570.83 32.2789   1
   2   2  10 598.558 12.6903   1
   3   2  10 151.029 3.13912   1
   4   2  10 585.581 10.7050   1
   5   2  10 167.115 4.12023   1
   6   2  10 57.0123 2.30994   1
   7   2  10 8.04936 0.89274   1
   8   2  10 5.76420 0.88432   1
  -6   3  10 1.21502 1.27364   1
  -5   3  10 2.41286 0.53561   1
  -4   3  10 153.819 3.93766   1
  -3   3  10 134.489 3.51465   1
  -2   3  10 0.89532 0.41669   1
  -1   3  10 66.7676 1.79219   1
   0   3  10 61.0604 1.66796   1
   1   3  10 290.552 5.82853   1
   2   3  10 6.83545 0.69105   1
   3   3  10 230.781 4.51989   1
   4   3  10 104.490 2.13468   1
   5   3  10 266.891 6.07608   1
   6   3  10 4.62674 0.79511   1
   7   3  10 -0.1614 0.51772   1
   8   3  10 21.8461 1.42691   1
  -6   4  10 28.4176 2.24710   1
  -6   1   9 43.9807 4.66631  -2
  -5   4  10 43.9807 4.66631   1
  -4   4  10 65.6347 2.18766   1
  -3   4  10 4.34026 0.71258   1
  -2   4  10 0.10220 0.37805   1
  -1   4  10 485.331 9.60887   1
  -1   3  10 456.229 20.2526  -2
   0   4  10 456.229 20.2526   1
   1   4  10 240.013 5.62785   1
   2   4  10 218.390 5.60290   1
   3   4  10 149.325 3.99612   1
   3   4  11 8.72886 1.07680  -2
   4   4  10 8.72886 1.07680   1
   5   4  10 38.7178 1.89549   1
   6   4  10 17.4403 1.19261   1
   6   5  12 13.1050 4.74527  -2
   7   4  10 13.1050 4.74527   1
   8   4  10 1.65991 0.78498   1
  -7   2   9 108.084 4.33544  -2
  -6   5  10 108.084 4.33544   1
  -6   2   9 5.90125 1.30270  -2
  -5   5  10 5.90125 1.30270   1
  -4   5  10 409.993 12.6191   1
  -3   5  10 41.4058 2.45407   1
  -3   3  10 17.8126 0.96938  -2
  -2   5  10 17.8126 0.96938   1
  -1   5  10 47.6276 1.60473   1
  -1   4  10 91.9485 3.42540  -2
   0   5  10 91.9485 3.42540   1
   1   5  10 977.878 20.4327   1
   2   5  10 536.580 12.6460   1
   2   5  11 126.257 4.50683  -2
   3   5  10 126.257 4.50683   1
   3   5  11 109.657 2.47733  -2
   4   5  10 109.657 2.47733   1
   5   5  10 29.3636 1.73891   1
   6   5  10 20.0658 1.72030   1
   6   6  12 128.102 4.28835  -2
   7   5  10 128.102 4.28835   1
   8   5  10 0.58646 0.85080   1
  -7   3   9 28.4378 2.71760  -2
  -6   6  10 28.4378 2.71760   1
  -6   3   9 15.7939 2.03147  -2
  -5   6  10 15.7939 2.03147   1
  -4   6  10 25.3928 2.13889   1
  -3   6  10 7.20858 1.21941   1
  -3   4  10 22.0604 1.41860  -2
  -2   6  10 22.0604 1.41860   1
  -1   6  10 267.280 5.20542   1
   0   6  10 1195.12 34.0192   1
   1   6  10 349.774 8.59052   1
   2   6  10 129.424 3.02996   1
   3   6  10 193.482 6.32684   1
   4   6  10 1.31320 0.37930   1
   5   6  10 2.24142 1.04775   1
   5   7  12 41.1706 5.37236  -2
   6   6  10 41.1706 5.37236   1
   6   7  12 4.44502 2.10666  -2
   7   6  10 4.44502 2.10666   1
  -5   7  10 33.5267 1.80401   1
  -4   7  10 74.4091 3.02482   1
  -3   7  10 -0.4802 0.73859   1
  -2   7  10 26.4070 1.38736   1
  -1   7  10 1.34052 0.39289   1
   0   7  10 297.227 7.51503   1
   1   7  10 234.164 5.54548   1
   2   7  10 211.684 5.05000   1
   3   7  10 163.408 4.56042   1
   4   7  10 167.298 4.06566   1
   5   7  10 44.6096 2.17342   1
   6   7  10 10.4615 1.19211   1
   7   7  10 28.3536 1.88743   1
  -5   8  10 6.60231 1.23294   1
  -4   8  10 1.56914 0.81203   1
  -3   8  10 127.977 5.33744   1
  -2   8  10 100.393 2.85922   1
  -1   8  10 188.624 5.19150   1
   0   8  10 363.030 9.04255   1
   1   8  10 78.7974 2.80236   1
   2   8  10 11.6810 1.10982   1
   3   8  10 2.45944 0.65712   1
   4   8  10 27.8317 1.19486   1
   5   8  10 0.98913 0.68319   1
   6   8  10 7.54387 1.09206   1
   7   8  10 12.3319 1.40806   1
  -4   9  10 0.90461 0.80153   1
  -3   9  10 5.28658 0.68386   1
  -2   9  10 110.346 3.82742   1
  -1   9  10 85.5146 3.00632   1
   0   9  10 341.016 9.04707   1
   1   9  10 37.4273 1.98703   1
   2   9  10 1.80598 0.60999   1
   3   9  10 0.38497 0.58167   1
   4   9  10 19.5429 1.25318   1
   5   9  10 5.72047 0.98936   1
   6   9  10 46.9525 2.62687   1
  -4  10  10 4.78596 1.17988   1
  -3  10  10 0.22962 0.83025   1
  -2  10  10 4.09327 0.75637   1
  -1  10  10 1.36902 0.71916   1
   0  10  10 50.0546 2.33784   1
   1  10  10 110.162 3.68982   1
   2  10  10 62.3835 2.20188   1
   3  10  10 7.02933 0.89368   1
   4  10  10 104.054 3.06473   1
   5  10  10 1.29171 0.88576   1
  -3  11  10 5.14016 1.18035   1
  -4   9  10 0.23611 3.16574  -2
  -2  11  10 0.23611 3.16574   1
  -1  11  10 7.72525 1.02585   1
   0  11  10 52.8493 2.49660   1
  -1  10  11 35.6201 2.50482  -2
   1  11  10 35.6201 2.50482   1
   2  11  10 78.9928 2.58245   1
   3  11  10 66.0611 2.34541   1
   2  11  12 3.34549 1.39790  -2
   4  11  10 3.34549 1.39790   1
  -1  12  10 61.7882 2.85883   1
   0  12  10 -0.2183 0.82442   1
  -1  11  11 23.9154 2.33419  -2
   1  12  10 23.9154 2.33419   1
   2  12  10 17.9062 1.61811   1
   3  12  10 40.3912 2.32701   1
  -2  -9  11 7.89552 1.28010   1
   0 -10   9 4.59391 2.25996  -2
  -1  -9  11 4.59391 2.25996   1
   1 -10   9 27.7183 2.80324  -2
   0  -9  11 27.7183 2.80324   1
   1  -9  11 0.99535 0.67408   1
   3  -9  10 3.41452 3.24203  -2
   2  -9  11 3.41452 3.24203   1
  -2 -10   9 -1.6733 2.68170  -2
  -3  -8  11 -1.6733 2.68170   1
  -2  -8  11 14.4353 1.22751   1
  -1  -8  11 14.1631 1.25311   1
   0  -8  11 10.2808 1.16178   1
   1  -8  11 1.51159 0.78328   1
   2  -8  11 1.52572 0.70501   1
   4  -8  10 62.5935 5.94819  -2
   3  -8  11 62.5935 5.94819   1
   4  -8  11 3.42666 0.77465   1
  -4  -7  11 1.22248 0.54475   1
  -3  -7  11 3.95325 0.71935   1
  -2  -7  11 64.9615 2.05645   1
  -1  -7  11 -0.0262 0.72174   1
   0  -7  11 38.6773 1.95746   1
   1  -7  11 1.58018 0.68774   1
   2  -7  11 22.7765 1.50991   1
   3  -7  11 5.30550 0.81642   1
   4  -7  11 1.81477 0.72540   1
   5  -7  11 1.22514 0.68885   1
  -5  -6  11 0.53036 0.72987   1
  -4  -6  11 7.76531 0.77683   1
  -3  -6  11 47.7459 1.84067   1
  -2  -6  11 33.2535 1.45151   1
  -1  -6  11 5.95463 0.76952   1
   0  -6  11 4.26010 1.00992   1
   1  -6  11 4.38670 0.84756   1
   2  -6  11 27.0982 1.66131   1
   3  -6  11 3.97667 0.77511   1
   4  -6  11 13.0874 1.19861   1
   5  -6  11 3.21283 0.74742   1
   6  -6  11 0.53717 0.59006   1
  -5  -5  11 33.0882 1.77517   1
  -4  -5  11 -0.3543 0.56885   1
  -3  -5  11 175.454 4.10045   1
  -2  -5  11 32.3587 1.42680   1
  -1  -5  11 308.185 6.17106   1
   0  -5  11 171.393 3.72868   1
   1  -5  11 75.3182 2.49543   1
   2  -5  11 55.6410 2.11643   1
   3  -5  11 50.6309 2.40390   1
   4  -5  11 11.5655 0.94996   1
   5  -5  11 2.10880 0.87059   1
   6  -5  11 4.26763 0.93661   1
  -5  -4  11 11.0927 1.09881   1
  -4  -4  11 9.55150 0.88288   1
  -3  -4  11 294.857 6.25149   1
  -2  -4  11 129.102 3.05318   1
  -1  -4  11 5.76366 0.66808   1
   0  -4  11 38.5578 1.37010   1
   1  -4  11 59.8009 2.10136   1
   2  -4  11 230.751 5.56211   1
   3  -4  11 257.236 6.12135   1
   4  -4  11 242.342 5.80127   1
   5  -4  11 19.0128 1.30898   1
   6  -4  11 22.4605 1.53021   1
   7  -4  11 11.1741 1.19820   1
  -6  -6   9 1.49256 1.73394  -2
  -6  -3  11 1.49256 1.73394   1
  -5  -6   9 33.3843 2.74931  -2
  -5  -3  11 33.3843 2.74931   1
  -4  -3  11 240.149 5.11664   1
  -3  -3  11 9.97180 0.82046   1
  -2  -3  11 263.953 5.39839   1
  -1  -3  11 220.980 5.32036   1
   0  -4  10 265.642 6.21423  -2
   0  -3  11 265.642 6.21423   1
   1  -3  11 409.488 9.09470   1
   2  -3  11 119.656 3.28568   1
   3  -3  11 196.579 4.88460  -2
   3  -3  11 196.579 4.88460   1
   4  -3  11 270.566 4.94235  -2
   4  -3  11 270.566 4.94235   1
   5  -3  11 10.6603 0.68262   1
   6  -2  12 61.1047 6.05035  -2
   6  -3  11 61.1047 6.05035   1
   7  -2  12 11.6419 2.14630  -2
   7  -3  11 11.6419 2.14630   1
  -6  -5   9 1.36771 1.25700  -2
  -6  -2  11 1.36771 1.25700   1
  -5  -5   9 2.08456 1.39512  -2
  -5  -2  11 2.08456 1.39512   1
  -4  -2  11 130.186 3.15912   1
  -3  -2  11 42.9827 1.51115   1
  -2  -4  10 86.9417 3.64634  -2
  -2  -2  11 86.9417 3.64634   1
  -1  -2  11 3.05800 0.64819   1
   0  -3  10 306.522 13.5440  -2
   0  -2  11 306.522 13.5440   1
   1  -2  11 897.801 18.8795   1
   2  -2  11 13.7963 1.00423   1
   3  -2  11 251.599 5.88441  -2
   3  -2  11 251.599 5.88441   1
   4  -2  11 13.4472 1.55573  -2
   4  -2  11 13.4472 1.55573   1
   5  -2  11 1.63875 0.54429   1
   6  -1  12 2.36329 1.67324  -2
   6  -2  11 2.36329 1.67324   1
   7  -1  12 6.48276 2.11113  -2
   7  -2  11 6.48276 2.11113   1
  -6  -4   9 16.1952 2.23875  -2
  -6  -1  11 16.1952 2.23875   1
  -5  -1  11 6.13221 0.87697   1
  -4  -1  11 2.16952 0.51662   1
  -3  -1  11 120.896 2.91178   1
  -2  -1  11 35.7465 1.67343   1
  -1  -1  11 252.771 5.87256   1
   0  -1  11 30.6596 1.35520   1
   1  -1  11 748.801 15.8392   1
   2  -1  11 31.6909 1.23353   1
   3  -1  11 434.272 8.79720   1
   4  -1  11 61.7620 1.86338   1
   5  -1  11 1.51983 0.42510   1
   6  -1  11 10.1382 1.05156   1
   7   0  12 41.3739 3.99230  -2
   7  -1  11 41.3739 3.99230   1
  -6   0  11 0.60195 0.73495   1
  -5   0  11 50.7379 2.15933   1
  -4   0  11 84.0499 1.98557   1
  -3   0  11 63.7490 1.79073   1
  -2   0  11 42.0937 1.64340   1
  -1   0  11 271.571 6.24079   1
   0   0  11 15.1513 0.95074   1
   1   0  11 207.275 4.54575   1
   2   0  11 3.13055 0.49686   1
   3   0  11 29.5707 1.21307   1
   4   0  11 -0.0122 0.42137   1
   5   0  11 0.35629 0.46640   1
   6   0  11 7.04603 0.93852   1
   7   0  11 75.4574 2.67155   1
   8   0  11 43.1231 2.17779   1
  -6   1  11 0.29551 0.69850   1
  -5   1  11 11.2869 1.17092   1
  -4   1  11 7.38181 0.76518   1
  -3   1  11 139.342 3.10991   1
  -2   1  11 200.939 4.15976   1
  -1   1  11 136.615 3.49382   1
   0   1  11 7.18837 0.69724   1
   1   1  11 38.9560 1.47306   1
   2   1  11 211.039 4.95503   1
   3   1  11 797.799 18.3704   1
   4   1  11 0.09976 0.39068   1
   5   1  11 5.86129 0.82748   1
   6   1  11 -0.8495 0.63006   1
   7   1  11 2.91140 0.79336   1
   8   1  11 3.90262 0.86801   1
  -6   2  11 5.24704 0.94285   1
  -5   2  11 63.1574 2.38700   1
  -4   2  11 77.3666 2.21682   1
  -3   2  11 674.917 14.4780   1
  -2   2  11 56.3307 1.61670   1
  -1   2  11 948.436 17.3626   1
   0   2  11 5.65167 0.56662   1
   1   2  11 -0.1343 0.40109   1
   2   2  11 174.388 4.20756   1
   3   2  11 54.2071 1.74655   1
   4   2  11 30.5238 1.11816   1
   5   2  11 15.1868 1.10392   1
   6   2  11 1.12531 0.65790   1
   7   2  11 21.8220 1.41719   1
   8   2  11 0.19989 0.71108   1
  -6   3  11 5.35244 0.91074   1
  -5   3  11 -0.3745 0.53601   1
  -4   3  11 152.980 4.03071   1
  -3   3  11 324.601 9.01986   1
  -2   3  11 0.50462 0.41571   1
  -1   3  11 80.9046 2.37233   1
   0   3  11 900.430 17.0254   1
   1   3  11 20.0119 0.90739   1
   2   3  11 537.677 11.5274   1
   3   3  11 38.0840 1.38359   1
   4   3  11 60.2716 1.81275   1
   5   3  11 189.581 4.62080   1
   6   3  11 1.57221 0.60380   1
   7   3  11 18.0188 1.26293   1
   8   3  11 1.81738 0.70343   1
  -6   4  11 22.6928 2.00898   1
  -6   1  10 20.4701 1.31205  -2
  -5   4  11 20.4701 1.31205   1
  -4   4  11 327.488 7.62783   1
  -3   4  11 39.3321 1.69956   1
  -2   4  11 12.9931 0.88467   1
  -1   4  11 24.4402 1.07702   1
   0   4  11 469.393 9.18897   1
   0   3  11 201.406 4.45153  -2
   1   4  11 201.406 4.45153   1
   2   4  11 201.148 5.31577   1
   3   4  11 48.4063 1.93224   1
   3   4  12 10.6044 1.14942  -2
   4   4  11 10.6044 1.14942   1
   5   4  11 1.04713 0.73654   1
   6   4  11 47.7776 1.79941   1
   6   5  13 53.0161 3.58321  -2
   7   4  11 53.0161 3.58321   1
   8   4  11 37.1441 2.22239   1
  -7   2  10 32.1408 3.93350  -2
  -6   5  11 32.1408 3.93350   1
  -6   2  10 2.65593 0.90038  -2
  -5   5  11 2.65593 0.90038   1
  -4   5  11 85.9445 4.30144   1
  -3   5  11 9.25985 1.35438   1
  -3   3  11 78.5974 2.39876  -2
  -2   5  11 78.5974 2.39876   1
  -1   5  11 94.6366 2.55128   1
   0   5  11 7.53099 0.75754   1
   1   5  11 125.662 3.33507   1
   2   5  11 704.746 16.4104   1
   3   5  11 241.295 6.22171   1
   3   5  12 9.24801 1.03505  -2
   4   5  11 9.24801 1.03505   1
   5   5  11 0.07990 0.83502   1
   6   5  11 45.3113 2.18863   1
   6   6  13 58.1503 2.75861  -2
   7   5  11 58.1503 2.75861   1
  -6   3  10 33.7335 2.62170  -2
  -5   6  11 33.7335 2.62170   1
  -4   6  11 26.5955 2.15823   1
  -3   6  11 88.6726 4.03575   1
  -3   4  11 214.157 6.74297  -2
  -2   6  11 214.157 6.74297   1
  -1   6  11 20.1408 1.06772   1
   0   6  11 8.44259 0.76548   1
   1   6  11 17.1107 1.28701   1
   2   6  11 306.882 6.42245   1
   3   6  11 283.219 7.22186   1
   4   6  11 3.98145 0.55087   1
   5   6  11 10.2824 1.12709   1
   6   6  11 63.6238 2.65762   1
   6   7  13 18.2848 2.64232  -2
   7   6  11 18.2848 2.64232   1
  -5   7  11 4.28423 1.12130   1
  -4   7  11 110.230 4.68685   1
  -3   7  11 24.2937 2.17320   1
  -2   7  11 368.724 9.43364   1
  -1   7  11 77.0039 2.70428   1
   0   7  11 0.75545 0.66427   1
   1   7  11 1.69046 0.67631   1
   2   7  11 17.7440 1.07950   1
   3   7  11 -0.1947 0.76352   1
   4   7  11 150.046 4.25065   1
   5   7  11 0.48587 0.71789   1
   6   7  11 62.6450 2.68651   1
   7   7  11 4.96135 1.10584   1
  -4   8  11 -0.6070 0.87714   1
  -3   8  11 20.9330 2.09338   1
  -2   8  11 40.8584 1.92553   1
  -1   8  11 211.705 5.58511   1
   0   8  11 117.797 3.72930   1
   1   8  11 187.032 5.27413   1
   2   8  11 1.19178 0.65089   1
   3   8  11 47.4445 2.16475   1
   4   8  11 95.9149 2.77120   1
   5   8  11 7.43307 1.33160   1
   6   8  11 1.36882 0.84274   1
  -4   9  11 0.21523 0.81513   1
  -3   9  11 75.8995 3.91526   1
  -2   9  11 -0.1306 0.77733   1
  -1   9  11 7.67213 1.01388   1
   0   9  11 7.41819 1.08375   1
   1   9  11 0.69461 0.78664   1
   2   9  11 69.8939 2.71113   1
   3   9  11 13.6725 1.13484   1
   4   9  11 40.3277 1.78971   1
   5   9  11 55.6615 2.73432   1
   6   9  11 125.534 4.40540   1
  -3  10  11 -0.9934 1.02928   1
  -2  10  11 69.0818 2.73818   1
  -1  10  11 0.97164 0.74043   1
   0  10  11 79.7126 3.03215   1
   1  10  11 90.8112 3.32353   1
   2  10  11 220.382 6.33568   1
   3  10  11 63.4413 2.35242   1
   4  10  11 46.7069 2.03489   1
   5  10  11 57.0161 2.67605   1
  -2  11  11 7.71812 1.24012   1
  -3   9  12 14.8196 4.37526  -2
  -1  11  11 14.8196 4.37526   1
   0  11  11 20.0658 1.88488   1
  -1  10  12 105.391 3.94590  -2
   1  11  11 105.391 3.94590   1
   2  11  11 48.6918 2.10508   1
   3  11  11 5.39707 0.94083   1
   2  11  13 63.9335 3.30744  -2
   4  11  11 63.9335 3.30744   1
   0  12  11 9.96041 1.61730   1
  -1  11  12 39.2377 3.20377  -2
   1  12  11 39.2377 3.20377   1
   2  12  11 4.72938 1.32986   1
  -2  -8  12 19.6207 1.50786   1
  -1  -8  12 4.11575 0.90274   1
   0  -8  12 123.271 3.79799   1
   1  -8  12 6.25378 1.04387   1
   2  -8  12 28.1875 1.53965   1
   3  -8  12 0.45353 0.62258   1
  -3  -7  12 3.98985 0.65847   1
  -2  -7  12 52.1758 1.88801   1
  -1  -7  12 5.92378 0.95698   1
   0  -7  12 88.5451 3.02000   1
   1  -7  12 0.71229 0.69552   1
   2  -7  12 22.8740 1.59696   1
   3  -7  12 4.22844 0.81563   1
   4  -7  12 2.16030 0.74851   1
  -4  -6  12 0.07876 0.50377   1
  -3  -6  12 63.1515 2.07230   1
  -2  -6  12 13.9768 0.99539   1
  -1  -6  12 25.5985 1.29306   1
   0  -6  12 56.2998 2.30626   1
   1  -6  12 5.61470 0.90599   1
   2  -6  12 2.26298 0.80938   1
   3  -6  12 10.5404 0.96792   1
   4  -6  12 22.7016 1.42464   1
   5  -6  12 14.8199 1.11869   1
  -4  -5  12 0.02240 0.52987   1
  -3  -5  12 79.0782 2.35554   1
  -2  -5  12 36.0720 1.53612   1
  -1  -5  12 384.435 7.61607   1
   0  -5  12 33.0860 1.40635   1
   1  -5  12 3.78663 1.05933   1
   2  -5  12 9.02642 1.21237   1
   3  -5  12 16.3583 1.49387   1
   4  -5  12 79.7085 2.42780   1
   5  -5  12 3.67248 0.74351   1
   6  -5  12 7.08882 0.80236   1
  -5  -4  12 0.68671 0.66274   1
  -4  -4  12 4.58977 0.69003   1
  -3  -4  12 14.0860 1.02206   1
  -2  -4  12 36.6756 1.59177   1
  -1  -4  12 176.233 3.58312   1
   0  -4  12 3.52412 0.60224   1
   1  -5  11 38.4177 2.02559  -2
   1  -4  12 38.4177 2.02559   1
   2  -4  12 17.3022 1.24886   1
   3  -4  12 37.6112 1.93608   1
   4  -4  12 155.824 8.90585  -2
   4  -4  12 155.824 8.90585   1
   5  -4  12 8.54527 0.84693   1
   6  -4  12 16.3275 1.36623   1
  -5  -6  10 19.3486 1.71143  -2
  -5  -3  12 19.3486 1.71143   1
  -4  -3  12 -0.4007 0.53032   1
  -3  -3  12 41.8305 1.67362   1
  -2  -3  12 8.63290 0.93602   1
  -1  -3  12 72.7535 2.07969   1
   0  -4  11 3.65022 1.11321  -2
   0  -3  12 3.65022 1.11321   1
   1  -4  11 190.288 5.28067  -2
   1  -3  12 190.288 5.28067   1
   2  -3  12 11.1565 0.98309   1
   3  -3  12 -0.1005 1.36009  -2
   3  -3  12 -0.1005 1.36009   1
   4  -3  12 3.62406 1.54567  -2
   4  -3  12 3.62406 1.54567   1
   5  -3  12 25.2632 1.37298   1
   6  -2  13 10.0544 4.76116  -2
   6  -3  12 10.0544 4.76116   1
   7  -3  12 9.55450 1.14703   1
  -6  -5  10 7.38937 2.33716  -2
  -6  -2  12 7.38937 2.33716   1
  -5  -5  10 41.2535 2.04160  -2
  -5  -2  12 41.2535 2.04160   1
  -4  -2  12 36.6245 1.57770   1
  -3  -2  12 80.8849 2.33348   1
  -2  -4  11 19.5668 1.28790  -2
  -2  -2  12 19.5668 1.28790   1
  -1  -2  12 125.435 3.43550   1
   0  -2  12 2.74886 0.64217   1
   1  -2  12 16.0034 1.13769   1
   2  -2  12 28.4171 1.40138   1
   3  -2  12 31.2319 2.54052  -2
   3  -2  12 31.2319 2.54052   1
   4  -2  12 28.7493 2.21498  -2
   4  -2  12 28.7493 2.21498   1
   5  -2  12 0.64433 0.54262   1
   6  -1  13 100.061 7.57057  -2
   6  -2  12 100.061 7.57057   1
   7  -1  13 7.32518 1.71047  -2
   7  -2  12 7.32518 1.71047   1
  -6  -4  10 16.5230 3.48799  -2
  -6  -1  12 16.5230 3.48799   1
  -5  -1  12 8.35384 0.99377   1
  -4  -1  12 105.179 2.75117   1
  -3  -1  12 88.6885 2.40645   1
  -2  -1  12 461.348 10.1917   1
  -1  -1  12 238.689 5.67715   1
   0  -1  12 242.944 5.73416   1
   1  -1  12 -0.3712 0.48303   1
   2  -1  12 87.5318 2.55944   1
   3  -1  12 12.7341 0.94597   1
   4  -1  12 206.763 4.53157   1
   5  -1  12 136.535 3.04976   1
   6  -1  12 1.34204 0.75354   1
   7  -1  12 4.45712 0.97889   1
  -6   0  12 -0.2146 0.69075   1
  -5   0  12 38.3717 1.90164   1
  -4   0  12 259.512 5.47034   1
  -3   0  12 36.8254 1.48123   1
  -2   0  12 482.098 10.5970   1
  -1   0  12 1.44432 0.55681   1
   0   0  12 218.414 5.22258   1
   1   0  12 4.96309 0.66980   1
   2   0  12 0.40035 0.38737   1
   3   0  12 945.144 19.8354   1
   4   0  12 93.4013 2.43158   1
   5   0  12 259.758 5.90381   1
   6   0  12 4.69182 0.85292   1
   7   0  12 2.54802 0.96818   1
  -6   1  12 29.0340 1.79316   1
  -5   1  12 18.3631 1.36949   1
  -4   1  12 9.91356 0.89884   1
  -3   1  12 0.73272 0.57744   1
  -2   1  12 60.3473 2.05679   1
  -1   1  12 205.931 5.27521   1
   0   1  12 71.3592 2.25505   1
   1   1  12 290.554 6.63719   1
   2   1  12 49.8138 1.75134   1
   3   1  12 417.684 9.18533   1
   4   1  12 195.968 4.68633   1
   5   1  12 165.346 5.01203   1
   6   1  12 26.8794 1.55430   1
   7   1  12 2.99692 0.80655   1
  -6   2  12 38.1842 2.01065   1
  -5   2  12 0.06502 0.54760   1
  -4   2  12 136.866 3.31618   1
  -3   2  12 58.4425 2.20002   1
  -2   2  12 73.1590 1.93069   1
  -1   2  12 233.892 5.54728   1
   0   2  12 21.3553 1.21040   1
   1   2  12 22.1914 1.16616   1
   2   2  12 289.564 6.59634   1
   3   2  12 8.72124 0.78316   1
   4   2  12 2.37025 0.56338   1
   5   2  12 1.42402 0.76340   1
   6   2  12 17.4064 1.22536   1
   7   2  12 1.07332 0.72817   1
  -6   3  12 48.8639 2.34986   1
  -5   3  12 7.52868 0.75524   1
  -4   3  12 0.51169 0.63479   1
  -3   3  12 67.5090 2.37805   1
  -2   3  12 185.828 4.58281   1
  -1   3  12 0.67622 0.52273   1
   0   3  12 356.054 7.18074   1
   1   3  12 1.25675 0.49376   1
   2   3  12 445.437 9.74388   1
   3   3  12 0.88529 0.45301   1
   4   3  12 41.2105 1.45975   1
   5   3  12 51.4615 2.59707   1
   6   3  12 2.65646 0.71177   1
   7   3  12 3.74310 0.82871   1
  -6   4  12 6.87524 2.05653   1
  -6   1  11 19.5638 1.54667  -2
  -5   4  12 19.5638 1.54667   1
  -5   1  11 28.0457 3.04802  -2
  -4   4  12 28.0457 3.04802   1
  -3   4  12 254.933 6.12315   1
  -2   4  12 168.110 4.23415   1
  -1   4  12 252.366 5.94968   1
   0   4  12 76.7687 2.07850   1
   0   3  12 193.692 4.11733  -2
   1   4  12 193.692 4.11733   1
   2   4  12 104.180 2.87415   1
   3   4  12 5.29778 0.80348   1
   3   4  13 343.593 10.5050  -2
   4   4  12 343.593 10.5050   1
   4   4  13 56.1836 3.75143  -2
   5   4  12 56.1836 3.75143   1
   6   4  12 6.14550 0.75051   1
   6   5  14 21.8892 2.86531  -2
   7   4  12 21.8892 2.86531   1
  -6   2  11 16.2148 1.39321  -2
  -5   5  12 16.2148 1.39321   1
  -5   2  11 28.4355 2.00128  -2
  -4   5  12 28.4355 2.00128   1
  -3   5  12 39.3710 1.93607   1
  -3   3  12 135.696 3.63426  -2
  -2   5  12 135.696 3.63426   1
  -2   3  12 35.4873 1.94324  -2
  -1   5  12 35.4873 1.94324   1
   0   5  12 39.6228 1.42810   1
   0   4  12 92.9602 5.68137  -2
   1   5  12 92.9602 5.68137   1
   2   5  12 297.349 7.55060   1
   3   5  12 69.9243 2.54546   1
   3   5  13 663.395 19.1290  -2
   4   5  12 663.395 19.1290   1
   5   5  12 2.12952 0.80515   1
   6   5  12 16.3212 1.41246   1
   6   6  14 3.54682 1.75927  -2
   7   5  12 3.54682 1.75927   1
  -6   3  11 31.6450 4.16915  -2
  -5   6  12 31.6450 4.16915   1
  -4   6  12 41.1573 2.44976   1
  -3   6  12 4.50590 1.19402   1
  -2   6  12 260.990 7.08757   1
  -1   6  12 0.54161 0.50468   1
   0   6  12 111.954 3.17442   1
   1   6  12 142.544 3.79273   1
   2   6  12 389.155 9.62202   1
   3   6  12 105.096 3.37936   1
   4   6  12 100.431 3.29201   1
   5   6  12 -0.2747 0.63731   1
   6   6  12 3.67707 0.98492   1
   6   7  14 16.1529 5.65544  -2
   7   6  12 16.1529 5.65544   1
  -5   7  12 21.6544 2.25907   1
  -4   7  12 62.4315 3.47179   1
  -3   7  12 0.62646 0.86133   1
  -2   7  12 208.151 5.68287   1
  -1   7  12 12.1150 1.03874   1
   0   7  12 139.656 4.17959   1
   1   7  12 1033.36 23.8380   1
   2   7  12 35.8279 1.38044   1
   3   7  12 250.013 6.63495   1
   4   7  12 45.1549 1.82255   1
   5   7  12 14.0170 1.32535   1
   6   7  12 0.24480 0.82643   1
  -4   8  12 -0.2732 1.01169   1
  -3   8  12 48.1617 3.09811   1
  -2   8  12 1.19081 0.68358   1
  -1   8  12 17.3000 1.35190   1
   0   8  12 1.70377 0.79179   1
   1   8  12 551.420 13.3646   1
   2   8  12 0.20901 0.54600   1
   3   8  12 8.55216 1.32845   1
   4   8  12 77.4092 2.63330   1
   5   8  12 14.5048 1.45258   1
   6   8  12 3.14337 1.02737   1
  -3   9  12 38.1625 2.86316   1
  -2   9  12 -0.3365 0.65178   1
  -1   9  12 5.34798 0.89124   1
   0   9  12 18.2321 1.49774   1
   1   9  12 30.4236 1.94835   1
   2   9  12 6.08597 1.03950   1
   3   9  12 179.221 4.60325   1
   4   9  12 3.46187 0.81600   1
   5   9  12 -1.3294 0.86603   1
  -2  10  12 22.8790 1.60337   1
  -1  10  12 23.1357 1.66580   1
   0  10  12 1.88052 0.83464   1
   1  10  12 36.0487 2.07661   1
   2  10  12 6.91751 1.19027   1
   3  10  12 106.011 3.23665   1
   4  10  12 81.2018 2.79995   1
   3  10  14 -6.5073 3.91666  -2
   5  10  12 -6.5073 3.91666   1
  -3   9  13 21.9157 2.89565  -2
  -1  11  12 21.9157 2.89565   1
   0  11  12 24.2607 1.76227   1
  -1  10  13 73.3487 3.28978  -2
   1  11  12 73.3487 3.28978   1
   0  10  13 24.4079 2.14064  -2
   2  11  12 24.4079 2.14064   1
   3  11  12 32.7810 1.77197   1
   0  -8  13 15.3976 1.68106   1
   1  -8  13 3.60024 1.02869   1
  -2  -7  13 1.24764 0.57853   1
  -1  -7  13 10.8925 1.14790   1
   0  -7  13 -0.2609 0.88331   1
   1  -7  13 4.55415 0.96838   1
   2  -7  13 34.7263 2.04293   1
   3  -7  13 0.13542 0.67536   1
  -3  -6  13 2.52552 0.64690   1
  -2  -6  13 20.1739 1.17697   1
  -1  -6  13 -0.3932 0.51702   1
   0  -6  13 48.6090 2.19672   1
   1  -6  13 0.06727 0.73545   1
   2  -6  13 159.391 4.49170   1
   3  -6  13 0.97151 0.74825   1
   4  -6  13 26.1712 1.46625   1
  -4  -5  13 36.1193 1.58800   1
  -3  -5  13 8.32185 1.00523   1
  -2  -5  13 10.2858 0.88616   1
  -1  -5  13 5.52785 0.79754   1
   0  -5  13 184.293 4.89776   1
   1  -5  13 89.5887 3.16520   1
   2  -5  13 65.3892 2.48710   1
   3  -5  13 4.85229 0.88784   1
   4  -5  13 42.8459 1.84779   1
   5  -5  13 34.2745 1.68948   1
  -4  -4  13 15.4208 1.06447   1
  -3  -4  13 3.59262 0.68168   1
  -2  -4  13 23.1116 1.26898   1
  -1  -4  13 425.086 8.30229   1
   0  -4  13 20.3458 1.26331   1
   1  -5  12 227.730 7.67681  -2
   1  -4  13 227.730 7.67681   1
   2  -4  13 22.4851 1.55203   1
   3  -4  13 10.5617 1.25198   1
   4  -4  13 4.42227 2.59662  -2
   4  -4  13 4.42227 2.59662   1
   5  -4  13 7.68897 0.89597   1
   6  -4  13 1.41546 0.86081   1
  -5  -6  11 19.0428 1.79228  -2
  -5  -3  13 19.0428 1.79228   1
  -4  -6  11 7.08039 2.86769  -2
  -4  -3  13 7.08039 2.86769   1
  -3  -3  13 12.7584 0.98852   1
  -2  -3  13 -0.5843 0.50265   1
  -1  -3  13 440.472 9.60978   1
   0  -4  12 39.6731 3.77851  -2
   0  -3  13 39.6731 3.77851   1
   1  -4  12 50.2704 2.16965  -2
   1  -3  13 50.2704 2.16965   1
   2  -3  13 20.7816 1.34512   1
   3  -3  13 3.47702 3.75315  -2
   3  -3  13 3.47702 3.75315   1
   4  -3  13 83.7768 3.50345  -2
   4  -3  13 83.7768 3.50345   1
   5  -3  13 12.4547 2.24415  -2
   5  -3  13 12.4547 2.24415   1
   6  -3  13 14.2830 1.30102   1
  -5  -5  11 26.5967 1.81904  -2
  -5  -2  13 26.5967 1.81904   1
  -4  -2  13 4.26058 0.67659   1
  -3  -2  13 39.1849 1.61051   1
  -2  -4  12 116.277 4.42656  -2
  -2  -2  13 116.277 4.42656   1
  -1  -2  13 63.1903 2.27161   1
   0  -2  13 4.14537 0.69153   1
   1  -2  13 64.3197 2.26303   1
   2  -2  13 5.70633 0.77445   1
   3  -2  13 13.3970 1.10489   1
   4  -2  13 6.31408 2.50715  -2
   4  -2  13 6.31408 2.50715   1
   5  -2  13 4.22823 0.69256   1
   6  -2  13 40.9268 2.10159   1
  -5  -1  13 2.51588 0.80577   1
  -4  -1  13 7.87803 0.80510   1
  -3  -1  13 66.7968 2.33681   1
  -2  -1  13 41.2488 1.78581   1
  -1  -1  13 118.826 3.34430   1
   0  -1  13 -0.2204 0.52774   1
   1  -1  13 128.172 3.50520   1
   2  -1  13 -0.3182 0.46833   1
   3  -1  13 29.1727 1.49826   1
   4  -1  13 0.45315 0.61478   1
   5  -1  13 57.8744 1.91798   1
   6  -1  13 2.10160 0.83070   1
   7  -1  13 11.6879 1.19707   1
  -5   0  13 70.7814 2.63843   1
  -4   0  13 34.4866 1.52859   1
  -3   0  13 17.5480 1.15494   1
  -2   0  13 237.504 5.73580   1
  -1   0  13 1.66287 0.62095   1
   0   0  13 302.650 7.02249   1
   1   0  13 82.5913 2.54208   1
   2   0  13 29.0859 1.39775   1
   3   0  13 27.3604 1.28947   1
   4   0  13 28.8424 1.33943   1
   5   0  13 -0.8548 0.68442   1
   6   0  13 0.76497 0.69298   1
   7   0  13 1.21207 0.84504   1
  -5   1  13 6.35859 0.97886   1
  -4   1  13 57.8775 1.94906   1
  -3   1  13 6.70610 0.86572   1
  -2   1  13 297.121 8.39522   1
  -1   1  13 29.4982 1.51408   1
   0   1  13 1033.29 21.7014   1
   1   1  13 83.9299 2.55536   1
   2   1  13 36.3332 1.52864   1
   3   1  13 18.0131 1.12739   1
   4   1  13 143.348 3.66324   1
   5   1  13 33.1482 1.43548   1
   6   1  13 5.40980 0.87698   1
   7   1  13 10.1601 1.24851   1
  -5   2  13 51.2502 1.80998   1
  -4   2  13 19.4844 1.18504   1
  -3   2  13 34.7719 1.72270   1
  -2   2  13 272.970 6.42732   1
  -1   2  13 22.1160 1.34390   1
   0   2  13 378.990 8.52237   1
   1   2  13 66.3796 2.19418   1
   2   2  13 1.29151 0.52249   1
   3   2  13 21.9816 1.21535   1
   4   2  13 74.3640 2.28261   1
   5   2  13 129.974 3.62314   1
   6   2  13 13.0616 1.11828   1
   7   2  13 56.5413 2.41429   1
  -5   3  13 7.36483 0.79837   1
  -4   3  13 0.52545 0.60657   1
  -3   3  13 212.814 5.00239   1
  -2   3  13 110.993 3.15102   1
  -1   3  13 477.322 10.5431   1
   0   3  13 1.71598 0.60347   1
   0   2  13 340.520 14.7931  -2
   1   3  13 340.520 14.7931   1
   2   3  13 41.4800 1.66070   1
   3   3  13 11.2955 0.89463   1
   3   3  14 53.1298 3.68293  -2
   4   3  13 53.1298 3.68293   1
   4   3  14 56.8316 5.98128  -2
   5   3  13 56.8316 5.98128   1
   6   3  13 21.7496 1.65277   1
   7   3  13 36.7345 1.92557   1
  -6   1  12 5.45375 1.24210  -2
  -5   4  13 5.45375 1.24210   1
  -5   1  12 34.1852 1.78947  -2
  -4   4  13 34.1852 1.78947   1
  -3   4  13 152.069 4.43748   1
  -2   4  13 13.1251 1.03011   1
  -1   4  13 95.4242 3.59216   1
   0   4  13 73.7078 2.08390   1
   0   3  13 6.05105 1.05457  -2
   1   4  13 6.05105 1.05457   1
   2   4  13 98.6135 2.82240   1
   3   4  13 90.2716 3.01542   1
   3   4  14 333.770 10.2883  -2
   4   4  13 333.770 10.2883   1
   4   4  14 0.18305 1.43463  -2
   5   4  13 0.18305 1.43463   1
   6   4  13 58.1928 2.63450   1
   7   4  13 11.7339 2.35870   1
  -6   2  12 7.91230 1.33441  -2
  -5   5  13 7.91230 1.33441   1
  -5   2  12 4.78349 2.29476  -2
  -4   5  13 4.78349 2.29476   1
  -3   5  13 0.98994 0.65930   1
  -2   5  13 51.1302 2.18334   1
  -2   3  13 346.248 9.63716  -2
  -1   5  13 346.248 9.63716   1
   0   5  13 14.8036 0.93163   1
   1   5  13 17.4385 1.17611   1
   2   5  13 0.59187 0.46101   1
   3   5  13 28.6039 1.63763   1
   3   5  14 189.794 8.90778  -2
   4   5  13 189.794 8.90778   1
   5   5  13 3.52955 0.91514   1
   6   5  13 0.24959 0.72517   1
   7   5  13 -0.1536 1.05515   1
  -4   6  13 23.3528 1.96778   1
  -3   6  13 64.1168 3.00693   1
  -2   6  13 5.85157 0.79795   1
  -1   6  13 172.633 4.77136   1
   0   6  13 209.252 5.22220   1
   1   6  13 52.3284 2.01372   1
   2   6  13 22.9603 1.05823   1
   3   6  13 24.7680 1.60201   1
   4   6  13 4.68797 0.89549   1
   5   6  13 2.36442 0.85915   1
   6   6  13 63.1460 3.65198   1
  -4   7  13 60.0484 3.07854   1
  -3   7  13 29.7614 2.55601   1
  -2   7  13 10.3802 1.01176   1
  -1   7  13 53.1888 2.23118   1
   0   7  13 0.64740 0.65693   1
   1   7  13 0.33448 0.61432   1
   2   7  13 19.9918 1.36089   1
   3   7  13 59.5842 2.99007   1
   4   7  13 23.5326 1.45208   1
   5   7  13 13.8598 1.40425   1
   6   7  13 85.0204 3.41016   1
  -3   8  13 75.6457 3.93803   1
  -2   8  13 105.533 3.47877   1
  -1   8  13 48.9870 2.23253   1
   0   8  13 198.900 5.64878   1
   1   8  13 -0.1094 0.61872   1
   2   8  13 -0.4076 0.77330   1
   3   8  13 35.7061 2.04157   1
   4   8  13 23.5510 1.44357   1
   5   8  13 83.0404 3.34278   1
   6   8  13 12.3008 1.55870   1
  -3   9  13 7.00089 1.70428   1
  -2   9  13 4.29986 0.90826   1
  -1   9  13 1.19590 0.72378   1
   0   9  13 0.12163 0.74203   1
   1   9  13 25.9069 1.77390   1
   2   9  13 4.99781 0.84910   1
   3   9  13 382.300 9.83120   1
   4   9  13 6.31597 0.92457   1
   5   9  13 90.6024 3.58587   1
  -2  10  13 3.72336 1.80874   1
  -1  10  13 78.3298 3.09779   1
   0  10  13 0.96792 0.76495   1
   1  10  13 0.74566 0.78481   1
   0   9  14 43.0366 4.11306  -2
   2  10  13 43.0366 4.11306   1
   3  10  13 57.5967 2.77418   1
   4  10  13 -0.1660 0.68940   1
   0  11  13 19.0046 1.97396   1
   1  11  13 -0.7046 0.83732   1
   0  10  14 63.9617 3.01572  -2
   2  11  13 63.9617 3.01572   1
  -1  -7  14 0.21819 1.11467   1
   0  -7  14 4.23015 1.02112   1
   1  -7  14 19.5753 1.54059   1
   2  -7  14 -0.3201 1.07892   1
  -2  -6  14 8.01434 0.82226   1
  -1  -6  14 43.7171 1.69718   1
   0  -6  14 6.71204 1.01721   1
   1  -6  14 12.0936 1.23118   1
   2  -6  14 34.6843 2.01538   1
   3  -6  14 0.52977 0.68586   1
  -3  -5  14 77.0582 2.43458   1
  -2  -5  14 -0.2604 0.54555   1
  -1  -5  14 18.0910 1.10341   1
   0  -5  14 2.86351 0.72349   1
   1  -5  14 30.4608 1.78373   1
   2  -5  14 2.17452 0.87236   1
   3  -5  14 2.82352 0.81284   1
   4  -5  14 3.63567 0.82278   1
  -4  -4  14 44.0656 1.89341   1
  -3  -4  14 43.9634 1.85151   1
  -2  -4  14 4.68631 0.71377   1
  -1  -4  14 0.60718 0.55049   1
   0  -4  14 3.59003 0.72301   1
   1  -5  13 34.6880 1.60043  -2
   1  -4  14 34.6880 1.60043   1
   2  -5  13 6.04035 2.60414  -2
   2  -4  14 6.04035 2.60414   1
   3  -4  14 0.88806 0.68905   1
   4  -4  14 28.1418 1.95278  -2
   4  -4  14 28.1418 1.95278   1
   5  -4  14 30.3754 3.38668  -2
   5  -4  14 30.3754 3.38668   1
  -4  -6  12 42.2776 2.04670  -2
  -4  -3  14 42.2776 2.04670   1
  -3  -3  14 51.0240 1.93786   1
  -2  -3  14 0.49909 0.50974   1
  -1  -5  13 0.16141 2.02207  -2
  -1  -3  14 0.16141 2.02207   1
   0  -3  14 6.48162 0.90146   1
   1  -4  13 21.1106 4.85938  -2
   1  -3  14 21.1106 4.85938   1
   2  -3  14 9.59207 1.11920   1
   3  -3  14 76.4911 2.72169   1
   4  -3  14 3.64771 1.56182  -2
   4  -3  14 3.64771 1.56182   1
   5  -3  14 12.2621 1.66832  -2
   5  -3  14 12.2621 1.66832   1
   6  -3  14 0.35708 0.83131   1
  -4  -2  14 33.1148 1.55541   1
  -3  -2  14 32.4628 1.50161   1
  -2  -4  13 5.13925 2.05101  -2
  -2  -2  14 5.13925 2.05101   1
  -1  -4  13 52.1944 3.46732  -2
  -1  -2  14 52.1944 3.46732   1
   0  -2  14 3.46268 0.85690   1
   1  -2  14 87.4324 3.21598   1
   2  -2  14 21.5147 1.62929   1
   3  -2  14 235.295 5.80835   1
   4  -2  14 28.4909 3.10625  -2
   4  -2  14 28.4909 3.10625   1
   5  -2  14 2.52218 0.66754   1
   6  -2  14 2.21056 0.88038   1
  -5  -1  14 4.65293 0.96868   1
  -4  -1  14 7.25680 0.81805   1
  -3  -1  14 2.19363 0.62766   1
  -2  -1  14 96.6404 3.11803   1
  -1  -1  14 18.9710 1.42869   1
   0  -1  14 15.8930 1.15786   1
   1  -1  14 364.756 8.37420   1
   2  -1  14 18.5583 1.28874   1
   3  -1  14 98.9210 3.46932   1
   4  -1  14 14.6972 1.11225   1
   5  -1  14 4.22839 0.73362   1
   6  -1  14 67.5220 2.65108   1
  -5   0  14 7.60895 1.08452   1
  -4   0  14 0.22309 0.57645   1
  -3   0  14 0.08134 0.57943   1
  -2   0  14 1.10547 0.64978   1
  -1   0  14 10.3474 0.99048   1
   0   0  14 269.831 6.44747   1
   1   0  14 51.1386 2.03708   1
   2   0  14 68.9831 2.37515   1
   3   0  14 5.38450 0.79866   1
   4   0  14 115.888 3.29999   1
   5   0  14 33.5358 1.51857   1
   6   0  14 4.63074 0.89495   1
  -5   1  14 15.7655 1.39289   1
  -4   1  14 62.0596 2.19668   1
  -3   1  14 11.2077 1.05083   1
  -2   1  14 0.42901 0.59954   1
  -1   1  14 70.5305 2.39121   1
   0   1  14 316.641 7.38417   1
   1   1  14 2.51664 0.68414   1
   2   1  14 5.99366 0.75876   1
   3   1  14 29.8135 1.45375   1
   4   1  14 101.164 2.91837   1
   5   1  14 15.4443 1.43903   1
   6   1  14 7.36518 0.99726   1
   7   1  14 5.62443 1.14609   1
  -5   2  14 15.7850 1.09650   1
  -4   2  14 73.1276 2.28840   1
  -3   2  14 10.1442 1.01135   1
  -2   2  14 -0.1672 0.55843   1
  -1   2  14 18.0287 1.24547   1
   0   2  14 13.1729 1.09264   1
   1   2  14 0.78980 0.64646   1
   2   2  14 294.032 6.85178   1
   3   2  14 4.24900 0.88380   1
   4   2  14 132.061 4.01312   1
   5   2  14 4.07608 0.76523   1
   6   2  14 11.2432 1.09031   1
   7   2  14 14.1327 1.42985   1
  -5   3  14 26.5716 1.58520   1
  -5   0  13 8.89258 1.38368  -2
  -4   3  14 8.89258 1.38368   1
  -3   3  14 2.06160 0.68989   1
  -2   3  14 2.33430 0.64710   1
  -1   3  14 60.4030 2.22257   1
   0   3  14 122.031 3.41255   1
   0   2  14 11.1582 2.98066  -2
   1   3  14 11.1582 2.98066   1
   1   2  14 721.483 17.0160  -2
   2   3  14 721.483 17.0160   1
   3   3  14 43.1435 1.70533   1
   3   3  15 4.94990 2.52407  -2
   4   3  14 4.94990 2.52407   1
   4   3  15 53.1707 2.59105  -2
   5   3  14 53.1707 2.59105   1
   6   3  14 8.16578 0.99242   1
   7   3  14 5.05660 1.66592   1
  -5   1  13 47.6497 2.44072  -2
  -4   4  14 47.6497 2.44072   1
  -3   4  14 7.27811 0.94014   1
  -2   4  14 1.20521 0.61655   1
  -2   2  14 96.9607 4.28652  -2
  -1   4  14 96.9607 4.28652   1
   0   4  14 205.016 5.12534   1
   0   3  14 425.714 13.1847  -2
   1   4  14 425.714 13.1847   1
   1   3  14 117.798 4.73491  -2
   2   4  14 117.798 4.73491   1
   3   4  14 36.2817 1.90931   1
   3   4  15 5.48874 1.36159  -2
   4   4  14 5.48874 1.36159   1
   4   4  15 69.2596 3.58798  -2
   5   4  14 69.2596 3.58798   1
   6   4  14 10.5792 1.30771   1
  -5   2  13 21.1803 1.79307  -2
  -4   5  14 21.1803 1.79307   1
  -3   5  14 50.8065 2.07557   1
  -2   5  14 33.9668 1.61761   1
  -2   3  14 340.926 9.24253  -2
  -1   5  14 340.926 9.24253   1
   0   5  14 53.4897 2.23928   1
   1   5  14 174.371 4.58841   1
   2   5  14 84.6609 3.02631   1
   3   5  14 1.51132 0.89654   1
   4   5  14 2.71231 0.84114   1
   4   5  15 14.8494 4.47452  -2
   5   5  14 14.8494 4.47452   1
   6   5  14 7.71038 1.21860   1
  -4   6  14 -0.0015 0.87708   1
  -3   6  14 12.8886 1.07710   1
  -2   6  14 16.8376 1.26150   1
  -1   6  14 210.364 5.30701   1
   0   6  14 66.0850 2.40138   1
   1   6  14 75.2579 2.71773   1
   2   6  14 45.5912 2.19423   1
   3   6  14 28.4672 1.75353   1
   4   6  14 81.6891 2.94677   1
   5   6  14 1.71853 0.76227   1
   6   6  14 33.7677 2.18186   1
  -3   7  14 11.6560 1.50448   1
  -2   7  14 38.8691 1.78147   1
  -1   7  14 33.7825 1.70248   1
   0   7  14 21.9232 1.45655   1
   1   7  14 66.7460 2.53980   1
   2   7  14 11.4544 1.66615   1
   3   7  14 2.94955 0.82411   1
   4   7  14 36.9688 1.78492   1
   5   7  14 22.0416 1.77315   1
   6   7  14 50.3090 2.87871   1
  -3   8  14 50.4113 2.99921   1
  -2   8  14 30.8107 2.25710   1
  -1   8  14 0.65090 0.65409   1
   0   8  14 5.32310 0.92839   1
   1   8  14 38.2045 1.88955   1
   2   8  14 5.54149 1.02565   1
   3   8  14 30.4355 2.00420   1
   4   8  14 9.48244 1.07206   1
   5   8  14 73.8022 3.18893   1
  -2   9  14 53.4859 3.50409   1
  -1   9  14 17.4246 1.52335   1
   0   9  14 39.2197 2.21185   1
   1   9  14 4.94531 0.87985   1
   2   9  14 2.92455 0.82450   1
   3   9  14 58.1635 2.82237   1
   4   9  14 16.4096 1.25452   1
  -1  10  14 63.9716 3.56970   1
   0  10  14 29.0928 1.96200   1
   1  10  14 5.12167 1.07807   1
   0   9  15 33.1888 2.13131  -2
   2  10  14 33.1888 2.13131   1
   3  10  14 -0.9256 0.90384   1
   0  -6  15 0.22478 0.86597   1
   1  -6  15 6.64377 1.11218   1
   2  -6  15 3.40934 1.37659   1
  -2  -5  15 3.98724 0.80187   1
  -1  -5  15 1.66036 0.62775   1
   0  -5  15 26.9857 1.73728   1
   1  -6  14 47.4667 5.26885  -2
   1  -5  15 47.4667 5.26885   1
   2  -5  15 54.0109 2.43232   1
   3  -5  15 22.8539 1.63728   1
  -3  -4  15 12.0890 1.09858   1
  -2  -4  15 2.60487 0.68841   1
  -1  -4  15 0.73897 0.52195   1
   0  -4  15 44.9591 1.75182   1
   1  -5  14 43.8364 2.35450  -2
   1  -4  15 43.8364 2.35450   1
   2  -5  14 24.2027 1.68029  -2
   2  -4  15 24.2027 1.68029   1
   3  -4  15 21.3027 1.59128   1
   4  -4  15 1.12998 1.66478  -2
   4  -4  15 1.12998 1.66478   1
  -3  -3  15 2.55753 0.76365   1
  -2  -3  15 1.89214 0.65439   1
  -1  -5  14 1.37451 1.59916  -2
  -1  -3  15 1.37451 1.59916   1
   0  -3  15 56.3333 1.90777   1
   1  -4  14 0.37488 1.57415  -2
   1  -3  15 0.37488 1.57415   1
   2  -3  15 2.86690 0.78264   1
   3  -3  15 2.72040 0.77524   1
   4  -3  15 7.90585 1.83071  -2
   4  -3  15 7.90585 1.83071   1
   5  -3  15 2.12644 2.04372  -2
   5  -3  15 2.12644 2.04372   1
  -4  -5  13 22.7392 2.77165  -2
  -4  -2  15 22.7392 2.77165   1
  -3  -2  15 16.7750 1.16320   1
  -2  -2  15 39.1022 1.95369   1
  -1  -4  14 3.04326 2.30327  -2
  -1  -2  15 3.04326 2.30327   1
   0  -2  15 74.0358 3.09223   1
   1  -2  15 10.0831 1.03009   1
   2  -2  15 0.63599 0.65266   1
   3  -2  15 46.4394 2.10557   1
   4  -2  15 17.1509 1.35196   1
   5  -2  15 -0.9094 3.27209  -2
   5  -2  15 -0.9094 3.27209   1
  -4  -1  15 47.0321 1.91241   1
  -3  -1  15 25.3091 1.41268   1
  -2  -1  15 113.201 2.73768   1
  -1  -1  15 1.94162 0.70148   1
   0  -1  15 61.8773 2.29292   1
   1  -1  15 50.1585 2.12542   1
   2  -1  15 197.838 5.07171   1
   3  -1  15 29.3938 1.98950   1
   4  -1  15 1.29456 0.67114   1
   5  -1  15 11.2434 0.95298   1
   6  -1  15 1.91326 0.91855   1
  -4   0  15 33.5312 1.66259   1
  -3   0  15 1.66123 0.62456   1
  -2   0  15 24.9304 1.56435   1
  -1   0  15 12.0030 1.07667   1
   0   0  15 50.6799 2.06020   1
   1   0  15 292.184 7.02334   1
   2   0  15 117.266 4.18413   1
   3   0  15 75.2627 2.52886   1
   4   0  15 0.18279 0.61984   1
   5   0  15 8.64905 0.83840   1
   6   0  15 0.56707 0.76321   1
  -4   1  15 117.972 3.33335   1
  -3   1  15 37.9850 1.89870   1
  -2   1  15 125.306 3.60731   1
  -1   1  15 81.7939 2.70499   1
   0   1  15 2.06419 0.68226   1
   1   1  15 128.710 4.24261   1
   2   1  15 1.07927 0.74639   1
   3   1  15 5.04241 0.74761   1
   4   1  15 11.8897 1.02783   1
   5   1  15 8.12575 0.86706   1
   6   1  15 3.09202 0.85157   1
  -4   2  15 20.0774 1.34407   1
  -3   2  15 1.92458 0.72276   1
  -2   2  15 53.7332 2.22136   1
  -1   2  15 110.989 3.29077   1
   0   2  15 108.133 3.20586   1
   1   2  15 64.8752 2.38449   1
   2   2  15 169.685 4.49132   1
   3   2  15 37.0832 2.03423   1
   4   2  15 155.110 4.02289   1
   5   2  15 45.3225 1.72916   1
   6   2  15 0.55515 0.73871   1
  -5   0  14 -1.1069 1.72862  -2
  -4   3  15 -1.1069 1.72862   1
  -3   3  15 15.7958 1.23082   1
  -2   3  15 11.0345 1.08277   1
  -1   3  15 69.5075 2.42254   1
   0   3  15 30.5150 1.61701   1
   1   3  15 -0.7444 0.61375   1
   1   2  15 54.4499 2.50770  -2
   2   3  15 54.4499 2.50770   1
   3   3  15 2.29396 0.68375   1
   4   3  15 92.1015 2.72881   1
   4   3  16 99.6456 3.52576  -2
   5   3  15 99.6456 3.52576   1
   5   3  16 18.6226 3.52116  -2
   6   3  15 18.6226 3.52116   1
  -5   1  14 4.63600 1.06227  -2
  -4   4  15 4.63600 1.06227   1
  -4   1  14 56.2733 4.52948  -2
  -3   4  15 56.2733 4.52948   1
  -2   4  15 0.45052 0.57894   1
  -2   2  15 76.2611 2.60445  -2
  -1   4  15 76.2611 2.60445   1
  -1   2  15 20.8214 1.89916  -2
   0   4  15 20.8214 1.89916   1
   1   4  15 101.250 2.88289   1
   1   3  15 23.0174 2.36123  -2
   2   4  15 23.0174 2.36123   1
   3   4  15 26.5775 1.75725   1
   4   4  15 2.58693 0.78476   1
   4   4  16 49.5050 2.41441  -2
   5   4  15 49.5050 2.41441   1
   5   4  16 16.1079 3.42684  -2
   6   4  15 16.1079 3.42684   1
  -5   2  14 23.6091 2.65469  -2
  -4   5  15 23.6091 2.65469   1
  -3   5  15 19.2874 1.43114   1
  -2   5  15 17.5231 1.65040   1
  -2   3  15 96.5756 4.99031  -2
  -1   5  15 96.5756 4.99031   1
   0   5  15 1.47847 0.72492   1
   1   5  15 263.485 7.07957   1
   2   5  15 0.82877 0.75841   1
   3   5  15 24.8413 1.69613   1
   4   5  15 0.32671 0.65914   1
   4   5  16 -5.4814 4.23356  -2
   5   5  15 -5.4814 4.23356   1
   6   5  15 13.1296 1.61639   1
  -3   6  15 59.3532 2.33764   1
  -2   6  15 21.6604 1.89320   1
  -1   6  15 4.61201 0.82613   1
   0   6  15 22.4302 1.47397   1
   1   6  15 0.68758 0.68799   1
   2   6  15 14.1269 1.34195   1
   3   6  15 53.6598 2.41532   1
   4   6  15 3.36689 0.81363   1
   5   6  15 3.25983 0.95344   1
  -3   7  15 1.11469 1.12565   1
  -2   7  15 67.3978 3.27862   1
  -1   7  15 0.48932 0.60366   1
   0   7  15 91.2387 3.00038   1
   1   7  15 116.299 3.48070   1
   2   7  15 17.3701 1.51917   1
   3   7  15 104.282 4.51921   1
   4   7  15 41.4741 2.13513   1
   5   7  15 5.51292 1.04857   1
  -2   8  15 8.77543 1.44849   1
  -1   8  15 0.68042 1.16969   1
   0   8  15 9.64002 1.08290   1
   1   8  15 50.8926 2.22035   1
   2   8  15 4.85811 1.07727   1
   3   8  15 1.78297 0.92742   1
   4   8  15 116.327 3.47999   1
  -1   9  15 5.81458 0.96169   1
   0   9  15 95.8229 4.01032   1
   1   9  15 138.955 4.10418   1
   2   9  15 -0.0112 0.82507   1
   3   9  15 6.58286 1.19008   1
   0  -5  16 3.80798 1.01763   1
   1  -5  16 8.32890 1.42454   1
   2  -5  16 6.52452 1.94259   1
  -1  -4  16 8.01503 0.84577   1
   0  -4  16 24.4127 1.36171   1
   1  -5  15 10.6689 1.34492  -2
   1  -4  16 10.6689 1.34492   1
   2  -5  15 13.9076 1.79594  -2
   2  -4  16 13.9076 1.79594   1
   3  -4  16 1.48434 0.78657   1
  -2  -3  16 4.63064 0.78755   1
  -1  -5  15 55.8712 3.17131  -2
  -1  -3  16 55.8712 3.17131   1
   0  -3  16 1.89884 0.63260   1
   1  -3  16 7.18412 0.99349   1
   2  -3  16 13.4731 1.31240   1
   3  -3  16 0.14709 0.71486   1
   4  -3  16 46.3403 3.93324  -2
   4  -3  16 46.3403 3.93324   1
  -3  -2  16 40.7279 1.86715   1
  -2  -2  16 24.6223 1.44860   1
  -1  -4  15 26.0993 3.30377  -2
  -1  -2  16 26.0993 3.30377   1
   0  -2  16 7.96105 0.98046   1
   1  -2  16 12.3144 1.13660   1
   2  -2  16 3.49552 0.78484   1
   3  -2  16 0.20013 0.71469   1
   4  -2  16 80.0840 2.81740   1
  -3  -1  16 0.97907 0.71456   1
  -2  -1  16 13.1721 0.95609   1
  -1  -1  16 38.9223 2.02809   1
   0  -1  16 1.51524 0.69615   1
   1  -1  16 1.85000 0.69879   1
   2  -1  16 26.0434 1.56773   1
   3  -1  16 55.3343 2.25478   1
   4  -1  16 3.59847 0.80871   1
   5  -1  16 2.77276 0.70873   1
  -3   0  16 14.3900 1.13933   1
  -2   0  16 36.9205 1.89942   1
  -1   0  16 37.3597 1.90911   1
   0   0  16 5.99704 0.86990   1
   1   0  16 2.60240 0.75333   1
   2   0  16 25.2646 1.57904   1
   3   0  16 18.8680 1.30497   1
   4   0  16 -0.5927 0.69198   1
   5   0  16 2.53196 0.68780   1
  -3   1  16 52.9671 2.34055   1
  -2   1  16 1.09495 0.69363   1
  -1   1  16 108.153 3.36726   1
   0   1  16 1.50071 0.67072   1
   1   1  16 4.24637 0.89192   1
   2   1  16 3.46025 0.77256   1
   3   1  16 27.4596 1.53366   1
   4   1  16 57.6887 2.19516   1
   5   1  16 7.07186 0.85132   1
  -3   2  16 7.77417 1.01786   1
  -2   2  16 92.4814 3.01042   1
  -1   2  16 4.45182 0.79414   1
   0   2  16 44.2202 1.94928   1
   1   2  16 2.75119 0.70443   1
   1   1  16 66.7474 5.17723  -2
   2   2  16 66.7474 5.17723   1
   3   2  16 74.0206 3.11593   1
   4   2  16 44.5283 1.94463   1
   4   2  17 60.9588 3.46732  -2
   5   2  16 60.9588 3.46732   1
  -4   0  15 10.6011 1.89638  -2
  -3   3  16 10.6011 1.89638   1
  -2   3  16 120.114 3.54244   1
  -1   3  16 67.4037 2.44531   1
   0   3  16 37.3378 1.84803   1
   1   3  16 234.357 5.83523   1
   1   2  16 20.6174 1.91737  -2
   2   3  16 20.6174 1.91737   1
   2   2  16 121.018 7.39852  -2
   3   3  16 121.018 7.39852   1
   4   3  16 21.4878 1.31644   1
   4   3  17 39.0535 2.05857  -2
   5   3  16 39.0535 2.05857   1
  -4   1  15 79.9792 3.80701  -2
  -3   4  16 79.9792 3.80701   1
  -2   4  16 2.54186 0.74881   1
  -2   2  16 16.6279 1.70526  -2
  -1   4  16 16.6279 1.70526   1
  -1   2  16 238.638 5.99023  -2
   0   4  16 238.638 5.99023   1
   1   4  16 109.661 3.30829   1
   1   3  16 100.781 6.30125  -2
   2   4  16 100.781 6.30125   1
   3   4  16 102.552 3.75227   1
   4   4  16 68.9058 2.77772   1
   4   4  17 11.1435 1.56342  -2
   5   4  16 11.1435 1.56342   1
  -3   5  16 35.1241 1.93464   1
  -2   5  16 0.20679 0.62068   1
  -1   5  16 12.5941 1.13133   1
   0   5  16 38.9662 1.86601   1
   1   5  16 59.8558 2.31503   1
   2   5  16 63.0296 2.69137   1
   3   5  16 1.08448 0.78552   1
   4   5  16 3.79030 0.88132   1
   5   5  16 0.75765 0.85356   1
  -2   6  16 0.41413 0.66722   1
  -1   6  16 5.75997 0.86297   1
   0   6  16 35.4010 1.81975   1
   1   6  16 4.47614 0.89828   1
   2   6  16 11.5466 1.26615   1
   3   6  16 87.7637 3.30011   1
   4   6  16 2.04664 0.77428   1
   5   6  16 2.71410 1.05468   1
  -2   7  16 32.3126 2.90027   1
  -1   7  16 22.0918 1.48475   1
   0   7  16 56.6361 2.32680   1
   1   7  16 16.7403 1.31781   1
   2   7  16 7.59699 1.17178   1
   3   7  16 69.2969 2.97357   1
   4   7  16 2.14501 0.86870   1
  -1   8  16 13.2333 1.33988   1
   0   8  16 19.7152 1.80579   1
   1   8  16 5.50877 0.90437   1
   2   8  16 152.666 4.90559   1
   3   8  16 1.20683 0.91174   1
   1   9  16 19.3435 3.23656   1
  -1  -3  17 5.13797 0.94652   1
   0  -5  16 47.8598 2.84800  -2
   0  -3  17 47.8598 2.84800   1
   1  -3  17 -0.0579 0.72927   1
   2  -3  17 24.4357 1.70947   1
  -1  -2  17 19.8457 1.31200   1
   0  -2  17 81.0293 2.96206   1
   1  -2  17 20.8695 1.52036   1
   2  -2  17 3.90644 0.89799   1
   3  -2  17 4.01306 0.88830   1
  -2  -1  17 3.10376 0.76783   1
  -1  -1  17 76.5752 2.88990   1
   0  -1  17 7.19906 0.99842   1
   1  -1  17 4.00170 0.83413   1
   2  -1  17 2.65928 0.80129   1
   3  -1  17 3.57055 0.85362   1
   4  -1  17 6.64007 0.97967   1
  -2   0  17 0.84491 0.65346   1
  -1   0  17 128.568 3.89137   1
   0   0  17 25.6554 1.70754   1
   1   0  17 8.52865 1.00967   1
   2   0  17 0.11544 0.74576   1
   3   0  17 13.7738 1.17191   1
   4   0  17 9.29364 1.21516   1
  -2   1  17 1.46670 0.80420   1
  -1   1  17 1.81766 0.77193   1
   0   1  17 8.26529 1.02955   1
   1   1  17 13.6796 1.21437   1
   2   1  17 8.72985 1.00251   1
   3   1  17 36.9363 1.83876   1
   4   1  17 44.4051 2.01363   1
  -2   2  17 4.92463 0.90130   1
  -1   2  17 61.8300 2.46815   1
   0   2  17 9.00249 1.31208   1
   1   2  17 10.9828 1.11072   1
   1   1  17 1.60202 2.78052  -2
   2   2  17 1.60202 2.78052   1
   3   2  17 38.3988 1.86132   1
   4   2  17 13.4440 1.14436   1
   5   2  17 -0.5993 0.69727   1
  -2   3  17 1.44080 0.79955   1
  -2   1  16 27.5872 4.04501  -2
  -1   3  17 27.5872 4.04501   1
  -1   1  17 1.17755 2.16273  -2
   0   3  17 1.17755 2.16273   1
   1   3  17 12.9312 1.15094   1
   1   2  17 33.4137 2.26422  -2
   2   3  17 33.4137 2.26422   1
   2   2  17 46.6521 2.63832  -2
   3   3  17 46.6521 2.63832   1
   4   3  17 4.84545 1.01323   1
   5   3  17 2.81537 0.88803   1
  -2   4  17 43.8774 2.09817   1
  -1   4  17 0.24035 0.64195   1
  -1   2  17 9.50342 1.56923  -2
   0   4  17 9.50342 1.56923   1
   1   4  17 3.69429 0.79041   1
   2   4  17 1.19426 0.63569   1
   2   3  18 44.3309 4.77820  -2
   3   4  17 44.3309 4.77820   1
   4   4  17 1.65669 0.89474   1
  -2   5  17 61.2574 3.87365   1
  -1   5  17 0.42956 0.62439   1
  -1   3  17 17.7309 3.67307  -2
   0   5  17 17.7309 3.67307   1
   1   5  17 13.2352 1.13945   1
   2   5  17 6.48627 1.07526   1
   3   5  17 22.1524 1.73200   1
   4   5  17 3.17768 0.92405   1
  -1   6  17 1.45005 0.69164   1
   0   6  17 13.2374 1.42518   1
   1   6  17 0.09963 0.61412   1
   2   6  17 7.30861 1.14132   1
   3   6  17 49.6069 2.49634   1
   4   6  17 20.1134 1.55738   1
   0   7  17 10.5213 1.13656   1
   1   7  17 5.34964 0.89253   1
   2   7  17 27.1351 1.98046   1
   3   7  17 2.82611 1.02390   1
   0  -1  18 0.70980 1.00192   1
   1  -1  18 0.53169 0.71437   1
   2  -1  18 1.47201 0.85574   1
  -1   0  18 20.2565 1.76156   1
   0   0  18 1.54372 0.79585   1
   1   0  18 5.49781 1.00260   1
   2   0  18 13.1605 1.21831   1
   3   0  18 0.86963 0.78552   1
  -1   1  18 1.71370 0.76613   1
   0   1  18 1.26099 0.76618   1
   1   1  18 118.881 3.69955   1
   2   1  18 11.7616 1.15822   1
   3   1  18 3.75277 1.00233   1
  -1   2  18 72.1120 3.16525   1
   0   2  18 2.07911 0.88228   1
   1   2  18 122.136 3.75109   1
   1   1  18 43.4004 3.09401  -2
   2   2  18 43.4004 3.09401   1
   2   1  18 -0.9071 1.63968  -2
   3   2  18 -0.9071 1.63968   1
  -1   3  18 53.1867 2.67110   1
  -1   1  18 9.21747 2.94699  -2
   0   3  18 9.21747 2.94699   1
   0   1  18 47.0942 4.83460  -2
   1   3  18 47.0942 4.83460   1
   1   2  18 30.2930 2.59126  -2
   2   3  18 30.2930 2.59126   1
   2   2  18 3.55046 1.54194  -2
   3   3  18 3.55046 1.54194   1
  -1   4  18 6.74506 1.11299   1
  -1   2  18 37.8723 2.78284  -2
   0   4  18 37.8723 2.78284   1
   1   4  18 -0.2238 0.74431   1
   2   4  18 6.49243 1.11028   1
   3   4  18 1.37004 0.79060   1
   0   5  18 2.10422 0.81161   1
   1   5  18 0.75266 0.68216   1
   2   5  18 13.2130 1.41270   1
   3   5  18 2.57345 0.92982   1
   1   6  18 4.40438 1.09477   1
   2   6  18 5.24949 1.93865   1
   0   0   0    0.00    0.00   0
;
_shelx_hkl_checksum              23447
_shelx_res_file
;
TITL mo_0329_cg_0m_4_a.res in P-1
    mo_0329_cg_0m_4.res
    created by SHELXL-2016/6 at 14:30:34 on 08-Aug-2019
REM Old TITL mo_0329_CG_0m_4 in P-1
REM SHELXT solution in P-1
REM R1 0.145, Rweak 0.006, Alpha 0.043, Orientation as input
REM Formula found by SHELXT: C15 N2 S5
CELL 0.71073 6.4976 9.5593 13.1962 80.576 82.312 86.288
ZERR 2 0.0005 0.0012 0.0011 0.005 0.003 0.005
LATT 1
SFAC C H N S
UNIT 30 16 4 10
EQIV $1 -1+X,+Y,+Z
EQIV $2 +X,1+Y,+Z
EQIV $3 1+X,+Y,+Z
L.S. 5 0 0
PLAN  2
SIZE 0.28 0.35 0.442
TEMP 25.5
HTAB C6 N1_$1
HTAB C12 S3_$2
HTAB C15 N2_$3
CONF
BOND $H
list 4
fmap 2 53
acta
REM <olex2.extras>
REM <HklSrc "%.\\mo_0329_CG_0m_5.hkl">
REM </olex2.extras>
WGHT    0.045200    0.225800
BASF   0.12115
FVAR       1.41022
S1    4    0.280335    0.517334    0.342424    11.00000    0.04708    0.06001 =
         0.04920   -0.00160   -0.00451    0.00577
S2    4    0.699526    0.630010    0.250247    11.00000    0.06637    0.05634 =
         0.04205   -0.01342   -0.00072   -0.02084
S3    4    0.611814    0.424292    0.111319    11.00000    0.05730    0.04567 =
         0.05492   -0.01626   -0.00458   -0.00929
S4    4    0.858684    0.665597    0.026635    11.00000    0.06355    0.05292 =
         0.04214   -0.01137    0.00143   -0.01454
S5    4    1.228281    0.781276    0.098880    11.00000    0.04644    0.05066 =
         0.06466   -0.01861   -0.00631    0.00660
N1    3    0.629506    0.394438    0.390548    11.00000    0.04114    0.05554 =
         0.04540   -0.00848   -0.00606   -0.00491
N2    3    0.859854    0.903835    0.113086    11.00000    0.04136    0.04117 =
         0.04998   -0.00315   -0.00319   -0.00369
C1    1    0.269002    0.366282    0.434436    11.00000    0.04135    0.05334 =
         0.03683   -0.01036   -0.00337   -0.00007
C2    1    0.471572    0.315139    0.450023    11.00000    0.04025    0.05116 =
         0.03984   -0.01072   -0.00505   -0.00290
C3    1    0.501540    0.193119    0.521215    11.00000    0.04980    0.05972 =
         0.05682   -0.00097   -0.01067    0.00009
AFIX  43
H3    2    0.634842    0.158220    0.532571    11.00000   -1.20000
AFIX   0
C4    1    0.329987    0.125479    0.574263    11.00000    0.06738    0.06085 =
         0.05150    0.00352   -0.00689   -0.00917
AFIX  43
H4    2    0.348063    0.043560    0.621611    11.00000   -1.20000
AFIX   0
C5    1    0.129992    0.177065    0.558562    11.00000    0.05648    0.07742 =
         0.04856   -0.00478    0.00336   -0.01693
AFIX  43
H5    2    0.016856    0.129419    0.596057    11.00000   -1.20000
AFIX   0
C6    1    0.095926    0.297001    0.488794    11.00000    0.04115    0.07731 =
         0.04792   -0.00815   -0.00051   -0.00534
AFIX  43
H6    2   -0.038178    0.330852    0.478180    11.00000   -1.20000
AFIX   0
C7    1    0.549731    0.499643    0.332050    11.00000    0.04592    0.05181 =
         0.03963   -0.01163   -0.00329   -0.00646
C8    1    0.717594    0.564065    0.132112    11.00000    0.03986    0.03923 =
         0.04143   -0.00861   -0.00501    0.00041
C9    1    0.966296    0.795986    0.082131    11.00000    0.04609    0.04121 =
         0.04326   -0.00311   -0.00194   -0.00568
C10   1    1.193036    0.933424    0.155476    11.00000    0.04187    0.04501 =
         0.04840   -0.00889   -0.00285   -0.00045
C11   1    0.985601    0.983360    0.156077    11.00000    0.04077    0.03591 =
         0.04001   -0.00035    0.00030   -0.00270
C12   1    0.919925    1.105806    0.199211    11.00000    0.04855    0.03959 =
         0.05585   -0.00519    0.00209    0.00052
AFIX  43
H12   2    0.782958    1.140853    0.199684    11.00000   -1.20000
AFIX   0
C13   1    1.061110    1.173011    0.240693    11.00000    0.06635    0.04570 =
         0.06157   -0.01408    0.00188   -0.00685
AFIX  43
H13   2    1.018665    1.253812    0.270076    11.00000   -1.20000
AFIX   0
C14   1    1.266673    1.122318    0.239537    11.00000    0.06143    0.06429 =
         0.07280   -0.02356   -0.00898   -0.01373
AFIX  43
H14   2    1.359240    1.169973    0.268185    11.00000   -1.20000
AFIX   0
C15   1    1.336235    1.002956    0.196848    11.00000    0.04485    0.06798 =
         0.07919   -0.02423   -0.01094   -0.00158
AFIX  43
H15   2    1.474206    0.969922    0.195698    11.00000   -1.20000
AFIX   0
HKLF 5
REM  mo_0329_cg_0m_4_a.res in P-1
REM R1 =  0.0358 for    4296 Fo > 4sig(Fo)  and  0.0412 for all    4846 data
REM    200 parameters refined using      0 restraints
END
WGHT      0.0452      0.2258
REM Highest difference peak  0.447,  deepest hole -0.426,  1-sigma level  0.044
Q1    1   0.7820  0.5740  0.2431  11.00000  0.05    0.45
Q2    1   0.9377  0.6243  0.0617  11.00000  0.05    0.35
;
_shelx_res_checksum              54882
loop_
_space_group_symop_operation_xyz
'x, y, z'
'-x, -y, -z'
loop_
_atom_site_type_symbol
_atom_site_label
_atom_site_fract_x
_atom_site_fract_y
_atom_site_fract_z
_atom_site_U_iso_or_equiv
_atom_site_adp_type
_atom_site_calc_flag
_atom_site_occupancy
_atom_site_disorder_assembly
_atom_site_disorder_group
S S1 0.28033(7) 0.51733(5) 0.34242(3) 0.05338(11) Uani d 1 . .
S S2 0.69953(8) 0.63001(5) 0.25025(3) 0.05403(12) Uani d 1 . .
S S3 0.61181(7) 0.42429(4) 0.11132(3) 0.05159(11) Uani d 1 . .
S S4 0.85868(7) 0.66560(5) 0.02663(3) 0.05264(11) Uani d 1 . .
S S5 1.22828(7) 0.78128(5) 0.09888(4) 0.05328(11) Uani d 1 . .
N N1 0.6295(2) 0.39444(15) 0.39055(10) 0.0471(3) Uani d 1 . .
N N2 0.8599(2) 0.90383(14) 0.11309(11) 0.0448(3) Uani d 1 . .
C C1 0.2690(2) 0.36628(18) 0.43444(11) 0.0437(3) Uani d 1 . .
C C2 0.4716(2) 0.31514(17) 0.45002(11) 0.0433(3) Uani d 1 . .
C C3 0.5015(3) 0.1931(2) 0.52121(15) 0.0561(4) Uani d 1 . .
H H3 0.634842 0.158220 0.532571 0.067 Uiso calc 1 . .
C C4 0.3300(3) 0.1255(2) 0.57426(15) 0.0611(4) Uani d 1 . .
H H4 0.348063 0.043560 0.621611 0.073 Uiso calc 1 . .
C C5 0.1300(3) 0.1771(2) 0.55856(14) 0.0617(5) Uani d 1 . .
H H5 0.016856 0.129419 0.596057 0.074 Uiso calc 1 . .
C C6 0.0959(3) 0.2970(2) 0.48879(14) 0.0560(4) Uani d 1 . .
H H6 -0.038178 0.330852 0.478180 0.067 Uiso calc 1 . .
C C7 0.5497(2) 0.49964(18) 0.33205(12) 0.0453(3) Uani d 1 . .
C C8 0.7176(2) 0.56406(15) 0.13211(11) 0.0400(3) Uani d 1 . .
C C9 0.9663(2) 0.79599(16) 0.08213(12) 0.0441(3) Uani d 1 . .
C C10 1.1930(2) 0.93342(17) 0.15548(12) 0.0452(3) Uani d 1 . .
C C11 0.9856(2) 0.98336(15) 0.15608(11) 0.0400(3) Uani d 1 . .
C C12 0.9199(3) 1.10581(17) 0.19921(13) 0.0492(3) Uani d 1 . .
H H12 0.782958 1.140853 0.199684 0.059 Uiso calc 1 . .
C C13 1.0611(3) 1.17301(19) 0.24069(15) 0.0579(4) Uani d 1 . .
H H13 1.018665 1.253812 0.270076 0.070 Uiso calc 1 . .
C C14 1.2667(3) 1.1223(2) 0.23954(17) 0.0642(5) Uani d 1 . .
H H14 1.359240 1.169973 0.268185 0.077 Uiso calc 1 . .
C C15 1.3362(3) 1.0030(2) 0.19685(17) 0.0623(5) Uani d 1 . .
H H15 1.474206 0.969922 0.195698 0.075 Uiso calc 1 . .
loop_
_atom_site_aniso_label
_atom_site_aniso_U_11
_atom_site_aniso_U_22
_atom_site_aniso_U_33
_atom_site_aniso_U_12
_atom_site_aniso_U_13
_atom_site_aniso_U_23
S1 0.0471(2) 0.0600(3) 0.0492(2) 0.00577(17) -0.00451(16) -0.00160(17)
S2 0.0664(3) 0.0563(2) 0.04205(19) -0.02084(19) -0.00072(17) -0.01342(17)
S3 0.0573(2) 0.0457(2) 0.0549(2) -0.00929(17) -0.00458(17) -0.01626(17)
S4 0.0636(3) 0.0529(2) 0.04214(19) -0.01454(18) 0.00143(17) -0.01137(16)
S5 0.0464(2) 0.0507(2) 0.0647(3) 0.00660(16) -0.00631(18) -0.01861(19)
N1 0.0411(6) 0.0555(8) 0.0454(7) -0.0049(5) -0.0061(5) -0.0085(6)
N2 0.0414(6) 0.0412(6) 0.0500(7) -0.0037(5) -0.0032(5) -0.0031(5)
C1 0.0414(7) 0.0533(8) 0.0368(6) -0.0001(6) -0.0034(5) -0.0104(6)
C2 0.0403(7) 0.0512(8) 0.0398(7) -0.0029(6) -0.0050(5) -0.0107(6)
C3 0.0498(9) 0.0597(10) 0.0568(9) 0.0001(7) -0.0107(7) -0.0010(8)
C4 0.0674(11) 0.0609(11) 0.0515(9) -0.0092(9) -0.0069(8) 0.0035(8)
C5 0.0565(10) 0.0774(13) 0.0486(9) -0.0169(9) 0.0034(7) -0.0048(8)
C6 0.0412(8) 0.0773(12) 0.0479(8) -0.0053(7) -0.0005(6) -0.0082(8)
C7 0.0459(7) 0.0518(8) 0.0396(7) -0.0065(6) -0.0033(6) -0.0116(6)
C8 0.0399(6) 0.0392(7) 0.0414(7) 0.0004(5) -0.0050(5) -0.0086(5)
C9 0.0461(7) 0.0412(7) 0.0433(7) -0.0057(6) -0.0019(6) -0.0031(6)
C10 0.0419(7) 0.0450(8) 0.0484(8) -0.0005(6) -0.0028(6) -0.0089(6)
C11 0.0408(7) 0.0359(6) 0.0400(6) -0.0027(5) 0.0003(5) -0.0003(5)
C12 0.0485(8) 0.0396(7) 0.0558(9) 0.0005(6) 0.0021(7) -0.0052(6)
C13 0.0664(11) 0.0457(8) 0.0616(10) -0.0068(8) 0.0019(8) -0.0141(7)
C14 0.0614(11) 0.0643(11) 0.0728(12) -0.0137(9) -0.0090(9) -0.0236(9)
C15 0.0449(9) 0.0680(12) 0.0792(13) -0.0016(8) -0.0109(8) -0.0242(10)
loop_
_atom_type_symbol
_atom_type_description
_atom_type_scat_dispersion_real
_atom_type_scat_dispersion_imag
_atom_type_scat_source
C C 0.0033 0.0016 'International Tables Vol C Tables 4.2.6.8 and 6.1.1.4'
H H 0.0000 0.0000 'International Tables Vol C Tables 4.2.6.8 and 6.1.1.4'
N N 0.0061 0.0033 'International Tables Vol C Tables 4.2.6.8 and 6.1.1.4'
S S 0.1246 0.1234 'International Tables Vol C Tables 4.2.6.8 and 6.1.1.4'
loop_
_geom_angle_atom_site_label_1
_geom_angle_atom_site_label_2
_geom_angle_atom_site_label_3
_geom_angle_site_symmetry_1
_geom_angle_site_symmetry_3
_geom_angle
_geom_angle_publ_flag
C1 S1 C7 . . 88.65(8) ?
C7 S2 C8 . . 100.30(7) ?
C8 S4 C9 . . 103.88(7) ?
C10 S5 C9 . . 88.70(7) ?
C7 N1 C2 . . 109.59(13) ?
C9 N2 C11 . . 109.89(13) ?
C2 C1 S1 . . 109.38(12) ?
C6 C1 S1 . . 129.40(13) ?
C6 C1 C2 . . 121.22(16) ?
N1 C2 C1 . . 115.14(14) ?
N1 C2 C3 . . 125.11(15) ?
C3 C2 C1 . . 119.75(15) ?
C2 C3 H3 . . 120.7 ?
C4 C3 C2 . . 118.58(17) ?
C4 C3 H3 . . 120.7 ?
C3 C4 H4 . . 119.4 ?
C3 C4 C5 . . 121.28(18) ?
C5 C4 H4 . . 119.4 ?
C4 C5 H5 . . 119.3 ?
C6 C5 C4 . . 121.36(17) ?
C6 C5 H5 . . 119.3 ?
C1 C6 H6 . . 121.1 ?
C5 C6 C1 . . 117.80(16) ?
C5 C6 H6 . . 121.1 ?
S1 C7 S2 . . 119.43(10) ?
N1 C7 S1 . . 117.24(12) ?
N1 C7 S2 . . 123.20(12) ?
S3 C8 S2 . . 126.96(9) ?
S3 C8 S4 . . 117.64(9) ?
S4 C8 S2 . . 115.36(8) ?
S5 C9 S4 . . 119.69(9) ?
N2 C9 S4 . . 123.63(12) ?
N2 C9 S5 . . 116.68(12) ?
C11 C10 S5 . . 109.30(11) ?
C15 C10 S5 . . 129.31(13) ?
C15 C10 C11 . . 121.39(15) ?
N2 C11 C10 . . 115.42(13) ?
N2 C11 C12 . . 125.09(14) ?
C10 C11 C12 . . 119.49(15) ?
C11 C12 H12 . . 120.6 ?
C13 C12 C11 . . 118.85(16) ?
C13 C12 H12 . . 120.6 ?
C12 C13 H13 . . 119.5 ?
C12 C13 C14 . . 121.06(17) ?
C14 C13 H13 . . 119.5 ?
C13 C14 H14 . . 119.3 ?
C15 C14 C13 . . 121.41(18) ?
C15 C14 H14 . . 119.3 ?
C10 C15 H15 . . 121.1 ?
C14 C15 C10 . . 117.79(17) ?
C14 C15 H15 . . 121.1 ?
loop_
_geom_bond_atom_site_label_1
_geom_bond_atom_site_label_2
_geom_bond_site_symmetry_2
_geom_bond_distance
_geom_bond_publ_flag
S1 C1 . 1.7264(17) ?
S1 C7 . 1.7368(16) ?
S2 C7 . 1.7610(16) ?
S2 C8 . 1.7620(15) ?
S3 C8 . 1.6194(15) ?
S4 C8 . 1.7468(15) ?
S4 C9 . 1.7685(16) ?
S5 C9 . 1.7395(16) ?
S5 C10 . 1.7299(16) ?
N1 C2 . 1.391(2) ?
N1 C7 . 1.289(2) ?
N2 C9 . 1.295(2) ?
N2 C11 . 1.383(2) ?
C1 C2 . 1.404(2) ?
C1 C6 . 1.394(2) ?
C2 C3 . 1.393(2) ?
C3 H3 . 0.9300 ?
C3 C4 . 1.374(3) ?
C4 H4 . 0.9300 ?
C4 C5 . 1.389(3) ?
C5 H5 . 0.9300 ?
C5 C6 . 1.374(3) ?
C6 H6 . 0.9300 ?
C10 C11 . 1.400(2) ?
C10 C15 . 1.393(2) ?
C11 C12 . 1.402(2) ?
C12 H12 . 0.9300 ?
C12 C13 . 1.371(3) ?
C13 H13 . 0.9300 ?
C13 C14 . 1.390(3) ?
C14 H14 . 0.9300 ?
C14 C15 . 1.378(3) ?
C15 H15 . 0.9300 ?
loop_
_geom_hbond_atom_site_label_D
_geom_hbond_atom_site_label_H
_geom_hbond_atom_site_label_A
_geom_hbond_site_symmetry_A
_geom_hbond_distance_DH
_geom_hbond_distance_HA
_geom_hbond_distance_DA
_geom_hbond_angle_DHA
C6 H6 N1 1_455 0.93 2.58 3.467(2) 161
C15 H15 N2 1_655 0.93 2.68 3.552(2) 157
loop_
_geom_torsion_atom_site_label_1
_geom_torsion_atom_site_label_2
_geom_torsion_atom_site_label_3
_geom_torsion_atom_site_label_4
_geom_torsion_site_symmetry_1
_geom_torsion_site_symmetry_2
_geom_torsion_site_symmetry_3
_geom_torsion_site_symmetry_4
_geom_torsion
_geom_torsion_publ_flag
S1 C1 C2 N1 . . . . 0.14(17) ?
S1 C1 C2 C3 . . . . -179.90(13) ?
S1 C1 C6 C5 . . . . 179.91(14) ?
S5 C10 C11 N2 . . . . -0.09(16) ?
S5 C10 C11 C12 . . . . 179.50(12) ?
S5 C10 C15 C14 . . . . -178.84(16) ?
N1 C2 C3 C4 . . . . -179.78(17) ?
N2 C11 C12 C13 . . . . 178.98(15) ?
C1 S1 C7 S2 . . . . -176.51(10) ?
C1 S1 C7 N1 . . . . -0.69(13) ?
C1 C2 C3 C4 . . . . 0.3(3) ?
C2 N1 C7 S1 . . . . 0.87(17) ?
C2 N1 C7 S2 . . . . 176.52(11) ?
C2 C1 C6 C5 . . . . 0.2(3) ?
C2 C3 C4 C5 . . . . -0.5(3) ?
C3 C4 C5 C6 . . . . 0.5(3) ?
C4 C5 C6 C1 . . . . -0.4(3) ?
C6 C1 C2 N1 . . . . 179.88(15) ?
C6 C1 C2 C3 . . . . -0.2(2) ?
C7 S1 C1 C2 . . . . 0.26(12) ?
C7 S1 C1 C6 . . . . -179.44(17) ?
C7 S2 C8 S3 . . . . 2.17(13) ?
C7 S2 C8 S4 . . . . 179.97(9) ?
C7 N1 C2 C1 . . . . -0.64(19) ?
C7 N1 C2 C3 . . . . 179.42(16) ?
C8 S2 C7 S1 . . . . -87.25(10) ?
C8 S2 C7 N1 . . . . 97.19(14) ?
C8 S4 C9 S5 . . . . 104.26(10) ?
C8 S4 C9 N2 . . . . -74.91(15) ?
C9 S4 C8 S2 . . . . 7.06(11) ?
C9 S4 C8 S3 . . . . -174.93(9) ?
C9 S5 C10 C11 . . . . -0.52(12) ?
C9 S5 C10 C15 . . . . 178.99(19) ?
C9 N2 C11 C10 . . . . 0.89(18) ?
C9 N2 C11 C12 . . . . -178.67(15) ?
C10 S5 C9 S4 . . . . -178.11(10) ?
C10 S5 C9 N2 . . . . 1.12(13) ?
C10 C11 C12 C13 . . . . -0.6(2) ?
C11 N2 C9 S4 . . . . 177.86(11) ?
C11 N2 C9 S5 . . . . -1.34(17) ?
C11 C10 C15 C14 . . . . 0.6(3) ?
C11 C12 C13 C14 . . . . 0.6(3) ?
C12 C13 C14 C15 . . . . 0.0(3) ?
C13 C14 C15 C10 . . . . -0.6(3) ?
C15 C10 C11 N2 . . . . -179.64(16) ?
C15 C10 C11 C12 . . . . 0.0(2) ?

_cod_database_fobs_code 2243448
